data_PCOD9361152
_publ_section_title
;
Structure prediction by ZEFSAII (Michael W. Deem and Ramdas Pophale) SiO2 
 PCOD9361152
Probable space group: A B M 2
;
_chemical_formula_sum "Si O2"
_cell_formula_units_Z 48
_cell_length_a 4.938729
_cell_length_b 28.007460
_cell_length_c 13.201998
_cell_angle_alpha 90.000000
_cell_angle_beta 90.000000
_cell_angle_gamma 90.000000
_cell_volume 1826.116931
_symmetry_space_group_name_H-M "A B M 2"
_symmetry_group_IT_number 39
_symmetry_cell_setting 'orthorhombic'
loop_
_space_group_symop_operation_xyz
x,y,z
-x,-y,z
-x,1/2+y,z
x,1/2-y,z
x,1/2+y,1/2+z
-x,1/2-y,1/2+z
-x,y,1/2+z
x,-y,1/2+z
loop_
_atom_site_type_symbol
_atom_site_label
_atom_site_fract_x
_atom_site_fract_y
_atom_site_fract_z
Si Si1 0.336912 0.750000 0.555930
Si Si2 0.898641 0.659886 0.285249
Si Si3 0.000000 0.500000 0.062229
Si Si4 0.636709 0.599641 0.869346
Si Si5 0.500000 0.000000 0.411727
Si Si6 0.298691 0.168214 0.470293
Si Si7 0.168143 0.750000 0.179036
Si Si8 0.110700 0.394519 0.092756
O O1 0.469273 0.796736 0.504698
O O2 0.018558 0.750000 0.576180
O O3 0.508650 0.750000 0.662473
O O4 0.110325 0.616540 0.308468
O O5 0.916395 0.690810 0.395830
O O6 0.072570 0.701305 0.226809
O O7 0.755458 0.636258 0.181315
O O8 0.051166 0.450055 0.119311
O O9 0.248880 0.509527 0.985843
O O10 0.548506 0.546698 0.845920
O O11 0.392474 0.637760 0.866057
O O12 0.706985 0.601516 0.990013
O O13 0.154926 0.133597 0.549762
#
# Coordination Sequence:
#
# PCOD9361152 Si02
#       8
#     4   8   4   8   4   8   4   8
#     4  12  27  45  76  97 138 190 242 286 369 436
#     4  11  25  43  68 106 143 183 244 306 364 434
#     4  10  20  40  70  96 136 188 232 288 350 436
#     4  10  23  41  71  96 144 184 238 296 357 436
#     4  10  20  42  68  98 134 190 230 282 362 418
#     4  11  23  43  68  99 135 192 229 299 355 439
#     4  12  27  47  72 103 140 190 230 302 361 436
#     4  10  21  43  64  97 139 185 235 288 361 427
#
# _framework density 26.285281999999999
#
# number of rings (size 3 to 8) (size 9 to 14) (size 15 to 20)
#    0.000    1.333    3.333    1.500    4.667    2.000 
#    3.000    0.000    0.000    0.000    0.000    0.000 
#    0.000    0.000    0.000    0.000    0.000    0.000 
#
# Total GULP energy -133883.788244 kJ/mol
# GULP energy per Si atom -5578.491177 kJ/mol
# Density = 2.622546 g / cm^3
# Si number density = 26.285282 Si / 1000 Ang^3
#
#
#
# Elastic Constant Matrix: (Units=GPa)
#
#
# Indices 1 2 3 4 5 6 
#
# 1 106.7021 3.5603 9.6599 0.0000 0.0000 0.0000
# 2 3.5603 84.4590 21.8442 0.0000 0.0000 0.0000
# 3 9.6599 21.8442 105.3735 0.0000 0.0000 0.0000
# 4 0.0000 0.0000 0.0000 36.7161 0.0000 0.0000
# 5 0.0000 0.0000 0.0000 0.0000 7.8701 0.0000
# 6 0.0000 0.0000 0.0000 0.0000 0.0000 -52.9460
#
#
#
# Elastic Compliance Matrix: (Units=1/GPa)
#
#
# Indices 1 2 3 4 5 6 
#
# 1 0.009453 -0.000184 -0.000828 0.000000 0.000000 0.000000
# 2 -0.000184 0.012514 -0.002577 0.000000 0.000000 0.000000
# 3 -0.000828 -0.002577 0.010100 0.000000 0.000000 0.000000
# 4 0.000000 0.000000 0.000000 0.027236 0.000000 0.000000
# 5 0.000000 0.000000 0.000000 0.000000 0.127064 0.000000
# 6 0.000000 0.000000 0.000000 0.000000 0.000000 -0.018887
#
#
# Mechanical properties :
#
#
# Convention : Reuss Voigt Hill
#
# Bulk Modulus (GPa) = 40.18045 40.74039 40.46042
# Shear Modulus (GPa) = 27.32896 15.75938 21.54417
#
# Velocity S-wave (km/s) = 3.22794 2.45123 2.86602
# Velocity P-wave (km/s) = 5.40484 4.85225 5.13598
#
# Compressibility (1/GPa) = 0.02488772
#
# Stress axis : x y z
#
# Youngs Moduli (GPa) = 105.78624 79.90769 99.00703
#
# Poissons Ratio (x) = 0.01472 0.08202
# Poissons Ratio (y) = 0.01949 0.25518
# Poissons Ratio (z) = 0.08763 0.20595
#
# Static dielectric constant tensor:
#      x y z
#    x 2.278580 0.000000 0.000000 
#    y 0.000000 2.270690 0.000000 
#    z 0.000000 0.000000 2.132410 
# 
# From -- ./inp_files/7592.got.cif
#   From: 2010.05.17/outbox.cif.g08.bks.cpg/sg39_4_cif.got.tgz:7592.got - 2010.06.03 18:22:40.
