data_PCOD9361363
_publ_section_title
;
Structure prediction by ZEFSAII (Michael W. Deem and Ramdas Pophale) SiO2 
 PCOD9361363
Probable space group: A B M 2
;
_chemical_formula_sum "Si O2"
_cell_formula_units_Z 64
_cell_length_a 7.336129
_cell_length_b 29.948758
_cell_length_c 12.089618
_cell_angle_alpha 90.000000
_cell_angle_beta 90.000000
_cell_angle_gamma 90.000000
_cell_volume 2656.185212
_symmetry_space_group_name_H-M "A B M 2"
_symmetry_group_IT_number 39
_symmetry_cell_setting 'orthorhombic'
loop_
_space_group_symop_operation_xyz
x,y,z
-x,-y,z
-x,1/2+y,z
x,1/2-y,z
x,1/2+y,1/2+z
-x,1/2-y,1/2+z
-x,y,1/2+z
x,-y,1/2+z
loop_
_atom_site_type_symbol
_atom_site_label
_atom_site_fract_x
_atom_site_fract_y
_atom_site_fract_z
Si Si1 0.243419 0.827889 0.122700
Si Si2 0.852574 0.078429 0.060542
Si Si3 0.236068 0.551634 0.829490
Si Si4 0.374081 0.700316 0.882864
Si Si5 0.186170 0.298804 0.858952
Si Si6 0.621482 0.869710 0.198574
Si Si7 0.202402 0.549470 0.293852
Si Si8 0.818576 0.887262 0.973650
O O1 0.120593 0.870296 0.095538
O O2 0.166797 0.800475 0.225765
O O3 0.421992 0.851701 0.172675
O O4 0.298278 0.805371 0.007199
O O5 0.769332 0.053118 0.162883
O O6 0.735666 0.072236 0.950997
O O7 0.058804 0.070895 0.019530
O O8 0.350685 0.580457 0.743844
O O9 0.265691 0.498951 0.831503
O O10 0.019508 0.556123 0.799858
O O11 0.328781 0.750000 0.841562
O O12 0.596009 0.697824 0.885869
O O13 0.306465 0.663367 0.795258
O O14 0.122864 0.250000 0.899650
O O15 0.100223 0.343060 0.912826
O O16 0.713129 0.869058 0.078649
O O17 0.283524 0.588091 0.371744
#
# Coordination Sequence:
#
# PCOD9361363 Si02
#       8
#     8   8   8   8   8   8   8   8
#     4  11  21  39  64  88 126 163 203 254 318 372
#     4  11  22  39  65  87 125 162 202 253 317 370
#     4  10  22  38  63  93 119 158 214 260 306 371
#     4  10  21  38  63  93 120 161 213 257 308 377
#     4  10  21  38  62  91 121 161 210 255 309 376
#     4  11  22  38  64  91 124 160 207 263 312 368
#     4  10  22  38  65  92 120 162 211 257 309 376
#     4  11  22  39  64  90 122 161 206 258 311 368
#
# _framework density 24.094707
#
# number of rings (size 3 to 8) (size 9 to 14) (size 15 to 20)
#    0.000    1.500    5.000    0.375    1.750    2.000 
#    0.000    1.875    0.000    0.000    0.000    0.000 
#    0.000    0.000    0.000    0.000    0.000    0.000 
#
# Total GULP energy -178668.927220 kJ/mol
# GULP energy per Si atom -5583.403976 kJ/mol
# Density = 2.403987 g / cm^3
# Si number density = 24.094707 Si / 1000 Ang^3
#
#
#
# Elastic Constant Matrix: (Units=GPa)
#
#
# Indices 1 2 3 4 5 6 
#
# 1 47.4842 1.0770 13.1946 0.0000 0.0000 0.0000
# 2 1.0770 135.9416 43.3416 0.0000 0.0000 0.0000
# 3 13.1946 43.3416 160.5976 0.0000 0.0000 0.0000
# 4 0.0000 0.0000 0.0000 19.2600 0.0000 0.0000
# 5 0.0000 0.0000 0.0000 0.0000 29.1072 0.0000
# 6 0.0000 0.0000 0.0000 0.0000 0.0000 14.6664
#
#
#
# Elastic Compliance Matrix: (Units=1/GPa)
#
#
# Indices 1 2 3 4 5 6 
#
# 1 0.021575 0.000431 -0.001889 0.000000 0.000000 0.000000
# 2 0.000431 0.008057 -0.002210 0.000000 0.000000 0.000000
# 3 -0.001889 -0.002210 0.006978 0.000000 0.000000 0.000000
# 4 0.000000 0.000000 0.000000 0.051921 0.000000 0.000000
# 5 0.000000 0.000000 0.000000 0.000000 0.034356 0.000000
# 6 0.000000 0.000000 0.000000 0.000000 0.000000 0.068183
#
#
# Mechanical properties :
#
#
# Convention : Reuss Voigt Hill
#
# Bulk Modulus (GPa) = 34.15856 51.02777 42.59317
# Shear Modulus (GPa) = 24.01955 31.70073 27.86014
#
# Velocity S-wave (km/s) = 3.16077 3.63115 3.40410
# Velocity P-wave (km/s) = 5.24673 6.22931 5.75902
#
# Compressibility (1/GPa) = 0.02927524
#
# Stress axis : x y z
#
# Youngs Moduli (GPa) = 46.35049 124.11167 143.30049
#
# Poissons Ratio (x) = -0.05353 0.27069
# Poissons Ratio (y) = -0.01999 0.31668
# Poissons Ratio (z) = 0.08756 0.27428
#
# Static dielectric constant tensor:
#      x y z
#    x 2.049470 0.000000 0.000000 
#    y 0.000000 1.907560 0.000000 
#    z 0.000000 0.000000 1.941950 
# 
# From -- ./inp_files/5392.got.cif
#   From: 2010.05.17/outbox.cif.g08.bks.cpg/sg39_3_cif.got.tgz:5392.got - 2010.06.03 18:22:40.
