data_PCOD9361963
_publ_section_title
;
Structure prediction by ZEFSAII (Michael W. Deem and Ramdas Pophale) SiO2 
 PCOD9361963
Probable space group: A B M 2
;
_chemical_formula_sum "Si O2"
_cell_formula_units_Z 40
_cell_length_a 8.403930
_cell_length_b 24.549240
_cell_length_c 8.074192
_cell_angle_alpha 90.000000
_cell_angle_beta 90.000000
_cell_angle_gamma 90.000000
_cell_volume 1665.787315
_symmetry_space_group_name_H-M "A B M 2"
_symmetry_group_IT_number 39
_symmetry_cell_setting 'orthorhombic'
loop_
_space_group_symop_operation_xyz
x,y,z
-x,-y,z
-x,1/2+y,z
x,1/2-y,z
x,1/2+y,1/2+z
-x,1/2-y,1/2+z
-x,y,1/2+z
x,-y,1/2+z
loop_
_atom_site_type_symbol
_atom_site_label
_atom_site_fract_x
_atom_site_fract_y
_atom_site_fract_z
Si Si1 0.940601 0.146574 0.123170
Si Si2 0.352870 0.541006 0.615392
Si Si3 0.554490 0.250000 0.905924
Si Si4 0.862805 0.538007 0.819369
Si Si5 0.248369 0.250000 0.743261
Si Si6 0.741196 0.352712 0.779138
O O1 0.922984 0.089524 0.217931
O O2 0.858225 0.196480 0.219779
O O3 0.129838 0.157505 0.133177
O O4 0.850563 0.141261 0.946422
O O5 0.500000 0.500000 0.593433
O O6 0.220776 0.503779 0.698393
O O7 0.274862 0.557645 0.442608
O O8 0.362665 0.594230 0.730983
O O9 0.364347 0.250000 0.899516
O O10 0.625024 0.303130 0.816123
O O11 0.629421 0.250000 0.088181
O O12 0.000000 0.500000 0.899072
#
# Coordination Sequence:
#
# PCOD9361963 Si02
#       6
#     8   8   4   8   4   8
#     4  11  24  45  75 104 138 184 240 294 350 424
#     4  12  27  45  69 103 146 189 235 293 362 424
#     4  10  25  46  70 104 146 180 229 290 362 429
#     4  12  25  45  71 103 140 188 240 294 352 423
#     4  10  25  46  72 104 142 184 231 292 356 425
#     4  11  24  46  72 106 140 184 238 292 356 423
#
# _framework density 24.01267
#
# number of rings (size 3 to 8) (size 9 to 14) (size 15 to 20)
#    0.000    0.800    2.000    4.200    2.800    3.200 
#    0.000    1.000    0.000    0.000    0.000    0.000 
#    0.000    0.000    0.000    0.000    0.000    0.000 
#
# Total GULP energy -111937.379912 kJ/mol
# GULP energy per Si atom -5596.868996 kJ/mol
# Density = 2.395802 g / cm^3
# Si number density = 24.012670 Si / 1000 Ang^3
#
#
#
# Elastic Constant Matrix: (Units=GPa)
#
#
# Indices 1 2 3 4 5 6 
#
# 1 101.5619 37.3001 21.7068 0.0000 0.0000 0.0000
# 2 37.3001 143.1748 22.6829 0.0000 0.0000 0.0000
# 3 21.7068 22.6829 56.0930 0.0000 0.0000 0.0000
# 4 0.0000 0.0000 0.0000 9.0399 0.0000 0.0000
# 5 0.0000 0.0000 0.0000 0.0000 33.6272 0.0000
# 6 0.0000 0.0000 0.0000 0.0000 0.0000 31.9870
#
#
#
# Elastic Compliance Matrix: (Units=1/GPa)
#
#
# Indices 1 2 3 4 5 6 
#
# 1 0.011482 -0.002444 -0.003455 0.000000 0.000000 0.000000
# 2 -0.002444 0.007983 -0.002282 0.000000 0.000000 0.000000
# 3 -0.003455 -0.002282 0.020088 0.000000 0.000000 0.000000
# 4 0.000000 0.000000 0.000000 0.110621 0.000000 0.000000
# 5 0.000000 0.000000 0.000000 0.000000 0.029738 0.000000
# 6 0.000000 0.000000 0.000000 0.000000 0.000000 0.031263
#
#
# Mechanical properties :
#
#
# Convention : Reuss Voigt Hill
#
# Bulk Modulus (GPa) = 43.12248 51.57883 47.35066
# Shear Modulus (GPa) = 21.25250 29.54015 25.39632
#
# Velocity S-wave (km/s) = 2.97821 3.51121 3.25564
# Velocity P-wave (km/s) = 5.46109 6.16154 5.82186
#
# Compressibility (1/GPa) = 0.02318976
#
# Stress axis : x y z
#
# Youngs Moduli (GPa) = 87.09086 125.26995 49.78219
#
# Poissons Ratio (x) = 0.30616 0.17200
# Poissons Ratio (y) = 0.21285 0.11362
# Poissons Ratio (z) = 0.30091 0.28590
#
# Static dielectric constant tensor:
#      x y z
#    x 2.018270 0.000000 0.000000 
#    y 0.000000 1.909930 0.000000 
#    z 0.000000 0.000000 1.993120 
# 
# From -- ./inp_files/2151.got.cif
#   From: 2010.05.17/outbox.cif.g08.bks.cpg/sg39_2_cif.got.tgz:2151.got - 2010.06.03 18:22:40.
