data_PCOD9361949
_publ_section_title
;
Structure prediction by ZEFSAII (Michael W. Deem and Ramdas Pophale) SiO2 
 PCOD9361949
Probable space group: A B M 2
;
_chemical_formula_sum "Si O2"
_cell_formula_units_Z 60
_cell_length_a 17.203417
_cell_length_b 8.036171
_cell_length_c 19.041640
_cell_angle_alpha 90.000000
_cell_angle_beta 90.000000
_cell_angle_gamma 90.000000
_cell_volume 2632.499129
_symmetry_space_group_name_H-M "A B M 2"
_symmetry_group_IT_number 39
_symmetry_cell_setting 'orthorhombic'
loop_
_space_group_symop_operation_xyz
x,y,z
-x,-y,z
-x,1/2+y,z
x,1/2-y,z
x,1/2+y,1/2+z
-x,1/2-y,1/2+z
-x,y,1/2+z
x,-y,1/2+z
loop_
_atom_site_type_symbol
_atom_site_label
_atom_site_fract_x
_atom_site_fract_y
_atom_site_fract_z
Si Si1 0.413729 0.931690 0.087850
Si Si2 0.916449 0.561645 0.326635
Si Si3 0.306792 0.943734 0.703974
Si Si4 0.790852 0.436798 0.422076
Si Si5 0.628409 0.050240 0.352243
Si Si6 0.414938 0.750000 0.940137
Si Si7 0.084958 0.944590 0.031449
Si Si8 0.131132 0.947056 0.183125
O O1 0.407202 0.750000 0.122473
O O2 0.500000 0.000000 0.096790
O O3 0.353077 0.041976 0.130409
O O4 0.403781 0.893296 0.004892
O O5 0.902419 0.750000 0.350463
O O6 0.849119 0.445912 0.356414
O O7 0.911487 0.547767 0.243617
O O8 0.000000 0.500000 0.350181
O O9 0.294365 0.750000 0.721846
O O10 0.352843 0.025142 0.769540
O O11 0.223248 0.028133 0.693073
O O12 0.777917 0.250000 0.446216
O O13 0.709122 0.499673 0.393423
O O14 0.841321 0.523720 0.481807
O O15 0.612390 0.250000 0.365566
O O16 0.574910 0.901472 0.381732
O O17 0.078856 0.750000 0.040067
O O18 0.104088 0.014854 0.107999
O O19 0.000000 0.000000 0.005934
O O20 0.113656 0.750000 0.189956
#
# Coordination Sequence:
#
# PCOD9361949 Si02
#       8
#     8   8   8   8   8   4   8   8
#     4  10  24  47  76 108 149 190 236 294 352 438
#     4  12  24  39  60  86 122 172 228 286 351 416
#     4  12  24  42  74 109 146 193 243 297 367 442
#     4  11  24  40  62  90 128 172 227 286 347 419
#     4  11  24  44  72 109 151 191 244 307 367 433
#     4  10  26  46  78 110 152 192 238 296 362 436
#     4  11  25  41  60  84 126 174 225 290 355 426
#     4  11  24  41  63  95 129 171 228 294 351 416
#
# _framework density 22.79203
#
# number of rings (size 3 to 8) (size 9 to 14) (size 15 to 20)
#    0.400    0.533    2.000    4.800    3.733    4.267 
#    0.000    0.667    0.000    0.000    0.000    0.000 
#    0.000    0.000    0.000    0.000    0.000    0.000 
#
# Total GULP energy -167040.089771 kJ/mol
# GULP energy per Si atom -5568.002992 kJ/mol
# Density = 2.274015 g / cm^3
# Si number density = 22.792030 Si / 1000 Ang^3
#
#
#
# Elastic Constant Matrix: (Units=GPa)
#
#
# Indices 1 2 3 4 5 6 
#
# 1 59.0052 7.9064 7.1396 0.0000 0.0000 0.0000
# 2 7.9064 87.7819 10.7166 0.0000 0.0000 0.0000
# 3 7.1396 10.7166 109.4117 0.0000 0.0000 0.0000
# 4 0.0000 0.0000 0.0000 36.9446 0.0000 0.0000
# 5 0.0000 0.0000 0.0000 0.0000 13.4199 0.0000
# 6 0.0000 0.0000 0.0000 0.0000 0.0000 15.6133
#
#
#
# Elastic Compliance Matrix: (Units=1/GPa)
#
#
# Indices 1 2 3 4 5 6 
#
# 1 0.017259 -0.001434 -0.000986 0.000000 0.000000 0.000000
# 2 -0.001434 0.011649 -0.001047 0.000000 0.000000 0.000000
# 3 -0.000986 -0.001047 0.009307 0.000000 0.000000 0.000000
# 4 0.000000 0.000000 0.000000 0.027068 0.000000 0.000000
# 5 0.000000 0.000000 0.000000 0.000000 0.074516 0.000000
# 6 0.000000 0.000000 0.000000 0.000000 0.000000 0.064048
#
#
# Mechanical properties :
#
#
# Convention : Reuss Voigt Hill
#
# Bulk Modulus (GPa) = 31.96924 34.19157 33.08040
# Shear Modulus (GPa) = 22.60319 28.55797 25.58058
#
# Velocity S-wave (km/s) = 3.15257 3.54359 3.35378
# Velocity P-wave (km/s) = 5.22576 5.63709 5.43532
#
# Compressibility (1/GPa) = 0.03128007
#
# Stress axis : x y z
#
# Youngs Moduli (GPa) = 57.94045 85.84494 107.44943
#
# Poissons Ratio (x) = 0.12312 0.10592
# Poissons Ratio (y) = 0.08310 0.11254
# Poissons Ratio (z) = 0.05712 0.08991
#
# Static dielectric constant tensor:
#      x y z
#    x 3.025150 0.000000 0.000000 
#    y 0.000000 1.837320 0.000000 
#    z 0.000000 0.000000 1.887750 
# 
# From -- ./inp_files/13008.got.cif
#   From: 2010.05.17/outbox.cif.g08.bks.cpg/sg39_7_cif.got.tgz:13008.got - 2010.06.03 18:22:40.
