data_PCOD9361615
_publ_section_title
;
Structure prediction by ZEFSAII (Michael W. Deem and Ramdas Pophale) SiO2 
 PCOD9361615
Probable space group: A B M 2
;
_chemical_formula_sum "Si O2"
_cell_formula_units_Z 36
_cell_length_a 5.086259
_cell_length_b 26.639788
_cell_length_c 9.675440
_cell_angle_alpha 90.000000
_cell_angle_beta 90.000000
_cell_angle_gamma 90.000000
_cell_volume 1310.991753
_symmetry_space_group_name_H-M "A B M 2"
_symmetry_group_IT_number 39
_symmetry_cell_setting 'orthorhombic'
loop_
_space_group_symop_operation_xyz
x,y,z
-x,-y,z
-x,1/2+y,z
x,1/2-y,z
x,1/2+y,1/2+z
-x,1/2-y,1/2+z
-x,y,1/2+z
x,-y,1/2+z
loop_
_atom_site_type_symbol
_atom_site_label
_atom_site_fract_x
_atom_site_fract_y
_atom_site_fract_z
Si Si1 0.940877 0.552513 0.448490
Si Si2 0.529218 0.661028 0.257046
Si Si3 0.750000 0.250000 0.104182
Si Si4 0.970781 0.838972 0.951318
Si Si5 0.440877 0.052513 0.759873
O O1 0.994974 0.605924 0.517689
O O2 0.648520 0.552332 0.387176
O O3 0.000000 0.500000 0.523189
O O4 0.148520 0.552332 0.321187
O O5 0.453122 0.706054 0.158549
O O6 0.812841 0.664764 0.328054
O O7 0.494972 0.605924 0.190675
O O8 0.312841 0.664764 0.380309
O O9 0.953123 0.206054 0.049815
O O10 0.500000 0.000000 0.685174
#
# Coordination Sequence:
#
# PCOD9361615 Si02
#       5
#     8   8   4   8   8
#     4   8  14  28  52  77 103 138 178 226 283 333
#     4  10  22  38  57  84 115 150 195 241 288 349
#     4  12  24  38  60  84 120 162 196 236 296 356
#     4  10  22  38  57  84 115 150 195 241 288 349
#     4   8  14  28  52  77 103 138 178 226 283 333
#
# _framework density 27.460124
#
# number of rings (size 3 to 8) (size 9 to 14) (size 15 to 20)
#    0.000    2.667    0.000    1.333    0.000    3.556 
#    0.000    0.000    0.000   26.667    0.000    0.000 
#    0.000    0.000    0.000    0.000    0.000    0.000 
#
# Total GULP energy -100376.053296 kJ/mol
# GULP energy per Si atom -5576.447405 kJ/mol
# Density = 2.739762 g / cm^3
# Si number density = 27.460124 Si / 1000 Ang^3
#
#
#
# Elastic Constant Matrix: (Units=GPa)
#
#
# Indices 1 2 3 4 5 6 
#
# 1 145.0416 16.9262 71.9804 0.0000 0.0000 0.0000
# 2 16.9262 344.1444 53.0397 0.0000 0.0000 0.0000
# 3 71.9804 53.0397 65.9749 0.0000 0.0000 0.0000
# 4 0.0000 0.0000 0.0000 22.6369 0.0000 0.0000
# 5 0.0000 0.0000 0.0000 0.0000 73.2894 0.0000
# 6 0.0000 0.0000 0.0000 0.0000 0.0000 26.5102
#
#
#
# Elastic Compliance Matrix: (Units=1/GPa)
#
#
# Indices 1 2 3 4 5 6 
#
# 1 0.016407 0.002228 -0.019692 0.000000 0.000000 0.000000
# 2 0.002228 0.003619 -0.005340 0.000000 0.000000 0.000000
# 3 -0.019692 -0.005340 0.040935 0.000000 0.000000 0.000000
# 4 0.000000 0.000000 0.000000 0.044176 0.000000 0.000000
# 5 0.000000 0.000000 0.000000 0.000000 0.013645 0.000000
# 6 0.000000 0.000000 0.000000 0.000000 0.000000 0.037721
#
#
# Mechanical properties :
#
#
# Convention : Reuss Voigt Hill
#
# Bulk Modulus (GPa) = 65.13462 93.22818 79.18140
# Shear Modulus (GPa) = 24.12800 52.03494 38.08147
#
# Velocity S-wave (km/s) = 2.96743 4.35780 3.72801
# Velocity P-wave (km/s) = 5.95920 7.70355 6.88682
#
# Compressibility (1/GPa) = 0.01535282
#
# Stress axis : x y z
#
# Youngs Moduli (GPa) = 60.94955 276.30128 24.42919
#
# Poissons Ratio (x) = -0.61558 0.48105
# Poissons Ratio (y) = -0.13579 0.13046
# Poissons Ratio (z) = 1.20019 1.47555
#
# Static dielectric constant tensor:
#      x y z
#    x 2.083980 0.000000 0.000000 
#    y 0.000000 2.102660 0.000000 
#    z 0.000000 0.000000 2.121620 
# 
# From -- ./inp_files/4588.got.cif
#   From: 2010.05.17/outbox.cif.g08.bks.cpg/sg39_3_cif.got.tgz:4588.got - 2010.06.03 18:22:40.
