data_PCOD9361211
_publ_section_title
;
Structure prediction by ZEFSAII (Michael W. Deem and Ramdas Pophale) SiO2 
 PCOD9361211
Probable space group: A B M 2
;
_chemical_formula_sum "Si O2"
_cell_formula_units_Z 64
_cell_length_a 5.419757
_cell_length_b 18.572187
_cell_length_c 29.336789
_cell_angle_alpha 90.000000
_cell_angle_beta 90.000000
_cell_angle_gamma 90.000000
_cell_volume 2952.945557
_symmetry_space_group_name_H-M "A B M 2"
_symmetry_group_IT_number 39
_symmetry_cell_setting 'orthorhombic'
loop_
_space_group_symop_operation_xyz
x,y,z
-x,-y,z
-x,1/2+y,z
x,1/2-y,z
x,1/2+y,1/2+z
-x,1/2-y,1/2+z
-x,y,1/2+z
x,-y,1/2+z
loop_
_atom_site_type_symbol
_atom_site_label
_atom_site_fract_x
_atom_site_fract_y
_atom_site_fract_z
Si Si1 0.414000 0.427577 0.819250
Si Si2 0.221600 0.329116 0.364796
Si Si3 0.829433 0.836602 0.539914
Si Si4 0.326719 0.338126 0.088955
Si Si5 0.167217 0.336981 0.746627
Si Si6 0.156396 0.430603 0.913973
Si Si7 0.498715 0.830151 0.957374
Si Si8 0.671446 0.337125 0.693631
O O1 0.500000 0.500000 0.794590
O O2 0.649672 0.376724 0.826787
O O3 0.212736 0.380742 0.792894
O O4 0.311728 0.451509 0.868790
O O5 0.153519 0.250000 0.348302
O O6 0.426130 0.322638 0.404686
O O7 0.007900 0.367728 0.392264
O O8 0.842333 0.750000 0.544703
O O9 0.091864 0.862735 0.558805
O O10 0.738958 0.848474 0.488037
O O11 0.590996 0.861160 0.568889
O O12 0.327560 0.250000 0.088440
O O13 0.304241 0.361441 0.141352
O O14 0.170005 0.250000 0.753493
O O15 0.408134 0.355722 0.715905
O O16 0.912185 0.358140 0.722491
O O17 0.311333 0.395652 0.954921
O O18 0.000000 0.500000 0.927715
O O19 0.591093 0.750000 0.972715
O O20 0.676458 0.250000 0.692554
#
# Coordination Sequence:
#
# PCOD9361211 Si02
#       8
#     8   8   8   8   8   8   8   8
#     4  11  23  39  55  81 114 147 196 244 290 351
#     4  10  21  37  58  80 112 152 191 237 291 342
#     4   9  17  28  48  79 114 149 184 231 288 344
#     4   9  16  28  49  77 114 150 180 226 291 348
#     4  10  21  35  56  83 115 149 190 240 291 348
#     4  11  22  37  58  78 109 155 197 245 291 349
#     4   9  20  34  51  82 117 149 193 243 291 345
#     4   9  18  33  52  81 116 149 185 232 291 354
#
# _framework density 21.673273999999999
#
# number of rings (size 3 to 8) (size 9 to 14) (size 15 to 20)
#    0.000    2.250    1.250    1.500    3.500    4.500 
#    0.000    0.000    0.000    0.000    0.000    3.500 
#    0.000    0.000    0.000    0.000    0.000    0.000 
#
# Total GULP energy -178601.884244 kJ/mol
# GULP energy per Si atom -5581.308883 kJ/mol
# Density = 2.162394 g / cm^3
# Si number density = 21.673274 Si / 1000 Ang^3
#
#
#
# Elastic Constant Matrix: (Units=GPa)
#
#
# Indices 1 2 3 4 5 6 
#
# 1 108.6075 16.5318 32.7731 0.0000 0.0000 0.0000
# 2 16.5318 61.0758 7.8467 0.0000 0.0000 0.0000
# 3 32.7731 7.8467 96.0739 0.0000 0.0000 0.0000
# 4 0.0000 0.0000 0.0000 -6.9493 0.0000 0.0000
# 5 0.0000 0.0000 0.0000 0.0000 37.5595 0.0000
# 6 0.0000 0.0000 0.0000 0.0000 0.0000 2.9644
#
#
#
# Elastic Compliance Matrix: (Units=1/GPa)
#
#
# Indices 1 2 3 4 5 6 
#
# 1 0.010610 -0.002432 -0.003421 0.000000 0.000000 0.000000
# 2 -0.002432 0.017104 -0.000567 0.000000 0.000000 0.000000
# 3 -0.003421 -0.000567 0.011622 0.000000 0.000000 0.000000
# 4 0.000000 0.000000 0.000000 -0.143899 0.000000 0.000000
# 5 0.000000 0.000000 0.000000 0.000000 0.026624 0.000000
# 6 0.000000 0.000000 0.000000 0.000000 0.000000 0.337337
#
#
# Mechanical properties :
#
#
# Convention : Reuss Voigt Hill
#
# Bulk Modulus (GPa) = 37.74210 42.22892 39.98551
# Shear Modulus (GPa) = 17.78913 20.62196 19.20554
#
# Velocity S-wave (km/s) = 2.86805 3.08797 2.98004
# Velocity P-wave (km/s) = 5.33099 5.67809 5.50728
#
# Compressibility (1/GPa) = 0.02649561
#
# Stress axis : x y z
#
# Youngs Moduli (GPa) = 94.25148 58.46466 86.04493
#
# Poissons Ratio (x) = 0.14221 0.29433
# Poissons Ratio (y) = 0.22926 0.04881
# Poissons Ratio (z) = 0.32240 0.03316
#
# Static dielectric constant tensor:
#      x y z
#    x 1.837440 0.000000 0.000000 
#    y 0.000000 1.796440 0.000000 
#    z 0.000000 0.000000 1.820390 
# 
# From -- ./inp_files/16598.got.cif
#   From: 2010.05.17/outbox.cif.g08.bks.cpg/sg39_9_cif.got.tgz:16598.got - 2010.06.03 18:22:40.
