data_PCOD9361497
_publ_section_title
;
Structure prediction by ZEFSAII (Michael W. Deem and Ramdas Pophale) SiO2 
 PCOD9361497
Probable space group: A B M 2
;
_chemical_formula_sum "Si O2"
_cell_formula_units_Z 64
_cell_length_a 20.726592
_cell_length_b 17.049459
_cell_length_c 9.601466
_cell_angle_alpha 90.000000
_cell_angle_beta 90.000000
_cell_angle_gamma 90.000000
_cell_volume 3392.938984
_symmetry_space_group_name_H-M "A B M 2"
_symmetry_group_IT_number 39
_symmetry_cell_setting 'orthorhombic'
loop_
_space_group_symop_operation_xyz
x,y,z
-x,-y,z
-x,1/2+y,z
x,1/2-y,z
x,1/2+y,1/2+z
-x,1/2-y,1/2+z
-x,y,1/2+z
x,-y,1/2+z
loop_
_atom_site_type_symbol
_atom_site_label
_atom_site_fract_x
_atom_site_fract_y
_atom_site_fract_z
Si Si1 0.624341 0.939031 0.214140
Si Si2 0.343118 0.839736 0.175669
Si Si3 0.753821 0.023805 0.229975
Si Si4 0.579802 0.080969 0.402605
Si Si5 0.442178 0.841061 0.925340
Si Si6 0.055606 0.156353 0.075211
Si Si7 0.157477 0.969632 0.486347
Si Si8 0.955910 0.075662 0.872529
O O1 0.597590 0.861067 0.286071
O O2 0.699413 0.956514 0.240845
O O3 0.587074 0.008133 0.297027
O O4 0.610013 0.940368 0.051073
O O5 0.322504 0.750000 0.158519
O O6 0.284939 0.901346 0.170897
O O7 0.379244 0.852515 0.322826
O O8 0.395478 0.858200 0.055625
O O9 0.784802 0.042788 0.378055
O O10 0.810848 0.997224 0.129604
O O11 0.507177 0.108637 0.426951
O O12 0.459792 0.750000 0.930899
O O13 0.060975 0.250000 0.064433
O O14 0.115357 0.108539 0.008330
O O15 0.993064 0.124222 0.991965
O O16 0.052149 0.128084 0.235366
O O17 0.109923 0.037639 0.429677
O O18 0.000000 0.000000 0.834963
#
# Coordination Sequence:
#
# PCOD9361497 Si02
#       8
#     8   8   8   8   8   8   8   8
#     4  11  23  39  60  89 115 156 204 256 302 368
#     4  10  22  40  60  86 121 159 202 254 314 374
#     4  11  22  40  62  85 119 166 212 250 295 355
#     4  11  22  38  61  87 117 148 200 257 319 377
#     4  11  23  39  59  86 120 154 194 253 324 384
#     4  11  23  40  64 100 133 159 199 258 309 352
#     4  11  22  40  66  90 122 169 217 249 292 370
#     4  10  21  40  66  95 128 167 204 245 305 365
#
# _framework density 18.862703
#
# number of rings (size 3 to 8) (size 9 to 14) (size 15 to 20)
#    0.000    1.250    1.250    6.750    1.750    4.500 
#    0.000    1.875    0.000    0.000    0.000    0.000 
#    0.000    0.000    0.000    0.000    0.000    0.000 
#
# Total GULP energy -178818.399759 kJ/mol
# GULP energy per Si atom -5588.074992 kJ/mol
# Density = 1.881977 g / cm^3
# Si number density = 18.862703 Si / 1000 Ang^3
#
#
#
# Elastic Constant Matrix: (Units=GPa)
#
#
# Indices 1 2 3 4 5 6 
#
# 1 70.0120 23.7984 7.7322 0.0000 0.0000 0.0000
# 2 23.7984 73.2058 28.3339 0.0000 0.0000 0.0000
# 3 7.7322 28.3339 85.8491 0.0000 0.0000 0.0000
# 4 0.0000 0.0000 0.0000 25.8904 0.0000 0.0000
# 5 0.0000 0.0000 0.0000 0.0000 21.8640 0.0000
# 6 0.0000 0.0000 0.0000 0.0000 0.0000 16.2264
#
#
#
# Elastic Compliance Matrix: (Units=1/GPa)
#
#
# Indices 1 2 3 4 5 6 
#
# 1 0.016065 -0.005345 0.000317 0.000000 0.000000 0.000000
# 2 -0.005345 0.017439 -0.005274 0.000000 0.000000 0.000000
# 3 0.000317 -0.005274 0.013361 0.000000 0.000000 0.000000
# 4 0.000000 0.000000 0.000000 0.038624 0.000000 0.000000
# 5 0.000000 0.000000 0.000000 0.000000 0.045737 0.000000
# 6 0.000000 0.000000 0.000000 0.000000 0.000000 0.061628
#
#
# Mechanical properties :
#
#
# Convention : Reuss Voigt Hill
#
# Bulk Modulus (GPa) = 38.08050 38.75508 38.41779
# Shear Modulus (GPa) = 22.50094 24.07631 23.28862
#
# Velocity S-wave (km/s) = 3.45756 3.57655 3.51755
# Velocity P-wave (km/s) = 6.01429 6.13564 6.07527
#
# Compressibility (1/GPa) = 0.02626016
#
# Stress axis : x y z
#
# Youngs Moduli (GPa) = 62.24622 57.34199 74.84750
#
# Poissons Ratio (x) = 0.30652 -0.02375
# Poissons Ratio (y) = 0.33273 0.39476
# Poissons Ratio (z) = -0.01975 0.30244
#
# Static dielectric constant tensor:
#      x y z
#    x 1.643850 0.000000 0.000000 
#    y 0.000000 1.657350 0.000000 
#    z 0.000000 0.000000 1.651670 
# 
# From -- ./inp_files/4026.got.cif
#   From: 2010.05.17/outbox.cif.g08.bks.cpg/sg39_3_cif.got.tgz:4026.got - 2010.06.03 18:22:40.
