data_PCOD9361137
_publ_section_title
;
Structure prediction by ZEFSAII (Michael W. Deem and Ramdas Pophale) SiO2 
 PCOD9361137
Probable space group: A B M 2
;
_chemical_formula_sum "Si O2"
_cell_formula_units_Z 40
_cell_length_a 6.442044
_cell_length_b 16.503045
_cell_length_c 17.234564
_cell_angle_alpha 90.000000
_cell_angle_beta 90.000000
_cell_angle_gamma 90.000000
_cell_volume 1832.264097
_symmetry_space_group_name_H-M "A B M 2"
_symmetry_group_IT_number 39
_symmetry_cell_setting 'orthorhombic'
loop_
_space_group_symop_operation_xyz
x,y,z
-x,-y,z
-x,1/2+y,z
x,1/2-y,z
x,1/2+y,1/2+z
-x,1/2-y,1/2+z
-x,y,1/2+z
x,-y,1/2+z
loop_
_atom_site_type_symbol
_atom_site_label
_atom_site_fract_x
_atom_site_fract_y
_atom_site_fract_z
Si Si1 0.029931 0.750000 0.913851
Si Si2 0.480554 0.250000 0.370138
Si Si3 0.000000 0.500000 0.529052
Si Si4 0.569036 0.750000 0.690072
Si Si5 0.000000 0.000000 0.782667
Si Si6 0.807881 0.250000 0.579207
Si Si7 0.212104 0.898025 0.395263
Si Si8 0.908720 0.117498 0.154234
O O1 0.273753 0.750000 0.921194
O O2 0.969116 0.666515 0.872654
O O3 0.881509 0.750000 0.989764
O O4 0.461405 0.250000 0.275503
O O5 0.595595 0.164125 0.390715
O O6 0.140035 0.558986 0.475169
O O7 0.856188 0.552781 0.586824
O O8 0.422107 0.750000 0.614063
O O9 0.717605 0.671300 0.683570
O O10 0.806320 0.972592 0.835533
O O11 0.024484 0.926193 0.724323
O O12 0.922980 0.325898 0.615306
#
# Coordination Sequence:
#
# PCOD9361137 Si02
#       8
#     4   4   4   4   4   4   8   8
#     4  11  24  44  66  91 130 180 226 287 340 401
#     4  11  24  42  70 103 128 178 238 278 334 416
#     4  10  20  44  66  98 142 180 212 280 344 404
#     4  11  24  42  70 103 128 178 238 278 334 416
#     4  10  20  40  66  94 140 178 212 286 346 390
#     4  11  24  44  66  91 130 180 226 287 340 401
#     4  10  22  42  68  95 137 176 226 278 340 403
#     4  10  22  42  68  95 137 176 226 278 340 403
#
# _framework density 21.830914
#
# number of rings (size 3 to 8) (size 9 to 14) (size 15 to 20)
#    0.000    1.600    4.000    0.000    2.800    3.200 
#    0.000   12.000    0.000    0.000    0.000    0.000 
#    0.000    0.000    0.000    0.000    0.000    0.000 
#
# Total GULP energy -111355.177628 kJ/mol
# GULP energy per Si atom -5567.758881 kJ/mol
# Density = 2.178123 g / cm^3
# Si number density = 21.830914 Si / 1000 Ang^3
#
#
#
# Elastic Constant Matrix: (Units=GPa)
#
#
# Indices 1 2 3 4 5 6 
#
# 1 71.3014 28.2310 18.2540 0.0000 0.0000 0.0000
# 2 28.2310 104.0362 54.7587 0.0000 0.0000 0.0000
# 3 18.2540 54.7587 131.1875 0.0000 0.0000 0.0000
# 4 0.0000 0.0000 0.0000 31.4163 0.0000 0.0000
# 5 0.0000 0.0000 0.0000 0.0000 18.8452 0.0000
# 6 0.0000 0.0000 0.0000 0.0000 0.0000 -36.4589
#
#
#
# Elastic Compliance Matrix: (Units=1/GPa)
#
#
# Indices 1 2 3 4 5 6 
#
# 1 0.015741 -0.003997 -0.000522 0.000000 0.000000 0.000000
# 2 -0.003997 0.013333 -0.005009 0.000000 0.000000 0.000000
# 3 -0.000522 -0.005009 0.009786 0.000000 0.000000 0.000000
# 4 0.000000 0.000000 0.000000 0.031831 0.000000 0.000000
# 5 0.000000 0.000000 0.000000 0.000000 0.053064 0.000000
# 6 0.000000 0.000000 0.000000 0.000000 0.000000 -0.027428
#
#
# Mechanical properties :
#
#
# Convention : Reuss Voigt Hill
#
# Bulk Modulus (GPa) = 50.49356 56.55693 53.52525
# Shear Modulus (GPa) = 40.98889 16.44595 28.71742
#
# Velocity S-wave (km/s) = 4.33779 2.74767 3.63084
# Velocity P-wave (km/s) = 6.94752 6.00244 6.49220
#
# Compressibility (1/GPa) = 0.01980450
#
# Stress axis : x y z
#
# Youngs Moduli (GPa) = 63.52812 75.00106 102.18456
#
# Poissons Ratio (x) = 0.29976 0.05334
# Poissons Ratio (y) = 0.25390 0.51187
# Poissons Ratio (z) = 0.03316 0.37570
#
# Static dielectric constant tensor:
#      x y z
#    x 1.772210 0.000000 0.000000 
#    y 0.000000 1.753060 0.000000 
#    z 0.000000 0.000000 1.897040 
# 
# From -- ./inp_files/10958.got.cif
#   From: 2010.05.17/outbox.cif.g08.bks.cpg/sg39_6_cif.got.tgz:10958.got - 2010.06.03 18:22:40.
