data_PCOD9361281
_publ_section_title
;
Structure prediction by ZEFSAII (Michael W. Deem and Ramdas Pophale) SiO2 
 PCOD9361281
Probable space group: A B M 2
;
_chemical_formula_sum "Si O2"
_cell_formula_units_Z 36
_cell_length_a 8.041240
_cell_length_b 14.873853
_cell_length_c 14.903844
_cell_angle_alpha 90.000000
_cell_angle_beta 90.000000
_cell_angle_gamma 90.000000
_cell_volume 1782.562662
_symmetry_space_group_name_H-M "A B M 2"
_symmetry_group_IT_number 39
_symmetry_cell_setting 'orthorhombic'
loop_
_space_group_symop_operation_xyz
x,y,z
-x,-y,z
-x,1/2+y,z
x,1/2-y,z
x,1/2+y,1/2+z
-x,1/2-y,1/2+z
-x,y,1/2+z
x,-y,1/2+z
loop_
_atom_site_type_symbol
_atom_site_label
_atom_site_fract_x
_atom_site_fract_y
_atom_site_fract_z
Si Si1 0.588600 0.358531 0.514400
Si Si2 0.656244 0.059124 0.318419
Si Si3 0.281745 0.643670 0.133492
Si Si4 0.000000 0.500000 0.882659
Si Si5 0.045245 0.858211 0.536799
O O1 0.577736 0.250000 0.507934
O O2 0.608343 0.397244 0.414272
O O3 0.427656 0.392923 0.568318
O O4 0.764462 0.379860 0.562762
O O5 0.684881 0.126854 0.237245
O O6 0.500000 0.000000 0.291402
O O7 0.827134 0.003673 0.329824
O O8 0.282530 0.750000 0.118347
O O9 0.098182 0.612360 0.105079
O O10 0.994479 0.588044 0.945890
O O11 0.037651 0.750000 0.523413
#
# Coordination Sequence:
#
# PCOD9361281 Si02
#       5
#     8   8   8   4   8
#     4   9  19  38  60  80 108 146 187 233 283 333
#     4  11  23  36  54  84 115 147 187 231 279 336
#     4  10  21  37  58  83 112 148 189 233 282 336
#     4  10  22  38  58  84 114 150 190 232 282 336
#     4   9  19  37  60  83 109 147 191 234 283 335
#
# _framework density 20.195641999999999
#
# number of rings (size 3 to 8) (size 9 to 14) (size 15 to 20)
#    0.000    2.222    0.000    2.000    0.000    8.000 
#    0.000    1.111    0.000   10.667    0.000    0.000 
#    0.000    0.000    0.000    0.000    0.000    0.000 
#
# Total GULP energy -100433.265202 kJ/mol
# GULP energy per Si atom -5579.625845 kJ/mol
# Density = 2.014968 g / cm^3
# Si number density = 20.195642 Si / 1000 Ang^3
#
#
#
# Elastic Constant Matrix: (Units=GPa)
#
#
# Indices 1 2 3 4 5 6 
#
# 1 105.4748 11.8130 23.9173 0.0000 0.0000 0.0000
# 2 11.8130 18.2483 -12.2139 0.0000 0.0000 0.0000
# 3 23.9173 -12.2139 58.8871 0.0000 0.0000 0.0000
# 4 0.0000 0.0000 0.0000-5145.2821 0.0000 0.0000
# 5 0.0000 0.0000 0.0000 0.0000 -13.9408 0.0000
# 6 0.0000 0.0000 0.0000 0.0000 0.0000 19.6154
#
#
#
# Elastic Compliance Matrix: (Units=1/GPa)
#
#
# Indices 1 2 3 4 5 6 
#
# 1 0.012844 -0.013709 -0.008060 0.000000 0.000000 0.000000
# 2 -0.013709 0.078266 0.021802 0.000000 0.000000 0.000000
# 3 -0.008060 0.021802 0.024777 0.000000 0.000000 0.000000
# 4 0.000000 0.000000 0.000000 -0.000194 0.000000 0.000000
# 5 0.000000 0.000000 0.000000 0.000000 -0.071732 0.000000
# 6 0.000000 0.000000 0.000000 0.000000 0.000000 0.050980
#
#
# Mechanical properties :
#
#
# Convention : Reuss Voigt Hill
#
# Bulk Modulus (GPa) = 8.62429 25.51589 17.07009
# Shear Modulus (GPa) = 37.44524 -1017.31525 -489.93500
#
# Velocity S-wave (km/s) = 4.31063 -22.46828 -15.59234
# Velocity P-wave (km/s) = 5.39027 25.69896 17.76769
#
# Compressibility (1/GPa) = 0.11595163
#
# Stress axis : x y z
#
# Youngs Moduli (GPa) = 77.85693 12.77688 40.35961
#
# Poissons Ratio (x) = 0.17516 0.32531
# Poissons Ratio (y) = 1.06737 -0.87990
# Poissons Ratio (z) = 0.62754 -0.27856
#
# Static dielectric constant tensor:
#      x y z
#    x 1.753950 0.000000 0.000000 
#    y 0.000000 21.575690 0.000000 
#    z 0.000000 0.000000 1.672780 
# 
# From -- ./inp_files/7990.got.cif
#   From: 2010.05.17/outbox.cif.g08.bks.cpg/sg39_4_cif.got.tgz:7990.got - 2010.06.03 18:22:40.
