data_PCOD9361425
_publ_section_title
;
Structure prediction by ZEFSAII (Michael W. Deem and Ramdas Pophale) SiO2 
 PCOD9361425
Probable space group: A B M 2
;
_chemical_formula_sum "Si O2"
_cell_formula_units_Z 56
_cell_length_a 11.862547
_cell_length_b 15.160183
_cell_length_c 13.728799
_cell_angle_alpha 90.000000
_cell_angle_beta 90.000000
_cell_angle_gamma 90.000000
_cell_volume 2468.965018
_symmetry_space_group_name_H-M "A B M 2"
_symmetry_group_IT_number 39
_symmetry_cell_setting 'orthorhombic'
loop_
_space_group_symop_operation_xyz
x,y,z
-x,-y,z
-x,1/2+y,z
x,1/2-y,z
x,1/2+y,1/2+z
-x,1/2-y,1/2+z
-x,y,1/2+z
x,-y,1/2+z
loop_
_atom_site_type_symbol
_atom_site_label
_atom_site_fract_x
_atom_site_fract_y
_atom_site_fract_z
Si Si1 0.632043 0.149516 0.809120
Si Si2 0.217221 0.349393 0.909218
Si Si3 0.983968 0.649839 0.236263
Si Si4 0.838437 0.051551 0.900778
Si Si5 0.602698 0.849994 0.736514
Si Si6 0.774102 0.378315 0.623014
Si Si7 0.197865 0.585031 0.119427
O O1 0.622500 0.250000 0.852026
O O2 0.712269 0.084378 0.870997
O O3 0.512543 0.108326 0.776846
O O4 0.699399 0.158466 0.708522
O O5 0.165233 0.250000 0.902169
O O6 0.152832 0.444474 0.904380
O O7 0.310386 0.353887 0.825952
O O8 0.267978 0.353158 0.017376
O O9 0.986515 0.750000 0.270851
O O10 0.922528 0.591638 0.319480
O O11 0.902372 0.649335 0.142289
O O12 0.105216 0.619638 0.196514
O O13 0.851200 0.090967 0.009840
O O14 0.566584 0.750000 0.718272
O O15 0.679352 0.875373 0.643904
O O16 0.779941 0.482583 0.635208
#
# Coordination Sequence:
#
# PCOD9361425 Si02
#       7
#     8   8   8   8   8   8   8
#     4  10  21  40  65  93 129 170 214 267 325 388
#     4  10  21  39  62  92 129 167 214 271 328 385
#     4  11  23  41  66  94 128 168 211 262 320 385
#     4  10  23  42  68  96 128 173 221 268 324 390
#     4  10  22  38  60  93 131 171 214 265 323 384
#     4  10  21  39  64  91 122 165 216 265 319 383
#     4  11  24  41  63  94 129 169 215 266 321 381
#
# _framework density 22.681569
#
# number of rings (size 3 to 8) (size 9 to 14) (size 15 to 20)
#    0.000    1.714    0.000    5.143    0.000    6.857 
#    0.000   11.429    0.000    6.000    0.000    0.000 
#    0.000    0.000    0.000    0.000    0.000    0.000 
#
# Total GULP energy -156185.929539 kJ/mol
# GULP energy per Si atom -5578.068912 kJ/mol
# Density = 2.262994 g / cm^3
# Si number density = 22.681569 Si / 1000 Ang^3
#
#
#
# Elastic Constant Matrix: (Units=GPa)
#
#
# Indices 1 2 3 4 5 6 
#
# 1 101.4021 18.6897 28.3912 0.0000 0.0000 0.0000
# 2 18.6897 145.1737 23.4829 0.0000 0.0000 0.0000
# 3 28.3912 23.4829 83.3050 0.0000 0.0000 0.0000
# 4 0.0000 0.0000 0.0000 125.5311 0.0000 0.0000
# 5 0.0000 0.0000 0.0000 0.0000 20.8836 0.0000
# 6 0.0000 0.0000 0.0000 0.0000 0.0000 11.8930
#
#
#
# Elastic Compliance Matrix: (Units=1/GPa)
#
#
# Indices 1 2 3 4 5 6 
#
# 1 0.011001 -0.000848 -0.003510 0.000000 0.000000 0.000000
# 2 -0.000848 0.007283 -0.001764 0.000000 0.000000 0.000000
# 3 -0.003510 -0.001764 0.013698 0.000000 0.000000 0.000000
# 4 0.000000 0.000000 0.000000 0.007966 0.000000 0.000000
# 5 0.000000 0.000000 0.000000 0.000000 0.047884 0.000000
# 6 0.000000 0.000000 0.000000 0.000000 0.000000 0.084083
#
#
# Mechanical properties :
#
#
# Convention : Reuss Voigt Hill
#
# Bulk Modulus (GPa) = 50.66722 52.33428 51.50075
# Shear Modulus (GPa) = 26.21388 48.94934 37.58161
#
# Velocity S-wave (km/s) = 3.40330 4.65059 4.07495
# Velocity P-wave (km/s) = 6.15063 7.20839 6.70041
#
# Compressibility (1/GPa) = 0.01973663
#
# Stress axis : x y z
#
# Youngs Moduli (GPa) = 90.90190 137.30909 73.00585
#
# Poissons Ratio (x) = 0.11650 0.25625
# Poissons Ratio (y) = 0.07713 0.12877
# Poissons Ratio (z) = 0.31907 0.24219
#
# Static dielectric constant tensor:
#      x y z
#    x 1.913200 0.000000 0.000000 
#    y 0.000000 1.882040 0.000000 
#    z 0.000000 0.000000 1.860200 
# 
# From -- ./inp_files/9266.got.cif
#   From: 2010.05.17/outbox.cif.g08.bks.cpg/sg39_5_cif.got.tgz:9266.got - 2010.06.03 18:22:40.
