data_PCOD9361112
_publ_section_title
;
Structure prediction by ZEFSAII (Michael W. Deem and Ramdas Pophale) SiO2 
 PCOD9361112
Probable space group: A B M 2
;
_chemical_formula_sum "Si O2"
_cell_formula_units_Z 40
_cell_length_a 5.242688
_cell_length_b 20.499668
_cell_length_c 18.102829
_cell_angle_alpha 90.000000
_cell_angle_beta 90.000000
_cell_angle_gamma 90.000000
_cell_volume 1945.571920
_symmetry_space_group_name_H-M "A B M 2"
_symmetry_group_IT_number 39
_symmetry_cell_setting 'orthorhombic'
loop_
_space_group_symop_operation_xyz
x,y,z
-x,-y,z
-x,1/2+y,z
x,1/2-y,z
x,1/2+y,1/2+z
-x,1/2-y,1/2+z
-x,y,1/2+z
x,-y,1/2+z
loop_
_atom_site_type_symbol
_atom_site_label
_atom_site_fract_x
_atom_site_fract_y
_atom_site_fract_z
Si Si1 0.234313 0.672695 0.531110
Si Si2 0.753714 0.324535 0.357385
Si Si3 0.377179 0.180551 0.237357
Si Si4 0.975517 0.073653 0.241314
Si Si5 0.719204 0.133849 0.116648
O O1 0.289069 0.750000 0.541880
O O2 0.225415 0.661167 0.443512
O O3 0.471980 0.632749 0.564714
O O4 0.965516 0.657007 0.570675
O O5 0.852078 0.250000 0.346609
O O6 0.469828 0.322422 0.321952
O O7 0.877548 0.381048 0.308276
O O8 0.243952 0.250000 0.223534
O O9 0.624082 0.180116 0.184030
O O10 0.224147 0.115462 0.218955
O O11 0.803316 0.072690 0.167006
O O12 0.000000 0.000000 0.266758
#
# Coordination Sequence:
#
# PCOD9361112 Si02
#       5
#     8   8   8   8   8
#     4  11  22  39  65 101 137 168 209 276 341 388
#     4   9  22  39  65  99 131 168 221 279 333 389
#     4  10  20  39  67  98 128 168 223 278 324 382
#     4  11  24  43  68  93 134 181 223 269 327 398
#     4  11  23  39  65  98 131 171 217 266 329 391
#
# _framework density 20.559508000000001
#
# number of rings (size 3 to 8) (size 9 to 14) (size 15 to 20)
#    0.000    1.600    2.000    2.400    2.800    6.400 
#    0.000    1.000    4.400    0.000    0.000    0.000 
#    0.000    0.000    0.000    0.000    0.000    0.000 
#
# Total GULP energy -111372.621843 kJ/mol
# GULP energy per Si atom -5568.631092 kJ/mol
# Density = 2.051271 g / cm^3
# Si number density = 20.559508 Si / 1000 Ang^3
#
#
#
# Elastic Constant Matrix: (Units=GPa)
#
#
# Indices 1 2 3 4 5 6 
#
# 1 114.3851 40.9813 58.1337 0.0000 0.0000 0.0000
# 2 40.9813 137.4902 48.3484 0.0000 0.0000 0.0000
# 3 58.1337 48.3484 163.9651 0.0000 0.0000 0.0000
# 4 0.0000 0.0000 0.0000 15.1627 0.0000 0.0000
# 5 0.0000 0.0000 0.0000 0.0000 29.9984 0.0000
# 6 0.0000 0.0000 0.0000 0.0000 0.0000 31.4361
#
#
#
# Elastic Compliance Matrix: (Units=1/GPa)
#
#
# Indices 1 2 3 4 5 6 
#
# 1 0.011216 -0.002170 -0.003337 0.000000 0.000000 0.000000
# 2 -0.002170 0.008534 -0.001747 0.000000 0.000000 0.000000
# 3 -0.003337 -0.001747 0.007797 0.000000 0.000000 0.000000
# 4 0.000000 0.000000 0.000000 0.065951 0.000000 0.000000
# 5 0.000000 0.000000 0.000000 0.000000 0.033335 0.000000
# 6 0.000000 0.000000 0.000000 0.000000 0.000000 0.031811
#
#
# Mechanical properties :
#
#
# Convention : Reuss Voigt Hill
#
# Bulk Modulus (GPa) = 76.68849 78.97415 77.83132
# Shear Modulus (GPa) = 28.16938 33.21124 30.69031
#
# Velocity S-wave (km/s) = 3.70555 4.02353 3.86781
# Velocity P-wave (km/s) = 7.46257 7.75119 7.60825
#
# Compressibility (1/GPa) = 0.01303977
#
# Stress axis : x y z
#
# Youngs Moduli (GPa) = 89.16211 117.17321 128.25268
#
# Poissons Ratio (x) = 0.25422 0.42794
# Poissons Ratio (y) = 0.19345 0.22409
# Poissons Ratio (z) = 0.29751 0.20474
#
# Static dielectric constant tensor:
#      x y z
#    x 1.870670 0.000000 0.000000 
#    y 0.000000 1.582180 0.000000 
#    z 0.000000 0.000000 1.747720 
# 
# From -- ./inp_files/10905.got.cif
#   From: 2010.05.17/outbox.cif.g08.bks.cpg/sg39_6_cif.got.tgz:10905.got - 2010.06.03 18:22:40.
