data_PCOD9361422
_publ_section_title
;
Structure prediction by ZEFSAII (Michael W. Deem and Ramdas Pophale) SiO2 
 PCOD9361422
Probable space group: A B M 2
;
_chemical_formula_sum "Si O2"
_cell_formula_units_Z 56
_cell_length_a 10.463597
_cell_length_b 17.325513
_cell_length_c 14.547716
_cell_angle_alpha 90.000000
_cell_angle_beta 90.000000
_cell_angle_gamma 90.000000
_cell_volume 2637.314494
_symmetry_space_group_name_H-M "A B M 2"
_symmetry_group_IT_number 39
_symmetry_cell_setting 'orthorhombic'
loop_
_space_group_symop_operation_xyz
x,y,z
-x,-y,z
-x,1/2+y,z
x,1/2-y,z
x,1/2+y,1/2+z
-x,1/2-y,1/2+z
-x,y,1/2+z
x,-y,1/2+z
loop_
_atom_site_type_symbol
_atom_site_label
_atom_site_fract_x
_atom_site_fract_y
_atom_site_fract_z
Si Si1 0.793370 0.661901 0.085390
Si Si2 0.813324 0.539271 0.724676
Si Si3 0.036079 0.839908 0.971053
Si Si4 0.064173 0.881615 0.762942
Si Si5 0.612779 0.943149 0.870853
Si Si6 0.273159 0.052968 0.528352
Si Si7 0.481953 0.340983 0.023348
O O1 0.783981 0.750000 0.051632
O O2 0.848551 0.660437 0.188308
O O3 0.645364 0.637525 0.080738
O O4 0.904506 0.628919 0.017810
O O5 0.865898 0.463898 0.776936
O O6 0.703551 0.574992 0.786569
O O7 0.767827 0.514567 0.624191
O O8 0.929867 0.598205 0.715376
O O9 0.054237 0.750000 0.999168
O O10 0.034262 0.843756 0.860253
O O11 0.155510 0.892878 0.998938
O O12 0.556068 0.868006 0.920271
O O13 0.500000 0.000000 0.839372
O O14 0.686871 0.992692 0.949537
O O15 0.396260 0.106952 0.547493
O O16 0.509257 0.250000 0.030139
#
# Coordination Sequence:
#
# PCOD9361422 Si02
#       7
#     8   8   8   8   8   8   8
#     4  10  21  39  62  91 127 167 210 259 316 376
#     4  11  23  38  63  94 126 165 213 267 316 375
#     4  11  22  40  66  92 128 169 211 264 319 378
#     4  11  22  38  61  96 125 164 214 264 318 376
#     4  10  22  40  63  91 127 166 210 263 316 379
#     4  11  22  43  65  93 127 168 212 266 315 377
#     4  10  22  42  64  91 128 171 212 260 319 376
#
# _framework density 21.233720999999999
#
# number of rings (size 3 to 8) (size 9 to 14) (size 15 to 20)
#    0.000    1.429    2.857    2.571    0.000    2.857 
#    0.000    2.143    0.000    0.000    0.000    0.000 
#    0.000    0.000    0.000    0.000    0.000    0.000 
#
# Total GULP energy -156349.901235 kJ/mol
# GULP energy per Si atom -5583.925044 kJ/mol
# Density = 2.118539 g / cm^3
# Si number density = 21.233721 Si / 1000 Ang^3
#
#
#
# Elastic Constant Matrix: (Units=GPa)
#
#
# Indices 1 2 3 4 5 6 
#
# 1 101.2681 5.4705 18.5462 0.0000 0.0000 0.0000
# 2 5.4705 52.9350 -8.8076 0.0000 0.0000 0.0000
# 3 18.5462 -8.8076 70.0738 0.0000 0.0000 0.0000
# 4 0.0000 0.0000 0.0000 24.9031 0.0000 0.0000
# 5 0.0000 0.0000 0.0000 0.0000 29.3902 0.0000
# 6 0.0000 0.0000 0.0000 0.0000 0.0000 18.6657
#
#
#
# Elastic Compliance Matrix: (Units=1/GPa)
#
#
# Indices 1 2 3 4 5 6 
#
# 1 0.010506 -0.001581 -0.002979 0.000000 0.000000 0.000000
# 2 -0.001581 0.019533 0.002874 0.000000 0.000000 0.000000
# 3 -0.002979 0.002874 0.015420 0.000000 0.000000 0.000000
# 4 0.000000 0.000000 0.000000 0.040156 0.000000 0.000000
# 5 0.000000 0.000000 0.000000 0.000000 0.034025 0.000000
# 6 0.000000 0.000000 0.000000 0.000000 0.000000 0.053574
#
#
# Mechanical properties :
#
#
# Convention : Reuss Voigt Hill
#
# Bulk Modulus (GPa) = 23.76166 28.29946 26.03056
# Shear Modulus (GPa) = 26.23074 28.52966 27.38020
#
# Velocity S-wave (km/s) = 3.51854 3.66949 3.59481
# Velocity P-wave (km/s) = 5.26514 5.59554 5.43285
#
# Compressibility (1/GPa) = 0.04208461
#
# Stress axis : x y z
#
# Youngs Moduli (GPa) = 95.18513 51.19634 64.84924
#
# Poissons Ratio (x) = 0.08096 0.19321
# Poissons Ratio (y) = 0.15053 -0.18635
# Poissons Ratio (z) = 0.28359 -0.14712
#
# Static dielectric constant tensor:
#      x y z
#    x 1.772420 0.000000 0.000000 
#    y 0.000000 1.802730 0.000000 
#    z 0.000000 0.000000 1.749330 
# 
# From -- ./inp_files/8613.got.cif
#   From: 2010.05.17/outbox.cif.g08.bks.cpg/sg39_5_cif.got.tgz:8613.got - 2010.06.03 18:22:40.
