data_PCOD9361396
_publ_section_title
;
Structure prediction by ZEFSAII (Michael W. Deem and Ramdas Pophale) SiO2 
 PCOD9361396
Probable space group: A B M 2
;
_chemical_formula_sum "Si O2"
_cell_formula_units_Z 64
_cell_length_a 13.994300
_cell_length_b 18.075901
_cell_length_c 13.110380
_cell_angle_alpha 90.000000
_cell_angle_beta 90.000000
_cell_angle_gamma 90.000000
_cell_volume 3316.396236
_symmetry_space_group_name_H-M "A B M 2"
_symmetry_group_IT_number 39
_symmetry_cell_setting 'orthorhombic'
loop_
_space_group_symop_operation_xyz
x,y,z
-x,-y,z
-x,1/2+y,z
x,1/2-y,z
x,1/2+y,1/2+z
-x,1/2-y,1/2+z
-x,y,1/2+z
x,-y,1/2+z
loop_
_atom_site_type_symbol
_atom_site_label
_atom_site_fract_x
_atom_site_fract_y
_atom_site_fract_z
Si Si1 0.031179 0.081594 0.966320
Si Si2 0.654068 0.162867 0.563169
Si Si3 0.728501 0.070487 0.740793
Si Si4 0.837533 0.416437 0.264511
Si Si5 0.004385 0.165856 0.153604
Si Si6 0.480645 0.419458 0.199414
Si Si7 0.647061 0.662476 0.821826
Si Si8 0.866867 0.166835 0.856423
O O1 0.104449 0.077965 0.871797
O O2 0.934774 0.123213 0.932106
O O3 0.000000 0.000000 0.996948
O O4 0.063170 0.129621 0.061940
O O5 0.673729 0.250000 0.578205
O O6 0.724829 0.112563 0.631520
O O7 0.553182 0.139559 0.614700
O O8 0.652573 0.146877 0.443271
O O9 0.773443 0.122321 0.826626
O O10 0.789700 0.995373 0.737959
O O11 0.615757 0.062914 0.764081
O O12 0.914183 0.385323 0.183752
O O13 0.750141 0.359815 0.277245
O O14 0.975167 0.250000 0.129481
O O15 0.071129 0.168869 0.252568
O O16 0.500000 0.500000 0.151357
O O17 0.565602 0.385505 0.265842
O O18 0.628449 0.750000 0.809134
O O19 0.847495 0.250000 0.890223
#
# Coordination Sequence:
#
# PCOD9361396 Si02
#       8
#     8   8   8   8   8   8   8   8
#     4  11  23  37  61  89 121 161 201 251 306 375
#     4   9  21  37  61  91 117 158 211 253 310 374
#     4  10  21  39  60  88 121 155 205 252 308 363
#     4  11  23  41  62  92 124 160 212 257 312 371
#     4  10  24  40  60  86 122 162 199 250 311 368
#     4  10  21  40  58  88 125 163 201 259 315 370
#     4  11  22  39  64  92 124 162 209 260 313 375
#     4  10  21  39  60  84 117 155 200 252 304 362
#
# _framework density 19.298055999999999
#
# number of rings (size 3 to 8) (size 9 to 14) (size 15 to 20)
#    0.750    1.000    2.500    1.500    3.500    2.000 
#    0.000    1.250    0.000    1.500    0.000    0.000 
#    0.000    0.000    0.000    0.000    0.000    0.000 
#
# Total GULP energy -178395.161740 kJ/mol
# GULP energy per Si atom -5574.848804 kJ/mol
# Density = 1.925413 g / cm^3
# Si number density = 19.298056 Si / 1000 Ang^3
#
#
#
# Elastic Constant Matrix: (Units=GPa)
#
#
# Indices 1 2 3 4 5 6 
#
# 1 71.1847 4.1267 1.5227 0.0000 0.0000 0.0000
# 2 4.1267 97.7102 20.8004 0.0000 0.0000 0.0000
# 3 1.5227 20.8004 61.5211 0.0000 0.0000 0.0000
# 4 0.0000 0.0000 0.0000 -19.7053 0.0000 0.0000
# 5 0.0000 0.0000 0.0000 0.0000 10.2217 0.0000
# 6 0.0000 0.0000 0.0000 0.0000 0.0000 27.7857
#
#
#
# Elastic Compliance Matrix: (Units=1/GPa)
#
#
# Indices 1 2 3 4 5 6 
#
# 1 0.014084 -0.000561 -0.000159 0.000000 0.000000 0.000000
# 2 -0.000561 0.011050 -0.003722 0.000000 0.000000 0.000000
# 3 -0.000159 -0.003722 0.017517 0.000000 0.000000 0.000000
# 4 0.000000 0.000000 0.000000 -0.050748 0.000000 0.000000
# 5 0.000000 0.000000 0.000000 0.000000 0.097831 0.000000
# 6 0.000000 0.000000 0.000000 0.000000 0.000000 0.035990
#
#
# Mechanical properties :
#
#
# Convention : Reuss Voigt Hill
#
# Bulk Modulus (GPa) = 29.61476 31.47953 30.54715
# Shear Modulus (GPa) = 34.27840 17.25816 25.76828
#
# Velocity S-wave (km/s) = 4.21914 2.99372 3.65811
# Velocity P-wave (km/s) = 6.25414 5.31954 5.80567
#
# Compressibility (1/GPa) = 0.03376695
#
# Stress axis : x y z
#
# Youngs Moduli (GPa) = 71.00317 90.49420 57.08731
#
# Poissons Ratio (x) = 0.05077 0.00907
# Poissons Ratio (y) = 0.03983 0.21250
# Poissons Ratio (z) = 0.01128 0.33685
#
# Static dielectric constant tensor:
#      x y z
#    x 1.683600 0.000000 0.000000 
#    y 0.000000 1.682220 0.000000 
#    z 0.000000 0.000000 1.678760 
# 
# From -- ./inp_files/6680.got.cif
#   From: 2010.05.17/outbox.cif.g08.bks.cpg/sg39_4_cif.got.tgz:6680.got - 2010.06.03 18:22:40.
