data_PCOD9361506
_publ_section_title
;
Structure prediction by ZEFSAII (Michael W. Deem and Ramdas Pophale) SiO2 
 PCOD9361506
Probable space group: A B M 2
;
_chemical_formula_sum "Si O2"
_cell_formula_units_Z 32
_cell_length_a 5.240707
_cell_length_b 15.713555
_cell_length_c 16.439771
_cell_angle_alpha 90.000000
_cell_angle_beta 90.000000
_cell_angle_gamma 90.000000
_cell_volume 1353.817405
_symmetry_space_group_name_H-M "A B M 2"
_symmetry_group_IT_number 39
_symmetry_cell_setting 'orthorhombic'
loop_
_space_group_symop_operation_xyz
x,y,z
-x,-y,z
-x,1/2+y,z
x,1/2-y,z
x,1/2+y,1/2+z
-x,1/2-y,1/2+z
-x,y,1/2+z
x,-y,1/2+z
loop_
_atom_site_type_symbol
_atom_site_label
_atom_site_fract_x
_atom_site_fract_y
_atom_site_fract_z
Si Si1 0.317068 0.406813 0.588590
Si Si2 0.022878 0.400798 0.346136
Si Si3 0.471839 0.654304 0.256909
Si Si4 0.817566 0.900687 0.028534
O O1 0.440837 0.403845 0.677388
O O2 0.533097 0.363081 0.532587
O O3 0.250442 0.501409 0.554591
O O4 0.035117 0.365724 0.588892
O O5 0.302481 0.372675 0.317790
O O6 0.000000 0.500000 0.323739
O O7 0.799976 0.350963 0.300802
O O8 0.950759 0.394520 0.441167
O O9 0.523100 0.750000 0.228869
#
# Coordination Sequence:
#
# PCOD9361506 Si02
#       4
#     8   8   8   8
#     4  10  21  40  67  98 138 173 230 295 343 416
#     4  12  25  44  75 106 136 187 245 299 347 423
#     4  12  28  46  67 105 152 190 226 290 375 440
#     4  10  21  40  69 103 130 170 241 302 338 394
#
# _framework density 23.636863000000002
#
# number of rings (size 3 to 8) (size 9 to 14) (size 15 to 20)
#    0.000    1.000    2.500    4.500   14.000    0.000 
#    0.000    7.500    0.000    0.000    0.000    0.000 
#    0.000    0.000    0.000    0.000    0.000    0.000 
#
# Total GULP energy -89312.547588 kJ/mol
# GULP energy per Si atom -5582.034224 kJ/mol
# Density = 2.358306 g / cm^3
# Si number density = 23.636863 Si / 1000 Ang^3
#
#
#
# Elastic Constant Matrix: (Units=GPa)
#
#
# Indices 1 2 3 4 5 6 
#
# 1 214.6106 10.8823 45.8160 0.0000 0.0000 0.0000
# 2 10.8823 57.9211 21.4341 0.0000 0.0000 0.0000
# 3 45.8160 21.4341 135.4683 0.0000 0.0000 0.0000
# 4 0.0000 0.0000 0.0000 -47.5890 0.0000 0.0000
# 5 0.0000 0.0000 0.0000 0.0000 46.6947 0.0000
# 6 0.0000 0.0000 0.0000 0.0000 0.0000 7.5310
#
#
#
# Elastic Compliance Matrix: (Units=1/GPa)
#
#
# Indices 1 2 3 4 5 6 
#
# 1 0.005028 -0.000335 -0.001648 0.000000 0.000000 0.000000
# 2 -0.000335 0.018361 -0.002792 0.000000 0.000000 0.000000
# 3 -0.001648 -0.002792 0.008381 0.000000 0.000000 0.000000
# 4 0.000000 0.000000 0.000000 -0.021013 0.000000 0.000000
# 5 0.000000 0.000000 0.000000 0.000000 0.021416 0.000000
# 6 0.000000 0.000000 0.000000 0.000000 0.000000 0.132785
#
#
# Mechanical properties :
#
#
# Convention : Reuss Voigt Hill
#
# Bulk Modulus (GPa) = 45.00216 62.69611 53.84913
# Shear Modulus (GPa) = 27.48559 23.31850 25.40205
#
# Velocity S-wave (km/s) = 3.41372 3.14432 3.28179
# Velocity P-wave (km/s) = 5.88373 6.30592 6.09848
#
# Compressibility (1/GPa) = 0.02222116
#
# Stress axis : x y z
#
# Youngs Moduli (GPa) = 198.87332 54.46348 119.32108
#
# Poissons Ratio (x) = 0.01825 0.19659
# Poissons Ratio (y) = 0.06663 0.33312
# Poissons Ratio (z) = 0.32766 0.15205
#
# Static dielectric constant tensor:
#      x y z
#    x 2.043150 0.000000 0.000000 
#    y 0.000000 2.019200 0.000000 
#    z 0.000000 0.000000 1.945900 
# 
# From -- ./inp_files/7239.got.cif
#   From: 2010.05.17/outbox.cif.g08.bks.cpg/sg39_4_cif.got.tgz:7239.got - 2010.06.03 18:22:40.
