data_PCOD9361582
_publ_section_title
;
Structure prediction by ZEFSAII (Michael W. Deem and Ramdas Pophale) SiO2 
 PCOD9361582
Probable space group: A B M 2
;
_chemical_formula_sum "Si O2"
_cell_formula_units_Z 40
_cell_length_a 4.988211
_cell_length_b 28.946044
_cell_length_c 11.064540
_cell_angle_alpha 90.000000
_cell_angle_beta 90.000000
_cell_angle_gamma 90.000000
_cell_volume 1597.597590
_symmetry_space_group_name_H-M "A B M 2"
_symmetry_group_IT_number 39
_symmetry_cell_setting 'orthorhombic'
loop_
_space_group_symop_operation_xyz
x,y,z
-x,-y,z
-x,1/2+y,z
x,1/2-y,z
x,1/2+y,1/2+z
-x,1/2-y,1/2+z
-x,y,1/2+z
x,-y,1/2+z
loop_
_atom_site_type_symbol
_atom_site_label
_atom_site_fract_x
_atom_site_fract_y
_atom_site_fract_z
Si Si1 0.638395 0.848832 0.897230
Si Si2 0.301556 0.924815 0.225263
Si Si3 0.508476 0.750000 0.802527
Si Si4 0.500000 0.000000 0.057033
Si Si5 0.777605 0.750000 0.559819
Si Si6 0.000000 0.000000 0.382543
Si Si7 0.128348 0.150551 0.551950
O O1 0.541089 0.890376 0.813352
O O2 0.643903 0.799148 0.833622
O O3 0.434792 0.846115 0.008245
O O4 0.931770 0.861137 0.943292
O O5 0.500171 0.955361 0.143555
O O6 0.121046 0.889505 0.148618
O O7 0.112063 0.959616 0.297811
O O8 0.525062 0.750000 0.654662
O O9 0.284690 0.750000 0.913647
O O10 0.247517 0.990679 0.971670
O O11 0.938451 0.796888 0.588526
#
# Coordination Sequence:
#
# PCOD9361582 Si02
#       7
#     8   8   4   4   4   4   8
#     4  11  25  45  72 109 149 196 251 307 377 467
#     4  12  26  49  76 104 147 197 253 320 394 460
#     4  10  21  46  73 116 156 204 250 312 382 466
#     4  12  28  48  72 106 144 192 252 322 394 466
#     4  10  21  46  73 116 158 208 252 320 384 472
#     4  12  28  48  72 106 144 190 256 318 394 468
#     4  11  25  45  72 109 149 197 249 309 377 464
#
# _framework density 25.037593999999999
#
# number of rings (size 3 to 8) (size 9 to 14) (size 15 to 20)
#    0.000    0.800    2.000    4.200    0.000    8.000 
#    3.600    2.000    0.000    0.000    0.000    0.000 
#    0.000    0.000    0.000    0.000    0.000    0.000 
#
# Total GULP energy -111862.088053 kJ/mol
# GULP energy per Si atom -5593.104403 kJ/mol
# Density = 2.498061 g / cm^3
# Si number density = 25.037594 Si / 1000 Ang^3
#
#
#
# Elastic Constant Matrix: (Units=GPa)
#
#
# Indices 1 2 3 4 5 6 
#
# 1 60.6526 -3.2728 17.7940 0.0000 0.0000 0.0000
# 2 -3.2728 156.4303 57.0200 0.0000 0.0000 0.0000
# 3 17.7940 57.0200 91.2982 0.0000 0.0000 0.0000
# 4 0.0000 0.0000 0.0000 62.8269 0.0000 0.0000
# 5 0.0000 0.0000 0.0000 0.0000 35.7323 0.0000
# 6 0.0000 0.0000 0.0000 0.0000 0.0000 20.8319
#
#
#
# Elastic Compliance Matrix: (Units=1/GPa)
#
#
# Indices 1 2 3 4 5 6 
#
# 1 0.018027 0.002147 -0.004854 0.000000 0.000000 0.000000
# 2 0.002147 0.008532 -0.005747 0.000000 0.000000 0.000000
# 3 -0.004854 -0.005747 0.015489 0.000000 0.000000 0.000000
# 4 0.000000 0.000000 0.000000 0.015917 0.000000 0.000000
# 5 0.000000 0.000000 0.000000 0.000000 0.027986 0.000000
# 6 0.000000 0.000000 0.000000 0.000000 0.000000 0.048003
#
#
# Mechanical properties :
#
#
# Convention : Reuss Voigt Hill
#
# Bulk Modulus (GPa) = 39.77944 50.16260 44.97102
# Shear Modulus (GPa) = 31.39843 39.66754 35.53299
#
# Velocity S-wave (km/s) = 3.54510 3.98467 3.77129
# Velocity P-wave (km/s) = 5.71659 6.42250 6.07980
#
# Compressibility (1/GPa) = 0.02513861
#
# Stress axis : x y z
#
# Youngs Moduli (GPa) = 55.47152 117.19950 64.56343
#
# Poissons Ratio (x) = -0.25157 0.31340
# Poissons Ratio (y) = -0.11907 0.37106
# Poissons Ratio (z) = 0.26927 0.67358
#
# Static dielectric constant tensor:
#      x y z
#    x 1.940210 0.000000 0.000000 
#    y 0.000000 1.947440 0.000000 
#    z 0.000000 0.000000 2.050780 
# 
# From -- ./inp_files/4580.got.cif
#   From: 2010.05.17/outbox.cif.g08.bks.cpg/sg39_3_cif.got.tgz:4580.got - 2010.06.03 18:22:40.
