data_PCOD9361408
_publ_section_title
;
Structure prediction by ZEFSAII (Michael W. Deem and Ramdas Pophale) SiO2 
 PCOD9361408
Probable space group: A B M 2
;
_chemical_formula_sum "Si O2"
_cell_formula_units_Z 64
_cell_length_a 24.355218
_cell_length_b 8.685504
_cell_length_c 15.434561
_cell_angle_alpha 90.000000
_cell_angle_beta 90.000000
_cell_angle_gamma 90.000000
_cell_volume 3264.986030
_symmetry_space_group_name_H-M "A B M 2"
_symmetry_group_IT_number 39
_symmetry_cell_setting 'orthorhombic'
loop_
_space_group_symop_operation_xyz
x,y,z
-x,-y,z
-x,1/2+y,z
x,1/2-y,z
x,1/2+y,1/2+z
-x,1/2-y,1/2+z
-x,y,1/2+z
x,-y,1/2+z
loop_
_atom_site_type_symbol
_atom_site_label
_atom_site_fract_x
_atom_site_fract_y
_atom_site_fract_z
Si Si1 0.622064 0.436052 0.323120
Si Si2 0.861086 0.566781 0.282033
Si Si3 0.440203 0.565553 0.663126
Si Si4 0.752541 0.928122 0.559776
Si Si5 0.060289 0.565686 0.430937
Si Si6 0.125852 0.436393 0.588654
Si Si7 0.255791 0.570554 0.267989
Si Si8 0.639650 0.065590 0.512181
O O1 0.619060 0.250000 0.315101
O O2 0.580502 0.510768 0.256420
O O3 0.684875 0.481369 0.300775
O O4 0.612445 0.482296 0.422058
O O5 0.867851 0.750000 0.282067
O O6 0.898465 0.492626 0.356301
O O7 0.876346 0.500057 0.186681
O O8 0.797172 0.523937 0.297730
O O9 0.500000 0.500000 0.643509
O O10 0.441970 0.750000 0.660134
O O11 0.395048 0.507869 0.593795
O O12 0.750082 0.750000 0.533229
O O13 0.814801 0.984123 0.548605
O O14 0.743047 0.936264 0.663458
O O15 0.702898 0.015899 0.515608
O O16 0.059596 0.750000 0.433018
O O17 0.080501 0.500340 0.523632
O O18 0.000000 0.500000 0.412377
O O19 0.124769 0.250000 0.592241
O O20 0.247945 0.750000 0.292589
O O21 0.638941 0.250000 0.514857
#
# Coordination Sequence:
#
# PCOD9361408 Si02
#       8
#     8   8   8   8   8   8   8   8
#     4  10  21  39  61  88 121 159 201 249 304 362
#     4  11  23  40  63  94 129 169 213 261 313 374
#     4  11  24  42  62  86 118 159 204 254 304 363
#     4   9  18  34  59  89 123 160 199 246 303 361
#     4  12  26  45  67  93 126 168 215 265 318 377
#     4  10  22  42  64  94 129 166 212 261 315 377
#     4   9  18  35  59  88 124 164 202 251 311 368
#     4  10  22  37  58  90 122 155 199 247 301 363
#
# _framework density 19.601921999999998
#
# number of rings (size 3 to 8) (size 9 to 14) (size 15 to 20)
#    0.000    1.750    1.250    3.750    1.750    5.000 
#    0.000    3.750    0.000    0.000    0.000    0.000 
#    0.000    0.000    0.000    0.000    0.000    0.000 
#
# Total GULP energy -178802.898456 kJ/mol
# GULP energy per Si atom -5587.590577 kJ/mol
# Density = 1.955731 g / cm^3
# Si number density = 19.601922 Si / 1000 Ang^3
#
#
#
# Elastic Constant Matrix: (Units=GPa)
#
#
# Indices 1 2 3 4 5 6 
#
# 1 51.8075 17.1903 -4.1647 0.0000 0.0000 0.0000
# 2 17.1903 70.3584 12.9196 0.0000 0.0000 0.0000
# 3 -4.1647 12.9196 31.6807 0.0000 0.0000 0.0000
# 4 0.0000 0.0000 0.0000 26.1621 0.0000 0.0000
# 5 0.0000 0.0000 0.0000 0.0000 16.1578 0.0000
# 6 0.0000 0.0000 0.0000 0.0000 0.0000 34.7215
#
#
#
# Elastic Compliance Matrix: (Units=1/GPa)
#
#
# Indices 1 2 3 4 5 6 
#
# 1 0.021844 -0.006339 0.005457 0.000000 0.000000 0.000000
# 2 -0.006339 0.017203 -0.007849 0.000000 0.000000 0.000000
# 3 0.005457 -0.007849 0.035483 0.000000 0.000000 0.000000
# 4 0.000000 0.000000 0.000000 0.038223 0.000000 0.000000
# 5 0.000000 0.000000 0.000000 0.000000 0.061890 0.000000
# 6 0.000000 0.000000 0.000000 0.000000 0.000000 0.028801
#
#
# Mechanical properties :
#
#
# Convention : Reuss Voigt Hill
#
# Bulk Modulus (GPa) = 17.52294 22.85966 20.19130
# Shear Modulus (GPa) = 20.83951 23.93505 22.38728
#
# Velocity S-wave (km/s) = 3.26411 3.49815 3.38316
# Velocity P-wave (km/s) = 4.81297 5.29182 5.05807
#
# Compressibility (1/GPa) = 0.05706806
#
# Stress axis : x y z
#
# Youngs Moduli (GPa) = 45.77856 58.12942 28.18240
#
# Poissons Ratio (x) = 0.36849 -0.15378
# Poissons Ratio (y) = 0.29019 0.22120
# Poissons Ratio (z) = -0.24980 0.45625
#
# Static dielectric constant tensor:
#      x y z
#    x 1.664800 0.000000 0.000000 
#    y 0.000000 1.662620 0.000000 
#    z 0.000000 0.000000 1.687430 
# 
# From -- ./inp_files/10659.got.cif
#   From: 2010.05.17/outbox.cif.g08.bks.cpg/sg39_6_cif.got.tgz:10659.got - 2010.06.03 18:22:40.
