data_PCOD9361018
_publ_section_title
;
Structure prediction by ZEFSAII (Michael W. Deem and Ramdas Pophale) SiO2 
 PCOD9361018
Probable space group: A B M 2
;
_chemical_formula_sum "Si O2"
_cell_formula_units_Z 40
_cell_length_a 7.967246
_cell_length_b 24.680420
_cell_length_c 10.229808
_cell_angle_alpha 90.000000
_cell_angle_beta 90.000000
_cell_angle_gamma 90.000000
_cell_volume 2011.538066
_symmetry_space_group_name_H-M "A B M 2"
_symmetry_group_IT_number 39
_symmetry_cell_setting 'orthorhombic'
loop_
_space_group_symop_operation_xyz
x,y,z
-x,-y,z
-x,1/2+y,z
x,1/2-y,z
x,1/2+y,1/2+z
-x,1/2-y,1/2+z
-x,y,1/2+z
x,-y,1/2+z
loop_
_atom_site_type_symbol
_atom_site_label
_atom_site_fract_x
_atom_site_fract_y
_atom_site_fract_z
Si Si1 0.125276 0.686323 0.080480
Si Si2 0.827277 0.029853 0.953810
Si Si3 0.406127 0.394340 0.618472
Si Si4 0.654702 0.920518 0.893465
Si Si5 0.014801 0.628379 0.823988
O O1 0.113395 0.750000 0.101956
O O2 0.311462 0.663031 0.109355
O O3 0.003165 0.654175 0.181142
O O4 0.081958 0.670176 0.932102
O O5 0.876888 0.073633 0.842860
O O6 0.702989 0.983271 0.906479
O O7 0.737241 0.063067 0.069212
O O8 0.000000 0.000000 0.995610
O O9 0.454510 0.408935 0.765184
O O10 0.558646 0.400358 0.520215
O O11 0.827883 0.888958 0.868162
#
# Coordination Sequence:
#
# PCOD9361018 Si02
#       5
#     8   8   8   8   8
#     4  10  20  38  59  81 108 142 185 236 279 321
#     4   9  19  34  55  82 111 142 178 227 280 332
#     4  10  22  36  53  80 111 146 185 223 271 337
#     4  10  21  36  54  80 114 146 179 223 276 335
#     4   9  20  36  58  83 108 140 185 229 278 335
#
# _framework density 19.885283000000001
#
# number of rings (size 3 to 8) (size 9 to 14) (size 15 to 20)
#    0.000    2.400    0.000    1.200    0.000   13.600 
#    0.000    5.000    0.000    0.000    0.000    0.000 
#    0.000    0.000    0.000    0.000    0.000    0.000 
#
# Total GULP energy -111701.470762 kJ/mol
# GULP energy per Si atom -5585.073538 kJ/mol
# Density = 1.984002 g / cm^3
# Si number density = 19.885283 Si / 1000 Ang^3
#
#
#
# Elastic Constant Matrix: (Units=GPa)
#
#
# Indices 1 2 3 4 5 6 
#
# 1 37.4700 -4.9809 -0.0970 0.0000 0.0000 0.0000
# 2 -4.9809 73.9448 -8.6543 0.0000 0.0000 0.0000
# 3 -0.0970 -8.6543 57.7879 0.0000 0.0000 0.0000
# 4 0.0000 0.0000 0.0000 16.0132 0.0000 0.0000
# 5 0.0000 0.0000 0.0000 0.0000 31.4041 0.0000
# 6 0.0000 0.0000 0.0000 0.0000 0.0000 10.2131
#
#
#
# Elastic Compliance Matrix: (Units=1/GPa)
#
#
# Indices 1 2 3 4 5 6 
#
# 1 0.026935 0.001852 0.000323 0.000000 0.000000 0.000000
# 2 0.001852 0.013892 0.002084 0.000000 0.000000 0.000000
# 3 0.000323 0.002084 0.017617 0.000000 0.000000 0.000000
# 4 0.000000 0.000000 0.000000 0.062449 0.000000 0.000000
# 5 0.000000 0.000000 0.000000 0.000000 0.031843 0.000000
# 6 0.000000 0.000000 0.000000 0.000000 0.000000 0.097913
#
#
# Mechanical properties :
#
#
# Convention : Reuss Voigt Hill
#
# Bulk Modulus (GPa) = 14.93406 15.74871 15.34139
# Shear Modulus (GPa) = 18.90695 23.72174 21.31434
#
# Velocity S-wave (km/s) = 3.08685 3.45763 3.27749
# Velocity P-wave (km/s) = 4.49792 4.88643 4.69620
#
# Compressibility (1/GPa) = 0.06696102
#
# Stress axis : x y z
#
# Youngs Moduli (GPa) = 37.12634 71.98272 56.76257
#
# Poissons Ratio (x) = -0.13332 -0.01831
# Poissons Ratio (y) = -0.06876 -0.11827
# Poissons Ratio (z) = -0.01198 -0.14998
#
# Static dielectric constant tensor:
#      x y z
#    x 1.725200 0.000000 0.000000 
#    y 0.000000 1.688750 0.000000 
#    z 0.000000 0.000000 1.700520 
# 
# From -- ./inp_files/2093.got.cif
#   From: 2010.05.17/outbox.cif.g08.bks.cpg/sg39_2_cif.got.tgz:2093.got - 2010.06.03 18:22:40.
