data_PCOD9361437
_publ_section_title
;
Structure prediction by ZEFSAII (Michael W. Deem and Ramdas Pophale) SiO2 
 PCOD9361437
Probable space group: A B M 2
;
_chemical_formula_sum "Si O2"
_cell_formula_units_Z 64
_cell_length_a 24.097229
_cell_length_b 8.258424
_cell_length_c 14.205051
_cell_angle_alpha 90.000000
_cell_angle_beta 90.000000
_cell_angle_gamma 90.000000
_cell_volume 2826.878082
_symmetry_space_group_name_H-M "A B M 2"
_symmetry_group_IT_number 39
_symmetry_cell_setting 'orthorhombic'
loop_
_space_group_symop_operation_xyz
x,y,z
-x,-y,z
-x,1/2+y,z
x,1/2-y,z
x,1/2+y,1/2+z
-x,1/2-y,1/2+z
-x,y,1/2+z
x,-y,1/2+z
loop_
_atom_site_type_symbol
_atom_site_label
_atom_site_fract_x
_atom_site_fract_y
_atom_site_fract_z
Si Si1 0.940144 0.434161 0.811670
Si Si2 0.655951 0.444542 0.564547
Si Si3 0.060005 0.434496 0.539130
Si Si4 0.821904 0.931766 0.782123
Si Si5 0.437242 0.941547 0.417074
Si Si6 0.656974 0.058933 0.786462
Si Si7 0.175929 0.425036 0.096801
Si Si8 0.254471 0.500123 0.927347
O O1 0.933628 0.250000 0.779100
O O2 0.887652 0.538450 0.780910
O O3 0.000000 0.500000 0.782440
O O4 0.939579 0.435306 0.925456
O O5 0.670499 0.250000 0.550909
O O6 0.596860 0.469070 0.514095
O O7 0.656518 0.475348 0.675508
O O8 0.699488 0.552179 0.505018
O O9 0.067309 0.250000 0.571388
O O10 0.112525 0.537136 0.571475
O O11 0.000000 0.500000 0.568240
O O12 0.809832 0.750000 0.816589
O O13 0.802585 0.952113 0.675232
O O14 0.792668 0.057743 0.852997
O O15 0.436074 0.750000 0.398387
O O16 0.500000 0.000000 0.423085
O O17 0.402332 0.028857 0.334827
O O18 0.672516 0.250000 0.799313
O O19 0.700646 0.951218 0.846230
O O20 0.180034 0.250000 0.142645
O O21 0.212102 0.424704 0.003124
#
# Coordination Sequence:
#
# PCOD9361437 Si02
#       8
#     8   8   8   8   8   8   8   8
#     4  10  21  39  64  91 122 158 201 253 316 385
#     4   9  19  39  64  92 126 169 212 257 310 367
#     4  10  21  39  64  92 122 157 202 254 316 387
#     4  12  25  41  63  93 125 161 209 259 315 383
#     4  10  21  39  65  97 137 177 218 261 315 368
#     4  10  22  41  67  96 129 168 217 265 313 370
#     4  12  25  42  64  91 124 164 209 259 321 382
#     4  11  23  40  64  90 125 166 207 258 316 378
#
# _framework density 22.639816
#
# number of rings (size 3 to 8) (size 9 to 14) (size 15 to 20)
#    0.000    1.500    1.250    3.750    0.000    6.000 
#    0.000    6.875    0.000    0.000    0.000    0.000 
#    0.000    0.000    0.000    0.000    0.000    0.000 
#
# Total GULP energy -178378.929718 kJ/mol
# GULP energy per Si atom -5574.341554 kJ/mol
# Density = 2.258829 g / cm^3
# Si number density = 22.639816 Si / 1000 Ang^3
#
#
#
# Elastic Constant Matrix: (Units=GPa)
#
#
# Indices 1 2 3 4 5 6 
#
# 1 167.0045 25.4284 60.0678 0.0000 0.0000 0.0000
# 2 25.4284 78.0142 32.5360 0.0000 0.0000 0.0000
# 3 60.0678 32.5360 175.1875 0.0000 0.0000 0.0000
# 4 0.0000 0.0000 0.0000 7.9401 0.0000 0.0000
# 5 0.0000 0.0000 0.0000 0.0000 3.8218 0.0000
# 6 0.0000 0.0000 0.0000 0.0000 0.0000 -7.3644
#
#
#
# Elastic Compliance Matrix: (Units=1/GPa)
#
#
# Indices 1 2 3 4 5 6 
#
# 1 0.006965 -0.001381 -0.002132 0.000000 0.000000 0.000000
# 2 -0.001381 0.014168 -0.002158 0.000000 0.000000 0.000000
# 3 -0.002132 -0.002158 0.006840 0.000000 0.000000 0.000000
# 4 0.000000 0.000000 0.000000 0.125942 0.000000 0.000000
# 5 0.000000 0.000000 0.000000 0.000000 0.261660 0.000000
# 6 0.000000 0.000000 0.000000 0.000000 0.000000 -0.135789
#
#
# Mechanical properties :
#
#
# Convention : Reuss Voigt Hill
#
# Bulk Modulus (GPa) = 60.12560 72.91896 66.52228
# Shear Modulus (GPa) = 16.85364 21.02443 18.93903
#
# Velocity S-wave (km/s) = 2.73137 3.05068 2.89543
# Velocity P-wave (km/s) = 6.04668 6.68484 6.37375
#
# Compressibility (1/GPa) = 0.01663185
#
# Stress axis : x y z
#
# Youngs Moduli (GPa) = 143.57824 70.58018 146.20355
#
# Poissons Ratio (x) = 0.09748 0.31164
# Poissons Ratio (y) = 0.19831 0.31547
# Poissons Ratio (z) = 0.30605 0.15230
#
# Static dielectric constant tensor:
#      x y z
#    x 1.813370 0.000000 0.000000 
#    y 0.000000 1.891260 0.000000 
#    z 0.000000 0.000000 1.814220 
# 
# From -- ./inp_files/10596.got.cif
#   From: 2010.05.17/outbox.cif.g08.bks.cpg/sg39_6_cif.got.tgz:10596.got - 2010.06.03 18:22:40.
