data_PCOD9361029
_publ_section_title
;
Structure prediction by ZEFSAII (Michael W. Deem and Ramdas Pophale) SiO2 
 PCOD9361029
Probable space group: A B M 2
;
_chemical_formula_sum "Si O2"
_cell_formula_units_Z 60
_cell_length_a 12.660127
_cell_length_b 22.904211
_cell_length_c 10.216116
_cell_angle_alpha 90.000000
_cell_angle_beta 90.000000
_cell_angle_gamma 90.000000
_cell_volume 2962.369405
_symmetry_space_group_name_H-M "A B M 2"
_symmetry_group_IT_number 39
_symmetry_cell_setting 'orthorhombic'
loop_
_space_group_symop_operation_xyz
x,y,z
-x,-y,z
-x,1/2+y,z
x,1/2-y,z
x,1/2+y,1/2+z
-x,1/2-y,1/2+z
-x,y,1/2+z
x,-y,1/2+z
loop_
_atom_site_type_symbol
_atom_site_label
_atom_site_fract_x
_atom_site_fract_y
_atom_site_fract_z
Si Si1 0.950201 0.634731 0.539790
Si Si2 0.725581 0.337733 0.479550
Si Si3 0.144269 0.050249 0.984317
Si Si4 0.252274 0.318195 0.421767
Si Si5 0.822447 0.548239 0.696056
Si Si6 0.342804 0.358478 0.695449
Si Si7 0.913822 0.250000 0.558788
Si Si8 0.574241 0.818164 0.207506
O O1 0.856609 0.645912 0.434061
O O2 0.895561 0.604511 0.664764
O O3 0.039076 0.589453 0.493649
O O4 0.998001 0.697620 0.573191
O O5 0.758968 0.404741 0.500622
O O6 0.708504 0.329775 0.324932
O O7 0.821744 0.299717 0.533211
O O8 0.622813 0.322589 0.562780
O O9 0.153704 0.024915 0.839232
O O10 0.151272 0.000057 0.090169
O O11 0.226368 0.250000 0.396969
O O12 0.309319 0.325934 0.562076
O O13 0.333478 0.336690 0.308516
O O14 0.705758 0.576313 0.686498
O O15 0.467695 0.354736 0.715122
O O16 0.549767 0.750000 0.236102
#
# Coordination Sequence:
#
# PCOD9361029 Si02
#       8
#     8   8   8   8   8   8   4   8
#     4  10  21  38  61  92 132 166 208 258 328 386
#     4  10  22  40  61  93 124 168 211 253 320 392
#     4  10  23  42  66  89 123 166 216 273 323 384
#     4  10  21  36  56  91 129 168 208 253 310 388
#     4  10  23  43  64  93 119 165 223 268 324 383
#     4  10  22  39  62  88 123 166 216 262 315 381
#     4  10  20  38  60  90 132 170 200 258 318 394
#     4  11  22  37  61  95 131 169 208 259 320 384
#
# _framework density 20.254057
#
# number of rings (size 3 to 8) (size 9 to 14) (size 15 to 20)
#    0.000    1.867    1.333    1.600    1.867    7.467 
#    0.000    2.667    0.000    3.200    0.000    0.000 
#    0.000    0.000    0.000    0.000    0.000    0.000 
#
# Total GULP energy -167046.198118 kJ/mol
# GULP energy per Si atom -5568.206604 kJ/mol
# Density = 2.020796 g / cm^3
# Si number density = 20.254057 Si / 1000 Ang^3
#
#
#
# Elastic Constant Matrix: (Units=GPa)
#
#
# Indices 1 2 3 4 5 6 
#
# 1 104.7048 50.9769 29.9372 0.0000 0.0000 0.0000
# 2 50.9769 103.6597 54.8657 0.0000 0.0000 0.0000
# 3 29.9372 54.8657 82.1588 0.0000 0.0000 0.0000
# 4 0.0000 0.0000 0.0000 23.2523 0.0000 0.0000
# 5 0.0000 0.0000 0.0000 0.0000 13.2077 0.0000
# 6 0.0000 0.0000 0.0000 0.0000 0.0000 17.6882
#
#
#
# Elastic Compliance Matrix: (Units=1/GPa)
#
#
# Indices 1 2 3 4 5 6 
#
# 1 0.012583 -0.005817 -0.000700 0.000000 0.000000 0.000000
# 2 -0.005817 0.017610 -0.009640 0.000000 0.000000 0.000000
# 3 -0.000700 -0.009640 0.018865 0.000000 0.000000 0.000000
# 4 0.000000 0.000000 0.000000 0.043006 0.000000 0.000000
# 5 0.000000 0.000000 0.000000 0.000000 0.075713 0.000000
# 6 0.000000 0.000000 0.000000 0.000000 0.000000 0.056535
#
#
# Mechanical properties :
#
#
# Convention : Reuss Voigt Hill
#
# Bulk Modulus (GPa) = 59.73017 62.45366 61.09192
# Shear Modulus (GPa) = 19.06872 21.14589 20.10731
#
# Velocity S-wave (km/s) = 3.07168 3.23465 3.15422
# Velocity P-wave (km/s) = 6.49113 6.69722 6.59498
#
# Compressibility (1/GPa) = 0.01674196
#
# Stress axis : x y z
#
# Youngs Moduli (GPa) = 79.47138 56.78480 53.00946
#
# Poissons Ratio (x) = 0.33034 0.03712
# Poissons Ratio (y) = 0.46232 0.51103
# Poissons Ratio (z) = 0.05564 0.54743
#
# Static dielectric constant tensor:
#      x y z
#    x 1.745410 0.000000 0.000000 
#    y 0.000000 1.710430 0.000000 
#    z 0.000000 0.000000 1.729620 
# 
# From -- ./inp_files/6007.got.cif
#   From: 2010.05.17/outbox.cif.g08.bks.cpg/sg39_4_cif.got.tgz:6007.got - 2010.06.03 18:22:40.
