data_PCOD9361266
_publ_section_title
;
Structure prediction by ZEFSAII (Michael W. Deem and Ramdas Pophale) SiO2 
 PCOD9361266
Probable space group: A B M 2
;
_chemical_formula_sum "Si O2"
_cell_formula_units_Z 56
_cell_length_a 19.911285
_cell_length_b 8.955443
_cell_length_c 16.159160
_cell_angle_alpha 90.000000
_cell_angle_beta 90.000000
_cell_angle_gamma 90.000000
_cell_volume 2881.410562
_symmetry_space_group_name_H-M "A B M 2"
_symmetry_group_IT_number 39
_symmetry_cell_setting 'orthorhombic'
loop_
_space_group_symop_operation_xyz
x,y,z
-x,-y,z
-x,1/2+y,z
x,1/2-y,z
x,1/2+y,1/2+z
-x,1/2-y,1/2+z
-x,y,1/2+z
x,-y,1/2+z
loop_
_atom_site_type_symbol
_atom_site_label
_atom_site_fract_x
_atom_site_fract_y
_atom_site_fract_z
Si Si1 0.573644 0.929773 0.748110
Si Si2 0.794819 0.928776 0.657211
Si Si3 0.203623 0.573705 0.833657
Si Si4 0.345062 0.431391 0.584162
Si Si5 0.651394 0.072189 0.901442
Si Si6 0.931073 0.421922 0.398590
Si Si7 0.931525 0.421229 0.598718
O O1 0.570453 0.750000 0.749423
O O2 0.610637 0.977143 0.662836
O O3 0.500000 0.000000 0.750624
O O4 0.615079 0.987090 0.827304
O O5 0.797958 0.750000 0.656885
O O6 0.731941 0.977027 0.600888
O O7 0.781030 0.988418 0.748872
O O8 0.865436 0.994411 0.628327
O O9 0.196179 0.750000 0.818026
O O10 0.268155 0.553511 0.892305
O O11 0.134751 0.508970 0.869541
O O12 0.345403 0.250000 0.582629
O O13 0.368818 0.479985 0.493410
O O14 0.637490 0.250000 0.893178
O O15 0.928542 0.250000 0.370440
O O16 0.931775 0.422547 0.498642
O O17 0.000000 0.500000 0.370294
O O18 0.929957 0.250000 0.626912
O O19 0.000000 0.500000 0.627112
#
# Coordination Sequence:
#
# PCOD9361266 Si02
#       7
#     8   8   8   8   8   8   8
#     4  11  23  42  65  93 128 163 202 248 300 360
#     4  11  21  37  60  85 118 158 201 251 308 364
#     4  11  22  36  58  87 121 156 201 254 307 363
#     4   9  20  39  64  91 124 163 204 247 301 363
#     4  10  21  40  65  93 125 163 205 250 302 363
#     4  10  21  37  57  81 114 154 201 254 309 369
#     4  10  21  37  56  82 114 152 200 253 308 367
#
# _framework density 19.434926999999998
#
# number of rings (size 3 to 8) (size 9 to 14) (size 15 to 20)
#    0.000    1.714    1.429    3.000    0.000    4.571 
#    0.000    7.143    0.000    0.000    0.000    0.000 
#    0.000    0.000    0.000    0.000    0.000    0.000 
#
# Total GULP energy -156442.149075 kJ/mol
# GULP energy per Si atom -5587.219610 kJ/mol
# Density = 1.939069 g / cm^3
# Si number density = 19.434927 Si / 1000 Ang^3
#
#
#
# Elastic Constant Matrix: (Units=GPa)
#
#
# Indices 1 2 3 4 5 6 
#
# 1 125.9099 51.5597 53.8400 0.0000 0.0000 0.0000
# 2 51.5597 92.8147 39.7505 0.0000 0.0000 0.0000
# 3 53.8400 39.7505 113.3127 0.0000 0.0000 0.0000
# 4 0.0000 0.0000 0.0000 28.3448 0.0000 0.0000
# 5 0.0000 0.0000 0.0000 0.0000 21.0702 0.0000
# 6 0.0000 0.0000 0.0000 0.0000 0.0000 26.8845
#
#
#
# Elastic Compliance Matrix: (Units=1/GPa)
#
#
# Indices 1 2 3 4 5 6 
#
# 1 0.011522 -0.004773 -0.003800 0.000000 0.000000 0.000000
# 2 -0.004773 0.014656 -0.002874 0.000000 0.000000 0.000000
# 3 -0.003800 -0.002874 0.011639 0.000000 0.000000 0.000000
# 4 0.000000 0.000000 0.000000 0.035280 0.000000 0.000000
# 5 0.000000 0.000000 0.000000 0.000000 0.047460 0.000000
# 6 0.000000 0.000000 0.000000 0.000000 0.000000 0.037196
#
#
# Mechanical properties :
#
#
# Convention : Reuss Voigt Hill
#
# Bulk Modulus (GPa) = 67.00874 69.14862 68.07868
# Shear Modulus (GPa) = 26.93662 27.71904 27.32783
#
# Velocity S-wave (km/s) = 3.72693 3.78067 3.75389
# Velocity P-wave (km/s) = 7.28515 7.39694 7.34126
#
# Compressibility (1/GPa) = 0.01492343
#
# Stress axis : x y z
#
# Youngs Moduli (GPa) = 86.79334 68.23011 85.91932
#
# Poissons Ratio (x) = 0.32566 0.32650
# Poissons Ratio (y) = 0.41426 0.24690
# Poissons Ratio (z) = 0.32982 0.19607
#
# Static dielectric constant tensor:
#      x y z
#    x 1.653440 0.000000 0.000000 
#    y 0.000000 1.656800 0.000000 
#    z 0.000000 0.000000 1.692120 
# 
# From -- ./inp_files/10325.got.cif
#   From: 2010.05.17/outbox.cif.g08.bks.cpg/sg39_6_cif.got.tgz:10325.got - 2010.06.03 18:22:40.
