data_PCOD9361398
_publ_section_title
;
Structure prediction by ZEFSAII (Michael W. Deem and Ramdas Pophale) SiO2 
 PCOD9361398
Probable space group: A B M 2
;
_chemical_formula_sum "Si O2"
_cell_formula_units_Z 56
_cell_length_a 15.512587
_cell_length_b 15.710085
_cell_length_c 9.721966
_cell_angle_alpha 90.000000
_cell_angle_beta 90.000000
_cell_angle_gamma 90.000000
_cell_volume 2369.282589
_symmetry_space_group_name_H-M "A B M 2"
_symmetry_group_IT_number 39
_symmetry_cell_setting 'orthorhombic'
loop_
_space_group_symop_operation_xyz
x,y,z
-x,-y,z
-x,1/2+y,z
x,1/2-y,z
x,1/2+y,1/2+z
-x,1/2-y,1/2+z
-x,y,1/2+z
x,-y,1/2+z
loop_
_atom_site_type_symbol
_atom_site_label
_atom_site_fract_x
_atom_site_fract_y
_atom_site_fract_z
Si Si1 0.335535 0.843663 0.101100
Si Si2 0.609880 0.356650 0.486329
Si Si3 0.930443 0.156465 0.000250
Si Si4 0.249309 0.156033 0.332974
Si Si5 0.249677 0.961077 0.308053
Si Si6 0.516521 0.348763 0.752869
Si Si7 0.943687 0.574402 0.787945
O O1 0.303942 0.750000 0.145902
O O2 0.275997 0.914022 0.168022
O O3 0.430751 0.852973 0.157505
O O4 0.329540 0.844997 0.938043
O O5 0.620435 0.250000 0.474987
O O6 0.687255 0.413183 0.419415
O O7 0.589765 0.378843 0.645652
O O8 0.525586 0.381984 0.394311
O O9 0.966790 0.250000 0.981757
O O10 0.836503 0.154960 0.928927
O O11 0.994605 0.100080 0.911883
O O12 0.927915 0.137785 0.161423
O O13 0.248249 0.250000 0.261079
O O14 0.252845 0.061540 0.274281
O O15 0.150403 0.946292 0.345584
O O16 0.535285 0.250000 0.776664
O O17 0.000000 0.500000 0.718604
#
# Coordination Sequence:
#
# PCOD9361398 Si02
#       7
#     8   8   8   8   8   8   8
#     4   9  18  36  65  93 124 170 218 264 333 413
#     4   9  18  34  63  99 135 174 219 272 341 407
#     4  11  24  41  65  95 128 173 221 276 339 408
#     4  10  21  39  60  88 124 171 224 274 332 398
#     4  11  21  37  65  95 128 173 228 279 325 405
#     4   8  15  31  58  93 130 165 206 263 330 404
#     4  12  24  41  66  94 133 173 223 280 345 399
#
# _framework density 23.635845
#
# number of rings (size 3 to 8) (size 9 to 14) (size 15 to 20)
#    0.000    2.000    2.857    2.143    0.000    1.714 
#    0.000    2.143    0.000    6.857    0.000   10.000 
#    0.000    0.000    0.000    0.000    0.000    0.000 
#
# Total GULP energy -156093.700261 kJ/mol
# GULP energy per Si atom -5574.775009 kJ/mol
# Density = 2.358205 g / cm^3
# Si number density = 23.635845 Si / 1000 Ang^3
#
#
#
# Elastic Constant Matrix: (Units=GPa)
#
#
# Indices 1 2 3 4 5 6 
#
# 1 125.4623 27.6593 22.6330 0.0000 0.0000 0.0000
# 2 27.6593 126.1943 19.7510 0.0000 0.0000 0.0000
# 3 22.6330 19.7510 84.6090 0.0000 0.0000 0.0000
# 4 0.0000 0.0000 0.0000 21.4875 0.0000 0.0000
# 5 0.0000 0.0000 0.0000 0.0000 26.9066 0.0000
# 6 0.0000 0.0000 0.0000 0.0000 0.0000 32.2688
#
#
#
# Elastic Compliance Matrix: (Units=1/GPa)
#
#
# Indices 1 2 3 4 5 6 
#
# 1 0.008674 -0.001596 -0.001948 0.000000 0.000000 0.000000
# 2 -0.001596 0.008519 -0.001562 0.000000 0.000000 0.000000
# 3 -0.001948 -0.001562 0.012705 0.000000 0.000000 0.000000
# 4 0.000000 0.000000 0.000000 0.046539 0.000000 0.000000
# 5 0.000000 0.000000 0.000000 0.000000 0.037166 0.000000
# 6 0.000000 0.000000 0.000000 0.000000 0.000000 0.030990
#
#
# Mechanical properties :
#
#
# Convention : Reuss Voigt Hill
#
# Bulk Modulus (GPa) = 50.79743 52.92800 51.86271
# Shear Modulus (GPa) = 30.98587 33.88072 32.43330
#
# Velocity S-wave (km/s) = 3.62466 3.79020 3.70835
# Velocity P-wave (km/s) = 6.24947 6.44948 6.35026
#
# Compressibility (1/GPa) = 0.01968604
#
# Stress axis : x y z
#
# Youngs Moduli (GPa) = 115.28994 117.39063 78.71169
#
# Poissons Ratio (x) = 0.18739 0.15330
# Poissons Ratio (y) = 0.18404 0.12291
# Poissons Ratio (z) = 0.22454 0.18331
#
# Static dielectric constant tensor:
#      x y z
#    x 1.949810 0.000000 0.000000 
#    y 0.000000 1.927990 0.000000 
#    z 0.000000 0.000000 1.930520 
# 
# From -- ./inp_files/6498.got.cif
#   From: 2010.05.17/outbox.cif.g08.bks.cpg/sg39_4_cif.got.tgz:6498.got - 2010.06.03 18:22:40.
