data_PCOD9361964
_publ_section_title
;
Structure prediction by ZEFSAII (Michael W. Deem and Ramdas Pophale) SiO2 
 PCOD9361964
Probable space group: A B M 2
;
_chemical_formula_sum "Si O2"
_cell_formula_units_Z 40
_cell_length_a 11.180419
_cell_length_b 15.270591
_cell_length_c 8.434918
_cell_angle_alpha 90.000000
_cell_angle_beta 90.000000
_cell_angle_gamma 90.000000
_cell_volume 1440.107095
_symmetry_space_group_name_H-M "A B M 2"
_symmetry_group_IT_number 39
_symmetry_cell_setting 'orthorhombic'
loop_
_space_group_symop_operation_xyz
x,y,z
-x,-y,z
-x,1/2+y,z
x,1/2-y,z
x,1/2+y,1/2+z
-x,1/2-y,1/2+z
-x,y,1/2+z
x,-y,1/2+z
loop_
_atom_site_type_symbol
_atom_site_label
_atom_site_fract_x
_atom_site_fract_y
_atom_site_fract_z
Si Si1 0.304541 0.159805 0.152570
Si Si2 0.888280 0.846470 0.874931
Si Si3 0.905369 0.560254 0.568432
Si Si4 0.315511 0.989650 0.887170
Si Si5 0.589627 0.856724 0.662849
O O1 0.278125 0.250000 0.245419
O O2 0.281664 0.070912 0.240528
O O3 0.447463 0.155851 0.135530
O O4 0.220117 0.163278 0.000065
O O5 0.927433 0.750000 0.826050
O O6 0.815629 0.002364 0.966344
O O7 0.008303 0.884491 0.955206
O O8 0.843645 0.614191 0.707068
O O9 0.625035 0.580018 0.512412
O O10 0.000000 0.500000 0.658780
O O11 0.386652 0.074140 0.813543
O O12 0.629971 0.750000 0.675360
#
# Coordination Sequence:
#
# PCOD9361964 Si02
#       5
#     8   8   8   8   8
#     4  10  25  53  87 130 180 234 302 373 452 548
#     4  11  26  51  86 125 172 233 300 377 465 551
#     4  12  29  51  80 121 174 228 296 372 454 549
#     4  12  29  53  88 126 175 238 299 369 456 538
#     4  11  29  58  89 129 183 240 304 375 448 542
#
# _framework density 27.775711000000001
#
# number of rings (size 3 to 8) (size 9 to 14) (size 15 to 20)
#    0.000    0.800    0.000    3.600    8.400    9.600 
#    3.600    9.000    0.000    0.000    0.000    0.000 
#    0.000    0.000    0.000    0.000    0.000    0.000 
#
# Total GULP energy -111556.810357 kJ/mol
# GULP energy per Si atom -5577.840518 kJ/mol
# Density = 2.771249 g / cm^3
# Si number density = 27.775711 Si / 1000 Ang^3
#
#
#
# Elastic Constant Matrix: (Units=GPa)
#
#
# Indices 1 2 3 4 5 6 
#
# 1 130.3804 61.6431 57.8803 0.0000 0.0000 0.0000
# 2 61.6431 233.0532 99.6948 0.0000 0.0000 0.0000
# 3 57.8803 99.6948 143.7372 0.0000 0.0000 0.0000
# 4 0.0000 0.0000 0.0000 31.0837 0.0000 0.0000
# 5 0.0000 0.0000 0.0000 0.0000 53.2915 0.0000
# 6 0.0000 0.0000 0.0000 0.0000 0.0000 61.0273
#
#
#
# Elastic Compliance Matrix: (Units=1/GPa)
#
#
# Indices 1 2 3 4 5 6 
#
# 1 0.009592 -0.001258 -0.002990 0.000000 0.000000 0.000000
# 2 -0.001258 0.006266 -0.003839 0.000000 0.000000 0.000000
# 3 -0.002990 -0.003839 0.010824 0.000000 0.000000 0.000000
# 4 0.000000 0.000000 0.000000 0.032171 0.000000 0.000000
# 5 0.000000 0.000000 0.000000 0.000000 0.018765 0.000000
# 6 0.000000 0.000000 0.000000 0.000000 0.000000 0.016386
#
#
# Mechanical properties :
#
#
# Convention : Reuss Voigt Hill
#
# Bulk Modulus (GPa) = 95.17237 105.06746 100.11992
# Shear Modulus (GPa) = 43.98246 48.27736 46.12991
#
# Velocity S-wave (km/s) = 3.98362 4.17359 4.07971
# Velocity P-wave (km/s) = 7.44970 7.81885 7.63650
#
# Compressibility (1/GPa) = 0.01050725
#
# Stress axis : x y z
#
# Youngs Moduli (GPa) = 104.25346 159.58960 92.38591
#
# Poissons Ratio (x) = 0.20078 0.27623
# Poissons Ratio (y) = 0.13116 0.35471
# Poissons Ratio (z) = 0.31171 0.61274
#
# Static dielectric constant tensor:
#      x y z
#    x 2.197700 0.000000 0.000000 
#    y 0.000000 2.324770 0.000000 
#    z 0.000000 0.000000 2.184900 
# 
# From -- ./inp_files/5658.got.cif
#   From: 2010.05.17/outbox.cif.g08.bks.cpg/sg39_3_cif.got.tgz:5658.got - 2010.06.03 18:22:40.
