data_PCOD9361313
_publ_section_title
;
Structure prediction by ZEFSAII (Michael W. Deem and Ramdas Pophale) SiO2 
 PCOD9361313
Probable space group: A B M 2
;
_chemical_formula_sum "Si O2"
_cell_formula_units_Z 40
_cell_length_a 11.837579
_cell_length_b 13.678517
_cell_length_c 12.123487
_cell_angle_alpha 90.000000
_cell_angle_beta 90.000000
_cell_angle_gamma 90.000000
_cell_volume 1963.041387
_symmetry_space_group_name_H-M "A B M 2"
_symmetry_group_IT_number 39
_symmetry_cell_setting 'orthorhombic'
loop_
_space_group_symop_operation_xyz
x,y,z
-x,-y,z
-x,1/2+y,z
x,1/2-y,z
x,1/2+y,1/2+z
-x,1/2-y,1/2+z
-x,y,1/2+z
x,-y,1/2+z
loop_
_atom_site_type_symbol
_atom_site_label
_atom_site_fract_x
_atom_site_fract_y
_atom_site_fract_z
Si Si1 0.708326 0.552892 0.232850
Si Si2 0.544824 0.135520 0.907605
Si Si3 0.734445 0.137437 0.096382
Si Si4 0.703445 0.863544 0.991625
Si Si5 0.871254 0.531472 0.419717
O O1 0.600864 0.577548 0.307706
O O2 0.716209 0.440643 0.192798
O O3 0.703386 0.616517 0.122368
O O4 0.817713 0.575635 0.308257
O O5 0.542831 0.250000 0.876002
O O6 0.628472 0.127425 0.012611
O O7 0.419495 0.108222 0.944618
O O8 0.743401 0.250000 0.131544
O O9 0.841189 0.102977 0.021951
O O10 0.723565 0.750000 0.968319
O O11 0.796942 0.934764 0.942379
O O12 0.000000 0.500000 0.411590
#
# Coordination Sequence:
#
# PCOD9361313 Si02
#       5
#     8   8   8   8   8
#     4  10  21  37  62  87 119 159 197 240 299 363
#     4   9  19  37  60  90 123 151 186 239 304 368
#     4   9  20  38  61  89 120 154 195 245 299 360
#     4  10  22  39  61  89 118 153 200 249 301 364
#     4  10  23  40  57  83 120 160 203 252 304 353
#
# _framework density 20.376545
#
# number of rings (size 3 to 8) (size 9 to 14) (size 15 to 20)
#    0.000    2.400    0.000    0.600    0.000   16.000 
#    0.000    4.000    0.000    4.800    0.000    0.000 
#    0.000    0.000    0.000    0.000    0.000    0.000 
#
# Total GULP energy -111817.263975 kJ/mol
# GULP energy per Si atom -5590.863199 kJ/mol
# Density = 2.033017 g / cm^3
# Si number density = 20.376545 Si / 1000 Ang^3
#
#
#
# Elastic Constant Matrix: (Units=GPa)
#
#
# Indices 1 2 3 4 5 6 
#
# 1 147.0155 14.0468 38.1585 0.0000 0.0000 0.0000
# 2 14.0468 69.9347 15.1960 0.0000 0.0000 0.0000
# 3 38.1585 15.1960 96.5658 0.0000 0.0000 0.0000
# 4 0.0000 0.0000 0.0000 15.6996 0.0000 0.0000
# 5 0.0000 0.0000 0.0000 0.0000 9.6644 0.0000
# 6 0.0000 0.0000 0.0000 0.0000 0.0000 16.4868
#
#
#
# Elastic Compliance Matrix: (Units=1/GPa)
#
#
# Indices 1 2 3 4 5 6 
#
# 1 0.007635 -0.000909 -0.002874 0.000000 0.000000 0.000000
# 2 -0.000909 0.014914 -0.001988 0.000000 0.000000 0.000000
# 3 -0.002874 -0.001988 0.011804 0.000000 0.000000 0.000000
# 4 0.000000 0.000000 0.000000 0.063696 0.000000 0.000000
# 5 0.000000 0.000000 0.000000 0.000000 0.103473 0.000000
# 6 0.000000 0.000000 0.000000 0.000000 0.000000 0.060655
#
#
# Mechanical properties :
#
#
# Convention : Reuss Voigt Hill
#
# Bulk Modulus (GPa) = 43.83802 49.81317 46.82560
# Shear Modulus (GPa) = 17.77332 24.77780 21.27556
#
# Velocity S-wave (km/s) = 2.95658 3.49090 3.23479
# Velocity P-wave (km/s) = 5.76332 6.38341 6.08127
#
# Compressibility (1/GPa) = 0.02281125
#
# Stress axis : x y z
#
# Youngs Moduli (GPa) = 130.97944 67.05318 84.71670
#
# Poissons Ratio (x) = 0.06095 0.24347
# Poissons Ratio (y) = 0.11906 0.16839
# Poissons Ratio (z) = 0.37642 0.13328
#
# Static dielectric constant tensor:
#      x y z
#    x 1.686670 0.000000 0.000000 
#    y 0.000000 1.752650 0.000000 
#    z 0.000000 0.000000 1.732660 
# 
# From -- ./inp_files/5656.got.cif
#   From: 2010.05.17/outbox.cif.g08.bks.cpg/sg39_3_cif.got.tgz:5656.got - 2010.06.03 18:22:40.
