data_PCOD9361175
_publ_section_title
;
Structure prediction by ZEFSAII (Michael W. Deem and Ramdas Pophale) SiO2 
 PCOD9361175
Probable space group: A B M 2
;
_chemical_formula_sum "Si O2"
_cell_formula_units_Z 36
_cell_length_a 6.891727
_cell_length_b 23.265368
_cell_length_c 9.240297
_cell_angle_alpha 90.000000
_cell_angle_beta 90.000000
_cell_angle_gamma 90.000000
_cell_volume 1481.575959
_symmetry_space_group_name_H-M "A B M 2"
_symmetry_group_IT_number 39
_symmetry_cell_setting 'orthorhombic'
loop_
_space_group_symop_operation_xyz
x,y,z
-x,-y,z
-x,1/2+y,z
x,1/2-y,z
x,1/2+y,1/2+z
-x,1/2-y,1/2+z
-x,y,1/2+z
x,-y,1/2+z
loop_
_atom_site_type_symbol
_atom_site_label
_atom_site_fract_x
_atom_site_fract_y
_atom_site_fract_z
Si Si1 0.949053 0.580358 0.909900
Si Si2 0.652435 0.640075 0.470142
Si Si3 0.653268 0.316707 0.655443
Si Si4 0.900015 0.186495 0.227889
Si Si5 0.000000 0.000000 0.658779
O O1 0.892092 0.540982 0.772262
O O2 0.884492 0.677335 0.165723
O O3 0.814266 0.591213 0.430683
O O4 0.893161 0.544357 0.051485
O O5 0.452870 0.634898 0.559243
O O6 0.766249 0.677818 0.589314
O O7 0.597563 0.672127 0.322849
O O8 0.610639 0.250000 0.614677
O O9 0.873389 0.358574 0.355920
O O10 0.882511 0.250000 0.287730
#
# Coordination Sequence:
#
# PCOD9361175 Si02
#       5
#     8   8   8   8   4
#     4  10  21  40  68 101 125 179 221 288 331 408
#     4  11  22  41  63  98 134 181 230 269 343 400
#     4  10  22  38  61  92 139 183 219 279 334 404
#     4  10  21  39  66 102 137 177 228 273 340 412
#     4  10  20  42  70 100 130 166 244 276 350 390
#
# _framework density 24.298449000000002
#
# number of rings (size 3 to 8) (size 9 to 14) (size 15 to 20)
#    0.000    1.778    2.222    2.000    0.000    5.333 
#    0.000    4.444    0.000   16.000    0.000    0.000 
#    0.000    0.000    0.000    0.000    0.000    0.000 
#
# Total GULP energy -100394.662988 kJ/mol
# GULP energy per Si atom -5577.481277 kJ/mol
# Density = 2.424314 g / cm^3
# Si number density = 24.298449 Si / 1000 Ang^3
#
#
#
# Elastic Constant Matrix: (Units=GPa)
#
#
# Indices 1 2 3 4 5 6 
#
# 1 95.5128 19.9290 24.1109 0.0000 0.0000 0.0000
# 2 19.9290 137.4173 40.7032 0.0000 0.0000 0.0000
# 3 24.1109 40.7032 156.8779 0.0000 0.0000 0.0000
# 4 0.0000 0.0000 0.0000 24.1832 0.0000 0.0000
# 5 0.0000 0.0000 0.0000 0.0000 30.2918 0.0000
# 6 0.0000 0.0000 0.0000 0.0000 0.0000 9.3905
#
#
#
# Elastic Compliance Matrix: (Units=1/GPa)
#
#
# Indices 1 2 3 4 5 6 
#
# 1 0.011070 -0.001193 -0.001392 0.000000 0.000000 0.000000
# 2 -0.001193 0.008012 -0.001895 0.000000 0.000000 0.000000
# 3 -0.001392 -0.001895 0.007080 0.000000 0.000000 0.000000
# 4 0.000000 0.000000 0.000000 0.041351 0.000000 0.000000
# 5 0.000000 0.000000 0.000000 0.000000 0.033012 0.000000
# 6 0.000000 0.000000 0.000000 0.000000 0.000000 0.106490
#
#
# Mechanical properties :
#
#
# Convention : Reuss Voigt Hill
#
# Bulk Modulus (GPa) = 58.13569 62.14380 60.13975
# Shear Modulus (GPa) = 22.55205 33.11078 27.83141
#
# Velocity S-wave (km/s) = 3.04982 3.69544 3.38805
# Velocity P-wave (km/s) = 6.03154 6.62111 6.33319
#
# Compressibility (1/GPa) = 0.01720114
#
# Stress axis : x y z
#
# Youngs Moduli (GPa) = 90.33338 124.82015 141.24220
#
# Poissons Ratio (x) = 0.14893 0.19658
# Poissons Ratio (y) = 0.10778 0.26769
# Poissons Ratio (z) = 0.12573 0.23657
#
# Static dielectric constant tensor:
#      x y z
#    x 2.065140 0.000000 0.000000 
#    y 0.000000 1.989390 0.000000 
#    z 0.000000 0.000000 1.919130 
# 
# From -- ./inp_files/2176.got.cif
#   From: 2010.05.17/outbox.cif.g08.bks.cpg/sg39_2_cif.got.tgz:2176.got - 2010.06.03 18:22:40.
