data_PCOD9361718
_publ_section_title
;
Structure prediction by ZEFSAII (Michael W. Deem and Ramdas Pophale) SiO2 
 PCOD9361718
Probable space group: A B M 2
;
_chemical_formula_sum "Si O2"
_cell_formula_units_Z 44
_cell_length_a 9.232673
_cell_length_b 27.718264
_cell_length_c 8.347643
_cell_angle_alpha 90.000000
_cell_angle_beta 90.000000
_cell_angle_gamma 90.000000
_cell_volume 2136.275936
_symmetry_space_group_name_H-M "A B M 2"
_symmetry_group_IT_number 39
_symmetry_cell_setting 'orthorhombic'
loop_
_space_group_symop_operation_xyz
x,y,z
-x,-y,z
-x,1/2+y,z
x,1/2-y,z
x,1/2+y,1/2+z
-x,1/2-y,1/2+z
-x,y,1/2+z
x,-y,1/2+z
loop_
_atom_site_type_symbol
_atom_site_label
_atom_site_fract_x
_atom_site_fract_y
_atom_site_fract_z
Si Si1 0.677372 0.697363 0.638020
Si Si2 0.540079 0.849974 0.930918
Si Si3 0.648097 0.936972 0.296455
Si Si4 0.183360 0.140921 0.145502
Si Si5 0.500000 0.500000 0.032036
Si Si6 0.039048 0.306137 0.440383
O O1 0.655251 0.750000 0.708949
O O2 0.630159 0.660100 0.771476
O O3 0.574661 0.690277 0.484551
O O4 0.840559 0.692752 0.580037
O O5 0.442194 0.895966 0.889926
O O6 0.655359 0.851933 0.075272
O O7 0.795220 0.911380 0.232719
O O8 0.633523 0.981156 0.422219
O O9 0.561771 0.958045 0.144884
O O10 0.123872 0.177091 0.281348
O O11 0.080335 0.154774 0.995390
O O12 0.987684 0.250000 0.426010
#
# Coordination Sequence:
#
# PCOD9361718 Si02
#       6
#     8   8   8   8   4   8
#     4  11  22  36  58  93 135 177 225 279 327 386
#     4  12  21  39  64  98 130 170 228 284 342 398
#     4  11  21  41  69 106 125 167 210 286 349 411
#     4  12  24  42  68  95 135 182 232 277 334 406
#     4  10  22  40  72 106 136 154 216 288 364 434
#     4  11  25  43  62  91 136 193 236 268 320 399
#
# _framework density 20.596592000000001
#
# number of rings (size 3 to 8) (size 9 to 14) (size 15 to 20)
#    0.000    0.727    5.455    2.182    0.000    5.818 
#    0.000    0.000    0.000    3.273    0.000    0.000 
#    0.000    0.000    0.000    0.000    0.000    0.000 
#
# Total GULP energy -122575.914205 kJ/mol
# GULP energy per Si atom -5571.632464 kJ/mol
# Density = 2.054971 g / cm^3
# Si number density = 20.596592 Si / 1000 Ang^3
#
#
#
# Elastic Constant Matrix: (Units=GPa)
#
#
# Indices 1 2 3 4 5 6 
#
# 1 79.0490 26.9411 22.7943 0.0000 0.0000 0.0000
# 2 26.9411 62.6957 15.7307 0.0000 0.0000 0.0000
# 3 22.7943 15.7307 79.7026 0.0000 0.0000 0.0000
# 4 0.0000 0.0000 0.0000 32.9941 0.0000 0.0000
# 5 0.0000 0.0000 0.0000 0.0000 37.1220 0.0000
# 6 0.0000 0.0000 0.0000 0.0000 0.0000 28.8198
#
#
#
# Elastic Compliance Matrix: (Units=1/GPa)
#
#
# Indices 1 2 3 4 5 6 
#
# 1 0.015606 -0.005877 -0.003303 0.000000 0.000000 0.000000
# 2 -0.005877 0.018994 -0.002068 0.000000 0.000000 0.000000
# 3 -0.003303 -0.002068 0.013899 0.000000 0.000000 0.000000
# 4 0.000000 0.000000 0.000000 0.030308 0.000000 0.000000
# 5 0.000000 0.000000 0.000000 0.000000 0.026938 0.000000
# 6 0.000000 0.000000 0.000000 0.000000 0.000000 0.034698
#
#
# Mechanical properties :
#
#
# Convention : Reuss Voigt Hill
#
# Bulk Modulus (GPa) = 38.45724 39.15327 38.80526
# Shear Modulus (GPa) = 29.13591 30.18594 29.66093
#
# Velocity S-wave (km/s) = 3.76520 3.83244 3.79897
# Velocity P-wave (km/s) = 6.13306 6.21565 6.17450
#
# Compressibility (1/GPa) = 0.02600291
#
# Stress axis : x y z
#
# Youngs Moduli (GPa) = 64.07819 52.64684 71.94508
#
# Poissons Ratio (x) = 0.30942 0.23765
# Poissons Ratio (y) = 0.37661 0.14879
# Poissons Ratio (z) = 0.21166 0.10888
#
# Static dielectric constant tensor:
#      x y z
#    x 1.728300 0.000000 0.000000 
#    y 0.000000 1.767340 0.000000 
#    z 0.000000 0.000000 1.799470 
# 
# From -- ./inp_files/2250.got.cif
#   From: 2010.05.17/outbox.cif.g08.bks.cpg/sg39_2_cif.got.tgz:2250.got - 2010.06.03 18:22:40.
