data_PCOD9361036
_publ_section_title
;
Structure prediction by ZEFSAII (Michael W. Deem and Ramdas Pophale) SiO2 
 PCOD9361036
Probable space group: A B M 2
;
_chemical_formula_sum "Si O2"
_cell_formula_units_Z 48
_cell_length_a 9.794119
_cell_length_b 8.759928
_cell_length_c 30.278198
_cell_angle_alpha 90.000000
_cell_angle_beta 90.000000
_cell_angle_gamma 90.000000
_cell_volume 2597.741532
_symmetry_space_group_name_H-M "A B M 2"
_symmetry_group_IT_number 39
_symmetry_cell_setting 'orthorhombic'
loop_
_space_group_symop_operation_xyz
x,y,z
-x,-y,z
-x,1/2+y,z
x,1/2-y,z
x,1/2+y,1/2+z
-x,1/2-y,1/2+z
-x,y,1/2+z
x,-y,1/2+z
loop_
_atom_site_type_symbol
_atom_site_label
_atom_site_fract_x
_atom_site_fract_y
_atom_site_fract_z
Si Si1 0.852088 0.568615 0.444180
Si Si2 0.851020 0.566337 0.195084
Si Si3 0.146890 0.066809 0.092552
Si Si4 0.651801 0.067536 0.268037
Si Si5 0.348985 0.066839 0.015401
Si Si6 0.851604 0.068180 0.839639
O O1 0.853470 0.750000 0.451652
O O2 0.736232 0.491715 0.473495
O O3 0.830374 0.541560 0.391910
O O4 0.000000 0.500000 0.455901
O O5 0.852703 0.750000 0.199346
O O6 0.826237 0.525467 0.143627
O O7 0.736733 0.495828 0.226369
O O8 0.000000 0.500000 0.207055
O O9 0.137603 0.250000 0.090588
O O10 0.264059 0.017428 0.058867
O O11 0.000000 0.000000 0.079661
O O12 0.646967 0.250000 0.266929
O O13 0.500000 0.000000 0.268255
O O14 0.735665 0.010613 0.310706
O O15 0.355063 0.250000 0.014738
O O16 0.500000 0.000000 0.015653
O O17 0.851792 0.250000 0.831621
O O18 0.000000 0.000000 0.827955
#
# Coordination Sequence:
#
# PCOD9361036 Si02
#       6
#     8   8   8   8   8   8
#     4  10  21  38  61  87 114 147 188 233 280 332
#     4  10  20  38  61  86 115 148 189 233 279 331
#     4   9  20  37  59  85 112 146 188 233 279 331
#     4  12  25  40  58  83 115 151 189 231 283 338
#     4  11  23  38  56  82 116 153 191 232 282 336
#     4  10  21  39  62  87 114 147 188 232 279 332
#
# _framework density 18.477589999999999
#
# number of rings (size 3 to 8) (size 9 to 14) (size 15 to 20)
#    0.000    1.667    0.000    4.500    0.000    6.667 
#    0.000    1.667    0.000    0.000    0.000    0.000 
#    0.000    0.000    0.000    0.000    0.000    0.000 
#
# Total GULP energy -134173.903707 kJ/mol
# GULP energy per Si atom -5590.579321 kJ/mol
# Density = 1.843553 g / cm^3
# Si number density = 18.477590 Si / 1000 Ang^3
#
#
#
# Elastic Constant Matrix: (Units=GPa)
#
#
# Indices 1 2 3 4 5 6 
#
# 1 207.6088 85.8404 107.2472 0.0000 0.0000 0.0000
# 2 85.8404 103.4483 68.0554 0.0000 0.0000 0.0000
# 3 107.2472 68.0554 97.9038 0.0000 0.0000 0.0000
# 4 0.0000 0.0000 0.0000 18.3940 0.0000 0.0000
# 5 0.0000 0.0000 0.0000 0.0000 -37.7871 0.0000
# 6 0.0000 0.0000 0.0000 0.0000 0.0000 39.6176
#
#
#
# Elastic Compliance Matrix: (Units=1/GPa)
#
#
# Indices 1 2 3 4 5 6 
#
# 1 0.011382 -0.002289 -0.010877 0.000000 0.000000 0.000000
# 2 -0.002289 0.018273 -0.010194 0.000000 0.000000 0.000000
# 3 -0.010877 -0.010194 0.029216 0.000000 0.000000 0.000000
# 4 0.000000 0.000000 0.000000 0.054365 0.000000 0.000000
# 5 0.000000 0.000000 0.000000 0.000000 -0.026464 0.000000
# 6 0.000000 0.000000 0.000000 0.000000 0.000000 0.025241
#
#
# Mechanical properties :
#
#
# Convention : Reuss Voigt Hill
#
# Bulk Modulus (GPa) = 82.30867 103.47185 92.89026
# Shear Modulus (GPa) = 30.71548 13.89943 22.30746
#
# Velocity S-wave (km/s) = 4.08157 2.74566 3.47835
# Velocity P-wave (km/s) = 8.17644 8.13460 8.15554
#
# Compressibility (1/GPa) = 0.01214939
#
# Stress axis : x y z
#
# Youngs Moduli (GPa) = 87.85601 54.72699 34.22802
#
# Poissons Ratio (x) = 0.12527 0.37231
# Poissons Ratio (y) = 0.20110 0.34893
# Poissons Ratio (z) = 0.95564 0.55790
#
# Static dielectric constant tensor:
#      x y z
#    x 1.586310 0.000000 0.000000 
#    y 0.000000 1.617800 0.000000 
#    z 0.000000 0.000000 1.644920 
# 
# From -- ./inp_files/17585.got.cif
#   From: 2010.05.17/outbox.cif.g08.bks.cpg/sg39_9_cif.got.tgz:17585.got - 2010.06.03 18:22:40.
