data_PCOD9361891
_publ_section_title
;
Structure prediction by ZEFSAII (Michael W. Deem and Ramdas Pophale) SiO2 
 PCOD9361891
Probable space group: A B M 2
;
_chemical_formula_sum "Si O2"
_cell_formula_units_Z 56
_cell_length_a 15.144962
_cell_length_b 15.948742
_cell_length_c 9.198450
_cell_angle_alpha 90.000000
_cell_angle_beta 90.000000
_cell_angle_gamma 90.000000
_cell_volume 2221.822050
_symmetry_space_group_name_H-M "A B M 2"
_symmetry_group_IT_number 39
_symmetry_cell_setting 'orthorhombic'
loop_
_space_group_symop_operation_xyz
x,y,z
-x,-y,z
-x,1/2+y,z
x,1/2-y,z
x,1/2+y,1/2+z
-x,1/2-y,1/2+z
-x,y,1/2+z
x,-y,1/2+z
loop_
_atom_site_type_symbol
_atom_site_label
_atom_site_fract_x
_atom_site_fract_y
_atom_site_fract_z
Si Si1 0.339462 0.844894 0.112640
Si Si2 0.917479 0.439681 0.771968
Si Si3 0.818771 0.896393 0.731456
Si Si4 0.320504 0.842893 0.475343
Si Si5 0.980882 0.154819 0.062608
Si Si6 0.478058 0.660041 0.853923
Si Si7 0.409812 0.979609 0.637416
O O1 0.340025 0.750000 0.175156
O O2 0.238765 0.871236 0.088643
O O3 0.373252 0.931044 0.187777
O O4 0.404352 0.838939 0.977939
O O5 0.837080 0.505683 0.763706
O O6 0.000000 0.500000 0.740075
O O7 0.926924 0.376926 0.634554
O O8 0.940696 0.399152 0.928611
O O9 0.757086 0.858344 0.858112
O O10 0.911245 0.852001 0.696984
O O11 0.305231 0.750000 0.541330
O O12 0.423510 0.840416 0.419500
O O13 0.329913 0.927048 0.569445
O O14 0.988901 0.250000 0.014163
O O15 0.471144 0.750000 0.771869
O O16 0.449489 0.583328 0.755047
O O17 0.500000 0.000000 0.545668
#
# Coordination Sequence:
#
# PCOD9361891 Si02
#       7
#     8   8   8   8   8   8   8
#     4  11  25  44  66  96 139 193 249 311 378 448
#     4  10  23  45  76 110 152 190 246 297 379 474
#     4  11  25  43  71 104 146 196 251 306 380 456
#     4  11  24  43  66 100 142 192 254 325 386 451
#     4  11  23  46  79 116 151 197 245 306 385 472
#     4  10  24  45  67  95 137 194 259 323 387 453
#     4  12  25  38  67  95 135 184 258 323 394 458
#
# _framework density 25.204536999999998
#
# number of rings (size 3 to 8) (size 9 to 14) (size 15 to 20)
#    0.000    1.143    1.429    4.286    6.000    1.714 
#    0.000    0.000    0.000    1.714    0.000    0.000 
#    0.000    0.000    0.000    0.000    0.000    0.000 
#
# Total GULP energy -156093.563183 kJ/mol
# GULP energy per Si atom -5574.770114 kJ/mol
# Density = 2.514717 g / cm^3
# Si number density = 25.204537 Si / 1000 Ang^3
#
#
#
# Elastic Constant Matrix: (Units=GPa)
#
#
# Indices 1 2 3 4 5 6 
#
# 1 82.9611 30.6723 15.2162 0.0000 0.0000 0.0000
# 2 30.6723 211.1247 45.9830 0.0000 0.0000 0.0000
# 3 15.2162 45.9830 65.2849 0.0000 0.0000 0.0000
# 4 0.0000 0.0000 0.0000 41.2837 0.0000 0.0000
# 5 0.0000 0.0000 0.0000 0.0000 39.8816 0.0000
# 6 0.0000 0.0000 0.0000 0.0000 0.0000 35.2907
#
#
#
# Elastic Compliance Matrix: (Units=1/GPa)
#
#
# Indices 1 2 3 4 5 6 
#
# 1 0.012956 -0.001446 -0.002001 0.000000 0.000000 0.000000
# 2 -0.001446 0.005756 -0.003717 0.000000 0.000000 0.000000
# 3 -0.002001 -0.003717 0.018402 0.000000 0.000000 0.000000
# 4 0.000000 0.000000 0.000000 0.024223 0.000000 0.000000
# 5 0.000000 0.000000 0.000000 0.000000 0.025074 0.000000
# 6 0.000000 0.000000 0.000000 0.000000 0.000000 0.028336
#
#
# Mechanical properties :
#
#
# Convention : Reuss Voigt Hill
#
# Bulk Modulus (GPa) = 43.88877 60.34598 52.11737
# Shear Modulus (GPa) = 36.58423 41.12449 38.85436
#
# Velocity S-wave (km/s) = 3.81398 4.04373 3.93053
# Velocity P-wave (km/s) = 6.07010 6.76733 6.42818
#
# Compressibility (1/GPa) = 0.02278487
#
# Stress axis : x y z
#
# Youngs Moduli (GPa) = 77.18678 173.72265 54.34171
#
# Poissons Ratio (x) = 0.25127 0.10873
# Poissons Ratio (y) = 0.11164 0.20200
# Poissons Ratio (z) = 0.15444 0.64578
#
# Static dielectric constant tensor:
#      x y z
#    x 2.070290 0.000000 0.000000 
#    y 0.000000 2.103590 0.000000 
#    z 0.000000 0.000000 2.097440 
# 
# From -- ./inp_files/6519.got.cif
#   From: 2010.05.17/outbox.cif.g08.bks.cpg/sg39_4_cif.got.tgz:6519.got - 2010.06.03 18:22:40.
