data_PCOD9361439
_publ_section_title
;
Structure prediction by ZEFSAII (Michael W. Deem and Ramdas Pophale) SiO2 
 PCOD9361439
Probable space group: A B M 2
;
_chemical_formula_sum "Si O2"
_cell_formula_units_Z 60
_cell_length_a 17.619113
_cell_length_b 9.078864
_cell_length_c 19.251185
_cell_angle_alpha 90.000000
_cell_angle_beta 90.000000
_cell_angle_gamma 90.000000
_cell_volume 3079.449021
_symmetry_space_group_name_H-M "A B M 2"
_symmetry_group_IT_number 39
_symmetry_cell_setting 'orthorhombic'
loop_
_space_group_symop_operation_xyz
x,y,z
-x,-y,z
-x,1/2+y,z
x,1/2-y,z
x,1/2+y,1/2+z
-x,1/2-y,1/2+z
-x,y,1/2+z
x,-y,1/2+z
loop_
_atom_site_type_symbol
_atom_site_label
_atom_site_fract_x
_atom_site_fract_y
_atom_site_fract_z
Si Si1 0.578742 0.075839 0.941830
Si Si2 0.861837 0.078861 0.901743
Si Si3 0.114119 0.079315 0.678000
Si Si4 0.577755 0.924479 0.607593
Si Si5 0.000000 0.000000 0.800783
Si Si6 0.287124 0.573297 0.200709
Si Si7 0.289711 0.925895 0.355939
Si Si8 0.078763 0.426085 0.033788
O O1 0.577734 0.250000 0.926501
O O2 0.500000 0.000000 0.919105
O O3 0.650463 0.997601 0.907618
O O4 0.584268 0.057002 0.024946
O O5 0.845584 0.250000 0.914239
O O6 0.938470 0.070666 0.854283
O O7 0.792504 0.999809 0.863250
O O8 0.866656 0.994322 0.975528
O O9 0.115172 0.250000 0.654419
O O10 0.057784 0.074347 0.744443
O O11 0.199369 0.027665 0.695948
O O12 0.090998 0.979233 0.612705
O O13 0.572027 0.750000 0.621670
O O14 0.653241 0.984530 0.644744
O O15 0.500000 0.000000 0.631280
O O16 0.283688 0.750000 0.191832
O O17 0.316883 0.544437 0.277621
O O18 0.283405 0.750000 0.365888
O O19 0.077087 0.250000 0.029914
O O20 0.000000 0.500000 0.012482
#
# Coordination Sequence:
#
# PCOD9361439 Si02
#       8
#     8   8   8   8   4   8   8   8
#     4  10  21  39  64  93 126 166 214 263 320 386
#     4  12  26  43  65  93 127 169 217 269 325 384
#     4  11  23  42  66  92 127 169 210 261 321 378
#     4   9  19  38  63  90 121 161 207 253 309 375
#     4  12  24  40  70  94 130 166 222 268 320 382
#     4   9  20  39  62  90 124 165 206 252 313 376
#     4  11  23  41  63  92 130 167 210 262 321 386
#     4  12  26  43  63  91 123 161 213 266 321 383
#
# _framework density 19.484005
#
# number of rings (size 3 to 8) (size 9 to 14) (size 15 to 20)
#    0.000    1.333    2.667    2.800    1.867    2.667 
#    0.000    3.333    0.000    0.000    0.000    0.000 
#    0.000    0.000    0.000    0.000    0.000    0.000 
#
# Total GULP energy -167305.858153 kJ/mol
# GULP energy per Si atom -5576.861938 kJ/mol
# Density = 1.943966 g / cm^3
# Si number density = 19.484005 Si / 1000 Ang^3
#
#
#
# Elastic Constant Matrix: (Units=GPa)
#
#
# Indices 1 2 3 4 5 6 
#
# 1 127.0810 40.7912 33.6452 0.0000 0.0000 0.0000
# 2 40.7912 113.7030 55.0197 0.0000 0.0000 0.0000
# 3 33.6452 55.0197 68.7435 0.0000 0.0000 0.0000
# 4 0.0000 0.0000 0.0000 7.5883 0.0000 0.0000
# 5 0.0000 0.0000 0.0000 0.0000 38.5971 0.0000
# 6 0.0000 0.0000 0.0000 0.0000 0.0000 28.1485
#
#
#
# Elastic Compliance Matrix: (Units=1/GPa)
#
#
# Indices 1 2 3 4 5 6 
#
# 1 0.009272 -0.001845 -0.003061 0.000000 0.000000 0.000000
# 2 -0.001845 0.014721 -0.010879 0.000000 0.000000 0.000000
# 3 -0.003061 -0.010879 0.024752 0.000000 0.000000 0.000000
# 4 0.000000 0.000000 0.000000 0.131782 0.000000 0.000000
# 5 0.000000 0.000000 0.000000 0.000000 0.025909 0.000000
# 6 0.000000 0.000000 0.000000 0.000000 0.000000 0.035526
#
#
# Mechanical properties :
#
#
# Convention : Reuss Voigt Hill
#
# Bulk Modulus (GPa) = 58.22626 63.15996 60.69311
# Shear Modulus (GPa) = 17.90464 26.87154 22.38809
#
# Velocity S-wave (km/s) = 3.03469 3.71773 3.39344
# Velocity P-wave (km/s) = 6.49832 7.13550 6.82435
#
# Compressibility (1/GPa) = 0.01717438
#
# Stress axis : x y z
#
# Youngs Moduli (GPa) = 107.85549 67.92991 40.40015
#
# Poissons Ratio (x) = 0.12533 0.12367
# Poissons Ratio (y) = 0.19899 0.43952
# Poissons Ratio (z) = 0.33017 0.73902
#
# Static dielectric constant tensor:
#      x y z
#    x 1.663080 0.000000 0.000000 
#    y 0.000000 1.660970 0.000000 
#    z 0.000000 0.000000 1.685090 
# 
# From -- ./inp_files/12937.got.cif
#   From: 2010.05.17/outbox.cif.g08.bks.cpg/sg39_7_cif.got.tgz:12937.got - 2010.06.03 18:22:40.
