data_PCOD9361958
_publ_section_title
;
Structure prediction by ZEFSAII (Michael W. Deem and Ramdas Pophale) SiO2 
 PCOD9361958
Probable space group: A B M 2
;
_chemical_formula_sum "Si O2"
_cell_formula_units_Z 48
_cell_length_a 8.357781
_cell_length_b 22.888851
_cell_length_c 10.588435
_cell_angle_alpha 90.000000
_cell_angle_beta 90.000000
_cell_angle_gamma 90.000000
_cell_volume 2025.567658
_symmetry_space_group_name_H-M "A B M 2"
_symmetry_group_IT_number 39
_symmetry_cell_setting 'orthorhombic'
loop_
_space_group_symop_operation_xyz
x,y,z
-x,-y,z
-x,1/2+y,z
x,1/2-y,z
x,1/2+y,1/2+z
-x,1/2-y,1/2+z
-x,y,1/2+z
x,-y,1/2+z
loop_
_atom_site_type_symbol
_atom_site_label
_atom_site_fract_x
_atom_site_fract_y
_atom_site_fract_z
Si Si1 0.160259 0.750000 0.821780
Si Si2 0.916191 0.250000 0.547796
Si Si3 0.822537 0.434607 0.551810
Si Si4 0.360602 0.666918 0.457231
Si Si5 0.599819 0.152369 0.175607
Si Si6 0.710268 0.120448 0.787172
Si Si7 0.184091 0.569581 0.036813
O O1 0.046776 0.750000 0.696664
O O2 0.258877 0.810437 0.809467
O O3 0.064566 0.750000 0.953075
O O4 0.796473 0.302948 0.515572
O O5 0.689375 0.401143 0.469679
O O6 0.836139 0.404973 0.689329
O O7 0.788312 0.502693 0.572693
O O8 0.999269 0.426290 0.495685
O O9 0.375965 0.684417 0.310474
O O10 0.511251 0.680515 0.551359
O O11 0.457416 0.109577 0.218693
O O12 0.758397 0.117812 0.137262
O O13 0.713438 0.086558 0.915947
#
# Coordination Sequence:
#
# PCOD9361958 Si02
#       7
#     4   4   8   8   8   8   8
#     4  12  26  47  75 105 149 188 248 305 363 430
#     4  12  26  45  75 107 143 192 244 309 363 434
#     4  10  25  43  71 100 144 182 240 306 345 452
#     4  11  25  46  68 101 144 185 244 293 367 432
#     4  11  24  46  67 103 142 192 230 303 362 441
#     4  11  25  46  69 104 145 189 243 303 359 445
#     4  11  25  44  72 106 138 192 240 295 378 422
#
# _framework density 23.697061000000001
#
# number of rings (size 3 to 8) (size 9 to 14) (size 15 to 20)
#    0.000    1.000    5.000    1.000    7.000    5.333 
#    0.000    0.833    0.000    0.000    0.000    0.000 
#    0.000    0.000    0.000    0.000    0.000    0.000 
#
# Total GULP energy -133905.417672 kJ/mol
# GULP energy per Si atom -5579.392403 kJ/mol
# Density = 2.364313 g / cm^3
# Si number density = 23.697061 Si / 1000 Ang^3
#
#
#
# Elastic Constant Matrix: (Units=GPa)
#
#
# Indices 1 2 3 4 5 6 
#
# 1 53.6377 20.6773 18.8699 0.0000 0.0000 0.0000
# 2 20.6773 115.6621 29.2435 0.0000 0.0000 0.0000
# 3 18.8699 29.2435 130.9016 0.0000 0.0000 0.0000
# 4 0.0000 0.0000 0.0000 8.7079 0.0000 0.0000
# 5 0.0000 0.0000 0.0000 0.0000 39.3609 0.0000
# 6 0.0000 0.0000 0.0000 0.0000 0.0000 -68.0532
#
#
#
# Elastic Compliance Matrix: (Units=1/GPa)
#
#
# Indices 1 2 3 4 5 6 
#
# 1 0.020647 -0.003114 -0.002280 0.000000 0.000000 0.000000
# 2 -0.003114 0.009633 -0.001703 0.000000 0.000000 0.000000
# 3 -0.002280 -0.001703 0.008349 0.000000 0.000000 0.000000
# 4 0.000000 0.000000 0.000000 0.114839 0.000000 0.000000
# 5 0.000000 0.000000 0.000000 0.000000 0.025406 0.000000
# 6 0.000000 0.000000 0.000000 0.000000 0.000000 -0.014694
#
#
# Mechanical properties :
#
#
# Convention : Reuss Voigt Hill
#
# Bulk Modulus (GPa) = 40.92962 48.64254 44.78608
# Shear Modulus (GPa) = 26.80693 11.43050 19.11871
#
# Velocity S-wave (km/s) = 3.36703 2.19865 2.84350
# Velocity P-wave (km/s) = 5.69433 5.19777 5.45171
#
# Compressibility (1/GPa) = 0.02443218
#
# Stress axis : x y z
#
# Youngs Moduli (GPa) = 48.43433 103.80699 119.78143
#
# Poissons Ratio (x) = 0.32330 0.27316
# Poissons Ratio (y) = 0.15085 0.20400
# Poissons Ratio (z) = 0.11045 0.17680
#
# Static dielectric constant tensor:
#      x y z
#    x 1.919650 0.000000 0.000000 
#    y 0.000000 1.940600 0.000000 
#    z 0.000000 0.000000 1.963470 
# 
# From -- ./inp_files/5219.got.cif
#   From: 2010.05.17/outbox.cif.g08.bks.cpg/sg39_3_cif.got.tgz:5219.got - 2010.06.03 18:22:40.
