data_PCOD9361400
_publ_section_title
;
Structure prediction by ZEFSAII (Michael W. Deem and Ramdas Pophale) SiO2 
 PCOD9361400
Probable space group: A B M 2
;
_chemical_formula_sum "Si O2"
_cell_formula_units_Z 64
_cell_length_a 14.575069
_cell_length_b 17.918736
_cell_length_c 13.589987
_cell_angle_alpha 90.000000
_cell_angle_beta 90.000000
_cell_angle_gamma 90.000000
_cell_volume 3549.253602
_symmetry_space_group_name_H-M "A B M 2"
_symmetry_group_IT_number 39
_symmetry_cell_setting 'orthorhombic'
loop_
_space_group_symop_operation_xyz
x,y,z
-x,-y,z
-x,1/2+y,z
x,1/2-y,z
x,1/2+y,1/2+z
-x,1/2-y,1/2+z
-x,y,1/2+z
x,-y,1/2+z
loop_
_atom_site_type_symbol
_atom_site_label
_atom_site_fract_x
_atom_site_fract_y
_atom_site_fract_z
Si Si1 0.469190 0.163950 0.020010
Si Si2 0.521268 0.087013 0.719361
Si Si3 0.839191 0.421092 0.324706
Si Si4 0.833759 0.081186 0.921124
Si Si5 0.985791 0.662250 0.952737
Si Si6 0.356787 0.838452 0.884157
Si Si7 0.065584 0.428586 0.616397
Si Si8 0.647296 0.837566 0.822232
O O1 0.462160 0.250000 0.054895
O O2 0.452880 0.107634 0.108358
O O3 0.569924 0.153289 0.972680
O O4 0.398527 0.154155 0.930121
O O5 0.599364 0.116540 0.793182
O O6 0.429249 0.132493 0.747240
O O7 0.500000 0.000000 0.732698
O O8 0.831521 0.507654 0.354696
O O9 0.898923 0.380088 0.408326
O O10 0.892056 0.412322 0.221673
O O11 0.739896 0.384067 0.316379
O O12 0.741485 0.128207 0.911309
O O13 0.923588 0.130892 0.896841
O O14 0.854846 0.058073 0.034507
O O15 0.976544 0.750000 0.942961
O O16 0.006990 0.637495 0.065075
O O17 0.351874 0.750000 0.861505
O O18 0.000000 0.500000 0.621229
O O19 0.664354 0.750000 0.805168
#
# Coordination Sequence:
#
# PCOD9361400 Si02
#       8
#     8   8   8   8   8   8   8   8
#     4   9  20  40  62  83 121 163 199 253 307 357
#     4  11  22  37  60  90 123 164 205 252 308 370
#     4  12  22  41  65  90 124 162 204 254 313 374
#     4  10  21  40  61  91 120 154 201 260 302 371
#     4  10  21  39  60  89 122 156 199 253 310 367
#     4  10  21  39  62  88 120 160 207 256 306 363
#     4  10  22  41  63  87 120 161 200 253 313 369
#     4  10  23  41  61  90 123 159 208 257 304 363
#
# _framework density 18.031960999999999
#
# number of rings (size 3 to 8) (size 9 to 14) (size 15 to 20)
#    0.750    1.000    1.250    4.500    1.750    4.000 
#    2.250    0.000    0.000    3.000    0.000    0.000 
#    0.000    0.000    0.000    0.000    0.000    0.000 
#
# Total GULP energy -178525.850157 kJ/mol
# GULP energy per Si atom -5578.932817 kJ/mol
# Density = 1.799092 g / cm^3
# Si number density = 18.031961 Si / 1000 Ang^3
#
#
#
# Elastic Constant Matrix: (Units=GPa)
#
#
# Indices 1 2 3 4 5 6 
#
# 1 62.8375 16.0691 -6.8201 0.0000 0.0000 0.0000
# 2 16.0691 80.9505 14.5981 0.0000 0.0000 0.0000
# 3 -6.8201 14.5981 53.4426 0.0000 0.0000 0.0000
# 4 0.0000 0.0000 0.0000 15.7971 0.0000 0.0000
# 5 0.0000 0.0000 0.0000 0.0000 4.8643 0.0000
# 6 0.0000 0.0000 0.0000 0.0000 0.0000 37.7950
#
#
#
# Elastic Compliance Matrix: (Units=1/GPa)
#
#
# Indices 1 2 3 4 5 6 
#
# 1 0.017304 -0.004032 0.003310 0.000000 0.000000 0.000000
# 2 -0.004032 0.013933 -0.004320 0.000000 0.000000 0.000000
# 3 0.003310 -0.004320 0.020314 0.000000 0.000000 0.000000
# 4 0.000000 0.000000 0.000000 0.063303 0.000000 0.000000
# 5 0.000000 0.000000 0.000000 0.000000 0.205580 0.000000
# 6 0.000000 0.000000 0.000000 0.000000 0.000000 0.026459
#
#
# Mechanical properties :
#
#
# Convention : Reuss Voigt Hill
#
# Bulk Modulus (GPa) = 24.11610 27.21386 25.66498
# Shear Modulus (GPa) = 13.48436 23.25017 18.36726
#
# Velocity S-wave (km/s) = 2.73757 3.59470 3.19501
# Velocity P-wave (km/s) = 4.83689 5.68805 5.27965
#
# Compressibility (1/GPa) = 0.04146607
#
# Stress axis : x y z
#
# Youngs Moduli (GPa) = 57.78911 71.77379 49.22680
#
# Poissons Ratio (x) = 0.28938 -0.16292
# Poissons Ratio (y) = 0.23300 0.21267
# Poissons Ratio (z) = -0.19126 0.31008
#
# Static dielectric constant tensor:
#      x y z
#    x 1.593220 0.000000 0.000000 
#    y 0.000000 1.597670 0.000000 
#    z 0.000000 0.000000 1.616330 
# 
# From -- ./inp_files/9900.got.cif
#   From: 2010.05.17/outbox.cif.g08.bks.cpg/sg39_5_cif.got.tgz:9900.got - 2010.06.03 18:22:40.
