data_PCOD9361223
_publ_section_title
;
Structure prediction by ZEFSAII (Michael W. Deem and Ramdas Pophale) SiO2 
 PCOD9361223
Probable space group: A B M 2
;
_chemical_formula_sum "Si O2"
_cell_formula_units_Z 56
_cell_length_a 16.979548
_cell_length_b 16.888228
_cell_length_c 9.239209
_cell_angle_alpha 90.000000
_cell_angle_beta 90.000000
_cell_angle_gamma 90.000000
_cell_volume 2649.384554
_symmetry_space_group_name_H-M "A B M 2"
_symmetry_group_IT_number 39
_symmetry_cell_setting 'orthorhombic'
loop_
_space_group_symop_operation_xyz
x,y,z
-x,-y,z
-x,1/2+y,z
x,1/2-y,z
x,1/2+y,1/2+z
-x,1/2-y,1/2+z
-x,y,1/2+z
x,-y,1/2+z
loop_
_atom_site_type_symbol
_atom_site_label
_atom_site_fract_x
_atom_site_fract_y
_atom_site_fract_z
Si Si1 0.718054 0.160608 0.090230
Si Si2 0.105383 0.950652 0.691066
Si Si3 0.426809 0.847372 0.278717
Si Si4 0.252561 0.654017 0.765395
Si Si5 0.111597 0.360477 0.693513
Si Si6 0.582728 0.345803 0.609684
Si Si7 0.999395 0.120618 0.442140
O O1 0.690668 0.250000 0.055323
O O2 0.647604 0.124507 0.183526
O O3 0.798632 0.165587 0.180180
O O4 0.738562 0.126855 0.932738
O O5 0.182672 0.896455 0.695582
O O6 0.054987 0.929014 0.550434
O O7 0.118279 0.043927 0.694229
O O8 0.054138 0.926404 0.830247
O O9 0.424909 0.750000 0.281822
O O10 0.421261 0.874227 0.444488
O O11 0.508065 0.872488 0.203704
O O12 0.236721 0.750000 0.760124
O O13 0.334242 0.637128 0.684558
O O14 0.060531 0.337537 0.551731
O O15 0.062136 0.336533 0.834899
O O16 0.577188 0.250000 0.605112
#
# Coordination Sequence:
#
# PCOD9361223 Si02
#       7
#     8   8   8   8   8   8   8
#     4  10  21  36  53  80 116 145 174 219 273 323
#     4  11  20  36  57  79 104 141 187 229 267 315
#     4   9  17  31  53  79 107 143 182 217 258 315
#     4  10  21  36  53  80 116 145 174 219 273 323
#     4  11  20  36  57  79 104 141 187 229 267 315
#     4   9  17  31  53  79 107 143 182 217 258 315
#     4  10  21  36  57  78 103 140 189 232 265 314
#
# _framework density 21.136984000000002
#
# number of rings (size 3 to 8) (size 9 to 14) (size 15 to 20)
#    0.000    2.000    1.429    4.286    2.000    3.429 
#    0.000    4.286    0.000    0.857    0.000    4.000 
#    0.000    0.000    0.000    0.000    0.000    0.000 
#
# Total GULP energy -156315.918192 kJ/mol
# GULP energy per Si atom -5582.711364 kJ/mol
# Density = 2.108887 g / cm^3
# Si number density = 21.136984 Si / 1000 Ang^3
#
#
#
# Elastic Constant Matrix: (Units=GPa)
#
#
# Indices 1 2 3 4 5 6 
#
# 1 184.4174 35.9309 69.8101 0.0000 0.0000 0.0000
# 2 35.9309 68.3136 26.1354 0.0000 0.0000 0.0000
# 3 69.8101 26.1354 129.8165 0.0000 0.0000 0.0000
# 4 0.0000 0.0000 0.0000 -28.5667 0.0000 0.0000
# 5 0.0000 0.0000 0.0000 0.0000 32.1768 0.0000
# 6 0.0000 0.0000 0.0000 0.0000 0.0000 18.9454
#
#
#
# Elastic Compliance Matrix: (Units=1/GPa)
#
#
# Indices 1 2 3 4 5 6 
#
# 1 0.007179 -0.002491 -0.003359 0.000000 0.000000 0.000000
# 2 -0.002491 0.016724 -0.002027 0.000000 0.000000 0.000000
# 3 -0.003359 -0.002027 0.009918 0.000000 0.000000 0.000000
# 4 0.000000 0.000000 0.000000 -0.035006 0.000000 0.000000
# 5 0.000000 0.000000 0.000000 0.000000 0.031078 0.000000
# 6 0.000000 0.000000 0.000000 0.000000 0.000000 0.052783
#
#
# Mechanical properties :
#
#
# Convention : Reuss Voigt Hill
#
# Bulk Modulus (GPa) = 55.35256 71.81114 63.58185
# Shear Modulus (GPa) = 47.86764 21.22253 34.54508
#
# Velocity S-wave (km/s) = 4.76399 3.17211 4.04709
# Velocity P-wave (km/s) = 7.51699 6.88943 7.21004
#
# Compressibility (1/GPa) = 0.01806601
#
# Stress axis : x y z
#
# Youngs Moduli (GPa) = 139.28621 59.79353 100.82802
#
# Poissons Ratio (x) = 0.14894 0.33871
# Poissons Ratio (y) = 0.34696 0.20443
# Poissons Ratio (z) = 0.46791 0.12123
#
# Static dielectric constant tensor:
#      x y z
#    x 1.741250 0.000000 0.000000 
#    y 0.000000 1.790800 0.000000 
#    z 0.000000 0.000000 1.762370 
# 
# From -- ./inp_files/3388.got.cif
#   From: 2010.05.17/outbox.cif.g08.bks.cpg/sg39_2_cif.got.tgz:3388.got - 2010.06.03 18:22:40.
