data_PCOD9361130
_publ_section_title
;
Structure prediction by ZEFSAII (Michael W. Deem and Ramdas Pophale) SiO2 
 PCOD9361130
Probable space group: A B M 2
;
_chemical_formula_sum "Si O2"
_cell_formula_units_Z 48
_cell_length_a 14.296436
_cell_length_b 16.080018
_cell_length_c 8.220478
_cell_angle_alpha 90.000000
_cell_angle_beta 90.000000
_cell_angle_gamma 90.000000
_cell_volume 1889.780600
_symmetry_space_group_name_H-M "A B M 2"
_symmetry_group_IT_number 39
_symmetry_cell_setting 'orthorhombic'
loop_
_space_group_symop_operation_xyz
x,y,z
-x,-y,z
-x,1/2+y,z
x,1/2-y,z
x,1/2+y,1/2+z
-x,1/2-y,1/2+z
-x,y,1/2+z
x,-y,1/2+z
loop_
_atom_site_type_symbol
_atom_site_label
_atom_site_fract_x
_atom_site_fract_y
_atom_site_fract_z
Si Si1 0.366895 0.920363 0.901510
Si Si2 0.972997 0.350332 0.274209
Si Si3 0.314977 0.608131 0.401402
Si Si4 0.145302 0.150806 0.101199
Si Si5 0.799867 0.154028 0.083829
Si Si6 0.481070 0.843056 0.605398
O O1 0.420854 0.873740 0.757875
O O2 0.350752 0.016087 0.865478
O O3 0.265622 0.884361 0.946799
O O4 0.435833 0.904462 0.054610
O O5 0.977671 0.250000 0.249647
O O6 0.924725 0.361184 0.447558
O O7 0.899005 0.383671 0.140436
O O8 0.079454 0.378867 0.248836
O O9 0.240080 0.605488 0.550283
O O10 0.260941 0.647996 0.250485
O O11 0.405164 0.657166 0.460537
O O12 0.166983 0.250000 0.114349
O O13 0.815561 0.250000 0.040823
O O14 0.518321 0.750000 0.626185
#
# Coordination Sequence:
#
# PCOD9361130 Si02
#       6
#     8   8   8   8   8   8
#     4  12  26  43  64  93 126 161 202 258 320 376
#     4   8  16  30  56  89 123 160 207 257 300 349
#     4  11  23  40  63  93 129 166 203 256 318 372
#     4   9  17  34  59  91 125 165 210 256 304 361
#     4  10  20  40  65  92 125 168 213 256 303 366
#     4  12  25  43  65  92 122 162 209 257 309 378
#
# _framework density 25.399773
#
# number of rings (size 3 to 8) (size 9 to 14) (size 15 to 20)
#    0.000    1.667    0.000    6.500    0.000    2.667 
#    0.000    4.167    0.000    4.000    0.000    0.000 
#    0.000    0.000    0.000    0.000    0.000    0.000 
#
# Total GULP energy -134438.603073 kJ/mol
# GULP energy per Si atom -5601.608461 kJ/mol
# Density = 2.534196 g / cm^3
# Si number density = 25.399773 Si / 1000 Ang^3
#
#
#
# Elastic Constant Matrix: (Units=GPa)
#
#
# Indices 1 2 3 4 5 6 
#
# 1 146.7175 6.1842 18.9708 0.0000 0.0000 0.0000
# 2 6.1842 63.4156 7.2572 0.0000 0.0000 0.0000
# 3 18.9708 7.2572 64.5318 0.0000 0.0000 0.0000
# 4 0.0000 0.0000 0.0000 23.1138 0.0000 0.0000
# 5 0.0000 0.0000 0.0000 0.0000 58.2648 0.0000
# 6 0.0000 0.0000 0.0000 0.0000 0.0000 -123.5166
#
#
#
# Elastic Compliance Matrix: (Units=1/GPa)
#
#
# Indices 1 2 3 4 5 6 
#
# 1 0.007098 -0.000459 -0.002035 0.000000 0.000000 0.000000
# 2 -0.000459 0.016004 -0.001665 0.000000 0.000000 0.000000
# 3 -0.002035 -0.001665 0.016282 0.000000 0.000000 0.000000
# 4 0.000000 0.000000 0.000000 0.043264 0.000000 0.000000
# 5 0.000000 0.000000 0.000000 0.000000 0.017163 0.000000
# 6 0.000000 0.000000 0.000000 0.000000 0.000000 -0.008096
#
#
# Mechanical properties :
#
#
# Convention : Reuss Voigt Hill
#
# Bulk Modulus (GPa) = 32.18961 37.72103 34.95532
# Shear Modulus (GPa) = 45.29433 7.72260 26.50847
#
# Velocity S-wave (km/s) = 4.22744 1.74557 3.23406
# Velocity P-wave (km/s) = 6.04393 4.35269 5.26664
#
# Compressibility (1/GPa) = 0.03106593
#
# Stress axis : x y z
#
# Youngs Moduli (GPa) = 140.87840 62.48323 61.41859
#
# Poissons Ratio (x) = 0.02870 0.12499
# Poissons Ratio (y) = 0.06471 0.10225
# Poissons Ratio (z) = 0.28670 0.10402
#
# Static dielectric constant tensor:
#      x y z
#    x 1.982890 0.000000 0.000000 
#    y 0.000000 1.939380 0.000000 
#    z 0.000000 0.000000 2.138220 
# 
# From -- ./inp_files/3243.got.cif
#   From: 2010.05.17/outbox.cif.g08.bks.cpg/sg39_2_cif.got.tgz:3243.got - 2010.06.03 18:22:40.
