data_PCOD9361724
_publ_section_title
;
Structure prediction by ZEFSAII (Michael W. Deem and Ramdas Pophale) SiO2 
 PCOD9361724
Probable space group: A B M 2
;
_chemical_formula_sum "Si O2"
_cell_formula_units_Z 48
_cell_length_a 24.941018
_cell_length_b 7.970864
_cell_length_c 9.931728
_cell_angle_alpha 90.000000
_cell_angle_beta 90.000000
_cell_angle_gamma 90.000000
_cell_volume 1974.442052
_symmetry_space_group_name_H-M "A B M 2"
_symmetry_group_IT_number 39
_symmetry_cell_setting 'orthorhombic'
loop_
_space_group_symop_operation_xyz
x,y,z
-x,-y,z
-x,1/2+y,z
x,1/2-y,z
x,1/2+y,1/2+z
-x,1/2-y,1/2+z
-x,y,1/2+z
x,-y,1/2+z
loop_
_atom_site_type_symbol
_atom_site_label
_atom_site_fract_x
_atom_site_fract_y
_atom_site_fract_z
Si Si1 0.789848 0.451899 0.986530
Si Si2 0.017123 0.250000 0.946387
Si Si3 0.064147 0.250000 0.219278
Si Si4 0.273183 0.949869 0.735813
Si Si5 0.440170 0.548519 0.335332
Si Si6 0.622638 0.447959 0.587074
Si Si7 0.110458 0.567167 0.313419
O O1 0.791314 0.250000 0.985577
O O2 0.742492 0.511710 0.883936
O O3 0.843548 0.519927 0.918317
O O4 0.775918 0.514807 0.134687
O O5 0.017781 0.250000 0.107106
O O6 0.055046 0.098950 0.894612
O O7 0.962547 0.250000 0.866168
O O8 0.099462 0.416718 0.211539
O O9 0.280347 0.750000 0.747661
O O10 0.325460 0.023213 0.661941
O O11 0.500000 0.500000 0.377073
O O12 0.436726 0.750000 0.327754
O O13 0.396710 0.483503 0.444024
O O14 0.425760 0.472077 0.191496
O O15 0.632509 0.250000 0.567868
O O16 0.122706 0.750000 0.250634
#
# Coordination Sequence:
#
# PCOD9361724 Si02
#       7
#     8   4   4   8   8   8   8
#     4  11  23  41  65  96 131 174 222 272 330 396
#     4  10  28  46  76 102 138 180 224 278 337 402
#     4  12  24  54  70 104 140 174 228 276 335 406
#     4  10  23  41  65  93 131 168 217 276 330 395
#     4  11  23  38  61  90 124 166 215 265 323 394
#     4  10  22  41  62  91 127 167 213 272 330 385
#     4  10  25  44  69 103 134 180 218 280 332 399
#
# _framework density 24.310665
#
# number of rings (size 3 to 8) (size 9 to 14) (size 15 to 20)
#    0.500    1.000    0.833    3.000    2.333    7.333 
#    1.500    0.000    0.000    0.000    0.000    0.000 
#    0.000    0.000    0.000    0.000    0.000    0.000 
#
# Total GULP energy -134257.636023 kJ/mol
# GULP energy per Si atom -5594.068168 kJ/mol
# Density = 2.425533 g / cm^3
# Si number density = 24.310665 Si / 1000 Ang^3
#
#
#
# Elastic Constant Matrix: (Units=GPa)
#
#
# Indices 1 2 3 4 5 6 
#
# 1 66.4474 -10.3693 -12.9284 0.0000 0.0000 0.0000
# 2 -10.3693 61.1612 -2.5182 0.0000 0.0000 0.0000
# 3 -12.9284 -2.5182 93.0043 0.0000 0.0000 0.0000
# 4 0.0000 0.0000 0.0000 6.8524 0.0000 0.0000
# 5 0.0000 0.0000 0.0000 0.0000 38.8233 0.0000
# 6 0.0000 0.0000 0.0000 0.0000 0.0000 25.0137
#
#
#
# Elastic Compliance Matrix: (Units=1/GPa)
#
#
# Indices 1 2 3 4 5 6 
#
# 1 0.015931 0.002795 0.002290 0.000000 0.000000 0.000000
# 2 0.002795 0.016859 0.000845 0.000000 0.000000 0.000000
# 3 0.002290 0.000845 0.011093 0.000000 0.000000 0.000000
# 4 0.000000 0.000000 0.000000 0.145935 0.000000 0.000000
# 5 0.000000 0.000000 0.000000 0.000000 0.025758 0.000000
# 6 0.000000 0.000000 0.000000 0.000000 0.000000 0.039978
#
#
# Mechanical properties :
#
#
# Convention : Reuss Voigt Hill
#
# Bulk Modulus (GPa) = 17.93882 18.77565 18.35723
# Shear Modulus (GPa) = 19.06398 30.56646 24.81522
#
# Velocity S-wave (km/s) = 2.80336 3.54973 3.19839
# Velocity P-wave (km/s) = 4.22770 4.95386 4.60512
#
# Compressibility (1/GPa) = 0.05574504
#
# Stress axis : x y z
#
# Youngs Moduli (GPa) = 62.76942 59.31567 90.14330
#
# Poissons Ratio (x) = -0.16581 -0.20645
# Poissons Ratio (y) = -0.17546 -0.07618
# Poissons Ratio (z) = -0.14376 -0.05012
#
# Static dielectric constant tensor:
#      x y z
#    x 1.957960 0.000000 0.000000 
#    y 0.000000 1.931180 0.000000 
#    z 0.000000 0.000000 1.890530 
# 
# From -- ./inp_files/4148.got.cif
#   From: 2010.05.17/outbox.cif.g08.bks.cpg/sg39_3_cif.got.tgz:4148.got - 2010.06.03 18:22:40.
