data_PCOD9361953
_publ_section_title
;
Structure prediction by ZEFSAII (Michael W. Deem and Ramdas Pophale) SiO2 
 PCOD9361953
Probable space group: A B M 2
;
_chemical_formula_sum "Si O2"
_cell_formula_units_Z 36
_cell_length_a 11.613192
_cell_length_b 14.501251
_cell_length_c 8.415154
_cell_angle_alpha 90.000000
_cell_angle_beta 90.000000
_cell_angle_gamma 90.000000
_cell_volume 1417.160843
_symmetry_space_group_name_H-M "A B M 2"
_symmetry_group_IT_number 39
_symmetry_cell_setting 'orthorhombic'
loop_
_space_group_symop_operation_xyz
x,y,z
-x,-y,z
-x,1/2+y,z
x,1/2-y,z
x,1/2+y,1/2+z
-x,1/2-y,1/2+z
-x,y,1/2+z
x,-y,1/2+z
loop_
_atom_site_type_symbol
_atom_site_label
_atom_site_fract_x
_atom_site_fract_y
_atom_site_fract_z
Si Si1 0.578809 0.750000 0.340060
Si Si2 0.827035 0.750000 0.672219
Si Si3 0.115467 0.936873 0.640305
Si Si4 0.251960 0.574805 0.328287
Si Si5 0.537332 0.103126 0.562948
Si Si6 0.062738 0.750000 0.822879
O O1 0.556657 0.832106 0.475184
O O2 0.586516 0.668516 0.201404
O O3 0.756051 0.840458 0.707776
O O4 0.884958 0.750000 0.499085
O O5 0.926207 0.750000 0.806027
O O6 0.149169 0.923468 0.458148
O O7 0.099777 0.841025 0.729419
O O8 0.222237 0.986963 0.724026
O O9 0.000000 0.000000 0.650656
O O10 0.367003 0.584755 0.427204
O O11 0.500000 0.000000 0.615705
#
# Coordination Sequence:
#
# PCOD9361953 Si02
#       6
#     4   4   8   8   8   4
#     4  10  24  48  77 108 147 192 248 318 382 443
#     4  12  24  46  73 103 147 191 245 300 369 442
#     4  12  26  47  74 109 150 200 244 312 371 458
#     4  12  27  46  75 112 146 190 256 300 385 450
#     4  11  26  50  78 109 153 197 251 323 382 462
#     4  12  26  46  72 103 152 199 241 310 365 439
#
# _framework density 25.402902999999998
#
# number of rings (size 3 to 8) (size 9 to 14) (size 15 to 20)
#    0.000    0.444    2.222    6.000    6.222    0.000 
#    4.000    0.000    0.000    0.000    0.000    0.000 
#    0.000    0.000    0.000    0.000    0.000    0.000 
#
# Total GULP energy -100411.741291 kJ/mol
# GULP energy per Si atom -5578.430072 kJ/mol
# Density = 2.534509 g / cm^3
# Si number density = 25.402903 Si / 1000 Ang^3
#
#
#
# Elastic Constant Matrix: (Units=GPa)
#
#
# Indices 1 2 3 4 5 6 
#
# 1 84.2837 55.9558 50.1789 0.0000 0.0000 0.0000
# 2 55.9558 255.8402 57.6000 0.0000 0.0000 0.0000
# 3 50.1789 57.6000 137.6111 0.0000 0.0000 0.0000
# 4 0.0000 0.0000 0.0000 49.8562 0.0000 0.0000
# 5 0.0000 0.0000 0.0000 0.0000 35.3450 0.0000
# 6 0.0000 0.0000 0.0000 0.0000 0.0000 9.7094
#
#
#
# Elastic Compliance Matrix: (Units=1/GPa)
#
#
# Indices 1 2 3 4 5 6 
#
# 1 0.016471 -0.002484 -0.004966 0.000000 0.000000 0.000000
# 2 -0.002484 0.004690 -0.001057 0.000000 0.000000 0.000000
# 3 -0.004966 -0.001057 0.009520 0.000000 0.000000 0.000000
# 4 0.000000 0.000000 0.000000 0.020058 0.000000 0.000000
# 5 0.000000 0.000000 0.000000 0.000000 0.028293 0.000000
# 6 0.000000 0.000000 0.000000 0.000000 0.000000 0.102993
#
#
# Mechanical properties :
#
#
# Convention : Reuss Voigt Hill
#
# Bulk Modulus (GPa) = 73.17574 89.46715 81.32145
# Shear Modulus (GPa) = 24.55867 39.91548 32.23708
#
# Velocity S-wave (km/s) = 3.11266 3.96826 3.56621
# Velocity P-wave (km/s) = 6.46427 7.50279 7.00281
#
# Compressibility (1/GPa) = 0.01366573
#
# Stress axis : x y z
#
# Youngs Moduli (GPa) = 60.71435 213.21663 105.03969
#
# Poissons Ratio (x) = 0.52969 0.52163
# Poissons Ratio (y) = 0.15083 0.11105
# Poissons Ratio (z) = 0.30151 0.22542
#
# Static dielectric constant tensor:
#      x y z
#    x 2.114530 0.000000 0.000000 
#    y 0.000000 1.750790 0.000000 
#    z 0.000000 0.000000 1.926710 
# 
# From -- ./inp_files/3060.got.cif
#   From: 2010.05.17/outbox.cif.g08.bks.cpg/sg39_2_cif.got.tgz:3060.got - 2010.06.03 18:22:40.
