data_PCOD9361044
_publ_section_title
;
Structure prediction by ZEFSAII (Michael W. Deem and Ramdas Pophale) SiO2 
 PCOD9361044
Probable space group: A B M 2
;
_chemical_formula_sum "Si O2"
_cell_formula_units_Z 44
_cell_length_a 16.217425
_cell_length_b 10.614410
_cell_length_c 14.121847
_cell_angle_alpha 90.000000
_cell_angle_beta 90.000000
_cell_angle_gamma 90.000000
_cell_volume 2430.912121
_symmetry_space_group_name_H-M "A B M 2"
_symmetry_group_IT_number 39
_symmetry_cell_setting 'orthorhombic'
loop_
_space_group_symop_operation_xyz
x,y,z
-x,-y,z
-x,1/2+y,z
x,1/2-y,z
x,1/2+y,1/2+z
-x,1/2-y,1/2+z
-x,y,1/2+z
x,-y,1/2+z
loop_
_atom_site_type_symbol
_atom_site_label
_atom_site_fract_x
_atom_site_fract_y
_atom_site_fract_z
Si Si1 0.288130 0.966067 0.718720
Si Si2 0.158823 0.250000 0.273426
Si Si3 0.563726 0.889870 0.084190
Si Si4 0.906356 0.750000 0.072829
Si Si5 0.188611 0.488152 0.541731
Si Si6 0.915111 0.250000 0.980464
Si Si7 0.321801 0.398216 0.907541
O O1 0.221605 0.867873 0.761684
O O2 0.359362 0.899058 0.656798
O O3 0.236658 0.040774 0.639106
O O4 0.327935 0.049158 0.801578
O O5 0.093425 0.250000 0.187159
O O6 0.107142 0.250000 0.369403
O O7 0.526984 0.750000 0.091975
O O8 0.500000 0.000000 0.104780
O O9 0.599702 0.905521 0.977598
O O10 0.857179 0.622274 0.050055
O O11 0.990947 0.750000 0.015201
O O12 0.127490 0.375757 0.519813
O O13 0.254573 0.514281 0.459477
O O14 0.297670 0.250000 0.906646
#
# Coordination Sequence:
#
# PCOD9361044 Si02
#       7
#     8   4   8   4   8   4   8
#     4  10  20  39  64  85 117 162 200 239 299 365
#     4  10  20  40  64  83 116 167 203 234 307 372
#     4  10  22  41  61  89 125 160 196 249 306 355
#     4  10  22  42  56  80 124 166 187 243 318 365
#     4  10  21  38  60  84 119 156 199 245 296 364
#     4  12  22  38  60  95 116 147 208 265 293 343
#     4  10  20  38  62  86 116 161 201 240 297 366
#
# _framework density 18.100200999999998
#
# number of rings (size 3 to 8) (size 9 to 14) (size 15 to 20)
#    0.000    1.818    3.636    0.545    1.273    1.455 
#    9.818    3.636    0.000    0.000    0.000    0.000 
#    0.000    0.000    0.000    0.000    0.000    0.000 
#
# Total GULP energy -122620.598284 kJ/mol
# GULP energy per Si atom -5573.663558 kJ/mol
# Density = 1.805900 g / cm^3
# Si number density = 18.100201 Si / 1000 Ang^3
#
#
#
# Elastic Constant Matrix: (Units=GPa)
#
#
# Indices 1 2 3 4 5 6 
#
# 1 63.4740 24.7414 32.2471 0.0000 0.0000 0.0000
# 2 24.7414 68.8485 35.1521 0.0000 0.0000 0.0000
# 3 32.2471 35.1521 123.1069 0.0000 0.0000 0.0000
# 4 0.0000 0.0000 0.0000 11.2918 0.0000 0.0000
# 5 0.0000 0.0000 0.0000 0.0000 16.4913 0.0000
# 6 0.0000 0.0000 0.0000 0.0000 0.0000 38.1208
#
#
#
# Elastic Compliance Matrix: (Units=1/GPa)
#
#
# Indices 1 2 3 4 5 6 
#
# 1 0.019637 -0.005187 -0.003663 0.000000 0.000000 0.000000
# 2 -0.005187 0.018374 -0.003888 0.000000 0.000000 0.000000
# 3 -0.003663 -0.003888 0.010193 0.000000 0.000000 0.000000
# 4 0.000000 0.000000 0.000000 0.088560 0.000000 0.000000
# 5 0.000000 0.000000 0.000000 0.000000 0.060638 0.000000
# 6 0.000000 0.000000 0.000000 0.000000 0.000000 0.026232
#
#
# Mechanical properties :
#
#
# Convention : Reuss Voigt Hill
#
# Bulk Modulus (GPa) = 43.99731 48.85675 46.42703
# Shear Modulus (GPa) = 19.47919 24.06669 21.77294
#
# Velocity S-wave (km/s) = 3.28409 3.65037 3.47206
# Velocity P-wave (km/s) = 6.22420 6.69462 6.46369
#
# Compressibility (1/GPa) = 0.02272866
#
# Stress axis : x y z
#
# Youngs Moduli (GPa) = 50.92419 54.42620 98.11042
#
# Poissons Ratio (x) = 0.28229 0.35936
# Poissons Ratio (y) = 0.26413 0.38143
# Poissons Ratio (z) = 0.18653 0.21160
#
# Static dielectric constant tensor:
#      x y z
#    x 1.597680 0.000000 0.000000 
#    y 0.000000 1.623120 0.000000 
#    z 0.000000 0.000000 1.628880 
# 
# From -- ./inp_files/9722.got.cif
#   From: 2010.05.17/outbox.cif.g08.bks.cpg/sg39_5_cif.got.tgz:9722.got - 2010.06.03 18:22:40.
