data_PCOD9361230
_publ_section_title
;
Structure prediction by ZEFSAII (Michael W. Deem and Ramdas Pophale) SiO2 
 PCOD9361230
Probable space group: A B M 2
;
_chemical_formula_sum "Si O2"
_cell_formula_units_Z 64
_cell_length_a 12.170423
_cell_length_b 27.599547
_cell_length_c 9.440823
_cell_angle_alpha 90.000000
_cell_angle_beta 90.000000
_cell_angle_gamma 90.000000
_cell_volume 3171.155090
_symmetry_space_group_name_H-M "A B M 2"
_symmetry_group_IT_number 39
_symmetry_cell_setting 'orthorhombic'
loop_
_space_group_symop_operation_xyz
x,y,z
-x,-y,z
-x,1/2+y,z
x,1/2-y,z
x,1/2+y,1/2+z
-x,1/2-y,1/2+z
-x,y,1/2+z
x,-y,1/2+z
loop_
_atom_site_type_symbol
_atom_site_label
_atom_site_fract_x
_atom_site_fract_y
_atom_site_fract_z
Si Si1 0.207535 0.502900 0.729330
Si Si2 0.296296 0.901360 0.865725
Si Si3 0.053469 0.193945 0.193710
Si Si4 0.468736 0.392162 0.991190
Si Si5 0.084417 0.633078 0.981621
Si Si6 0.891672 0.439071 0.465846
Si Si7 0.575843 0.046763 0.235473
Si Si8 0.747017 0.647342 0.062384
O O1 0.270324 0.542571 0.828970
O O2 0.143043 0.530060 0.604255
O O3 0.129050 0.471015 0.827923
O O4 0.306770 0.469004 0.673912
O O5 0.210284 0.882228 0.980924
O O6 0.270044 0.876799 0.715704
O O7 0.416525 0.884908 0.911867
O O8 0.027794 0.250000 0.215986
O O9 0.067742 0.165626 0.341104
O O10 0.165128 0.189101 0.098160
O O11 0.959493 0.164831 0.110469
O O12 0.510192 0.415140 0.138273
O O13 0.378138 0.349764 0.005618
O O14 0.410294 0.432966 0.893970
O O15 0.012383 0.584007 0.973302
O O16 0.813455 0.391548 0.468196
O O17 0.500000 0.000000 0.241080
#
# Coordination Sequence:
#
# PCOD9361230 Si02
#       8
#     8   8   8   8   8   8   8   8
#     4  11  21  35  53  81 118 169 225 252 289 330
#     4  10  21  36  54  82 119 164 204 248 294 349
#     4  10  21  42  73  95 113 145 194 257 322 397
#     4  12  20  35  55  80 115 160 207 250 304 339
#     4  10  23  42  63  89 125 154 200 249 316 377
#     4  10  21  37  56  80 119 166 207 257 291 346
#     4  12  22  30  52  78 114 161 221 262 278 327
#     4   9  19  38  57  86 118 149 196 253 311 363
#
# _framework density 20.181920999999999
#
# number of rings (size 3 to 8) (size 9 to 14) (size 15 to 20)
#    0.000    1.500    3.750    3.000    0.000    2.500 
#    0.000    5.000    0.000    3.750    0.000    0.000 
#    0.000    0.000    0.000    0.000    0.000    0.000 
#
# Total GULP energy -178615.715368 kJ/mol
# GULP energy per Si atom -5581.741105 kJ/mol
# Density = 2.013599 g / cm^3
# Si number density = 20.181921 Si / 1000 Ang^3
#
#
#
# Elastic Constant Matrix: (Units=GPa)
#
#
# Indices 1 2 3 4 5 6 
#
# 1 51.0353 2.9568 -23.8478 0.0000 0.0000 0.0000
# 2 2.9568 43.5145 11.2569 0.0000 0.0000 0.0000
# 3 -23.8478 11.2569 34.1656 0.0000 0.0000 0.0000
# 4 0.0000 0.0000 0.0000 10.0364 0.0000 0.0000
# 5 0.0000 0.0000 0.0000 0.0000 19.4549 0.0000
# 6 0.0000 0.0000 0.0000 0.0000 0.0000 13.3069
#
#
#
# Elastic Compliance Matrix: (Units=1/GPa)
#
#
# Indices 1 2 3 4 5 6 
#
# 1 0.031795 -0.008638 0.025039 0.000000 0.000000 0.000000
# 2 -0.008638 0.027469 -0.015080 0.000000 0.000000 0.000000
# 3 0.025039 -0.015080 0.051715 0.000000 0.000000 0.000000
# 4 0.000000 0.000000 0.000000 0.099637 0.000000 0.000000
# 5 0.000000 0.000000 0.000000 0.000000 0.051401 0.000000
# 6 0.000000 0.000000 0.000000 0.000000 0.000000 0.075149
#
#
# Mechanical properties :
#
#
# Convention : Reuss Voigt Hill
#
# Bulk Modulus (GPa) = 8.80111 12.16079 10.48095
# Shear Modulus (GPa) = 13.42654 17.78295 15.60474
#
# Velocity S-wave (km/s) = 2.58209 2.97161 2.78367
# Velocity P-wave (km/s) = 3.64142 4.22050 3.94161
#
# Compressibility (1/GPa) = 0.11362201
#
# Stress axis : x y z
#
# Youngs Moduli (GPa) = 31.45150 36.40497 19.33670
#
# Poissons Ratio (x) = 0.31446 -0.48417
# Poissons Ratio (y) = 0.27167 0.29159
# Poissons Ratio (z) = -0.78752 0.54898
#
# Static dielectric constant tensor:
#      x y z
#    x 1.828010 0.000000 0.000000 
#    y 0.000000 1.690020 0.000000 
#    z 0.000000 0.000000 1.757720 
# 
# From -- ./inp_files/2892.got.cif
#   From: 2010.05.17/outbox.cif.g08.bks.cpg/sg39_2_cif.got.tgz:2892.got - 2010.06.03 18:22:40.
