data_PCOD9361865
_publ_section_title
;
Structure prediction by ZEFSAII (Michael W. Deem and Ramdas Pophale) SiO2 
 PCOD9361865
Probable space group: A B M 2
;
_chemical_formula_sum "Si O2"
_cell_formula_units_Z 56
_cell_length_a 14.253888
_cell_length_b 14.682858
_cell_length_c 11.051477
_cell_angle_alpha 90.000000
_cell_angle_beta 90.000000
_cell_angle_gamma 90.000000
_cell_volume 2312.939457
_symmetry_space_group_name_H-M "A B M 2"
_symmetry_group_IT_number 39
_symmetry_cell_setting 'orthorhombic'
loop_
_space_group_symop_operation_xyz
x,y,z
-x,-y,z
-x,1/2+y,z
x,1/2-y,z
x,1/2+y,1/2+z
-x,1/2-y,1/2+z
-x,y,1/2+z
x,-y,1/2+z
loop_
_atom_site_type_symbol
_atom_site_label
_atom_site_fract_x
_atom_site_fract_y
_atom_site_fract_z
Si Si1 0.911587 0.850681 0.795630
Si Si2 0.538970 0.103533 0.650567
Si Si3 0.974794 0.606047 0.535992
Si Si4 0.458791 0.896483 0.390204
Si Si5 0.243689 0.854869 0.642270
Si Si6 0.219461 0.648833 0.912606
Si Si7 0.750734 0.548595 0.907360
O O1 0.867930 0.750000 0.784254
O O2 0.977039 0.864907 0.677391
O O3 0.829868 0.927220 0.808375
O O4 0.967443 0.852519 0.922871
O O5 0.515468 0.143986 0.519986
O O6 0.497678 0.147684 0.769811
O O7 0.651158 0.107769 0.663434
O O8 0.500000 0.000000 0.647369
O O9 0.868932 0.631555 0.497498
O O10 0.000000 0.500000 0.531835
O O11 0.346122 0.900214 0.382808
O O12 0.500000 0.000000 0.391225
O O13 0.248806 0.750000 0.601631
O O14 0.192206 0.855165 0.770360
O O15 0.206283 0.915357 0.533650
O O16 0.259585 0.750000 0.933001
O O17 0.277998 0.556478 0.925396
#
# Coordination Sequence:
#
# PCOD9361865 Si02
#       7
#     8   8   8   8   8   8   8
#     4  12  27  48  73 105 143 187 237 293 358 430
#     4   9  17  35  61  92 131 182 232 278 346 416
#     4  12  27  49  71 102 142 184 235 293 359 430
#     4   9  18  36  61  97 131 180 232 284 345 415
#     4  10  23  43  69 103 141 187 236 292 364 437
#     4  11  24  43  68 101 137 177 235 297 351 422
#     4  11  24  41  72 104 142 186 239 295 361 430
#
# _framework density 24.211614000000001
#
# number of rings (size 3 to 8) (size 9 to 14) (size 15 to 20)
#    0.000    1.429    1.429    3.857    4.000    0.000 
#    2.571    3.571    0.000   14.571    0.000    0.000 
#    0.000    0.000    0.000    0.000    0.000    0.000 
#
# Total GULP energy -156347.960092 kJ/mol
# GULP energy per Si atom -5583.855718 kJ/mol
# Density = 2.415651 g / cm^3
# Si number density = 24.211614 Si / 1000 Ang^3
#
#
#
# Elastic Constant Matrix: (Units=GPa)
#
#
# Indices 1 2 3 4 5 6 
#
# 1 49.0504 -2.1022 49.1393 0.0000 0.0000 0.0000
# 2 -2.1022 150.0513 32.5391 0.0000 0.0000 0.0000
# 3 49.1393 32.5391 196.4373 0.0000 0.0000 0.0000
# 4 0.0000 0.0000 0.0000 31.5572 0.0000 0.0000
# 5 0.0000 0.0000 0.0000 0.0000 43.5381 0.0000
# 6 0.0000 0.0000 0.0000 0.0000 0.0000 0.8233
#
#
#
# Elastic Compliance Matrix: (Units=1/GPa)
#
#
# Indices 1 2 3 4 5 6 
#
# 1 0.027752 0.001965 -0.007268 0.000000 0.000000 0.000000
# 2 0.001965 0.007052 -0.001660 0.000000 0.000000 0.000000
# 3 -0.007268 -0.001660 0.007184 0.000000 0.000000 0.000000
# 4 0.000000 0.000000 0.000000 0.031688 0.000000 0.000000
# 5 0.000000 0.000000 0.000000 0.000000 0.022968 0.000000
# 6 0.000000 0.000000 0.000000 0.000000 0.000000 1.214560
#
#
# Mechanical properties :
#
#
# Convention : Reuss Voigt Hill
#
# Bulk Modulus (GPa) = 35.63449 61.63238 48.63343
# Shear Modulus (GPa) = 3.74677 36.24792 19.99735
#
# Velocity S-wave (km/s) = 1.24534 3.87347 2.87704
# Velocity P-wave (km/s) = 4.10094 6.74656 5.58273
#
# Compressibility (1/GPa) = 0.02806270
#
# Stress axis : x y z
#
# Youngs Moduli (GPa) = 36.03297 141.80761 139.20510
#
# Poissons Ratio (x) = -0.27863 1.01171
# Poissons Ratio (y) = -0.07080 0.23103
# Poissons Ratio (z) = 0.26188 0.23535
#
# Static dielectric constant tensor:
#      x y z
#    x 1.876280 0.000000 0.000000 
#    y 0.000000 1.928040 0.000000 
#    z 0.000000 0.000000 1.971710 
# 
# From -- ./inp_files/6515.got.cif
#   From: 2010.05.17/outbox.cif.g08.bks.cpg/sg39_4_cif.got.tgz:6515.got - 2010.06.03 18:22:40.
