data_PCOD9361685
_publ_section_title
;
Structure prediction by ZEFSAII (Michael W. Deem and Ramdas Pophale) SiO2 
 PCOD9361685
Probable space group: A B M 2
;
_chemical_formula_sum "Si O2"
_cell_formula_units_Z 64
_cell_length_a 10.632252
_cell_length_b 18.514683
_cell_length_c 16.097247
_cell_angle_alpha 90.000000
_cell_angle_beta 90.000000
_cell_angle_gamma 90.000000
_cell_volume 3168.787748
_symmetry_space_group_name_H-M "A B M 2"
_symmetry_group_IT_number 39
_symmetry_cell_setting 'orthorhombic'
loop_
_space_group_symop_operation_xyz
x,y,z
-x,-y,z
-x,1/2+y,z
x,1/2-y,z
x,1/2+y,1/2+z
-x,1/2-y,1/2+z
-x,y,1/2+z
x,-y,1/2+z
loop_
_atom_site_type_symbol
_atom_site_label
_atom_site_fract_x
_atom_site_fract_y
_atom_site_fract_z
Si Si1 0.085571 0.671097 0.653010
Si Si2 0.827494 0.329913 0.253871
Si Si3 0.457430 0.080992 0.126713
Si Si4 0.836293 0.165870 0.917915
Si Si5 0.194059 0.043354 0.054660
Si Si6 0.724606 0.116787 0.087679
Si Si7 0.331880 0.331901 0.268822
Si Si8 0.925296 0.566420 0.879538
O O1 0.080797 0.750000 0.608397
O O2 0.098224 0.599591 0.597686
O O3 0.207637 0.671440 0.711134
O O4 0.965659 0.667579 0.712118
O O5 0.806489 0.250000 0.289079
O O6 0.739885 0.345066 0.175811
O O7 0.827708 0.392646 0.321131
O O8 0.331600 0.078081 0.070752
O O9 0.575135 0.111470 0.075455
O O10 0.426677 0.122059 0.212611
O O11 0.500000 0.000000 0.148178
O O12 0.856534 0.250000 0.897560
O O13 0.724364 0.139484 0.856006
O O14 0.965042 0.122823 0.903880
O O15 0.791433 0.157130 0.012269
O O16 0.211194 0.962930 0.091246
O O17 0.146688 0.037301 0.960566
O O18 0.379455 0.250000 0.281047
O O19 0.000000 0.500000 0.838015
#
# Coordination Sequence:
#
# PCOD9361685 Si02
#       8
#     8   8   8   8   8   8   8   8
#     4   9  18  34  59  86 117 161 201 250 318 378
#     4  11  24  39  60  90 131 168 203 260 320 374
#     4   9  21  42  64  86 123 166 209 261 309 369
#     4  11  22  40  64  90 127 164 205 261 324 381
#     4  10  22  40  61  91 124 160 210 259 310 374
#     4  11  23  41  62  91 125 167 216 259 311 371
#     4   9  18  36  62  89 117 158 210 254 305 380
#     4  12  24  38  61  96 129 164 206 263 315 383
#
# _framework density 20.196999000000002
#
# number of rings (size 3 to 8) (size 9 to 14) (size 15 to 20)
#    0.000    1.750    2.500    1.500    1.750    4.000 
#    2.250    0.625    0.000    0.000    0.000    0.000 
#    0.000    0.000    0.000    0.000    0.000    0.000 
#
# Total GULP energy -178570.968993 kJ/mol
# GULP energy per Si atom -5580.342781 kJ/mol
# Density = 2.015103 g / cm^3
# Si number density = 20.196999 Si / 1000 Ang^3
#
#
#
# Elastic Constant Matrix: (Units=GPa)
#
#
# Indices 1 2 3 4 5 6 
#
# 1 54.8378 8.0690 0.1863 0.0000 0.0000 0.0000
# 2 8.0690 56.0964 5.9494 0.0000 0.0000 0.0000
# 3 0.1863 5.9494 47.1030 0.0000 0.0000 0.0000
# 4 0.0000 0.0000 0.0000 31.6617 0.0000 0.0000
# 5 0.0000 0.0000 0.0000 0.0000 23.6641 0.0000
# 6 0.0000 0.0000 0.0000 0.0000 0.0000 19.0600
#
#
#
# Elastic Compliance Matrix: (Units=1/GPa)
#
#
# Indices 1 2 3 4 5 6 
#
# 1 0.018633 -0.002709 0.000268 0.000000 0.000000 0.000000
# 2 -0.002709 0.018462 -0.002321 0.000000 0.000000 0.000000
# 3 0.000268 -0.002321 0.021522 0.000000 0.000000 0.000000
# 4 0.000000 0.000000 0.000000 0.031584 0.000000 0.000000
# 5 0.000000 0.000000 0.000000 0.000000 0.042258 0.000000
# 6 0.000000 0.000000 0.000000 0.000000 0.000000 0.052466
#
#
# Mechanical properties :
#
#
# Convention : Reuss Voigt Hill
#
# Bulk Modulus (GPa) = 20.36874 20.71626 20.54250
# Shear Modulus (GPa) = 23.71766 24.46600 24.09183
#
# Velocity S-wave (km/s) = 3.43055 3.48425 3.45750
# Velocity P-wave (km/s) = 5.07922 5.14451 5.11197
#
# Compressibility (1/GPa) = 0.04909484
#
# Stress axis : x y z
#
# Youngs Moduli (GPa) = 53.66746 54.16461 46.46368
#
# Poissons Ratio (x) = 0.14672 -0.01247
# Poissons Ratio (y) = 0.14537 0.10785
# Poissons Ratio (z) = -0.01441 0.12573
#
# Static dielectric constant tensor:
#      x y z
#    x 1.730310 0.000000 0.000000 
#    y 0.000000 1.768550 0.000000 
#    z 0.000000 0.000000 1.714240 
# 
# From -- ./inp_files/9449.got.cif
#   From: 2010.05.17/outbox.cif.g08.bks.cpg/sg39_5_cif.got.tgz:9449.got - 2010.06.03 18:22:40.
