data_PCOD9361165
_publ_section_title
;
Structure prediction by ZEFSAII (Michael W. Deem and Ramdas Pophale) SiO2 
 PCOD9361165
Probable space group: A B M 2
;
_chemical_formula_sum "Si O2"
_cell_formula_units_Z 64
_cell_length_a 11.594690
_cell_length_b 14.796434
_cell_length_c 18.344307
_cell_angle_alpha 90.000000
_cell_angle_beta 90.000000
_cell_angle_gamma 90.000000
_cell_volume 3147.150507
_symmetry_space_group_name_H-M "A B M 2"
_symmetry_group_IT_number 39
_symmetry_cell_setting 'orthorhombic'
loop_
_space_group_symop_operation_xyz
x,y,z
-x,-y,z
-x,1/2+y,z
x,1/2-y,z
x,1/2+y,1/2+z
-x,1/2-y,1/2+z
-x,y,1/2+z
x,-y,1/2+z
loop_
_atom_site_type_symbol
_atom_site_label
_atom_site_fract_x
_atom_site_fract_y
_atom_site_fract_z
Si Si1 0.866954 0.987767 0.659050
Si Si2 0.128934 0.984050 0.991027
Si Si3 0.469138 0.358903 0.020332
Si Si4 0.681536 0.355529 0.939811
Si Si5 0.684922 0.357485 0.656874
Si Si6 0.255466 0.856272 0.431358
Si Si7 0.529937 0.105030 0.797387
Si Si8 0.733870 0.646957 0.766220
O O1 0.871509 0.953260 0.575194
O O2 0.800020 0.083223 0.658314
O O3 0.790410 0.921089 0.708952
O O4 0.000000 0.000000 0.683557
O O5 0.184830 0.082718 0.985734
O O6 0.205648 0.916976 0.942412
O O7 0.000000 0.000000 0.964622
O O8 0.479415 0.250000 0.025263
O O9 0.400186 0.388488 0.091338
O O10 0.597265 0.392117 0.004416
O O11 0.388153 0.377612 0.950659
O O12 0.709763 0.250000 0.951133
O O13 0.602634 0.362301 0.867582
O O14 0.706457 0.250000 0.648412
O O15 0.614818 0.376243 0.730329
O O16 0.239198 0.750000 0.443476
O O17 0.225997 0.877438 0.348199
O O18 0.405466 0.146199 0.775388
O O19 0.500000 0.000000 0.806895
O O20 0.768139 0.750000 0.749363
#
# Coordination Sequence:
#
# PCOD9361165 Si02
#       8
#     8   8   8   8   8   8   8   8
#     4  11  26  46  65  93 133 181 234 277 331 406
#     4  11  26  44  66  95 130 179 230 278 331 398
#     4   9  19  36  63  94 124 164 213 267 337 409
#     4  11  24  42  65 100 139 174 218 279 345 414
#     4  11  23  40  64  95 131 173 219 278 346 412
#     4  10  20  41  68  93 124 167 219 273 330 398
#     4  12  23  39  66 100 136 174 209 275 351 416
#     4  11  23  42  67  97 133 174 219 273 338 409
#
# _framework density 20.335856
#
# number of rings (size 3 to 8) (size 9 to 14) (size 15 to 20)
#    0.000    1.250    3.750    1.875    1.750    2.000 
#    0.000    2.500    0.000    0.000    0.000    0.000 
#    0.000    0.000    0.000    0.000    0.000    0.000 
#
# Total GULP energy -178678.807229 kJ/mol
# GULP energy per Si atom -5583.712726 kJ/mol
# Density = 2.028957 g / cm^3
# Si number density = 20.335856 Si / 1000 Ang^3
#
#
#
# Elastic Constant Matrix: (Units=GPa)
#
#
# Indices 1 2 3 4 5 6 
#
# 1 147.5523 45.0027 50.7533 0.0000 0.0000 0.0000
# 2 45.0027 88.3684 32.2916 0.0000 0.0000 0.0000
# 3 50.7533 32.2916 75.7931 0.0000 0.0000 0.0000
# 4 0.0000 0.0000 0.0000 17.1099 0.0000 0.0000
# 5 0.0000 0.0000 0.0000 0.0000 26.3015 0.0000
# 6 0.0000 0.0000 0.0000 0.0000 0.0000 -0.8695
#
#
#
# Elastic Compliance Matrix: (Units=1/GPa)
#
#
# Indices 1 2 3 4 5 6 
#
# 1 0.009413 -0.002949 -0.005046 0.000000 0.000000 0.000000
# 2 -0.002949 0.014327 -0.004129 0.000000 0.000000 0.000000
# 3 -0.005046 -0.004129 0.018332 0.000000 0.000000 0.000000
# 4 0.000000 0.000000 0.000000 0.058446 0.000000 0.000000
# 5 0.000000 0.000000 0.000000 0.000000 0.038021 0.000000
# 6 0.000000 0.000000 0.000000 0.000000 0.000000 -1.150107
#
#
# Mechanical properties :
#
#
# Convention : Reuss Voigt Hill
#
# Bulk Modulus (GPa) = 56.10961 63.08990 59.59975
# Shear Modulus (GPa) = -5.09487 20.75280 7.82896
#
# Velocity S-wave (km/s) = -1.58455 3.19800 1.96423
# Velocity P-wave (km/s) = 4.92987 6.68787 5.87500
#
# Compressibility (1/GPa) = 0.01782226
#
# Stress axis : x y z
#
# Youngs Moduli (GPa) = 106.24048 69.79763 54.54892
#
# Poissons Ratio (x) = 0.20586 0.27527
# Poissons Ratio (y) = 0.31335 0.22523
# Poissons Ratio (z) = 0.53613 0.28820
#
# Static dielectric constant tensor:
#      x y z
#    x 1.740690 0.000000 0.000000 
#    y 0.000000 1.732770 0.000000 
#    z 0.000000 0.000000 1.749820 
# 
# From -- ./inp_files/12357.got.cif
#   From: 2010.05.17/outbox.cif.g08.bks.cpg/sg39_7_cif.got.tgz:12357.got - 2010.06.03 18:22:40.
