data_PCOD9361459
_publ_section_title
;
Structure prediction by ZEFSAII (Michael W. Deem and Ramdas Pophale) SiO2 
 PCOD9361459
Probable space group: A B M 2
;
_chemical_formula_sum "Si O2"
_cell_formula_units_Z 56
_cell_length_a 5.189258
_cell_length_b 14.575284
_cell_length_c 30.254748
_cell_angle_alpha 90.000000
_cell_angle_beta 90.000000
_cell_angle_gamma 90.000000
_cell_volume 2288.315115
_symmetry_space_group_name_H-M "A B M 2"
_symmetry_group_IT_number 39
_symmetry_cell_setting 'orthorhombic'
loop_
_space_group_symop_operation_xyz
x,y,z
-x,-y,z
-x,1/2+y,z
x,1/2-y,z
x,1/2+y,1/2+z
-x,1/2-y,1/2+z
-x,y,1/2+z
x,-y,1/2+z
loop_
_atom_site_type_symbol
_atom_site_label
_atom_site_fract_x
_atom_site_fract_y
_atom_site_fract_z
Si Si1 0.380748 0.647494 0.572960
Si Si2 0.413837 0.599929 0.353694
Si Si3 0.373663 0.402563 0.484465
Si Si4 0.245905 0.862288 0.702652
Si Si5 0.252956 0.360024 0.652368
Si Si6 0.924125 0.143107 0.799276
Si Si7 0.489574 0.250000 0.419403
Si Si8 0.000000 0.000000 0.548719
O O1 0.284839 0.750000 0.585543
O O2 0.444691 0.646490 0.520954
O O3 0.629728 0.627568 0.603435
O O4 0.190580 0.562344 0.577040
O O5 0.500000 0.500000 0.368629
O O6 0.169454 0.594121 0.321067
O O7 0.350269 0.669556 0.392645
O O8 0.668522 0.639960 0.329476
O O9 0.500000 0.500000 0.471620
O O10 0.330985 0.331630 0.445737
O O11 0.134603 0.429860 0.514803
O O12 0.256516 0.750000 0.703943
O O13 0.026068 0.891349 0.668058
O O14 0.160593 0.892265 0.751280
O O15 0.524977 0.892979 0.685985
O O16 0.240832 0.250000 0.657211
O O17 0.003584 0.250000 0.794553
#
# Coordination Sequence:
#
# PCOD9361459 Si02
#       8
#     8   8   8   8   8   8   4   4
#     4  10  21  39  68  96 142 191 233 281 351 413
#     4  12  26  46  72 106 144 181 229 296 355 428
#     4  10  23  46  67  99 138 179 224 287 349 413
#     4   9  18  33  63 100 136 178 234 286 332 404
#     4   9  18  32  58 104 137 179 236 286 328 399
#     4  11  21  45  73 102 141 191 235 283 360 428
#     4  12  24  48  72 102 130 178 234 284 356 428
#     4  10  24  42  66 100 134 188 226 294 342 422
#
# _framework density 24.472155999999998
#
# number of rings (size 3 to 8) (size 9 to 14) (size 15 to 20)
#    0.000    1.714    2.143    1.714    3.000    2.286 
#   12.857    0.000    6.286    0.857    0.000    0.000 
#    0.000    0.000    0.000    0.000    0.000    0.000 
#
# Total GULP energy -156098.765873 kJ/mol
# GULP energy per Si atom -5574.955924 kJ/mol
# Density = 2.441646 g / cm^3
# Si number density = 24.472156 Si / 1000 Ang^3
#
#
#
# Elastic Constant Matrix: (Units=GPa)
#
#
# Indices 1 2 3 4 5 6 
#
# 1 45.1555 -26.8549 -4.1480 0.0000 0.0000 0.0000
# 2 -26.8549 121.6611 9.6427 0.0000 0.0000 0.0000
# 3 -4.1480 9.6427 59.2120 0.0000 0.0000 0.0000
# 4 0.0000 0.0000 0.0000 340.1940 0.0000 0.0000
# 5 0.0000 0.0000 0.0000 0.0000 21.6553 0.0000
# 6 0.0000 0.0000 0.0000 0.0000 0.0000 28.8197
#
#
#
# Elastic Compliance Matrix: (Units=1/GPa)
#
#
# Indices 1 2 3 4 5 6 
#
# 1 0.025538 0.005567 0.000882 0.000000 0.000000 0.000000
# 2 0.005567 0.009541 -0.001164 0.000000 0.000000 0.000000
# 3 0.000882 -0.001164 0.017140 0.000000 0.000000 0.000000
# 4 0.000000 0.000000 0.000000 0.002939 0.000000 0.000000
# 5 0.000000 0.000000 0.000000 0.000000 0.046178 0.000000
# 6 0.000000 0.000000 0.000000 0.000000 0.000000 0.034698
#
#
# Mechanical properties :
#
#
# Convention : Reuss Voigt Hill
#
# Bulk Modulus (GPa) = 15.92618 20.36757 18.14688
# Shear Modulus (GPa) = 34.15476 94.62639 64.39057
#
# Velocity S-wave (km/s) = 3.73990 6.22502 5.13506
# Velocity P-wave (km/s) = 5.01709 7.74653 6.52610
#
# Compressibility (1/GPa) = 0.06278970
#
# Stress axis : x y z
#
# Youngs Moduli (GPa) = 39.15792 104.81470 58.34378
#
# Poissons Ratio (x) = -0.58352 -0.05148
# Poissons Ratio (y) = -0.21800 0.06789
# Poissons Ratio (z) = -0.03455 0.12197
#
# Static dielectric constant tensor:
#      x y z
#    x 1.970490 0.000000 0.000000 
#    y 0.000000 1.946810 0.000000 
#    z 0.000000 0.000000 1.985900 
# 
# From -- ./inp_files/17303.got.cif
#   From: 2010.05.17/outbox.cif.g08.bks.cpg/sg39_9_cif.got.tgz:17303.got - 2010.06.03 18:22:40.
