data_PCOD9361300
_publ_section_title
;
Structure prediction by ZEFSAII (Michael W. Deem and Ramdas Pophale) SiO2 
 PCOD9361300
Probable space group: A B M 2
;
_chemical_formula_sum "Si O2"
_cell_formula_units_Z 60
_cell_length_a 17.117728
_cell_length_b 7.519440
_cell_length_c 19.850553
_cell_angle_alpha 90.000000
_cell_angle_beta 90.000000
_cell_angle_gamma 90.000000
_cell_volume 2555.078393
_symmetry_space_group_name_H-M "A B M 2"
_symmetry_group_IT_number 39
_symmetry_cell_setting 'orthorhombic'
loop_
_space_group_symop_operation_xyz
x,y,z
-x,-y,z
-x,1/2+y,z
x,1/2-y,z
x,1/2+y,1/2+z
-x,1/2-y,1/2+z
-x,y,1/2+z
x,-y,1/2+z
loop_
_atom_site_type_symbol
_atom_site_label
_atom_site_fract_x
_atom_site_fract_y
_atom_site_fract_z
Si Si1 0.118595 0.250000 0.656360
Si Si2 0.202683 0.052570 0.534650
Si Si3 0.377154 0.545927 0.548619
Si Si4 0.413050 0.036276 0.903013
Si Si5 0.884755 0.453482 0.770878
Si Si6 0.287610 0.046570 0.799072
Si Si7 0.585990 0.537945 0.193049
Si Si8 0.913999 0.037576 0.922487
O O1 0.149954 0.096507 0.600333
O O2 0.097756 0.407857 0.711723
O O3 0.229049 0.250000 0.511413
O O4 0.151850 0.970279 0.474117
O O5 0.282986 0.955570 0.551003
O O6 0.404311 0.750000 0.548019
O O7 0.405677 0.465697 0.478728
O O8 0.408649 0.465268 0.617242
O O9 0.403533 0.250000 0.903241
O O10 0.340888 0.968913 0.858577
O O11 0.500000 0.000000 0.877016
O O12 0.912769 0.250000 0.759605
O O13 0.790708 0.448524 0.779236
O O14 0.910735 0.522485 0.845000
O O15 0.264538 0.250000 0.814971
O O16 0.346279 0.047815 0.736460
O O17 0.500000 0.500000 0.220074
O O18 0.599278 0.750000 0.193410
O O19 0.903901 0.250000 0.920025
O O20 0.000000 0.000000 0.950464
#
# Coordination Sequence:
#
# PCOD9361300 Si02
#       8
#     4   8   8   8   8   8   8   8
#     4  10  22  42  68  98 140 170 218 280 330 390
#     4   9  21  40  63  94 131 168 221 271 339 399
#     4  10  21  37  59  86 117 159 218 271 327 394
#     4  10  22  37  53  80 117 161 211 270 333 397
#     4  11  23  41  69 102 136 176 229 279 340 407
#     4  11  22  37  60  88 124 164 215 270 334 393
#     4  11  23  37  55  83 119 164 217 270 327 395
#     4  10  23  43  70 101 136 180 226 273 337 415
#
# _framework density 23.482644000000001
#
# number of rings (size 3 to 8) (size 9 to 14) (size 15 to 20)
#    0.400    1.333    0.667    3.200    0.933    5.333 
#    0.000    0.667    0.000    0.000    0.000    0.000 
#    0.000    0.000    0.000    0.000    0.000    0.000 
#
# Total GULP energy -167086.050246 kJ/mol
# GULP energy per Si atom -5569.535008 kJ/mol
# Density = 2.342920 g / cm^3
# Si number density = 23.482644 Si / 1000 Ang^3
#
#
#
# Elastic Constant Matrix: (Units=GPa)
#
#
# Indices 1 2 3 4 5 6 
#
# 1 81.2909 -5.9268 16.5395 0.0000 0.0000 0.0000
# 2 -5.9268 89.5321 15.1627 0.0000 0.0000 0.0000
# 3 16.5395 15.1627 117.3534 0.0000 0.0000 0.0000
# 4 0.0000 0.0000 0.0000 -2.7725 0.0000 0.0000
# 5 0.0000 0.0000 0.0000 0.0000 27.7762 0.0000
# 6 0.0000 0.0000 0.0000 0.0000 0.0000 19.8797
#
#
#
# Elastic Compliance Matrix: (Units=1/GPa)
#
#
# Indices 1 2 3 4 5 6 
#
# 1 0.012785 0.001177 -0.001954 0.000000 0.000000 0.000000
# 2 0.001177 0.011527 -0.001655 0.000000 0.000000 0.000000
# 3 -0.001954 -0.001655 0.009011 0.000000 0.000000 0.000000
# 4 0.000000 0.000000 0.000000 -0.360685 0.000000 0.000000
# 5 0.000000 0.000000 0.000000 0.000000 0.036002 0.000000
# 6 0.000000 0.000000 0.000000 0.000000 0.000000 0.050303
#
#
# Mechanical properties :
#
#
# Convention : Reuss Voigt Hill
#
# Bulk Modulus (GPa) = 35.13859 37.74748 36.44303
# Shear Modulus (GPa) = -22.05490 26.47008 2.20759
#
# Velocity S-wave (km/s) = -3.06796 3.36105 0.97064
# Velocity P-wave (km/s) = 1.56406 5.58317 4.09988
#
# Compressibility (1/GPa) = 0.02845874
#
# Stress axis : x y z
#
# Youngs Moduli (GPa) = 78.21735 86.74950 110.98117
#
# Poissons Ratio (x) = -0.10213 0.21685
# Poissons Ratio (y) = -0.09208 0.18371
# Poissons Ratio (z) = 0.15283 0.14360
#
# Static dielectric constant tensor:
#      x y z
#    x 1.871110 0.000000 0.000000 
#    y 0.000000 1.915810 0.000000 
#    z 0.000000 0.000000 1.918000 
# 
# From -- ./inp_files/12990.got.cif
#   From: 2010.05.17/outbox.cif.g08.bks.cpg/sg39_7_cif.got.tgz:12990.got - 2010.06.03 18:22:40.
