data_PCOD9361926
_publ_section_title
;
Structure prediction by ZEFSAII (Michael W. Deem and Ramdas Pophale) SiO2 
 PCOD9361926
Probable space group: A B M 2
;
_chemical_formula_sum "Si O2"
_cell_formula_units_Z 64
_cell_length_a 24.516856
_cell_length_b 8.912316
_cell_length_c 15.643640
_cell_angle_alpha 90.000000
_cell_angle_beta 90.000000
_cell_angle_gamma 90.000000
_cell_volume 3418.166127
_symmetry_space_group_name_H-M "A B M 2"
_symmetry_group_IT_number 39
_symmetry_cell_setting 'orthorhombic'
loop_
_space_group_symop_operation_xyz
x,y,z
-x,-y,z
-x,1/2+y,z
x,1/2-y,z
x,1/2+y,1/2+z
-x,1/2-y,1/2+z
-x,y,1/2+z
x,-y,1/2+z
loop_
_atom_site_type_symbol
_atom_site_label
_atom_site_fract_x
_atom_site_fract_y
_atom_site_fract_z
Si Si1 0.134724 0.071589 0.508480
Si Si2 0.872257 0.571198 0.184469
Si Si3 0.940491 0.068805 0.849421
Si Si4 0.756199 0.424377 0.451337
Si Si5 0.559894 0.930751 0.588950
Si Si6 0.360713 0.432275 0.743047
Si Si7 0.238331 0.074410 0.745334
Si Si8 0.368429 0.068306 0.940403
O O1 0.132725 0.250000 0.514602
O O2 0.099309 0.023309 0.426748
O O3 0.112099 0.999098 0.594361
O O4 0.197066 0.020309 0.495164
O O5 0.873362 0.750000 0.179551
O O6 0.911998 0.522111 0.260908
O O7 0.811247 0.517624 0.207062
O O8 0.944095 0.250000 0.850019
O O9 0.000000 0.000000 0.858661
O O10 0.762852 0.250000 0.476098
O O11 0.763641 0.433372 0.348617
O O12 0.693703 0.469714 0.467878
O O13 0.557168 0.750000 0.587025
O O14 0.596229 0.977163 0.671239
O O15 0.500000 0.000000 0.595297
O O16 0.589581 0.991012 0.503960
O O17 0.358669 0.250000 0.744715
O O18 0.298926 0.480626 0.720957
O O19 0.374641 0.477226 0.840579
O O20 0.232635 0.250000 0.721079
O O21 0.373582 0.250000 0.944481
#
# Coordination Sequence:
#
# PCOD9361926 Si02
#       8
#     8   8   8   8   8   8   8   8
#     4  11  23  39  59  88 121 157 199 243 294 351
#     4  11  23  39  58  89 123 155 196 245 295 348
#     4  10  24  44  64  85 118 158 201 248 294 348
#     4   9  18  34  59  89 122 156 192 236 295 356
#     4  11  23  39  58  83 115 154 199 244 290 346
#     4   8  18  37  59  83 115 152 191 236 289 346
#     4   9  17  34  60  88 118 156 193 234 293 357
#     4   9  19  38  60  85 117 152 191 238 291 348
#
# _framework density 18.723490000000002
#
# number of rings (size 3 to 8) (size 9 to 14) (size 15 to 20)
#    0.000    2.250    1.250    2.625    1.750    3.500 
#    0.000    7.500    0.000    0.000    0.000    0.000 
#    0.000    0.000    0.000    0.000    0.000    0.000 
#
# Total GULP energy -178684.431786 kJ/mol
# GULP energy per Si atom -5583.888493 kJ/mol
# Density = 1.868087 g / cm^3
# Si number density = 18.723490 Si / 1000 Ang^3
#
#
#
# Elastic Constant Matrix: (Units=GPa)
#
#
# Indices 1 2 3 4 5 6 
#
# 1 70.1931 15.0149 10.0318 0.0000 0.0000 0.0000
# 2 15.0149 26.4546 9.2981 0.0000 0.0000 0.0000
# 3 10.0318 9.2981 39.9601 0.0000 0.0000 0.0000
# 4 0.0000 0.0000 0.0000 26.3822 0.0000 0.0000
# 5 0.0000 0.0000 0.0000 0.0000 -3.3757 0.0000
# 6 0.0000 0.0000 0.0000 0.0000 0.0000 30.5219
#
#
#
# Elastic Compliance Matrix: (Units=1/GPa)
#
#
# Indices 1 2 3 4 5 6 
#
# 1 0.016379 -0.008550 -0.002122 0.000000 0.000000 0.000000
# 2 -0.008550 0.045631 -0.008471 0.000000 0.000000 0.000000
# 3 -0.002122 -0.008471 0.027529 0.000000 0.000000 0.000000
# 4 0.000000 0.000000 0.000000 0.037904 0.000000 0.000000
# 5 0.000000 0.000000 0.000000 0.000000 -0.296232 0.000000
# 6 0.000000 0.000000 0.000000 0.000000 0.000000 0.032763
#
#
# Mechanical properties :
#
#
# Convention : Reuss Voigt Hill
#
# Bulk Modulus (GPa) = 19.51174 22.81084 21.16129
# Shear Modulus (GPa) = -61.99238 17.52322 -22.23458
#
# Velocity S-wave (km/s) = -5.76032 3.06256 -3.44978
# Velocity P-wave (km/s) = 5.81361 4.97143 2.13107
#
# Compressibility (1/GPa) = 0.05125120
#
# Stress axis : x y z
#
# Youngs Moduli (GPa) = 61.05497 21.91498 36.32552
#
# Poissons Ratio (x) = 0.18738 0.07709
# Poissons Ratio (y) = 0.52203 0.30772
# Poissons Ratio (z) = 0.12958 0.18564
#
# Static dielectric constant tensor:
#      x y z
#    x 1.621930 0.000000 0.000000 
#    y 0.000000 1.629040 0.000000 
#    z 0.000000 0.000000 1.655270 
# 
# From -- ./inp_files/10635.got.cif
#   From: 2010.05.17/outbox.cif.g08.bks.cpg/sg39_6_cif.got.tgz:10635.got - 2010.06.03 18:22:40.
