data_PCOD9361938
_publ_section_title
;
Structure prediction by ZEFSAII (Michael W. Deem and Ramdas Pophale) SiO2 
 PCOD9361938
Probable space group: A B M 2
;
_chemical_formula_sum "Si O2"
_cell_formula_units_Z 56
_cell_length_a 4.989710
_cell_length_b 14.337517
_cell_length_c 30.602934
_cell_angle_alpha 90.000000
_cell_angle_beta 90.000000
_cell_angle_gamma 90.000000
_cell_volume 2189.335488
_symmetry_space_group_name_H-M "A B M 2"
_symmetry_group_IT_number 39
_symmetry_cell_setting 'orthorhombic'
loop_
_space_group_symop_operation_xyz
x,y,z
-x,-y,z
-x,1/2+y,z
x,1/2-y,z
x,1/2+y,1/2+z
-x,1/2-y,1/2+z
-x,y,1/2+z
x,-y,1/2+z
loop_
_atom_site_type_symbol
_atom_site_label
_atom_site_fract_x
_atom_site_fract_y
_atom_site_fract_z
Si Si1 0.138141 0.859639 0.025650
Si Si2 0.421509 0.101682 0.612710
Si Si3 0.500000 0.000000 0.396936
Si Si4 0.316482 0.860532 0.277827
Si Si5 0.941009 0.396939 0.188058
Si Si6 0.814982 0.637958 0.333988
Si Si7 0.262953 0.750000 0.649139
Si Si8 0.652884 0.359889 0.467481
O O1 0.123353 0.750000 0.036896
O O2 0.256676 0.906759 0.068468
O O3 0.355512 0.867979 0.986977
O O4 0.856394 0.889403 0.005746
O O5 0.245244 0.149684 0.650840
O O6 0.675809 0.168593 0.611967
O O7 0.500000 0.000000 0.627211
O O8 0.305388 0.069179 0.369980
O O9 0.670756 0.070961 0.427003
O O10 0.289051 0.750000 0.270448
O O11 0.115279 0.882740 0.317953
O O12 0.209369 0.905079 0.233727
O O13 0.617538 0.879525 0.292630
O O14 0.000000 0.500000 0.172786
O O15 0.198056 0.331552 0.186145
O O16 0.794703 0.750000 0.345002
O O17 0.705412 0.250000 0.456926
#
# Coordination Sequence:
#
# PCOD9361938 Si02
#       8
#     8   8   4   8   8   8   4   8
#     4  10  24  46  74 104 147 190 241 300 371 438
#     4  12  27  45  74 111 149 204 258 312 371 450
#     4  12  26  48  76 108 140 186 238 310 382 456
#     4  10  24  45  71 103 148 194 245 302 370 436
#     4  12  27  43  72 107 152 202 258 314 370 447
#     4  10  25  45  71 106 143 189 238 303 371 452
#     4  12  26  48  70 108 152 206 254 322 372 438
#     4  10  25  47  73 107 140 186 236 303 371 456
#
# _framework density 25.578537000000001
#
# number of rings (size 3 to 8) (size 9 to 14) (size 15 to 20)
#    0.000    1.143    2.857    0.857    7.000    2.857 
#    0.000    4.286    0.000    0.000    1.857    0.000 
#    0.000    0.000    0.000    0.000    0.000    0.000 
#
# Total GULP energy -156473.823541 kJ/mol
# GULP energy per Si atom -5588.350841 kJ/mol
# Density = 2.552032 g / cm^3
# Si number density = 25.578537 Si / 1000 Ang^3
#
#
#
# Elastic Constant Matrix: (Units=GPa)
#
#
# Indices 1 2 3 4 5 6 
#
# 1 70.1022 15.0155 1.9858 0.0000 0.0000 0.0000
# 2 15.0155 149.8229 38.9469 0.0000 0.0000 0.0000
# 3 1.9858 38.9469 98.2251 0.0000 0.0000 0.0000
# 4 0.0000 0.0000 0.0000 -4.7108 0.0000 0.0000
# 5 0.0000 0.0000 0.0000 0.0000 21.0173 0.0000
# 6 0.0000 0.0000 0.0000 0.0000 0.0000 86.4082
#
#
#
# Elastic Compliance Matrix: (Units=1/GPa)
#
#
# Indices 1 2 3 4 5 6 
#
# 1 0.014587 -0.001544 0.000317 0.000000 0.000000 0.000000
# 2 -0.001544 0.007605 -0.002984 0.000000 0.000000 0.000000
# 3 0.000317 -0.002984 0.011358 0.000000 0.000000 0.000000
# 4 0.000000 0.000000 0.000000 -0.212279 0.000000 0.000000
# 5 0.000000 0.000000 0.000000 0.000000 0.047580 0.000000
# 6 0.000000 0.000000 0.000000 0.000000 0.000000 0.011573
#
#
# Mechanical properties :
#
#
# Convention : Reuss Voigt Hill
#
# Bulk Modulus (GPa) = 39.79790 47.78295 43.79042
# Shear Modulus (GPa) = -48.64795 38.02307 -5.31244
#
# Velocity S-wave (km/s) = -4.36581 3.85973 -1.44271
# Velocity P-wave (km/s) = 3.13383 6.21166 3.79235
#
# Compressibility (1/GPa) = 0.02512696
#
# Stress axis : x y z
#
# Youngs Moduli (GPa) = 68.55556 131.49071 88.04711
#
# Poissons Ratio (x) = 0.20308 -0.02795
# Poissons Ratio (y) = 0.10588 0.26275
# Poissons Ratio (z) = -0.02177 0.39240
#
# Static dielectric constant tensor:
#      x y z
#    x 2.376180 0.000000 0.000000 
#    y 0.000000 1.963730 0.000000 
#    z 0.000000 0.000000 1.998040 
# 
# From -- ./inp_files/17335.got.cif
#   From: 2010.05.17/outbox.cif.g08.bks.cpg/sg39_9_cif.got.tgz:17335.got - 2010.06.03 18:22:40.
