data_PCOD9361804
_publ_section_title
;
Structure prediction by ZEFSAII (Michael W. Deem and Ramdas Pophale) SiO2 
 PCOD9361804
Probable space group: A B M 2
;
_chemical_formula_sum "Si O2"
_cell_formula_units_Z 56
_cell_length_a 5.257975
_cell_length_b 14.286159
_cell_length_c 30.717268
_cell_angle_alpha 90.000000
_cell_angle_beta 90.000000
_cell_angle_gamma 90.000000
_cell_volume 2307.366501
_symmetry_space_group_name_H-M "A B M 2"
_symmetry_group_IT_number 39
_symmetry_cell_setting 'orthorhombic'
loop_
_space_group_symop_operation_xyz
x,y,z
-x,-y,z
-x,1/2+y,z
x,1/2-y,z
x,1/2+y,1/2+z
-x,1/2-y,1/2+z
-x,y,1/2+z
x,-y,1/2+z
loop_
_atom_site_type_symbol
_atom_site_label
_atom_site_fract_x
_atom_site_fract_y
_atom_site_fract_z
Si Si1 0.201740 0.855505 0.390870
Si Si2 0.117261 0.644360 0.718311
Si Si3 0.500000 0.500000 0.689185
Si Si4 0.000000 0.500000 0.778514
Si Si5 0.293049 0.633805 0.845609
Si Si6 0.591086 0.401132 0.482728
Si Si7 0.816946 0.855572 0.633515
Si Si8 0.926493 0.142095 0.033596
O O1 0.187030 0.750000 0.374687
O O2 0.425940 0.895389 0.360880
O O3 0.297443 0.852358 0.440190
O O4 0.912456 0.887745 0.384284
O O5 0.147481 0.750000 0.734440
O O6 0.355496 0.576117 0.718383
O O7 0.911215 0.584428 0.745780
O O8 0.050079 0.650072 0.667229
O O9 0.340594 0.436418 0.655942
O O10 0.815948 0.434752 0.808192
O O11 0.295744 0.750000 0.837500
O O12 0.500000 0.500000 0.465456
O O13 0.341022 0.363446 0.507527
O O14 0.831739 0.412836 0.514694
O O15 0.699566 0.750000 0.633774
O O16 0.881437 0.879258 0.584120
O O17 0.013133 0.250000 0.030823
#
# Coordination Sequence:
#
# PCOD9361804 Si02
#       8
#     8   8   4   4   8   8   8   8
#     4  10  22  45  70  97 137 184 226 285 358 434
#     4  11  25  46  69 103 144 188 243 295 364 444
#     4  12  22  42  72 102 134 194 242 304 366 428
#     4  12  24  46  70 100 138 180 230 308 368 424
#     4  10  24  42  70 103 137 182 235 291 361 440
#     4  12  26  41  70 106 142 181 241 297 351 423
#     4  10  24  44  69 101 142 192 242 293 361 437
#     4  11  25  45  68 101 144 193 237 293 352 424
#
# _framework density 24.270092999999999
#
# number of rings (size 3 to 8) (size 9 to 14) (size 15 to 20)
#    0.000    1.143    1.429    3.429    5.000    3.429 
#    0.000    1.429    0.000    0.000    0.000    0.000 
#    0.000    0.000    0.000    0.000    0.000    0.000 
#
# Total GULP energy -156186.485885 kJ/mol
# GULP energy per Si atom -5578.088782 kJ/mol
# Density = 2.421485 g / cm^3
# Si number density = 24.270093 Si / 1000 Ang^3
#
#
#
# Elastic Constant Matrix: (Units=GPa)
#
#
# Indices 1 2 3 4 5 6 
#
# 1 99.7211 27.0400 12.7152 0.0000 0.0000 0.0000
# 2 27.0400 148.7087 8.5113 0.0000 0.0000 0.0000
# 3 12.7152 8.5113 95.9317 0.0000 0.0000 0.0000
# 4 0.0000 0.0000 0.0000 27.5652 0.0000 0.0000
# 5 0.0000 0.0000 0.0000 0.0000 13.2532 0.0000
# 6 0.0000 0.0000 0.0000 0.0000 0.0000 23.9050
#
#
#
# Elastic Compliance Matrix: (Units=1/GPa)
#
#
# Indices 1 2 3 4 5 6 
#
# 1 0.010695 -0.001873 -0.001251 0.000000 0.000000 0.000000
# 2 -0.001873 0.007087 -0.000380 0.000000 0.000000 0.000000
# 3 -0.001251 -0.000380 0.010624 0.000000 0.000000 0.000000
# 4 0.000000 0.000000 0.000000 0.036278 0.000000 0.000000
# 5 0.000000 0.000000 0.000000 0.000000 0.075453 0.000000
# 6 0.000000 0.000000 0.000000 0.000000 0.000000 0.041832
#
#
# Mechanical properties :
#
#
# Convention : Reuss Voigt Hill
#
# Bulk Modulus (GPa) = 46.73783 48.98828 47.86306
# Shear Modulus (GPa) = 25.49570 32.68435 29.09003
#
# Velocity S-wave (km/s) = 3.24466 3.67371 3.46583
# Velocity P-wave (km/s) = 5.77375 6.18250 5.98162
#
# Compressibility (1/GPa) = 0.02139594
#
# Stress axis : x y z
#
# Youngs Moduli (GPa) = 93.49771 141.10484 94.12901
#
# Poissons Ratio (x) = 0.26431 0.11780
# Poissons Ratio (y) = 0.17513 0.03582
# Poissons Ratio (z) = 0.11701 0.05369
#
# Static dielectric constant tensor:
#      x y z
#    x 2.038480 0.000000 0.000000 
#    y 0.000000 1.987190 0.000000 
#    z 0.000000 0.000000 1.964860 
# 
# From -- ./inp_files/17309.got.cif
#   From: 2010.05.17/outbox.cif.g08.bks.cpg/sg39_9_cif.got.tgz:17309.got - 2010.06.03 18:22:40.
