data_PCOD9361084
_publ_section_title
;
Structure prediction by ZEFSAII (Michael W. Deem and Ramdas Pophale) SiO2 
 PCOD9361084
Probable space group: A B M 2
;
_chemical_formula_sum "Si O2"
_cell_formula_units_Z 36
_cell_length_a 8.708947
_cell_length_b 18.763377
_cell_length_c 9.516246
_cell_angle_alpha 90.000000
_cell_angle_beta 90.000000
_cell_angle_gamma 90.000000
_cell_volume 1555.042677
_symmetry_space_group_name_H-M "A B M 2"
_symmetry_group_IT_number 39
_symmetry_cell_setting 'orthorhombic'
loop_
_space_group_symop_operation_xyz
x,y,z
-x,-y,z
-x,1/2+y,z
x,1/2-y,z
x,1/2+y,1/2+z
-x,1/2-y,1/2+z
-x,y,1/2+z
x,-y,1/2+z
loop_
_atom_site_type_symbol
_atom_site_label
_atom_site_fract_x
_atom_site_fract_y
_atom_site_fract_z
Si Si1 0.383071 0.435847 0.405360
Si Si2 0.152089 0.250000 0.421620
Si Si3 0.832867 0.386836 0.130553
Si Si4 0.171634 0.122923 0.187385
Si Si5 0.341885 0.834120 0.403762
O O1 0.500000 0.500000 0.408039
O O2 0.261227 0.439136 0.530146
O O3 0.291982 0.429716 0.260517
O O4 0.487004 0.364763 0.423084
O O5 0.152361 0.187053 0.543319
O O6 0.151834 0.187612 0.297938
O O7 0.738077 0.371734 0.271831
O O8 0.004987 0.410019 0.164005
O O9 0.242516 0.150981 0.042256
O O10 0.349275 0.750000 0.378306
#
# Coordination Sequence:
#
# PCOD9361084 Si02
#       5
#     8   4   8   8   8
#     4  11  28  51  71 100 154 202 250 305 378 448
#     4  10  20  38  68 110 160 184 228 306 380 432
#     4  11  24  43  74 110 146 195 247 309 368 446
#     4  11  24  43  74 110 146 195 247 309 368 446
#     4  12  25  41  72 112 151 189 249 311 380 439
#
# _framework density 23.150489
#
# number of rings (size 3 to 8) (size 9 to 14) (size 15 to 20)
#    0.000    0.889    2.222    4.667    9.333    5.333 
#    0.000    6.667    0.000    0.000    0.000    0.000 
#    0.000    0.000    0.000    0.000    0.000    0.000 
#
# Total GULP energy -100407.175313 kJ/mol
# GULP energy per Si atom -5578.176406 kJ/mol
# Density = 2.309780 g / cm^3
# Si number density = 23.150489 Si / 1000 Ang^3
#
#
#
# Elastic Constant Matrix: (Units=GPa)
#
#
# Indices 1 2 3 4 5 6 
#
# 1 121.5045 16.5618 -10.0605 0.0000 0.0000 0.0000
# 2 16.5618 70.4739 -2.7886 0.0000 0.0000 0.0000
# 3 -10.0605 -2.7886 83.5438 0.0000 0.0000 0.0000
# 4 0.0000 0.0000 0.0000 22.2547 0.0000 0.0000
# 5 0.0000 0.0000 0.0000 0.0000 55.9070 0.0000
# 6 0.0000 0.0000 0.0000 0.0000 0.0000 2.1720
#
#
#
# Elastic Compliance Matrix: (Units=1/GPa)
#
#
# Indices 1 2 3 4 5 6 
#
# 1 0.008580 -0.001978 0.000967 0.000000 0.000000 0.000000
# 2 -0.001978 0.014664 0.000251 0.000000 0.000000 0.000000
# 3 0.000967 0.000251 0.012095 0.000000 0.000000 0.000000
# 4 0.000000 0.000000 0.000000 0.044934 0.000000 0.000000
# 5 0.000000 0.000000 0.000000 0.000000 0.017887 0.000000
# 6 0.000000 0.000000 0.000000 0.000000 0.000000 0.460398
#
#
# Mechanical properties :
#
#
# Convention : Reuss Voigt Hill
#
# Bulk Modulus (GPa) = 29.56853 31.43863 30.50358
# Shear Modulus (GPa) = 8.75119 34.18737 21.46928
#
# Velocity S-wave (km/s) = 1.94637 3.84701 3.04859
# Velocity P-wave (km/s) = 4.22506 5.77428 5.05932
#
# Compressibility (1/GPa) = 0.03381974
#
# Stress axis : x y z
#
# Youngs Moduli (GPa) = 116.55215 68.19213 82.68135
#
# Poissons Ratio (x) = 0.13489 -0.07997
# Poissons Ratio (y) = 0.23055 -0.02078
# Poissons Ratio (z) = -0.11273 -0.01714
#
# Static dielectric constant tensor:
#      x y z
#    x 1.888960 0.000000 0.000000 
#    y 0.000000 1.893230 0.000000 
#    z 0.000000 0.000000 1.809410 
# 
# From -- ./inp_files/2035.got.cif
#   From: 2010.05.17/outbox.cif.g08.bks.cpg/sg39_2_cif.got.tgz:2035.got - 2010.06.03 18:22:40.
