data_PCOD9361183
_publ_section_title
;
Structure prediction by ZEFSAII (Michael W. Deem and Ramdas Pophale) SiO2 
 PCOD9361183
Probable space group: A B M 2
;
_chemical_formula_sum "Si O2"
_cell_formula_units_Z 64
_cell_length_a 15.687324
_cell_length_b 22.694955
_cell_length_c 8.994228
_cell_angle_alpha 90.000000
_cell_angle_beta 90.000000
_cell_angle_gamma 90.000000
_cell_volume 3202.153045
_symmetry_space_group_name_H-M "A B M 2"
_symmetry_group_IT_number 39
_symmetry_cell_setting 'orthorhombic'
loop_
_space_group_symop_operation_xyz
x,y,z
-x,-y,z
-x,1/2+y,z
x,1/2-y,z
x,1/2+y,1/2+z
-x,1/2-y,1/2+z
-x,y,1/2+z
x,-y,1/2+z
loop_
_atom_site_type_symbol
_atom_site_label
_atom_site_fract_x
_atom_site_fract_y
_atom_site_fract_z
Si Si1 0.511382 0.905352 0.990310
Si Si2 0.910316 0.817625 0.809862
Si Si3 0.094365 0.480635 0.885256
Si Si4 0.054396 0.124693 0.114777
Si Si5 0.789332 0.395824 0.197103
Si Si6 0.810424 0.395413 0.864333
Si Si7 0.620884 0.894552 0.247186
Si Si8 0.611530 0.536196 0.729856
O O1 0.443589 0.875564 0.878800
O O2 0.569186 0.945531 0.884700
O O3 0.578202 0.870921 0.095368
O O4 0.451348 0.941424 0.102113
O O5 0.920757 0.750000 0.770734
O O6 0.812785 0.840094 0.798957
O O7 0.967172 0.858202 0.698896
O O8 0.938388 0.830574 0.977870
O O9 0.144791 0.444228 0.761125
O O10 0.154622 0.537975 0.901752
O O11 0.000000 0.500000 0.335714
O O12 0.074753 0.438185 0.029234
O O13 0.122153 0.129629 0.247647
O O14 0.699026 0.428132 0.209664
O O15 0.803173 0.372222 0.031055
O O16 0.718673 0.385330 0.789200
O O17 0.620158 0.966135 0.229610
#
# Coordination Sequence:
#
# PCOD9361183 Si02
#       8
#     8   8   8   8   8   8   8   8
#     4  10  21  32  50  76 118 171 210 236 281 337
#     4  11  24  46  68  87 112 149 201 272 323 355
#     4  11  23  38  55  81 124 169 198 230 284 354
#     4  11  25  40  62  90 115 159 205 242 299 374
#     4  11  23  36  58  88 117 155 204 240 298 363
#     4  12  23  35  55  89 130 165 197 239 286 355
#     4  11  20  32  50  77 123 171 205 239 275 333
#     4  11  19  33  50  81 117 162 205 238 278 345
#
# _framework density 19.986552
#
# number of rings (size 3 to 8) (size 9 to 14) (size 15 to 20)
#    0.000    1.000    2.500    7.125    3.500    2.000 
#    0.000    0.625    0.000    0.000    0.000    0.875 
#    0.000    0.000    0.000    0.000    0.000    0.000 
#
# Total GULP energy -178342.765651 kJ/mol
# GULP energy per Si atom -5573.211427 kJ/mol
# Density = 1.994106 g / cm^3
# Si number density = 19.986552 Si / 1000 Ang^3
#
#
#
# Elastic Constant Matrix: (Units=GPa)
#
#
# Indices 1 2 3 4 5 6 
#
# 1 130.0501 22.3372 42.7059 0.0000 0.0000 0.0000
# 2 22.3372 23.1087 6.7010 0.0000 0.0000 0.0000
# 3 42.7059 6.7010 108.6195 0.0000 0.0000 0.0000
# 4 0.0000 0.0000 0.0000 10.0851 0.0000 0.0000
# 5 0.0000 0.0000 0.0000 0.0000 27.7546 0.0000
# 6 0.0000 0.0000 0.0000 0.0000 0.0000 5.5659
#
#
#
# Elastic Compliance Matrix: (Units=1/GPa)
#
#
# Indices 1 2 3 4 5 6 
#
# 1 0.010400 -0.009028 -0.003532 0.000000 0.000000 0.000000
# 2 -0.009028 0.051900 0.000348 0.000000 0.000000 0.000000
# 3 -0.003532 0.000348 0.010574 0.000000 0.000000 0.000000
# 4 0.000000 0.000000 0.000000 0.099156 0.000000 0.000000
# 5 0.000000 0.000000 0.000000 0.000000 0.036030 0.000000
# 6 0.000000 0.000000 0.000000 0.000000 0.000000 0.179664
#
#
# Mechanical properties :
#
#
# Convention : Reuss Voigt Hill
#
# Bulk Modulus (GPa) = 20.64051 45.02959 32.83505
# Shear Modulus (GPa) = 11.67412 21.35010 16.51211
#
# Velocity S-wave (km/s) = 2.41943 3.27191 2.87742
# Velocity P-wave (km/s) = 4.26081 6.07065 5.24439
#
# Compressibility (1/GPa) = 0.04844842
#
# Stress axis : x y z
#
# Youngs Moduli (GPa) = 96.15501 19.26785 94.57492
#
# Poissons Ratio (x) = 0.17396 0.33403
# Poissons Ratio (y) = 0.86813 -0.03290
# Poissons Ratio (z) = 0.33961 -0.00670
#
# Static dielectric constant tensor:
#      x y z
#    x 1.742610 0.000000 0.000000 
#    y 0.000000 1.727480 0.000000 
#    z 0.000000 0.000000 1.753000 
# 
# From -- ./inp_files/3500.got.cif
#   From: 2010.05.17/outbox.cif.g08.bks.cpg/sg39_2_cif.got.tgz:3500.got - 2010.06.03 18:22:40.
