data_PCOD9361209
_publ_section_title
;
Structure prediction by ZEFSAII (Michael W. Deem and Ramdas Pophale) SiO2 
 PCOD9361209
Probable space group: A B M 2
;
_chemical_formula_sum "Si O2"
_cell_formula_units_Z 44
_cell_length_a 8.094263
_cell_length_b 28.256705
_cell_length_c 8.839781
_cell_angle_alpha 90.000000
_cell_angle_beta 90.000000
_cell_angle_gamma 90.000000
_cell_volume 2021.809975
_symmetry_space_group_name_H-M "A B M 2"
_symmetry_group_IT_number 39
_symmetry_cell_setting 'orthorhombic'
loop_
_space_group_symop_operation_xyz
x,y,z
-x,-y,z
-x,1/2+y,z
x,1/2-y,z
x,1/2+y,1/2+z
-x,1/2-y,1/2+z
-x,y,1/2+z
x,-y,1/2+z
loop_
_atom_site_type_symbol
_atom_site_label
_atom_site_fract_x
_atom_site_fract_y
_atom_site_fract_z
Si Si1 0.672746 0.698178 0.628970
Si Si2 0.493492 0.852542 0.877006
Si Si3 0.657302 0.939176 0.196263
Si Si4 0.169002 0.139948 0.067945
Si Si5 0.500000 0.500000 0.934163
Si Si6 0.011977 0.304432 0.317555
O O1 0.645629 0.750000 0.564095
O O2 0.538684 0.688106 0.758267
O O3 0.647126 0.660747 0.496256
O O4 0.847489 0.696152 0.712932
O O5 0.449102 0.897997 0.777430
O O6 0.659900 0.858035 0.976064
O O7 0.824852 0.912405 0.143517
O O8 0.644269 0.980200 0.323346
O O9 0.571181 0.960387 0.047149
O O10 0.153552 0.176616 0.206670
O O11 0.032227 0.158060 0.948898
O O12 0.036328 0.250000 0.370780
#
# Coordination Sequence:
#
# PCOD9361209 Si02
#       6
#     8   8   8   8   4   8
#     4  10  21  35  55  89 130 173 221 272 320 376
#     4  11  20  38  62  95 126 165 222 280 335 387
#     4  11  21  41  67 105 122 164 209 282 344 406
#     4  11  23  41  65  94 132 178 228 269 325 395
#     4  10  22  40  72 102 134 154 212 284 360 428
#     4  10  24  42  60  90 136 191 229 257 312 391
#
# _framework density 21.762678000000001
#
# number of rings (size 3 to 8) (size 9 to 14) (size 15 to 20)
#    0.000    1.455    3.636    1.091    2.545    2.182 
#    0.000    0.000    0.000    3.273    0.000    0.000 
#    0.000    0.000    0.000    0.000    0.000    0.000 
#
# Total GULP energy -122709.874873 kJ/mol
# GULP energy per Si atom -5577.721585 kJ/mol
# Density = 2.171315 g / cm^3
# Si number density = 21.762678 Si / 1000 Ang^3
#
#
#
# Elastic Constant Matrix: (Units=GPa)
#
#
# Indices 1 2 3 4 5 6 
#
# 1 56.3869 29.9321 32.3529 0.0000 0.0000 0.0000
# 2 29.9321 109.0092 58.7062 0.0000 0.0000 0.0000
# 3 32.3529 58.7062 144.6686 0.0000 0.0000 0.0000
# 4 0.0000 0.0000 0.0000 52.1622 0.0000 0.0000
# 5 0.0000 0.0000 0.0000 0.0000 44.6481 0.0000
# 6 0.0000 0.0000 0.0000 0.0000 0.0000 26.3485
#
#
#
# Elastic Compliance Matrix: (Units=1/GPa)
#
#
# Indices 1 2 3 4 5 6 
#
# 1 0.021816 -0.004303 -0.003133 0.000000 0.000000 0.000000
# 2 -0.004303 0.012588 -0.004146 0.000000 0.000000 0.000000
# 3 -0.003133 -0.004146 0.009295 0.000000 0.000000 0.000000
# 4 0.000000 0.000000 0.000000 0.019171 0.000000 0.000000
# 5 0.000000 0.000000 0.000000 0.000000 0.022397 0.000000
# 6 0.000000 0.000000 0.000000 0.000000 0.000000 0.037953
#
#
# Mechanical properties :
#
#
# Convention : Reuss Voigt Hill
#
# Bulk Modulus (GPa) = 48.69486 61.33856 55.01671
# Shear Modulus (GPa) = 32.63083 37.23666 34.93374
#
# Velocity S-wave (km/s) = 3.87640 4.14095 4.01086
# Velocity P-wave (km/s) = 6.51608 7.14910 6.83992
#
# Compressibility (1/GPa) = 0.02053605
#
# Stress axis : x y z
#
# Youngs Moduli (GPa) = 45.83711 79.44176 107.58196
#
# Poissons Ratio (x) = 0.34187 0.33701
# Poissons Ratio (y) = 0.19725 0.44601
# Poissons Ratio (z) = 0.14359 0.32934
#
# Static dielectric constant tensor:
#      x y z
#    x 1.816630 0.000000 0.000000 
#    y 0.000000 1.830570 0.000000 
#    z 0.000000 0.000000 1.832800 
# 
# From -- ./inp_files/2251.got.cif
#   From: 2010.05.17/outbox.cif.g08.bks.cpg/sg39_2_cif.got.tgz:2251.got - 2010.06.03 18:22:40.
