data_PCOD9361160
_publ_section_title
;
Structure prediction by ZEFSAII (Michael W. Deem and Ramdas Pophale) SiO2 
 PCOD9361160
Probable space group: A B M 2
;
_chemical_formula_sum "Si O2"
_cell_formula_units_Z 64
_cell_length_a 13.973098
_cell_length_b 18.512336
_cell_length_c 12.460200
_cell_angle_alpha 90.000000
_cell_angle_beta 90.000000
_cell_angle_gamma 90.000000
_cell_volume 3223.138312
_symmetry_space_group_name_H-M "A B M 2"
_symmetry_group_IT_number 39
_symmetry_cell_setting 'orthorhombic'
loop_
_space_group_symop_operation_xyz
x,y,z
-x,-y,z
-x,1/2+y,z
x,1/2-y,z
x,1/2+y,1/2+z
-x,1/2-y,1/2+z
-x,y,1/2+z
x,-y,1/2+z
loop_
_atom_site_type_symbol
_atom_site_label
_atom_site_fract_x
_atom_site_fract_y
_atom_site_fract_z
Si Si1 0.647761 0.568333 0.215380
Si Si2 0.369499 0.573754 0.085559
Si Si3 0.790811 0.452946 0.911944
Si Si4 0.129587 0.108580 0.889462
Si Si5 0.075150 0.165572 0.330172
Si Si6 0.675731 0.336029 0.291106
Si Si7 0.499049 0.087043 0.385889
Si Si8 0.803964 0.666915 0.113751
O O1 0.608074 0.499808 0.150638
O O2 0.720703 0.541919 0.308689
O O3 0.566443 0.609446 0.283736
O O4 0.711346 0.618304 0.138698
O O5 0.348678 0.634708 0.172866
O O6 0.276595 0.552476 0.015235
O O7 0.448233 0.600011 0.999770
O O8 0.857098 0.523124 0.906611
O O9 0.853623 0.380941 0.903642
O O10 0.217855 0.138235 0.819797
O O11 0.029409 0.131187 0.838566
O O12 0.143647 0.144125 0.005722
O O13 0.071459 0.250000 0.359238
O O14 0.122099 0.159496 0.212375
O O15 0.667144 0.250000 0.300126
O O16 0.601355 0.376365 0.370977
O O17 0.500000 0.000000 0.378341
O O18 0.773943 0.750000 0.106826
#
# Coordination Sequence:
#
# PCOD9361160 Si02
#       8
#     8   8   8   8   8   8   8   8
#     4  10  20  41  65  93 124 162 213 265 317 384
#     4  11  22  41  67  94 126 166 215 264 328 385
#     4  10  21  40  68  98 124 164 219 269 319 389
#     4  12  22  43  66  93 133 172 219 271 320 387
#     4  10  23  41  62  94 133 170 215 267 324 384
#     4  12  27  43  63  96 134 171 217 271 329 389
#     4  11  24  40  66  93 126 167 216 268 317 389
#     4  10  22  39  65  95 127 171 214 262 328 383
#
# _framework density 19.856424000000001
#
# number of rings (size 3 to 8) (size 9 to 14) (size 15 to 20)
#    0.000    1.250    3.750    2.250    1.750    2.500 
#    0.000    3.750    0.000    0.000    0.000    0.000 
#    0.000    0.000    0.000    0.000    0.000    0.000 
#
# Total GULP energy -178906.944640 kJ/mol
# GULP energy per Si atom -5590.842020 kJ/mol
# Density = 1.981123 g / cm^3
# Si number density = 19.856424 Si / 1000 Ang^3
#
#
#
# Elastic Constant Matrix: (Units=GPa)
#
#
# Indices 1 2 3 4 5 6 
#
# 1 102.4584 28.8531 24.3533 0.0000 0.0000 0.0000
# 2 28.8531 83.2598 24.4906 0.0000 0.0000 0.0000
# 3 24.3533 24.4906 70.8054 0.0000 0.0000 0.0000
# 4 0.0000 0.0000 0.0000 20.4519 0.0000 0.0000
# 5 0.0000 0.0000 0.0000 0.0000 15.5803 0.0000
# 6 0.0000 0.0000 0.0000 0.0000 0.0000 15.8087
#
#
#
# Elastic Compliance Matrix: (Units=1/GPa)
#
#
# Indices 1 2 3 4 5 6 
#
# 1 0.011299 -0.003087 -0.002819 0.000000 0.000000 0.000000
# 2 -0.003087 0.014214 -0.003855 0.000000 0.000000 0.000000
# 3 -0.002819 -0.003855 0.016426 0.000000 0.000000 0.000000
# 4 0.000000 0.000000 0.000000 0.048895 0.000000 0.000000
# 5 0.000000 0.000000 0.000000 0.000000 0.064184 0.000000
# 6 0.000000 0.000000 0.000000 0.000000 0.000000 0.063256
#
#
# Mechanical properties :
#
#
# Convention : Reuss Voigt Hill
#
# Bulk Modulus (GPa) = 44.60480 45.76863 45.18671
# Shear Modulus (GPa) = 20.38586 22.28995 21.33790
#
# Velocity S-wave (km/s) = 3.20763 3.35409 3.28168
# Velocity P-wave (km/s) = 6.01922 6.17250 6.09634
#
# Compressibility (1/GPa) = 0.02241911
#
# Stress axis : x y z
#
# Youngs Moduli (GPa) = 88.50156 70.35263 60.87884
#
# Poissons Ratio (x) = 0.21715 0.17160
# Poissons Ratio (y) = 0.27316 0.23468
# Poissons Ratio (z) = 0.24946 0.27120
#
# Static dielectric constant tensor:
#      x y z
#    x 1.709260 0.000000 0.000000 
#    y 0.000000 1.684590 0.000000 
#    z 0.000000 0.000000 1.699320 
# 
# From -- ./inp_files/6648.got.cif
#   From: 2010.05.17/outbox.cif.g08.bks.cpg/sg39_4_cif.got.tgz:6648.got - 2010.06.03 18:22:40.
