data_PCOD9361236
_publ_section_title
;
Structure prediction by ZEFSAII (Michael W. Deem and Ramdas Pophale) SiO2 
 PCOD9361236
Probable space group: A B M 2
;
_chemical_formula_sum "Si O2"
_cell_formula_units_Z 64
_cell_length_a 14.532656
_cell_length_b 8.166219
_cell_length_c 26.825149
_cell_angle_alpha 90.000000
_cell_angle_beta 90.000000
_cell_angle_gamma 90.000000
_cell_volume 3183.524226
_symmetry_space_group_name_H-M "A B M 2"
_symmetry_group_IT_number 39
_symmetry_cell_setting 'orthorhombic'
loop_
_space_group_symop_operation_xyz
x,y,z
-x,-y,z
-x,1/2+y,z
x,1/2-y,z
x,1/2+y,1/2+z
-x,1/2-y,1/2+z
-x,y,1/2+z
x,-y,1/2+z
loop_
_atom_site_type_symbol
_atom_site_label
_atom_site_fract_x
_atom_site_fract_y
_atom_site_fract_z
Si Si1 0.393265 0.553168 0.410970
Si Si2 0.393463 0.053556 0.021767
Si Si3 0.106596 0.052964 0.466632
Si Si4 0.395301 0.443417 0.715736
Si Si5 0.712661 0.555619 0.312448
Si Si6 0.105323 0.448049 0.357430
Si Si7 0.894766 0.052005 0.075814
Si Si8 0.713056 0.053240 0.120249
O O1 0.500000 0.500000 0.407052
O O2 0.388387 0.750000 0.408686
O O3 0.360282 0.499304 0.466400
O O4 0.338403 0.480844 0.364540
O O5 0.388980 0.250000 0.023273
O O6 0.500000 0.000000 0.025689
O O7 0.338954 0.984124 0.068692
O O8 0.114497 0.250000 0.466507
O O9 0.138893 0.993415 0.412558
O O10 0.139274 0.994056 0.520679
O O11 0.000000 0.000000 0.466742
O O12 0.500000 0.500000 0.718639
O O13 0.398272 0.250000 0.709299
O O14 0.341441 0.481046 0.766357
O O15 0.342163 0.514501 0.667576
O O16 0.713974 0.750000 0.305223
O O17 0.817952 0.495738 0.318438
O O18 0.105920 0.250000 0.358183
O O19 0.000000 0.500000 0.349106
O O20 0.894946 0.250000 0.075024
O O21 0.818288 0.993981 0.114746
O O22 0.000000 0.000000 0.084047
O O23 0.717263 0.250000 0.125074
#
# Coordination Sequence:
#
# PCOD9361236 Si02
#       8
#     8   8   8   8   8   8   8   8
#     4  10  21  37  56  83 117 152 187 231 288 350
#     4  10  21  36  56  84 117 151 187 231 288 350
#     4   8  14  27  47  73 106 144 181 222 267 319
#     4  11  24  43  64  86 113 148 193 244 296 349
#     4  11  23  38  60  87 114 150 195 240 292 346
#     4   9  19  34  54  82 114 151 192 233 282 335
#     4   9  18  33  54  81 115 152 192 234 281 334
#     4  10  22  38  60  86 114 152 195 239 291 345
#
# _framework density 20.103507
#
# number of rings (size 3 to 8) (size 9 to 14) (size 15 to 20)
#    0.000    2.250    0.000    2.250    1.750    5.000 
#    0.000    0.625    0.000    3.000    0.000    0.000 
#    0.000    0.000    0.000    0.000    0.000    0.000 
#
# Total GULP energy -178538.163414 kJ/mol
# GULP energy per Si atom -5579.317607 kJ/mol
# Density = 2.005775 g / cm^3
# Si number density = 20.103507 Si / 1000 Ang^3
#
#
#
# Elastic Constant Matrix: (Units=GPa)
#
#
# Indices 1 2 3 4 5 6 
#
# 1 139.7605 4.6975 89.7893 0.0000 0.0000 0.0000
# 2 4.6975 16.4792 3.8078 0.0000 0.0000 0.0000
# 3 89.7893 3.8078 125.6378 0.0000 0.0000 0.0000
# 4 0.0000 0.0000 0.0000 16.5407 0.0000 0.0000
# 5 0.0000 0.0000 0.0000 0.0000 -23.1433 0.0000
# 6 0.0000 0.0000 0.0000 0.0000 0.0000 20.8174
#
#
#
# Elastic Compliance Matrix: (Units=1/GPa)
#
#
# Indices 1 2 3 4 5 6 
#
# 1 0.013271 -0.001603 -0.009436 0.000000 0.000000 0.000000
# 2 -0.001603 0.061304 -0.000713 0.000000 0.000000 0.000000
# 3 -0.009436 -0.000713 0.014724 0.000000 0.000000 0.000000
# 4 0.000000 0.000000 0.000000 0.060457 0.000000 0.000000
# 5 0.000000 0.000000 0.000000 0.000000 -0.043209 0.000000
# 6 0.000000 0.000000 0.000000 0.000000 0.000000 0.048037
#
#
# Mechanical properties :
#
#
# Convention : Reuss Voigt Hill
#
# Bulk Modulus (GPa) = 15.19814 53.16295 34.18054
# Shear Modulus (GPa) = 24.99761 15.08181 20.03971
#
# Velocity S-wave (km/s) = 3.53008 2.74196 3.16068
# Velocity P-wave (km/s) = 4.91850 6.04372 5.50991
#
# Compressibility (1/GPa) = 0.06579753
#
# Stress axis : x y z
#
# Youngs Moduli (GPa) = 75.35225 16.31209 67.91425
#
# Poissons Ratio (x) = 0.02614 0.64082
# Poissons Ratio (y) = 0.12076 0.04840
# Poissons Ratio (z) = 0.71101 0.01162
#
# Static dielectric constant tensor:
#      x y z
#    x 1.828680 0.000000 0.000000 
#    y 0.000000 1.713460 0.000000 
#    z 0.000000 0.000000 1.726490 
# 
# From -- ./inp_files/16277.got.cif
#   From: 2010.05.17/outbox.cif.g08.bks.cpg/sg39_9_cif.got.tgz:16277.got - 2010.06.03 18:22:40.
