data_PCOD9361515
_publ_section_title
;
Structure prediction by ZEFSAII (Michael W. Deem and Ramdas Pophale) SiO2 
 PCOD9361515
Probable space group: A B M 2
;
_chemical_formula_sum "Si O2"
_cell_formula_units_Z 64
_cell_length_a 16.849850
_cell_length_b 13.692648
_cell_length_c 12.475817
_cell_angle_alpha 90.000000
_cell_angle_beta 90.000000
_cell_angle_gamma 90.000000
_cell_volume 2878.408832
_symmetry_space_group_name_H-M "A B M 2"
_symmetry_group_IT_number 39
_symmetry_cell_setting 'orthorhombic'
loop_
_space_group_symop_operation_xyz
x,y,z
-x,-y,z
-x,1/2+y,z
x,1/2-y,z
x,1/2+y,1/2+z
-x,1/2-y,1/2+z
-x,y,1/2+z
x,-y,1/2+z
loop_
_atom_site_type_symbol
_atom_site_label
_atom_site_fract_x
_atom_site_fract_y
_atom_site_fract_z
Si Si1 0.153477 0.135999 0.160120
Si Si2 0.052153 0.867947 0.467462
Si Si3 0.799904 0.132983 0.319718
Si Si4 0.773309 0.450937 0.096054
Si Si5 0.513073 0.636680 0.217963
Si Si6 0.621508 0.366033 0.402455
Si Si7 0.601616 0.492401 0.104191
Si Si8 0.876085 0.132946 0.908645
O O1 0.171213 0.250000 0.144557
O O2 0.143177 0.115585 0.284719
O O3 0.219671 0.067457 0.109445
O O4 0.075103 0.111979 0.090693
O O5 0.049767 0.750000 0.456078
O O6 0.127058 0.900003 0.395046
O O7 0.964965 0.901971 0.435715
O O8 0.801790 0.250000 0.318561
O O9 0.814550 0.094748 0.200128
O O10 0.709747 0.107840 0.356544
O O11 0.681368 0.429844 0.104281
O O12 0.813555 0.412961 0.989540
O O13 0.533221 0.750000 0.207807
O O14 0.451155 0.625862 0.316526
O O15 0.589021 0.565047 0.207546
O O16 0.465230 0.590727 0.117214
O O17 0.624367 0.250000 0.433016
O O18 0.605275 0.439814 0.499543
O O19 0.873867 0.250000 0.924288
#
# Coordination Sequence:
#
# PCOD9361515 Si02
#       8
#     8   8   8   8   8   8   8   8
#     4  10  24  44  62  90 133 176 226 285 344 408
#     4   9  20  41  67  93 132 183 228 281 352 416
#     4  10  21  40  69 100 135 182 233 282 342 423
#     4  12  25  40  68  99 136 178 236 289 346 416
#     4  10  23  44  67  98 133 174 222 272 336 412
#     4  10  21  42  70  98 132 178 227 275 339 418
#     4  11  24  40  68 100 137 174 221 284 342 405
#     4  10  24  44  66  96 135 177 228 292 354 408
#
# _framework density 22.234507000000001
#
# number of rings (size 3 to 8) (size 9 to 14) (size 15 to 20)
#    0.000    1.750    1.250    1.500    5.250    5.000 
#    0.000    0.000    0.000    2.250    0.000    0.000 
#    0.000    0.000    0.000    0.000    0.000    0.000 
#
# Total GULP energy -178724.684884 kJ/mol
# GULP energy per Si atom -5585.146403 kJ/mol
# Density = 2.218390 g / cm^3
# Si number density = 22.234507 Si / 1000 Ang^3
#
#
#
# Elastic Constant Matrix: (Units=GPa)
#
#
# Indices 1 2 3 4 5 6 
#
# 1 77.2823 1.0991 36.4284 0.0000 0.0000 0.0000
# 2 1.0991 59.4419 32.2897 0.0000 0.0000 0.0000
# 3 36.4284 32.2897 114.4056 0.0000 0.0000 0.0000
# 4 0.0000 0.0000 0.0000 39.1656 0.0000 0.0000
# 5 0.0000 0.0000 0.0000 0.0000 29.9903 0.0000
# 6 0.0000 0.0000 0.0000 0.0000 0.0000 35.1308
#
#
#
# Elastic Compliance Matrix: (Units=1/GPa)
#
#
# Indices 1 2 3 4 5 6 
#
# 1 0.015623 0.002850 -0.005779 0.000000 0.000000 0.000000
# 2 0.002850 0.020390 -0.006662 0.000000 0.000000 0.000000
# 3 -0.005779 -0.006662 0.012461 0.000000 0.000000 0.000000
# 4 0.000000 0.000000 0.000000 0.025533 0.000000 0.000000
# 5 0.000000 0.000000 0.000000 0.000000 0.033344 0.000000
# 6 0.000000 0.000000 0.000000 0.000000 0.000000 0.028465
#
#
# Mechanical properties :
#
#
# Convention : Reuss Voigt Hill
#
# Bulk Modulus (GPa) = 34.13908 43.41825 38.77867
# Shear Modulus (GPa) = 30.34683 32.94484 31.64583
#
# Velocity S-wave (km/s) = 3.69840 3.85346 3.77673
# Velocity P-wave (km/s) = 5.79870 6.27445 6.04126
#
# Compressibility (1/GPa) = 0.02929194
#
# Stress axis : x y z
#
# Youngs Moduli (GPa) = 64.00767 49.04480 80.24810
#
# Poissons Ratio (x) = -0.13980 0.46376
# Poissons Ratio (y) = -0.18245 0.53464
# Poissons Ratio (z) = 0.36991 0.32675
#
# Static dielectric constant tensor:
#      x y z
#    x 1.907510 0.000000 0.000000 
#    y 0.000000 1.858330 0.000000 
#    z 0.000000 0.000000 1.799320 
# 
# From -- ./inp_files/6881.got.cif
#   From: 2010.05.17/outbox.cif.g08.bks.cpg/sg39_4_cif.got.tgz:6881.got - 2010.06.03 18:22:40.
