data_PCOD9361683
_publ_section_title
;
Structure prediction by ZEFSAII (Michael W. Deem and Ramdas Pophale) SiO2 
 PCOD9361683
Probable space group: A B M 2
;
_chemical_formula_sum "Si O2"
_cell_formula_units_Z 48
_cell_length_a 27.332543
_cell_length_b 8.812850
_cell_length_c 10.501666
_cell_angle_alpha 90.000000
_cell_angle_beta 90.000000
_cell_angle_gamma 90.000000
_cell_volume 2529.616119
_symmetry_space_group_name_H-M "A B M 2"
_symmetry_group_IT_number 39
_symmetry_cell_setting 'orthorhombic'
loop_
_space_group_symop_operation_xyz
x,y,z
-x,-y,z
-x,1/2+y,z
x,1/2-y,z
x,1/2+y,1/2+z
-x,1/2-y,1/2+z
-x,y,1/2+z
x,-y,1/2+z
loop_
_atom_site_type_symbol
_atom_site_label
_atom_site_fract_x
_atom_site_fract_y
_atom_site_fract_z
Si Si1 0.554175 0.568092 0.165070
Si Si2 0.611508 0.568175 0.904954
Si Si3 0.280203 0.431885 0.393982
Si Si4 0.054204 0.931906 0.911696
Si Si5 0.110202 0.067107 0.671113
Si Si6 0.224137 0.432762 0.653272
O O1 0.500000 0.500000 0.157123
O O2 0.551360 0.750000 0.175885
O O3 0.581875 0.501380 0.287115
O O4 0.584229 0.530572 0.037049
O O5 0.612984 0.750000 0.892443
O O6 0.666165 0.503223 0.905297
O O7 0.284336 0.250000 0.388806
O O8 0.248268 0.473223 0.518122
O O9 0.253582 0.491359 0.267855
O O10 0.051417 0.750000 0.906035
O O11 0.085376 0.992078 0.793046
O O12 0.080944 0.975113 0.043311
O O13 0.000000 0.000000 0.907496
O O14 0.107738 0.250000 0.683863
O O15 0.167099 0.024007 0.658506
O O16 0.227173 0.250000 0.666410
#
# Coordination Sequence:
#
# PCOD9361683 Si02
#       6
#     8   8   8   8   8   8
#     4  11  24  41  63  91 121 156 198 243 294 351
#     4  11  24  41  62  89 121 158 199 243 293 348
#     4  11  23  39  61  89 120 155 197 243 291 347
#     4  11  23  39  60  87 118 153 195 241 291 348
#     4  10  22  40  61  87 118 153 195 241 291 348
#     4  10  22  40  61  87 120 155 193 241 294 348
#
# _framework density 18.975210000000001
#
# number of rings (size 3 to 8) (size 9 to 14) (size 15 to 20)
#    0.000    1.333    0.000    5.000    0.000   12.667 
#    0.000    0.000    0.000    0.000    0.000    0.000 
#    0.000    0.000    0.000    0.000    0.000    0.000 
#
# Total GULP energy -134278.655133 kJ/mol
# GULP energy per Si atom -5594.943964 kJ/mol
# Density = 1.893202 g / cm^3
# Si number density = 18.975210 Si / 1000 Ang^3
#
#
#
# Elastic Constant Matrix: (Units=GPa)
#
#
# Indices 1 2 3 4 5 6 
#
# 1 4.7315 -20.6787 -84.7674 0.0000 0.0000 0.0000
# 2 -20.6787 10.5890 -10.8156 0.0000 0.0000 0.0000
# 3 -84.7674 -10.8156 6.4774 0.0000 0.0000 0.0000
# 4 0.0000 0.0000 0.0000 29.7940 0.0000 0.0000
# 5 0.0000 0.0000 0.0000 0.0000 43.8597 0.0000
# 6 0.0000 0.0000 0.0000 0.0000 0.0000 28.9688
#
#
#
# Elastic Compliance Matrix: (Units=1/GPa)
#
#
# Indices 1 2 3 4 5 6 
#
# 1 0.000414 -0.008981 -0.009583 0.000000 0.000000 0.000000
# 2 -0.008981 0.061151 -0.015419 0.000000 0.000000 0.000000
# 3 -0.009583 -0.015419 0.003226 0.000000 0.000000 0.000000
# 4 0.000000 0.000000 0.000000 0.033564 0.000000 0.000000
# 5 0.000000 0.000000 0.000000 0.000000 0.022800 0.000000
# 6 0.000000 0.000000 0.000000 0.000000 0.000000 0.034520
#
#
# Mechanical properties :
#
#
# Convention : Reuss Voigt Hill
#
# Bulk Modulus (GPa) = -315.06421 -23.41393 -169.23907
# Shear Modulus (GPa) = 22.46364 29.72848 26.09606
#
# Velocity S-wave (km/s) = 3.44443 3.96245 3.71249
# Velocity P-wave (km/s) = 12.27117 2.92723 8.42653
#
# Compressibility (1/GPa) = -0.00317396
#
# Stress axis : x y z
#
# Youngs Moduli (GPa) = 2418.03388 16.35293 309.93740
#
# Poissons Ratio (x) = 0.14686 2.97017
# Poissons Ratio (y) = 21.71535 4.77887
# Poissons Ratio (z) = 23.17233 0.25214
#
# Static dielectric constant tensor:
#      x y z
#    x 1.616800 0.000000 0.000000 
#    y 0.000000 1.637520 0.000000 
#    z 0.000000 0.000000 1.621050 
# 
# From -- ./inp_files/4138.got.cif
#   From: 2010.05.17/outbox.cif.g08.bks.cpg/sg39_3_cif.got.tgz:4138.got - 2010.06.03 18:22:40.
