data_PCOD9361744
_publ_section_title
;
Structure prediction by ZEFSAII (Michael W. Deem and Ramdas Pophale) SiO2 
 PCOD9361744
Probable space group: A B M 2
;
_chemical_formula_sum "Si O2"
_cell_formula_units_Z 44
_cell_length_a 5.380931
_cell_length_b 14.747721
_cell_length_c 26.666904
_cell_angle_alpha 90.000000
_cell_angle_beta 90.000000
_cell_angle_gamma 90.000000
_cell_volume 2116.191343
_symmetry_space_group_name_H-M "A B M 2"
_symmetry_group_IT_number 39
_symmetry_cell_setting 'orthorhombic'
loop_
_space_group_symop_operation_xyz
x,y,z
-x,-y,z
-x,1/2+y,z
x,1/2-y,z
x,1/2+y,1/2+z
-x,1/2-y,1/2+z
-x,y,1/2+z
x,-y,1/2+z
loop_
_atom_site_type_symbol
_atom_site_label
_atom_site_fract_x
_atom_site_fract_y
_atom_site_fract_z
Si Si1 0.000000 0.000000 0.797540
Si Si2 0.931584 0.250000 0.507050
Si Si3 0.509758 0.891058 0.153809
Si Si4 0.573275 0.250000 0.941114
Si Si5 0.320726 0.653170 0.259288
Si Si6 0.994420 0.390943 0.094278
Si Si7 0.613126 0.599645 0.357125
O O1 0.881281 0.074614 0.834589
O O2 0.169707 0.059720 0.761458
O O3 0.675683 0.250000 0.475131
O O4 0.955907 0.162697 0.543122
O O5 0.174746 0.250000 0.472667
O O6 0.481354 0.851689 0.209163
O O7 0.773277 0.866474 0.129819
O O8 0.269810 0.865409 0.119695
O O9 0.500000 0.000000 0.157128
O O10 0.586511 0.162614 0.904845
O O11 0.182224 0.750000 0.259089
O O12 0.476209 0.646137 0.310313
O O13 0.000000 0.500000 0.086842
O O14 0.500000 0.500000 0.366440
#
# Coordination Sequence:
#
# PCOD9361744 Si02
#       7
#     4   4   8   4   8   8   8
#     4  10  24  42  66  96 150 180 230 276 340 420
#     4  12  28  46  72  99 133 172 236 306 346 408
#     4  10  22  41  68 100 139 185 223 266 335 414
#     4  12  28  46  74 101 135 174 240 292 354 412
#     4  11  24  39  67 105 145 185 228 277 338 419
#     4  10  24  45  69  96 137 176 227 284 343 406
#     4  10  24  44  68 100 142 182 227 281 345 416
#
# _framework density 20.792072999999998
#
# number of rings (size 3 to 8) (size 9 to 14) (size 15 to 20)
#    0.000    1.455    0.909    2.727   15.273    1.455 
#    0.000    0.000    0.000    0.000    0.000    0.000 
#    0.000    0.000    0.000    0.000    0.000    0.000 
#
# Total GULP energy -122876.721013 kJ/mol
# GULP energy per Si atom -5585.305501 kJ/mol
# Density = 2.074475 g / cm^3
# Si number density = 20.792073 Si / 1000 Ang^3
#
#
#
# Elastic Constant Matrix: (Units=GPa)
#
#
# Indices 1 2 3 4 5 6 
#
# 1 117.2645 39.8786 58.0794 0.0000 0.0000 0.0000
# 2 39.8786 115.9807 74.8549 0.0000 0.0000 0.0000
# 3 58.0794 74.8549 139.0362 0.0000 0.0000 0.0000
# 4 0.0000 0.0000 0.0000 36.9612 0.0000 0.0000
# 5 0.0000 0.0000 0.0000 0.0000 23.9957 0.0000
# 6 0.0000 0.0000 0.0000 0.0000 0.0000 -7.9609
#
#
#
# Elastic Compliance Matrix: (Units=1/GPa)
#
#
# Indices 1 2 3 4 5 6 
#
# 1 0.010867 -0.001236 -0.003874 0.000000 0.000000 0.000000
# 2 -0.001236 0.013354 -0.006673 0.000000 0.000000 0.000000
# 3 -0.003874 -0.006673 0.012403 0.000000 0.000000 0.000000
# 4 0.000000 0.000000 0.000000 0.027055 0.000000 0.000000
# 5 0.000000 0.000000 0.000000 0.000000 0.041674 0.000000
# 6 0.000000 0.000000 0.000000 0.000000 0.000000 -0.125615
#
#
# Mechanical properties :
#
#
# Convention : Reuss Voigt Hill
#
# Bulk Modulus (GPa) = 76.58311 79.76746 78.17529
# Shear Modulus (GPa) = 652.87014 23.89709 338.38362
#
# Velocity S-wave (km/s) = 17.73926 3.39386 12.77105
# Velocity P-wave (km/s) = 21.36557 7.33522 15.97331
#
# Compressibility (1/GPa) = 0.01305771
#
# Stress axis : x y z
#
# Youngs Moduli (GPa) = 92.02368 74.88293 80.62339
#
# Poissons Ratio (x) = 0.09257 0.31232
# Poissons Ratio (y) = 0.11376 0.53802
# Poissons Ratio (z) = 0.35648 0.49971
#
# Static dielectric constant tensor:
#      x y z
#    x 1.817480 0.000000 0.000000 
#    y 0.000000 1.798940 0.000000 
#    z 0.000000 0.000000 1.703450 
# 
# From -- ./inp_files/16488.got.cif
#   From: 2010.05.17/outbox.cif.g08.bks.cpg/sg39_9_cif.got.tgz:16488.got - 2010.06.03 18:22:40.
