data_PCOD9361094
_publ_section_title
;
Structure prediction by ZEFSAII (Michael W. Deem and Ramdas Pophale) SiO2 
 PCOD9361094
Probable space group: A B M 2
;
_chemical_formula_sum "Si O2"
_cell_formula_units_Z 56
_cell_length_a 9.798440
_cell_length_b 18.584581
_cell_length_c 16.760199
_cell_angle_alpha 90.000000
_cell_angle_beta 90.000000
_cell_angle_gamma 90.000000
_cell_volume 3052.030593
_symmetry_space_group_name_H-M "A B M 2"
_symmetry_group_IT_number 39
_symmetry_cell_setting 'orthorhombic'
loop_
_space_group_symop_operation_xyz
x,y,z
-x,-y,z
-x,1/2+y,z
x,1/2-y,z
x,1/2+y,1/2+z
-x,1/2-y,1/2+z
-x,y,1/2+z
x,-y,1/2+z
loop_
_atom_site_type_symbol
_atom_site_label
_atom_site_fract_x
_atom_site_fract_y
_atom_site_fract_z
Si Si1 0.543459 0.418028 0.430920
Si Si2 0.058168 0.335559 0.525280
Si Si3 0.227240 0.101524 0.056123
Si Si4 0.401036 0.068997 0.749242
Si Si5 0.351353 0.835797 0.715047
Si Si6 0.140085 0.461385 0.641406
Si Si7 0.726599 0.336156 0.891240
O O1 0.500000 0.500000 0.445645
O O2 0.645513 0.393124 0.498272
O O3 0.612888 0.415685 0.343418
O O4 0.407674 0.370631 0.429298
O O5 0.072976 0.250000 0.540219
O O6 0.109143 0.385955 0.597799
O O7 0.143311 0.354295 0.445417
O O8 0.900657 0.357539 0.518305
O O9 0.265929 0.135080 0.141191
O O10 0.191774 0.018364 0.074785
O O11 0.494949 0.132681 0.713628
O O12 0.259538 0.052221 0.705349
O O13 0.500000 0.000000 0.741419
O O14 0.355529 0.750000 0.713112
O O15 0.280178 0.859580 0.798511
O O16 0.000000 0.500000 0.672087
O O17 0.715058 0.250000 0.891364
#
# Coordination Sequence:
#
# PCOD9361094 Si02
#       7
#     8   8   8   8   8   8   8
#     4  10  22  37  60  89 116 150 197 249 294 353
#     4  10  22  40  60  85 122 159 199 241 297 359
#     4  11  22  38  60  89 121 153 199 247 299 351
#     4  10  20  39  60  87 118 155 197 243 303 357
#     4  10  21  36  61  89 119 157 203 250 299 355
#     4  10  22  39  58  89 122 156 197 249 298 353
#     4   9  20  39  59  84 119 159 197 240 298 358
#
# _framework density 18.34844
#
# number of rings (size 3 to 8) (size 9 to 14) (size 15 to 20)
#    0.000    2.000    1.429    1.286    4.000    1.714 
#    5.143    0.714    0.000    0.000    0.000    0.000 
#    0.000    0.000    0.000    0.000    0.000    0.000 
#
# Total GULP energy -156240.463432 kJ/mol
# GULP energy per Si atom -5580.016551 kJ/mol
# Density = 1.830668 g / cm^3
# Si number density = 18.348440 Si / 1000 Ang^3
#
#
#
# Elastic Constant Matrix: (Units=GPa)
#
#
# Indices 1 2 3 4 5 6 
#
# 1 136.9265 34.9751 99.6877 0.0000 0.0000 0.0000
# 2 34.9751 62.0918 35.8614 0.0000 0.0000 0.0000
# 3 99.6877 35.8614 93.5972 0.0000 0.0000 0.0000
# 4 0.0000 0.0000 0.0000 17.9688 0.0000 0.0000
# 5 0.0000 0.0000 0.0000 0.0000 22.9931 0.0000
# 6 0.0000 0.0000 0.0000 0.0000 0.0000 3.8003
#
#
#
# Elastic Compliance Matrix: (Units=1/GPa)
#
#
# Indices 1 2 3 4 5 6 
#
# 1 0.032746 0.002181 -0.035713 0.000000 0.000000 0.000000
# 2 0.002181 0.020827 -0.010302 0.000000 0.000000 0.000000
# 3 -0.035713 -0.010302 0.052668 0.000000 0.000000 0.000000
# 4 0.000000 0.000000 0.000000 0.055652 0.000000 0.000000
# 5 0.000000 0.000000 0.000000 0.000000 0.043491 0.000000
# 6 0.000000 0.000000 0.000000 0.000000 0.000000 0.263139
#
#
# Mechanical properties :
#
#
# Convention : Reuss Voigt Hill
#
# Bulk Modulus (GPa) = 53.84292 70.40708 62.12500
# Shear Modulus (GPa) = 8.89072 17.09186 12.99129
#
# Velocity S-wave (km/s) = 2.20364 3.05538 2.66377
# Velocity P-wave (km/s) = 5.99025 7.13461 6.58733
#
# Compressibility (1/GPa) = 0.01857254
#
# Stress axis : x y z
#
# Youngs Moduli (GPa) = 30.53769 48.01457 18.98687
#
# Poissons Ratio (x) = -0.10470 0.67807
# Poissons Ratio (y) = -0.06659 0.19561
# Poissons Ratio (z) = 1.09058 0.49466
#
# Static dielectric constant tensor:
#      x y z
#    x 1.621410 0.000000 0.000000 
#    y 0.000000 1.642340 0.000000 
#    z 0.000000 0.000000 1.626580 
# 
# From -- ./inp_files/8645.got.cif
#   From: 2010.05.17/outbox.cif.g08.bks.cpg/sg39_5_cif.got.tgz:8645.got - 2010.06.03 18:22:40.
