data_PCOD9361469
_publ_section_title
;
Structure prediction by ZEFSAII (Michael W. Deem and Ramdas Pophale) SiO2 
 PCOD9361469
Probable space group: A B M 2
;
_chemical_formula_sum "Si O2"
_cell_formula_units_Z 64
_cell_length_a 12.104845
_cell_length_b 17.517405
_cell_length_c 15.097043
_cell_angle_alpha 90.000000
_cell_angle_beta 90.000000
_cell_angle_gamma 90.000000
_cell_volume 3201.259614
_symmetry_space_group_name_H-M "A B M 2"
_symmetry_group_IT_number 39
_symmetry_cell_setting 'orthorhombic'
loop_
_space_group_symop_operation_xyz
x,y,z
-x,-y,z
-x,1/2+y,z
x,1/2-y,z
x,1/2+y,1/2+z
-x,1/2-y,1/2+z
-x,y,1/2+z
x,-y,1/2+z
loop_
_atom_site_type_symbol
_atom_site_label
_atom_site_fract_x
_atom_site_fract_y
_atom_site_fract_z
Si Si1 0.393339 0.554695 0.456310
Si Si2 0.080184 0.340196 0.537589
Si Si3 0.718852 0.051128 0.095523
Si Si4 0.514881 0.165351 0.068665
Si Si5 0.652950 0.165690 0.731854
Si Si6 0.299037 0.012513 0.293711
Si Si7 0.912261 0.661766 0.189197
Si Si8 0.068094 0.073712 0.359893
O O1 0.500000 0.500000 0.460544
O O2 0.305685 0.517079 0.525410
O O3 0.437301 0.635124 0.490015
O O4 0.349431 0.550972 0.357101
O O5 0.108980 0.250000 0.546106
O O6 0.174112 0.398055 0.573261
O O7 0.064215 0.362708 0.435392
O O8 0.969287 0.353943 0.595304
O O9 0.614186 0.107444 0.086346
O O10 0.721901 0.017495 0.194800
O O11 0.557708 0.250000 0.051749
O O12 0.434703 0.166102 0.153375
O O13 0.651387 0.250000 0.775523
O O14 0.628810 0.090247 0.788653
O O15 0.778802 0.154686 0.694746
O O16 0.190320 0.042663 0.342474
O O17 0.936183 0.750000 0.210923
O O18 0.964975 0.608801 0.264951
O O19 0.000000 0.000000 0.387078
#
# Coordination Sequence:
#
# PCOD9361469 Si02
#       8
#     8   8   8   8   8   8   8   8
#     4  10  22  37  59  90 122 161 203 248 303 363
#     4  11  23  41  64  90 125 163 202 255 314 373
#     4  11  22  40  62  89 125 164 202 255 305 373
#     4  10  21  40  62  88 124 162 206 255 305 363
#     4   9  19  36  61  89 119 160 211 254 302 360
#     4  11  22  38  62  90 124 162 205 254 312 367
#     4   9  20  39  60  86 120 162 203 249 305 363
#     4  11  23  38  60  93 121 157 206 257 304 370
#
# _framework density 19.99213
#
# number of rings (size 3 to 8) (size 9 to 14) (size 15 to 20)
#    0.000    1.750    2.500    1.500    1.750    4.000 
#    0.000    1.875    0.000    0.750    0.000    0.000 
#    0.000    0.000    0.000    0.000    0.000    0.000 
#
# Total GULP energy -178543.029543 kJ/mol
# GULP energy per Si atom -5579.469673 kJ/mol
# Density = 1.994663 g / cm^3
# Si number density = 19.992130 Si / 1000 Ang^3
#
#
#
# Elastic Constant Matrix: (Units=GPa)
#
#
# Indices 1 2 3 4 5 6 
#
# 1 21.3239 -5.1585 -5.2059 0.0000 0.0000 0.0000
# 2 -5.1585 65.7326 8.6860 0.0000 0.0000 0.0000
# 3 -5.2059 8.6860 74.8828 0.0000 0.0000 0.0000
# 4 0.0000 0.0000 0.0000 28.6899 0.0000 0.0000
# 5 0.0000 0.0000 0.0000 0.0000 24.1931 0.0000
# 6 0.0000 0.0000 0.0000 0.0000 0.0000 26.1785
#
#
#
# Elastic Compliance Matrix: (Units=1/GPa)
#
#
# Indices 1 2 3 4 5 6 
#
# 1 0.048446 0.003409 0.002973 0.000000 0.000000 0.000000
# 2 0.003409 0.015690 -0.001583 0.000000 0.000000 0.000000
# 3 0.002973 -0.001583 0.013744 0.000000 0.000000 0.000000
# 4 0.000000 0.000000 0.000000 0.034855 0.000000 0.000000
# 5 0.000000 0.000000 0.000000 0.000000 0.041334 0.000000
# 6 0.000000 0.000000 0.000000 0.000000 0.000000 0.038199
#
#
# Mechanical properties :
#
#
# Convention : Reuss Voigt Hill
#
# Bulk Modulus (GPa) = 11.43143 17.62028 14.52586
# Shear Modulus (GPa) = 23.60370 26.72016 25.16193
#
# Velocity S-wave (km/s) = 3.43979 3.65983 3.55151
# Velocity P-wave (km/s) = 4.63752 5.16642 4.90910
#
# Compressibility (1/GPa) = 0.08747811
#
# Stress axis : x y z
#
# Youngs Moduli (GPa) = 20.64143 63.73543 72.75658
#
# Poissons Ratio (x) = -0.21728 -0.21627
# Poissons Ratio (y) = -0.07037 0.11517
# Poissons Ratio (z) = -0.06136 0.10089
#
# Static dielectric constant tensor:
#      x y z
#    x 1.368000 0.000000 0.000000 
#    y 0.000000 1.733020 0.000000 
#    z 0.000000 0.000000 1.708840 
# 
# From -- ./inp_files/9494.got.cif
#   From: 2010.05.17/outbox.cif.g08.bks.cpg/sg39_5_cif.got.tgz:9494.got - 2010.06.03 18:22:40.
