data_PCOD9361791
_publ_section_title
;
Structure prediction by ZEFSAII (Michael W. Deem and Ramdas Pophale) SiO2 
 PCOD9361791
Probable space group: A B M 2
;
_chemical_formula_sum "Si O2"
_cell_formula_units_Z 28
_cell_length_a 11.215416
_cell_length_b 11.216068
_cell_length_c 9.042299
_cell_angle_alpha 90.000000
_cell_angle_beta 90.000000
_cell_angle_gamma 90.000000
_cell_volume 1137.456729
_symmetry_space_group_name_H-M "A B M 2"
_symmetry_group_IT_number 39
_symmetry_cell_setting 'orthorhombic'
loop_
_space_group_symop_operation_xyz
x,y,z
-x,-y,z
-x,1/2+y,z
x,1/2-y,z
x,1/2+y,1/2+z
-x,1/2-y,1/2+z
-x,y,1/2+z
x,-y,1/2+z
loop_
_atom_site_type_symbol
_atom_site_label
_atom_site_fract_x
_atom_site_fract_y
_atom_site_fract_z
Si Si1 0.500000 0.500000 0.207670
Si Si2 0.143941 0.987246 0.154730
Si Si3 0.884769 0.250000 0.329411
Si Si4 0.859538 0.750000 0.182830
Si Si5 0.336730 0.389122 0.459104
O O1 0.410788 0.433827 0.318690
O O2 0.574624 0.414087 0.099329
O O3 0.216441 0.957341 0.006913
O O4 0.189303 0.116947 0.206987
O O5 0.165630 0.871496 0.257625
O O6 0.000000 0.000000 0.132374
O O7 0.878926 0.250000 0.505170
O O8 0.021350 0.250000 0.279042
O O9 0.310320 0.250000 0.447311
#
# Coordination Sequence:
#
# PCOD9361791 Si02
#       5
#     4   8   4   4   8
#     4  10  26  46  72 102 130 182 244 294 350 410
#     4  10  23  42  69 103 141 183 224 286 356 420
#     4  10  22  44  64  95 141 186 228 289 338 420
#     4  10  24  42  64  99 141 182 234 279 344 422
#     4  11  23  48  73 101 138 182 234 296 352 415
#
# _framework density 24.616320000000002
#
# number of rings (size 3 to 8) (size 9 to 14) (size 15 to 20)
#    0.000    1.714    1.429    0.857    4.000   10.286 
#   12.857    0.000    0.000    0.000    0.000    0.000 
#    0.000    0.000    0.000    0.000    0.000    0.000 
#
# Total GULP energy -78351.845410 kJ/mol
# GULP energy per Si atom -5596.560386 kJ/mol
# Density = 2.456029 g / cm^3
# Si number density = 24.616320 Si / 1000 Ang^3
#
#
#
# Elastic Constant Matrix: (Units=GPa)
#
#
# Indices 1 2 3 4 5 6 
#
# 1 118.6003 54.2916 45.6027 0.0000 0.0000 0.0000
# 2 54.2916 241.8259 48.3304 0.0000 0.0000 0.0000
# 3 45.6027 48.3304 131.0298 0.0000 0.0000 0.0000
# 4 0.0000 0.0000 0.0000 55.2116 0.0000 0.0000
# 5 0.0000 0.0000 0.0000 0.0000 32.7796 0.0000
# 6 0.0000 0.0000 0.0000 0.0000 0.0000 45.6887
#
#
#
# Elastic Compliance Matrix: (Units=1/GPa)
#
#
# Indices 1 2 3 4 5 6 
#
# 1 0.010367 -0.001734 -0.002968 0.000000 0.000000 0.000000
# 2 -0.001734 0.004754 -0.001150 0.000000 0.000000 0.000000
# 3 -0.002968 -0.001150 0.009089 0.000000 0.000000 0.000000
# 4 0.000000 0.000000 0.000000 0.018112 0.000000 0.000000
# 5 0.000000 0.000000 0.000000 0.000000 0.030507 0.000000
# 6 0.000000 0.000000 0.000000 0.000000 0.000000 0.021887
#
#
# Mechanical properties :
#
#
# Convention : Reuss Voigt Hill
#
# Bulk Modulus (GPa) = 79.96717 87.54502 83.75610
# Shear Modulus (GPa) = 45.21192 49.61808 47.41500
#
# Velocity S-wave (km/s) = 4.29028 4.49448 4.39357
# Velocity P-wave (km/s) = 7.55632 7.91042 7.73540
#
# Compressibility (1/GPa) = 0.01250513
#
# Stress axis : x y z
#
# Youngs Moduli (GPa) = 96.46080 210.33139 110.02119
#
# Poissons Ratio (x) = 0.36476 0.32658
# Poissons Ratio (y) = 0.16728 0.12654
# Poissons Ratio (z) = 0.28633 0.24190
#
# Static dielectric constant tensor:
#      x y z
#    x 1.950990 0.000000 0.000000 
#    y 0.000000 1.942710 0.000000 
#    z 0.000000 0.000000 2.007530 
# 
# From -- ./inp_files/2392.got.cif
#   From: 2010.05.17/outbox.cif.g08.bks.cpg/sg39_2_cif.got.tgz:2392.got - 2010.06.03 18:22:40.
