data_PCOD9361192
_publ_section_title
;
Structure prediction by ZEFSAII (Michael W. Deem and Ramdas Pophale) SiO2 
 PCOD9361192
Probable space group: A B M 2
;
_chemical_formula_sum "Si O2"
_cell_formula_units_Z 64
_cell_length_a 12.835129
_cell_length_b 20.249891
_cell_length_c 10.458901
_cell_angle_alpha 90.000000
_cell_angle_beta 90.000000
_cell_angle_gamma 90.000000
_cell_volume 2718.372574
_symmetry_space_group_name_H-M "A B M 2"
_symmetry_group_IT_number 39
_symmetry_cell_setting 'orthorhombic'
loop_
_space_group_symop_operation_xyz
x,y,z
-x,-y,z
-x,1/2+y,z
x,1/2-y,z
x,1/2+y,1/2+z
-x,1/2-y,1/2+z
-x,y,1/2+z
x,-y,1/2+z
loop_
_atom_site_type_symbol
_atom_site_label
_atom_site_fract_x
_atom_site_fract_y
_atom_site_fract_z
Si Si1 0.467944 0.927406 0.386810
Si Si2 0.045803 0.671439 0.464073
Si Si3 0.449985 0.856364 0.652783
Si Si4 0.668611 0.627445 0.687597
Si Si5 0.901535 0.671562 0.687065
Si Si6 0.232540 0.626319 0.636583
Si Si7 0.759585 0.485326 0.056688
Si Si8 0.118407 0.523064 0.794762
O O1 0.465102 0.878869 0.506453
O O2 0.546389 0.909438 0.269816
O O3 0.358606 0.918058 0.310686
O O4 0.500000 0.000000 0.429171
O O5 0.031751 0.750000 0.453189
O O6 0.052593 0.644845 0.320485
O O7 0.155015 0.657305 0.534132
O O8 0.956214 0.644259 0.558516
O O9 0.565841 0.826878 0.678740
O O10 0.332849 0.828982 0.666023
O O11 0.777569 0.663781 0.691933
O O12 0.679899 0.574711 0.571594
O O13 0.837485 0.521516 0.677863
O O14 0.924569 0.750000 0.685128
O O15 0.284117 0.558389 0.582118
O O16 0.157659 0.596196 0.746914
O O17 0.822675 0.486828 0.927121
O O18 0.000000 0.500000 0.809871
#
# Coordination Sequence:
#
# PCOD9361192 Si02
#       8
#     8   8   8   8   8   8   8   8
#     4  10  21  34  58  86 127 164 207 249 301 370
#     4  10  23  43  69  93 121 165 216 269 325 387
#     4  10  23  36  58  87 121 165 207 253 307 380
#     4  10  24  37  63  93 126 168 212 258 323 380
#     4  10  23  46  70  95 124 164 218 274 331 389
#     4  10  24  36  62  89 128 167 207 265 316 383
#     4  10  24  35  60  88 127 169 208 251 320 377
#     4  10  24  39  55  88 127 173 208 259 315 380
#
# _framework density 23.543496999999999
#
# number of rings (size 3 to 8) (size 9 to 14) (size 15 to 20)
#    1.500    0.500    0.000    2.250    8.750    1.000 
#    0.000    0.625    0.000    0.750    0.000    0.000 
#    0.000    0.000    0.000    0.000    0.000    0.000 
#
# Total GULP energy -178224.900409 kJ/mol
# GULP energy per Si atom -5569.528138 kJ/mol
# Density = 2.348991 g / cm^3
# Si number density = 23.543497 Si / 1000 Ang^3
#
#
#
# Elastic Constant Matrix: (Units=GPa)
#
#
# Indices 1 2 3 4 5 6 
#
# 1 168.3639 14.5476 53.7317 0.0000 0.0000 0.0000
# 2 14.5476 44.6865 15.9341 0.0000 0.0000 0.0000
# 3 53.7317 15.9341 138.0905 0.0000 0.0000 0.0000
# 4 0.0000 0.0000 0.0000 11.7468 0.0000 0.0000
# 5 0.0000 0.0000 0.0000 0.0000 37.0885 0.0000
# 6 0.0000 0.0000 0.0000 0.0000 0.0000 2.1253
#
#
#
# Elastic Compliance Matrix: (Units=1/GPa)
#
#
# Indices 1 2 3 4 5 6 
#
# 1 0.006857 -0.001336 -0.002514 0.000000 0.000000 0.000000
# 2 -0.001336 0.023599 -0.002203 0.000000 0.000000 0.000000
# 3 -0.002514 -0.002203 0.008474 0.000000 0.000000 0.000000
# 4 0.000000 0.000000 0.000000 0.085130 0.000000 0.000000
# 5 0.000000 0.000000 0.000000 0.000000 0.026963 0.000000
# 6 0.000000 0.000000 0.000000 0.000000 0.000000 0.470532
#
#
# Mechanical properties :
#
#
# Convention : Reuss Voigt Hill
#
# Bulk Modulus (GPa) = 37.28056 57.72976 47.50516
# Shear Modulus (GPa) = 7.78087 27.98727 17.88407
#
# Velocity S-wave (km/s) = 1.81991 3.45156 2.75911
# Velocity P-wave (km/s) = 4.50391 6.36067 5.51105
#
# Compressibility (1/GPa) = 0.02682363
#
# Stress axis : x y z
#
# Youngs Moduli (GPa) = 145.83038 42.37536 118.00688
#
# Poissons Ratio (x) = 0.05661 0.29668
# Poissons Ratio (y) = 0.19482 0.25999
# Poissons Ratio (z) = 0.36663 0.09336
#
# Static dielectric constant tensor:
#      x y z
#    x 1.949530 0.000000 0.000000 
#    y 0.000000 1.955500 0.000000 
#    z 0.000000 0.000000 1.894660 
# 
# From -- ./inp_files/6070.got.cif
#   From: 2010.05.17/outbox.cif.g08.bks.cpg/sg39_4_cif.got.tgz:6070.got - 2010.06.03 18:22:40.
