data_PCOD9361013
_publ_section_title
;
Structure prediction by ZEFSAII (Michael W. Deem and Ramdas Pophale) SiO2 
 PCOD9361013
Probable space group: A B M 2
;
_chemical_formula_sum "Si O2"
_cell_formula_units_Z 48
_cell_length_a 7.922098
_cell_length_b 14.665129
_cell_length_c 17.700821
_cell_angle_alpha 90.000000
_cell_angle_beta 90.000000
_cell_angle_gamma 90.000000
_cell_volume 2056.456410
_symmetry_space_group_name_H-M "A B M 2"
_symmetry_group_IT_number 39
_symmetry_cell_setting 'orthorhombic'
loop_
_space_group_symop_operation_xyz
x,y,z
-x,-y,z
-x,1/2+y,z
x,1/2-y,z
x,1/2+y,1/2+z
-x,1/2-y,1/2+z
-x,y,1/2+z
x,-y,1/2+z
loop_
_atom_site_type_symbol
_atom_site_label
_atom_site_fract_x
_atom_site_fract_y
_atom_site_fract_z
Si Si1 0.047373 0.750000 0.847200
Si Si2 0.164563 0.574616 0.935647
Si Si3 0.318512 0.250000 0.231090
Si Si4 0.345365 0.569567 0.630282
Si Si5 0.671354 0.750000 0.802758
Si Si6 0.661161 0.566202 0.832814
Si Si7 0.000000 0.000000 0.074832
Si Si8 0.487802 0.854295 0.479761
O O1 0.120177 0.661987 0.888040
O O2 0.131179 0.750000 0.764935
O O3 0.847513 0.750000 0.849778
O O4 0.191873 0.492757 0.873874
O O5 0.348965 0.583222 0.972292
O O6 0.045680 0.574274 0.009678
O O7 0.342174 0.156608 0.184959
O O8 0.464823 0.250000 0.294842
O O9 0.500000 0.500000 0.645121
O O10 0.162699 0.521843 0.624972
O O11 0.374681 0.610919 0.547098
O O12 0.700553 0.643212 0.770226
O O13 0.500000 0.500000 0.816749
O O14 0.602760 0.634974 0.899703
O O15 0.536270 0.750000 0.492320
#
# Coordination Sequence:
#
# PCOD9361013 Si02
#       8
#     4   8   4   8   4   8   4   8
#     4  12  28  46  69 109 144 190 237 288 348 429
#     4  11  22  40  71 111 149 168 222 307 371 424
#     4  12  30  51  69  95 145 202 249 283 330 422
#     4  12  26  47  73 102 142 189 241 292 353 425
#     4  12  26  47  70  96 137 192 246 275 350 417
#     4  10  20  37  71 104 140 176 220 290 361 425
#     4  12  24  42  72 114 138 178 232 304 380 424
#     4  11  18  38  69 105 140 179 226 282 362 428
#
# _framework density 23.34112
#
# number of rings (size 3 to 8) (size 9 to 14) (size 15 to 20)
#    0.000    0.667    5.833    3.500    0.000    4.000 
#    0.000    0.833    0.000    0.000    0.000    0.000 
#    0.000    0.000    0.000    0.000    0.000    0.000 
#
# Total GULP energy -133766.345786 kJ/mol
# GULP energy per Si atom -5573.597741 kJ/mol
# Density = 2.328799 g / cm^3
# Si number density = 23.341120 Si / 1000 Ang^3
#
#
#
# Elastic Constant Matrix: (Units=GPa)
#
#
# Indices 1 2 3 4 5 6 
#
# 1 120.2939 41.3518 36.0626 0.0000 0.0000 0.0000
# 2 41.3518 165.0717 32.6702 0.0000 0.0000 0.0000
# 3 36.0626 32.6702 65.1082 0.0000 0.0000 0.0000
# 4 0.0000 0.0000 0.0000 21.9702 0.0000 0.0000
# 5 0.0000 0.0000 0.0000 0.0000 14.9761 0.0000
# 6 0.0000 0.0000 0.0000 0.0000 0.0000 39.4436
#
#
#
# Elastic Compliance Matrix: (Units=1/GPa)
#
#
# Indices 1 2 3 4 5 6 
#
# 1 0.010343 -0.001618 -0.004917 0.000000 0.000000 0.000000
# 2 -0.001618 0.006979 -0.002606 0.000000 0.000000 0.000000
# 3 -0.004917 -0.002606 0.019390 0.000000 0.000000 0.000000
# 4 0.000000 0.000000 0.000000 0.045516 0.000000 0.000000
# 5 0.000000 0.000000 0.000000 0.000000 0.066773 0.000000
# 6 0.000000 0.000000 0.000000 0.000000 0.000000 0.025353
#
#
# Mechanical properties :
#
#
# Convention : Reuss Voigt Hill
#
# Bulk Modulus (GPa) = 54.25739 63.40476 58.83108
# Shear Modulus (GPa) = 25.15347 31.30393 28.22870
#
# Velocity S-wave (km/s) = 3.28631 3.66614 3.48141
# Velocity P-wave (km/s) = 6.13968 6.71894 6.43583
#
# Compressibility (1/GPa) = 0.01843067
#
# Stress axis : x y z
#
# Youngs Moduli (GPa) = 96.68163 143.28714 51.57259
#
# Poissons Ratio (x) = 0.23182 0.25359
# Poissons Ratio (y) = 0.15642 0.13439
# Poissons Ratio (z) = 0.47540 0.37338
#
# Static dielectric constant tensor:
#      x y z
#    x 1.974390 0.000000 0.000000 
#    y 0.000000 2.024720 0.000000 
#    z 0.000000 0.000000 2.013090 
# 
# From -- ./inp_files/11657.got.cif
#   From: 2010.05.17/outbox.cif.g08.bks.cpg/sg39_6_cif.got.tgz:11657.got - 2010.06.03 18:22:40.
