data_PCOD9361619
_publ_section_title
;
Structure prediction by ZEFSAII (Michael W. Deem and Ramdas Pophale) SiO2 
 PCOD9361619
Probable space group: A B M 2
;
_chemical_formula_sum "Si O2"
_cell_formula_units_Z 44
_cell_length_a 17.016241
_cell_length_b 13.872008
_cell_length_c 8.699983
_cell_angle_alpha 90.000000
_cell_angle_beta 90.000000
_cell_angle_gamma 90.000000
_cell_volume 2053.626039
_symmetry_space_group_name_H-M "A B M 2"
_symmetry_group_IT_number 39
_symmetry_cell_setting 'orthorhombic'
loop_
_space_group_symop_operation_xyz
x,y,z
-x,-y,z
-x,1/2+y,z
x,1/2-y,z
x,1/2+y,1/2+z
-x,1/2-y,1/2+z
-x,y,1/2+z
x,-y,1/2+z
loop_
_atom_site_type_symbol
_atom_site_label
_atom_site_fract_x
_atom_site_fract_y
_atom_site_fract_z
Si Si1 0.000000 0.000000 0.123091
Si Si2 0.427632 0.067633 0.522888
Si Si3 0.253900 0.105505 0.945337
Si Si4 0.497303 0.250000 0.186575
Si Si5 0.681822 0.440780 0.752194
Si Si6 0.921811 0.138429 0.372024
Si Si7 0.612614 0.250000 0.440227
O O1 0.052476 0.928650 0.228610
O O2 0.951610 0.925468 0.016430
O O3 0.463190 0.154072 0.619255
O O4 0.379406 0.103698 0.374206
O O5 0.500000 0.000000 0.470637
O O6 0.371691 0.005013 0.635379
O O7 0.172123 0.145155 0.886732
O O8 0.332923 0.161209 0.894830
O O9 0.263246 0.002326 0.865895
O O10 0.261675 0.111294 0.130090
O O11 0.528542 0.250000 0.359482
O O12 0.409084 0.250000 0.120339
O O13 0.952097 0.250000 0.366456
#
# Coordination Sequence:
#
# PCOD9361619 Si02
#       7
#     4   8   8   4   8   8   4
#     4  10  24  42  72 112 136 176 222 264 338 414
#     4  11  23  38  58  81 114 158 213 276 333 373
#     4  11  22  42  62  90 126 168 212 267 329 394
#     4  12  26  40  60  84 122 163 221 283 319 388
#     4  10  22  38  59  84 117 160 216 263 322 395
#     4  11  22  43  72 101 145 176 219 273 331 410
#     4  12  26  40  58  88 122 167 225 267 337 376
#
# _framework density 21.425515999999998
#
# number of rings (size 3 to 8) (size 9 to 14) (size 15 to 20)
#    0.000    1.091    2.727    4.364    5.091    0.000 
#    0.000    0.000    0.000    0.000    0.000    0.000 
#    0.000    0.000    0.000    0.000    0.000    0.000 
#
# Total GULP energy -122737.210489 kJ/mol
# GULP energy per Si atom -5578.964113 kJ/mol
# Density = 2.137675 g / cm^3
# Si number density = 21.425516 Si / 1000 Ang^3
#
#
#
# Elastic Constant Matrix: (Units=GPa)
#
#
# Indices 1 2 3 4 5 6 
#
# 1 77.8409 16.4574 17.6659 0.0000 0.0000 0.0000
# 2 16.4574 85.3046 10.9265 0.0000 0.0000 0.0000
# 3 17.6659 10.9265 90.6906 0.0000 0.0000 0.0000
# 4 0.0000 0.0000 0.0000 25.2446 0.0000 0.0000
# 5 0.0000 0.0000 0.0000 0.0000 14.7480 0.0000
# 6 0.0000 0.0000 0.0000 0.0000 0.0000 24.6644
#
#
#
# Elastic Compliance Matrix: (Units=1/GPa)
#
#
# Indices 1 2 3 4 5 6 
#
# 1 0.013898 -0.002371 -0.002421 0.000000 0.000000 0.000000
# 2 -0.002371 0.012311 -0.001021 0.000000 0.000000 0.000000
# 3 -0.002421 -0.001021 0.011621 0.000000 0.000000 0.000000
# 4 0.000000 0.000000 0.000000 0.039612 0.000000 0.000000
# 5 0.000000 0.000000 0.000000 0.000000 0.067806 0.000000
# 6 0.000000 0.000000 0.000000 0.000000 0.000000 0.040544
#
#
# Mechanical properties :
#
#
# Convention : Reuss Voigt Hill
#
# Bulk Modulus (GPa) = 38.16505 38.21508 38.19007
# Shear Modulus (GPa) = 24.25373 26.85050 25.55212
#
# Velocity S-wave (km/s) = 3.36817 3.54390 3.45715
# Velocity P-wave (km/s) = 5.74262 5.88393 5.81370
#
# Compressibility (1/GPa) = 0.02620198
#
# Stress axis : x y z
#
# Youngs Moduli (GPa) = 71.95513 81.22848 86.04931
#
# Poissons Ratio (x) = 0.19259 0.20837
# Poissons Ratio (y) = 0.17061 0.08789
# Poissons Ratio (z) = 0.17424 0.08297
#
# Static dielectric constant tensor:
#      x y z
#    x 1.764040 0.000000 0.000000 
#    y 0.000000 1.869540 0.000000 
#    z 0.000000 0.000000 1.814100 
# 
# From -- ./inp_files/3693.got.cif
#   From: 2010.05.17/outbox.cif.g08.bks.cpg/sg39_2_cif.got.tgz:3693.got - 2010.06.03 18:22:40.
