data_PCOD9361886
_publ_section_title
;
Structure prediction by ZEFSAII (Michael W. Deem and Ramdas Pophale) SiO2 
 PCOD9361886
Probable space group: A B M 2
;
_chemical_formula_sum "Si O2"
_cell_formula_units_Z 40
_cell_length_a 8.516998
_cell_length_b 20.448059
_cell_length_c 10.552124
_cell_angle_alpha 90.000000
_cell_angle_beta 90.000000
_cell_angle_gamma 90.000000
_cell_volume 1837.716526
_symmetry_space_group_name_H-M "A B M 2"
_symmetry_group_IT_number 39
_symmetry_cell_setting 'orthorhombic'
loop_
_space_group_symop_operation_xyz
x,y,z
-x,-y,z
-x,1/2+y,z
x,1/2-y,z
x,1/2+y,1/2+z
-x,1/2-y,1/2+z
-x,y,1/2+z
x,-y,1/2+z
loop_
_atom_site_type_symbol
_atom_site_label
_atom_site_fract_x
_atom_site_fract_y
_atom_site_fract_z
Si Si1 0.582407 0.564230 0.155980
Si Si2 0.151868 0.822658 0.082544
Si Si3 0.758822 0.321034 0.359292
Si Si4 0.087989 0.932277 0.519733
Si Si5 0.570337 0.863935 0.421841
O O1 0.500000 0.500000 0.208387
O O2 0.758366 0.553216 0.103912
O O3 0.589227 0.610745 0.278460
O O4 0.476124 0.585057 0.034248
O O5 0.079687 0.750000 0.082751
O O6 0.255558 0.825964 0.208991
O O7 0.031233 0.882373 0.087835
O O8 0.268554 0.831169 0.965038
O O9 0.834206 0.250000 0.385955
O O10 0.850077 0.385162 0.406907
O O11 0.587552 0.321480 0.420621
O O12 0.000000 0.000000 0.485662
#
# Coordination Sequence:
#
# PCOD9361886 Si02
#       5
#     8   8   8   8   8
#     4  11  24  44  69 104 143 187 238 291 358 426
#     4  11  24  45  69 105 144 185 238 300 362 426
#     4  10  23  45  70 101 140 185 243 297 351 427
#     4  11  26  44  70 104 145 190 232 292 360 432
#     4  11  22  44  71 102 134 185 243 294 354 421
#
# _framework density 21.766141999999999
#
# number of rings (size 3 to 8) (size 9 to 14) (size 15 to 20)
#    0.000    1.200    2.000    3.000    2.800    2.400 
#    0.000    2.000    0.000    0.000    0.000    0.000 
#    0.000    0.000    0.000    0.000    0.000    0.000 
#
# Total GULP energy -111560.885594 kJ/mol
# GULP energy per Si atom -5578.044280 kJ/mol
# Density = 2.171660 g / cm^3
# Si number density = 21.766142 Si / 1000 Ang^3
#
#
#
# Elastic Constant Matrix: (Units=GPa)
#
#
# Indices 1 2 3 4 5 6 
#
# 1 80.9175 43.8424 12.4218 0.0000 0.0000 0.0000
# 2 43.8424 149.3083 20.1507 0.0000 0.0000 0.0000
# 3 12.4218 20.1507 84.7004 0.0000 0.0000 0.0000
# 4 0.0000 0.0000 0.0000 17.3704 0.0000 0.0000
# 5 0.0000 0.0000 0.0000 0.0000 26.7672 0.0000
# 6 0.0000 0.0000 0.0000 0.0000 0.0000 -5.7258
#
#
#
# Elastic Compliance Matrix: (Units=1/GPa)
#
#
# Indices 1 2 3 4 5 6 
#
# 1 0.014809 -0.004190 -0.001175 0.000000 0.000000 0.000000
# 2 -0.004190 0.008105 -0.001314 0.000000 0.000000 0.000000
# 3 -0.001175 -0.001314 0.012291 0.000000 0.000000 0.000000
# 4 0.000000 0.000000 0.000000 0.057569 0.000000 0.000000
# 5 0.000000 0.000000 0.000000 0.000000 0.037359 0.000000
# 6 0.000000 0.000000 0.000000 0.000000 0.000000 -0.174648
#
#
# Mechanical properties :
#
#
# Convention : Reuss Voigt Hill
#
# Bulk Modulus (GPa) = 45.77111 51.97291 48.87201
# Shear Modulus (GPa) = -209.43027 23.58311 -92.92358
#
# Velocity S-wave (km/s) = -9.81974 3.29519 -6.54098
# Velocity P-wave (km/s) = 10.36800 6.19737 5.87741
#
# Compressibility (1/GPa) = 0.02184784
#
# Stress axis : x y z
#
# Youngs Moduli (GPa) = 67.52765 123.37848 81.35905
#
# Poissons Ratio (x) = 0.51693 0.09560
# Poissons Ratio (y) = 0.28293 0.10689
# Poissons Ratio (z) = 0.07935 0.16209
#
# Static dielectric constant tensor:
#      x y z
#    x 1.801160 0.000000 0.000000 
#    y 0.000000 1.964190 0.000000 
#    z 0.000000 0.000000 1.765130 
# 
# From -- ./inp_files/4946.got.cif
#   From: 2010.05.17/outbox.cif.g08.bks.cpg/sg39_3_cif.got.tgz:4946.got - 2010.06.03 18:22:40.
