data_PCOD9361007
_publ_section_title
;
Structure prediction by ZEFSAII (Michael W. Deem and Ramdas Pophale) SiO2 
 PCOD9361007
Probable space group: A B M 2
;
_chemical_formula_sum "Si O2"
_cell_formula_units_Z 64
_cell_length_a 15.717151
_cell_length_b 16.799299
_cell_length_c 10.396266
_cell_angle_alpha 90.000000
_cell_angle_beta 90.000000
_cell_angle_gamma 90.000000
_cell_volume 2745.000124
_symmetry_space_group_name_H-M "A B M 2"
_symmetry_group_IT_number 39
_symmetry_cell_setting 'orthorhombic'
loop_
_space_group_symop_operation_xyz
x,y,z
-x,-y,z
-x,1/2+y,z
x,1/2-y,z
x,1/2+y,1/2+z
-x,1/2-y,1/2+z
-x,y,1/2+z
x,-y,1/2+z
loop_
_atom_site_type_symbol
_atom_site_label
_atom_site_fract_x
_atom_site_fract_y
_atom_site_fract_z
Si Si1 0.306140 0.094568 0.601260
Si Si2 0.591232 0.492751 0.438059
Si Si3 0.994824 0.840752 0.596514
Si Si4 0.775859 0.162113 0.333598
Si Si5 0.170592 0.839832 0.916651
Si Si6 0.261183 0.050351 0.250297
Si Si7 0.652786 0.161351 0.566800
Si Si8 0.944586 0.420813 0.354012
O O1 0.394205 0.060223 0.548038
O O2 0.298150 0.146048 0.729869
O O3 0.257390 0.145805 0.495253
O O4 0.254530 0.011836 0.632563
O O5 0.500000 0.500000 0.372075
O O6 0.673396 0.506804 0.347977
O O7 0.595361 0.406659 0.503725
O O8 0.023190 0.750000 0.586059
O O9 0.903733 0.848348 0.522553
O O10 0.987140 0.864342 0.744911
O O11 0.051593 0.893959 0.502785
O O12 0.814644 0.250000 0.306912
O O13 0.734650 0.163937 0.472830
O O14 0.845268 0.092426 0.321647
O O15 0.165046 0.750000 0.863930
O O16 0.177403 0.911331 0.813569
O O17 0.313164 0.126971 0.200009
O O18 0.616923 0.250000 0.574744
O O19 0.000000 0.500000 0.343756
#
# Coordination Sequence:
#
# PCOD9361007 Si02
#       8
#     8   8   8   8   8   8   8   8
#     4  10  20  37  65  92 115 165 217 263 312 388
#     4  10  22  41  65  93 134 174 213 268 330 392
#     4  11  24  43  63  89 131 173 214 270 344 408
#     4  11  22  43  69  92 130 175 221 274 336 404
#     4  10  21  37  62  88 119 162 210 261 313 384
#     4  10  21  37  62  94 126 161 212 268 325 381
#     4  10  22  41  65  96 131 170 217 272 330 393
#     4  12  27  43  65  97 129 174 222 282 340 406
#
# _framework density 23.315117999999998
#
# number of rings (size 3 to 8) (size 9 to 14) (size 15 to 20)
#    0.000    1.500    2.500    2.250    1.750    3.000 
#    2.250    5.000    0.000    0.000    0.000    0.000 
#    0.000    0.000    0.000    0.000    0.000    0.000 
#
# Total GULP energy -178581.925183 kJ/mol
# GULP energy per Si atom -5580.685162 kJ/mol
# Density = 2.326205 g / cm^3
# Si number density = 23.315118 Si / 1000 Ang^3
#
#
#
# Elastic Constant Matrix: (Units=GPa)
#
#
# Indices 1 2 3 4 5 6 
#
# 1 68.9652 16.4512 -4.7438 0.0000 0.0000 0.0000
# 2 16.4512 100.7699 4.9355 0.0000 0.0000 0.0000
# 3 -4.7438 4.9355 66.6670 0.0000 0.0000 0.0000
# 4 0.0000 0.0000 0.0000 36.5242 0.0000 0.0000
# 5 0.0000 0.0000 0.0000 0.0000 16.2881 0.0000
# 6 0.0000 0.0000 0.0000 0.0000 0.0000 -0.7815
#
#
#
# Elastic Compliance Matrix: (Units=1/GPa)
#
#
# Indices 1 2 3 4 5 6 
#
# 1 0.015194 -0.002543 0.001269 0.000000 0.000000 0.000000
# 2 -0.002543 0.010385 -0.000950 0.000000 0.000000 0.000000
# 3 0.001269 -0.000950 0.015161 0.000000 0.000000 0.000000
# 4 0.000000 0.000000 0.000000 0.027379 0.000000 0.000000
# 5 0.000000 0.000000 0.000000 0.000000 0.061395 0.000000
# 6 0.000000 0.000000 0.000000 0.000000 0.000000 -1.279640
#
#
# Mechanical properties :
#
#
# Convention : Reuss Voigt Hill
#
# Bulk Modulus (GPa) = 27.55306 29.96534 28.75920
# Shear Modulus (GPa) = -4.41080 25.05677 10.32299
#
# Velocity S-wave (km/s) = -1.37693 3.28182 2.10647
# Velocity P-wave (km/s) = 3.05212 5.21926 4.27528
#
# Compressibility (1/GPa) = 0.03629361
#
# Stress axis : x y z
#
# Youngs Moduli (GPa) = 65.81579 96.29068 65.96059
#
# Poissons Ratio (x) = 0.24483 -0.08373
# Poissons Ratio (y) = 0.16735 0.06265
# Poissons Ratio (z) = -0.08355 0.09145
#
# Static dielectric constant tensor:
#      x y z
#    x 1.878530 0.000000 0.000000 
#    y 0.000000 1.906970 0.000000 
#    z 0.000000 0.000000 1.923520 
# 
# From -- ./inp_files/6904.got.cif
#   From: 2010.05.17/outbox.cif.g08.bks.cpg/sg39_4_cif.got.tgz:6904.got - 2010.06.03 18:22:40.
