data_PCOD9361934
_publ_section_title
;
Structure prediction by ZEFSAII (Michael W. Deem and Ramdas Pophale) SiO2 
 PCOD9361934
Probable space group: A B M 2
;
_chemical_formula_sum "Si O2"
_cell_formula_units_Z 44
_cell_length_a 10.542861
_cell_length_b 21.410135
_cell_length_c 9.182918
_cell_angle_alpha 90.000000
_cell_angle_beta 90.000000
_cell_angle_gamma 90.000000
_cell_volume 2072.805692
_symmetry_space_group_name_H-M "A B M 2"
_symmetry_group_IT_number 39
_symmetry_cell_setting 'orthorhombic'
loop_
_space_group_symop_operation_xyz
x,y,z
-x,-y,z
-x,1/2+y,z
x,1/2-y,z
x,1/2+y,1/2+z
-x,1/2-y,1/2+z
-x,y,1/2+z
x,-y,1/2+z
loop_
_atom_site_type_symbol
_atom_site_label
_atom_site_fract_x
_atom_site_fract_y
_atom_site_fract_z
Si Si1 0.959938 0.750000 0.137340
Si Si2 0.913376 0.123415 0.477694
Si Si3 0.135589 0.916384 0.171249
Si Si4 0.500000 0.000000 0.035469
Si Si5 0.334236 0.884240 0.953459
Si Si6 0.791808 0.250000 0.938364
Si Si7 0.246629 0.955452 0.679480
O O1 0.906565 0.689503 0.055293
O O2 0.894914 0.750000 0.301144
O O3 0.111925 0.750000 0.082396
O O4 0.911959 0.124512 0.305020
O O5 0.801084 0.080970 0.538036
O O6 0.039510 0.091507 0.539127
O O7 0.270130 0.895015 0.110123
O O8 0.152336 0.987945 0.214484
O O9 0.545317 0.065994 0.956521
O O10 0.382242 0.018585 0.134972
O O11 0.304047 0.809867 0.933849
O O12 0.256157 0.912365 0.818765
#
# Coordination Sequence:
#
# PCOD9361934 Si02
#       7
#     4   8   8   4   8   4   8
#     4  12  24  42  65  99 148 182 217 272 345 432
#     4  12  23  39  62  98 138 178 223 277 349 423
#     4  11  23  38  62  96 137 177 224 281 348 418
#     4  10  24  44  72  94 132 178 238 302 344 390
#     4  11  23  44  70 100 134 182 232 287 349 412
#     4  12  24  44  71 103 146 190 225 278 353 428
#     4  11  23  42  65  94 132 175 227 291 345 401
#
# _framework density 21.227269
#
# number of rings (size 3 to 8) (size 9 to 14) (size 15 to 20)
#    0.000    0.727    3.636    5.455    0.000    2.909 
#    0.000    1.818    0.000    0.000    0.000    0.000 
#    0.000    0.000    0.000    0.000    0.000    0.000 
#
# Total GULP energy -122508.798602 kJ/mol
# GULP energy per Si atom -5568.581755 kJ/mol
# Density = 2.117895 g / cm^3
# Si number density = 21.227269 Si / 1000 Ang^3
#
#
#
# Elastic Constant Matrix: (Units=GPa)
#
#
# Indices 1 2 3 4 5 6 
#
# 1 85.0907 44.7491 21.5740 0.0000 0.0000 0.0000
# 2 44.7491 167.8582 28.5827 0.0000 0.0000 0.0000
# 3 21.5740 28.5827 96.9324 0.0000 0.0000 0.0000
# 4 0.0000 0.0000 0.0000 25.0293 0.0000 0.0000
# 5 0.0000 0.0000 0.0000 0.0000 24.4732 0.0000
# 6 0.0000 0.0000 0.0000 0.0000 0.0000 153.6110
#
#
#
# Elastic Compliance Matrix: (Units=1/GPa)
#
#
# Indices 1 2 3 4 5 6 
#
# 1 0.014075 -0.003389 -0.002133 0.000000 0.000000 0.000000
# 2 -0.003389 0.007088 -0.001336 0.000000 0.000000 0.000000
# 3 -0.002133 -0.001336 0.011185 0.000000 0.000000 0.000000
# 4 0.000000 0.000000 0.000000 0.039953 0.000000 0.000000
# 5 0.000000 0.000000 0.000000 0.000000 0.040861 0.000000
# 6 0.000000 0.000000 0.000000 0.000000 0.000000 0.006510
#
#
# Mechanical properties :
#
#
# Convention : Reuss Voigt Hill
#
# Bulk Modulus (GPa) = 53.67022 59.96589 56.81805
# Shear Modulus (GPa) = 35.81650 57.62107 46.71879
#
# Velocity S-wave (km/s) = 4.11212 5.21572 4.69645
# Velocity P-wave (km/s) = 6.91986 8.03632 7.49890
#
# Compressibility (1/GPa) = 0.01863231
#
# Stress axis : x y z
#
# Youngs Moduli (GPa) = 71.04609 141.07625 89.40385
#
# Poissons Ratio (x) = 0.47812 0.19073
# Poissons Ratio (y) = 0.24078 0.11943
# Poissons Ratio (z) = 0.15157 0.18846
#
# Static dielectric constant tensor:
#      x y z
#    x 1.818810 0.000000 0.000000 
#    y 0.000000 1.840400 0.000000 
#    z 0.000000 0.000000 1.782760 
# 
# From -- ./inp_files/2683.got.cif
#   From: 2010.05.17/outbox.cif.g08.bks.cpg/sg39_2_cif.got.tgz:2683.got - 2010.06.03 18:22:40.
