data_PCOD9361655
_publ_section_title
;
Structure prediction by ZEFSAII (Michael W. Deem and Ramdas Pophale) SiO2 
 PCOD9361655
Probable space group: A B M 2
;
_chemical_formula_sum "Si O2"
_cell_formula_units_Z 36
_cell_length_a 25.651168
_cell_length_b 12.471401
_cell_length_c 4.880411
_cell_angle_alpha 90.000000
_cell_angle_beta 90.000000
_cell_angle_gamma 90.000000
_cell_volume 1561.272772
_symmetry_space_group_name_H-M "A B M 2"
_symmetry_group_IT_number 39
_symmetry_cell_setting 'orthorhombic'
loop_
_space_group_symop_operation_xyz
x,y,z
-x,-y,z
-x,1/2+y,z
x,1/2-y,z
x,1/2+y,1/2+z
-x,1/2-y,1/2+z
-x,y,1/2+z
x,-y,1/2+z
loop_
_atom_site_type_symbol
_atom_site_label
_atom_site_fract_x
_atom_site_fract_y
_atom_site_fract_z
Si Si1 0.196488 0.250000 0.827920
Si Si2 0.119301 0.425095 0.572438
Si Si3 0.033951 0.750000 0.201030
Si Si4 0.267784 0.572131 0.610989
Si Si5 0.386337 0.069759 0.121523
Si Si6 0.465373 0.750000 0.440208
O O1 0.164852 0.344005 0.656008
O O2 0.227184 0.157641 0.008128
O O3 0.121096 0.470041 0.265899
O O4 0.067362 0.355332 0.628506
O O5 0.018020 0.750000 0.517783
O O6 0.262565 0.533996 0.922521
O O7 0.327552 0.611259 0.571851
O O8 0.430609 0.148830 0.022660
O O9 0.390975 0.962628 0.937637
O O10 0.517085 0.750000 0.626880
#
# Coordination Sequence:
#
# PCOD9361655 Si02
#       6
#     4   8   4   8   8   4
#     4  11  23  40  64  90 126 160 199 243 294 356
#     4  11  25  42  62  92 128 162 199 247 300 356
#     4  11  24  42  67  94 119 160 210 253 300 348
#     4  10  22  39  62  89 117 155 199 243 293 350
#     4  10  22  41  61  85 118 153 194 244 296 350
#     4  12  25  38  59  88 115 152 197 240 296 358
#
# _framework density 23.058109999999999
#
# number of rings (size 3 to 8) (size 9 to 14) (size 15 to 20)
#    0.000    1.333    0.000    4.667    0.000   10.667 
#    0.000    6.667    0.000    0.000    0.000    0.000 
#    0.000    0.000    0.000    0.000    0.000    0.000 
#
# Total GULP energy -100274.680186 kJ/mol
# GULP energy per Si atom -5570.815566 kJ/mol
# Density = 2.300563 g / cm^3
# Si number density = 23.058110 Si / 1000 Ang^3
#
#
#
# Elastic Constant Matrix: (Units=GPa)
#
#
# Indices 1 2 3 4 5 6 
#
# 1 72.7081 35.1690 6.9687 0.0000 0.0000 0.0000
# 2 35.1690 73.9562 -9.3845 0.0000 0.0000 0.0000
# 3 6.9687 -9.3845 68.7968 0.0000 0.0000 0.0000
# 4 0.0000 0.0000 0.0000 -2.4458 0.0000 0.0000
# 5 0.0000 0.0000 0.0000 0.0000 35.0122 0.0000
# 6 0.0000 0.0000 0.0000 0.0000 0.0000 43.2687
#
#
#
# Elastic Compliance Matrix: (Units=1/GPa)
#
#
# Indices 1 2 3 4 5 6 
#
# 1 0.018501 -0.009195 -0.003128 0.000000 0.000000 0.000000
# 2 -0.009195 0.018330 0.003432 0.000000 0.000000 0.000000
# 3 -0.003128 0.003432 0.015321 0.000000 0.000000 0.000000
# 4 0.000000 0.000000 0.000000 -0.408862 0.000000 0.000000
# 5 0.000000 0.000000 0.000000 0.000000 0.028561 0.000000
# 6 0.000000 0.000000 0.000000 0.000000 0.000000 0.023111
#
#
# Mechanical properties :
#
#
# Convention : Reuss Voigt Hill
#
# Bulk Modulus (GPa) = 29.09682 31.21863 30.15772
# Shear Modulus (GPa) = -18.12915 27.34755 4.60920
#
# Velocity S-wave (km/s) = -2.80703 3.44761 1.41538
# Velocity P-wave (km/s) = 1.46300 5.42370 3.97221
#
# Compressibility (1/GPa) = 0.03436802
#
# Stress axis : x y z
#
# Youngs Moduli (GPa) = 54.05100 54.55682 65.27184
#
# Poissons Ratio (x) = 0.50165 0.20419
# Poissons Ratio (y) = 0.49699 -0.22399
# Poissons Ratio (z) = 0.16909 -0.18722
#
# Static dielectric constant tensor:
#      x y z
#    x 1.880810 0.000000 0.000000 
#    y 0.000000 1.832890 0.000000 
#    z 0.000000 0.000000 1.792930 
# 
# From -- ./inp_files/1199.got.cif
#   From: 2010.05.17/outbox.cif.g08.bks.cpg/sg39_1_cif.got.tgz:1199.got - 2010.06.03 18:22:40.
