data_PCOD9361512
_publ_section_title
;
Structure prediction by ZEFSAII (Michael W. Deem and Ramdas Pophale) SiO2 
 PCOD9361512
Probable space group: A B M 2
;
_chemical_formula_sum "Si O2"
_cell_formula_units_Z 64
_cell_length_a 16.844290
_cell_length_b 21.233641
_cell_length_c 8.371752
_cell_angle_alpha 90.000000
_cell_angle_beta 90.000000
_cell_angle_gamma 90.000000
_cell_volume 2994.287759
_symmetry_space_group_name_H-M "A B M 2"
_symmetry_group_IT_number 39
_symmetry_cell_setting 'orthorhombic'
loop_
_space_group_symop_operation_xyz
x,y,z
-x,-y,z
-x,1/2+y,z
x,1/2-y,z
x,1/2+y,1/2+z
-x,1/2-y,1/2+z
-x,y,1/2+z
x,-y,1/2+z
loop_
_atom_site_type_symbol
_atom_site_label
_atom_site_fract_x
_atom_site_fract_y
_atom_site_fract_z
Si Si1 0.528913 0.179430 0.142660
Si Si2 0.643840 0.907002 0.471952
Si Si3 0.085245 0.429454 0.391793
Si Si4 0.205805 0.822768 0.901262
Si Si5 0.406737 0.481682 0.159293
Si Si6 0.610088 0.139684 0.470599
Si Si7 0.789532 0.178268 0.513402
Si Si8 0.095248 0.065186 0.009697
O O1 0.552419 0.250000 0.105488
O O2 0.565313 0.160852 0.311465
O O3 0.566733 0.133235 0.014196
O O4 0.434774 0.172697 0.120160
O O5 0.717199 0.860074 0.462295
O O6 0.628610 0.944571 0.309047
O O7 0.645646 0.958107 0.613735
O O8 0.131760 0.367216 0.446947
O O9 0.090511 0.433387 0.200954
O O10 0.121531 0.494913 0.458386
O O11 0.993519 0.426604 0.442360
O O12 0.201625 0.750000 0.954691
O O13 0.209529 0.822309 0.707424
O O14 0.500000 0.500000 0.181171
O O15 0.399986 0.433839 0.009542
O O16 0.700648 0.160608 0.461835
O O17 0.809497 0.250000 0.462603
O O18 0.848699 0.122935 0.457728
#
# Coordination Sequence:
#
# PCOD9361512 Si02
#       8
#     8   8   8   8   8   8   8   8
#     4  12  26  44  66  92 129 177 226 276 336 403
#     4  12  25  43  66  93 131 169 219 282 336 402
#     4  10  21  40  68  98 135 170 217 273 322 408
#     4  10  23  42  66  97 132 176 220 269 339 405
#     4  12  25  42  65  97 127 171 225 282 341 398
#     4  12  25  45  66  97 131 176 227 280 337 399
#     4  10  22  42  67  97 136 177 225 275 333 405
#     4  10  21  41  68 102 132 174 217 267 337 392
#
# _framework density 21.374032
#
# number of rings (size 3 to 8) (size 9 to 14) (size 15 to 20)
#    0.000    1.000    2.500    4.875    1.750    0.500 
#    4.500    0.000    0.000    0.000    0.000    0.000 
#    0.000    0.000    0.000    0.000    0.000    0.000 
#
# Total GULP energy -178971.459892 kJ/mol
# GULP energy per Si atom -5592.858122 kJ/mol
# Density = 2.132538 g / cm^3
# Si number density = 21.374032 Si / 1000 Ang^3
#
#
#
# Elastic Constant Matrix: (Units=GPa)
#
#
# Indices 1 2 3 4 5 6 
#
# 1 101.8996 85.2403 26.9345 0.0000 0.0000 0.0000
# 2 85.2403 206.3041 48.0177 0.0000 0.0000 0.0000
# 3 26.9345 48.0177 49.6631 0.0000 0.0000 0.0000
# 4 0.0000 0.0000 0.0000 10.7042 0.0000 0.0000
# 5 0.0000 0.0000 0.0000 0.0000 18.7430 0.0000
# 6 0.0000 0.0000 0.0000 0.0000 0.0000 49.2810
#
#
#
# Elastic Compliance Matrix: (Units=1/GPa)
#
#
# Indices 1 2 3 4 5 6 
#
# 1 0.015297 -0.005664 -0.002820 0.000000 0.000000 0.000000
# 2 -0.005664 0.008352 -0.005003 0.000000 0.000000 0.000000
# 3 -0.002820 -0.005003 0.026503 0.000000 0.000000 0.000000
# 4 0.000000 0.000000 0.000000 0.093422 0.000000 0.000000
# 5 0.000000 0.000000 0.000000 0.000000 0.053353 0.000000
# 6 0.000000 0.000000 0.000000 0.000000 0.000000 0.020292
#
#
# Mechanical properties :
#
#
# Convention : Reuss Voigt Hill
#
# Bulk Modulus (GPa) = 43.14617 75.36128 59.25372
# Shear Modulus (GPa) = 19.84766 28.92392 24.38579
#
# Velocity S-wave (km/s) = 3.05058 3.68261 3.38140
# Velocity P-wave (km/s) = 5.71298 7.30870 6.55954
#
# Compressibility (1/GPa) = 0.02317703
#
# Stress axis : x y z
#
# Youngs Moduli (GPa) = 65.37234 119.73120 37.73203
#
# Poissons Ratio (x) = 0.67816 0.10640
# Poissons Ratio (y) = 0.37027 0.18879
# Poissons Ratio (z) = 0.18434 0.59907
#
# Static dielectric constant tensor:
#      x y z
#    x 1.752760 0.000000 0.000000 
#    y 0.000000 1.820310 0.000000 
#    z 0.000000 0.000000 1.800710 
# 
# From -- ./inp_files/3863.got.cif
#   From: 2010.05.17/outbox.cif.g08.bks.cpg/sg39_2_cif.got.tgz:3863.got - 2010.06.03 18:22:40.
