data_PCOD9361273
_publ_section_title
;
Structure prediction by ZEFSAII (Michael W. Deem and Ramdas Pophale) SiO2 
 PCOD9361273
Probable space group: A B M 2
;
_chemical_formula_sum "Si O2"
_cell_formula_units_Z 56
_cell_length_a 19.833444
_cell_length_b 8.934105
_cell_length_c 16.044326
_cell_angle_alpha 90.000000
_cell_angle_beta 90.000000
_cell_angle_gamma 90.000000
_cell_volume 2842.959444
_symmetry_space_group_name_H-M "A B M 2"
_symmetry_group_IT_number 39
_symmetry_cell_setting 'orthorhombic'
loop_
_space_group_symop_operation_xyz
x,y,z
-x,-y,z
-x,1/2+y,z
x,1/2-y,z
x,1/2+y,1/2+z
-x,1/2-y,1/2+z
-x,y,1/2+z
x,-y,1/2+z
loop_
_atom_site_type_symbol
_atom_site_label
_atom_site_fract_x
_atom_site_fract_y
_atom_site_fract_z
Si Si1 0.294034 0.571647 0.584330
Si Si2 0.846867 0.071319 0.665528
Si Si3 0.161483 0.429020 0.835965
Si Si4 0.569710 0.577052 0.648327
Si Si5 0.292349 0.071829 0.405877
Si Si6 0.073783 0.069542 0.997434
Si Si7 0.430579 0.077309 0.850057
O O1 0.296679 0.750000 0.569967
O O2 0.232074 0.542056 0.646535
O O3 0.365122 0.511888 0.617397
O O4 0.278248 0.488618 0.498342
O O5 0.854804 0.250000 0.677243
O O6 0.887855 0.026951 0.582702
O O7 0.868029 0.986024 0.748721
O O8 0.167873 0.250000 0.836013
O O9 0.234790 0.502324 0.847715
O O10 0.116531 0.474146 0.915676
O O11 0.500000 0.500000 0.620781
O O12 0.572692 0.750000 0.620677
O O13 0.570123 0.575665 0.749170
O O14 0.290462 0.250000 0.402043
O O15 0.365791 0.011716 0.381141
O O16 0.069377 0.250000 0.996869
O O17 0.000000 0.000000 0.994996
O O18 0.427588 0.250000 0.877659
O O19 0.500000 0.000000 0.877687
#
# Coordination Sequence:
#
# PCOD9361273 Si02
#       7
#     8   8   8   8   8   8   8
#     4  11  22  39  61  85 121 161 203 260 318 370
#     4  10  22  42  66  94 129 168 211 258 314 376
#     4  11  23  42  66  95 130 169 213 261 315 374
#     4  10  21  37  57  84 116 155 204 255 311 375
#     4  12  24  38  60  89 121 160 210 261 315 375
#     4  10  23  44  67  95 133 170 208 256 312 372
#     4  10  21  38  59  84 118 158 204 258 316 375
#
# _framework density 19.697783999999999
#
# number of rings (size 3 to 8) (size 9 to 14) (size 15 to 20)
#    0.000    1.429    1.429    3.857    0.000    8.000 
#    0.000    5.714    0.000    0.000    0.000    0.000 
#    0.000    0.000    0.000    0.000    0.000    0.000 
#
# Total GULP energy -156582.114478 kJ/mol
# GULP energy per Si atom -5592.218374 kJ/mol
# Density = 1.965295 g / cm^3
# Si number density = 19.697784 Si / 1000 Ang^3
#
#
#
# Elastic Constant Matrix: (Units=GPa)
#
#
# Indices 1 2 3 4 5 6 
#
# 1 128.9988 52.2153 57.0163 0.0000 0.0000 0.0000
# 2 52.2153 99.9295 55.1475 0.0000 0.0000 0.0000
# 3 57.0163 55.1475 118.3289 0.0000 0.0000 0.0000
# 4 0.0000 0.0000 0.0000 33.4550 0.0000 0.0000
# 5 0.0000 0.0000 0.0000 0.0000 5.8461 0.0000
# 6 0.0000 0.0000 0.0000 0.0000 0.0000 36.7974
#
#
#
# Elastic Compliance Matrix: (Units=1/GPa)
#
#
# Indices 1 2 3 4 5 6 
#
# 1 0.010791 -0.003728 -0.003462 0.000000 0.000000 0.000000
# 2 -0.003728 0.014760 -0.005083 0.000000 0.000000 0.000000
# 3 -0.003462 -0.005083 0.012488 0.000000 0.000000 0.000000
# 4 0.000000 0.000000 0.000000 0.029891 0.000000 0.000000
# 5 0.000000 0.000000 0.000000 0.000000 0.171055 0.000000
# 6 0.000000 0.000000 0.000000 0.000000 0.000000 0.027176
#
#
# Mechanical properties :
#
#
# Convention : Reuss Voigt Hill
#
# Bulk Modulus (GPa) = 74.10952 75.11283 74.61117
# Shear Modulus (GPa) = 16.93742 27.41157 22.17449
#
# Velocity S-wave (km/s) = 2.93553 3.73447 3.35884
# Velocity P-wave (km/s) = 7.01389 7.53727 7.28029
#
# Compressibility (1/GPa) = 0.01349354
#
# Stress axis : x y z
#
# Youngs Moduli (GPa) = 92.66720 67.75123 80.07642
#
# Poissons Ratio (x) = 0.25257 0.27725
# Poissons Ratio (y) = 0.34546 0.40699
# Poissons Ratio (z) = 0.32084 0.34435
#
# Static dielectric constant tensor:
#      x y z
#    x 1.662260 0.000000 0.000000 
#    y 0.000000 1.658550 0.000000 
#    z 0.000000 0.000000 1.711640 
# 
# From -- ./inp_files/10386.got.cif
#   From: 2010.05.17/outbox.cif.g08.bks.cpg/sg39_6_cif.got.tgz:10386.got - 2010.06.03 18:22:40.
