data_PCOD9361039
_publ_section_title
;
Structure prediction by ZEFSAII (Michael W. Deem and Ramdas Pophale) SiO2 
 PCOD9361039
Probable space group: A B M 2
;
_chemical_formula_sum "Si O2"
_cell_formula_units_Z 40
_cell_length_a 10.015156
_cell_length_b 18.316839
_cell_length_c 9.046310
_cell_angle_alpha 90.000000
_cell_angle_beta 90.000000
_cell_angle_gamma 90.000000
_cell_volume 1659.509384
_symmetry_space_group_name_H-M "A B M 2"
_symmetry_group_IT_number 39
_symmetry_cell_setting 'orthorhombic'
loop_
_space_group_symop_operation_xyz
x,y,z
-x,-y,z
-x,1/2+y,z
x,1/2-y,z
x,1/2+y,1/2+z
-x,1/2-y,1/2+z
-x,y,1/2+z
x,-y,1/2+z
loop_
_atom_site_type_symbol
_atom_site_label
_atom_site_fract_x
_atom_site_fract_y
_atom_site_fract_z
Si Si1 0.508999 0.582537 0.949590
Si Si2 0.660070 0.162355 0.195591
Si Si3 0.120647 0.948128 0.475074
Si Si4 0.752176 0.562146 0.265792
Si Si5 0.098862 0.164133 0.476761
O O1 0.500000 0.500000 0.015175
O O2 0.625039 0.620235 0.848440
O O3 0.394062 0.570698 0.825757
O O4 0.448799 0.637508 0.072118
O O5 0.654988 0.250000 0.217648
O O6 0.803353 0.144317 0.115824
O O7 0.238092 0.944013 0.592540
O O8 0.047178 0.871223 0.470916
O O9 0.172984 0.992378 0.335306
O O10 0.000000 0.000000 0.534205
O O11 0.831181 0.630961 0.331665
O O12 0.091771 0.250000 0.472288
#
# Coordination Sequence:
#
# PCOD9361039 Si02
#       5
#     8   8   8   8   8
#     4  11  24  38  66  94 127 165 217 264 311 383
#     4  10  22  43  64  91 129 171 208 260 326 382
#     4  10  20  38  61  87 120 163 203 263 314 375
#     4  10  23  38  62  88 126 160 210 257 321 368
#     4   9  20  39  62  90 125 163 207 260 317 380
#
# _framework density 24.103508000000001
#
# number of rings (size 3 to 8) (size 9 to 14) (size 15 to 20)
#    0.000    2.000    0.000    3.000   11.200    1.600 
#    0.000    0.000    0.000    0.000    0.000    0.000 
#    0.000    0.000    0.000    0.000    0.000    0.000 
#
# Total GULP energy -111774.154219 kJ/mol
# GULP energy per Si atom -5588.707711 kJ/mol
# Density = 2.404865 g / cm^3
# Si number density = 24.103508 Si / 1000 Ang^3
#
#
#
# Elastic Constant Matrix: (Units=GPa)
#
#
# Indices 1 2 3 4 5 6 
#
# 1 33.7692 19.3018 7.2004 0.0000 0.0000 0.0000
# 2 19.3018 135.5539 39.9130 0.0000 0.0000 0.0000
# 3 7.2004 39.9130 126.7274 0.0000 0.0000 0.0000
# 4 0.0000 0.0000 0.0000 36.5175 0.0000 0.0000
# 5 0.0000 0.0000 0.0000 0.0000 34.4172 0.0000
# 6 0.0000 0.0000 0.0000 0.0000 0.0000 36.7703
#
#
#
# Elastic Compliance Matrix: (Units=1/GPa)
#
#
# Indices 1 2 3 4 5 6 
#
# 1 0.032257 -0.004468 -0.000426 0.000000 0.000000 0.000000
# 2 -0.004468 0.008750 -0.002502 0.000000 0.000000 0.000000
# 3 -0.000426 -0.002502 0.008703 0.000000 0.000000 0.000000
# 4 0.000000 0.000000 0.000000 0.027384 0.000000 0.000000
# 5 0.000000 0.000000 0.000000 0.000000 0.029055 0.000000
# 6 0.000000 0.000000 0.000000 0.000000 0.000000 0.027196
#
#
# Mechanical properties :
#
#
# Convention : Reuss Voigt Hill
#
# Bulk Modulus (GPa) = 28.63728 47.65344 38.14536
# Shear Modulus (GPa) = 31.29371 36.85001 34.07186
#
# Velocity S-wave (km/s) = 3.60711 3.91426 3.76382
# Velocity P-wave (km/s) = 5.40880 6.34364 5.89478
#
# Compressibility (1/GPa) = 0.03491951
#
# Stress axis : x y z
#
# Youngs Moduli (GPa) = 31.00072 114.28546 114.90109
#
# Poissons Ratio (x) = 0.51061 0.04891
# Poissons Ratio (y) = 0.13851 0.28748
# Poissons Ratio (z) = 0.01320 0.28594
#
# Static dielectric constant tensor:
#      x y z
#    x 1.864620 0.000000 0.000000 
#    y 0.000000 1.881250 0.000000 
#    z 0.000000 0.000000 1.946170 
# 
# From -- ./inp_files/2516.got.cif
#   From: 2010.05.17/outbox.cif.g08.bks.cpg/sg39_2_cif.got.tgz:2516.got - 2010.06.03 18:22:40.
