data_PCOD9361881
_publ_section_title
;
Structure prediction by ZEFSAII (Michael W. Deem and Ramdas Pophale) SiO2 
 PCOD9361881
Probable space group: A B M 2
;
_chemical_formula_sum "Si O2"
_cell_formula_units_Z 48
_cell_length_a 7.532241
_cell_length_b 9.685021
_cell_length_c 31.337808
_cell_angle_alpha 90.000000
_cell_angle_beta 90.000000
_cell_angle_gamma 90.000000
_cell_volume 2286.090344
_symmetry_space_group_name_H-M "A B M 2"
_symmetry_group_IT_number 39
_symmetry_cell_setting 'orthorhombic'
loop_
_space_group_symop_operation_xyz
x,y,z
-x,-y,z
-x,1/2+y,z
x,1/2-y,z
x,1/2+y,1/2+z
-x,1/2-y,1/2+z
-x,y,1/2+z
x,-y,1/2+z
loop_
_atom_site_type_symbol
_atom_site_label
_atom_site_fract_x
_atom_site_fract_y
_atom_site_fract_z
Si Si1 0.316992 0.586853 0.865990
Si Si2 0.672554 0.250000 0.025391
Si Si3 0.000000 0.500000 0.130883
Si Si4 0.300509 0.250000 0.998390
Si Si5 0.681140 0.912014 0.692440
Si Si6 0.688198 0.083447 0.289008
Si Si7 0.206139 0.522689 0.959464
Si Si8 0.022100 0.750000 0.571820
O O1 0.500000 0.500000 0.872159
O O2 0.341039 0.750000 0.855296
O O3 0.222110 0.500388 0.827929
O O4 0.224773 0.578611 0.911819
O O5 0.809593 0.250000 0.064016
O O6 0.462649 0.250000 0.031688
O O7 0.718240 0.378509 0.995471
O O8 0.163275 0.550352 0.159814
O O9 0.069362 0.381626 0.099593
O O10 0.305478 0.379525 0.967089
O O11 0.122668 0.250000 0.026733
O O12 0.635757 0.750000 0.688663
O O13 0.755851 0.932770 0.740764
O O14 0.500000 0.000000 0.686826
O O15 0.674759 0.250000 0.297250
O O16 0.500000 0.000000 0.286828
O O17 0.000000 0.500000 0.968074
#
# Coordination Sequence:
#
# PCOD9361881 Si02
#       8
#     8   4   4   4   8   8   8   4
#     4  11  22  37  61  98 134 176 228 270 320 388
#     4  12  24  48  68  99 129 172 223 269 336 404
#     4  12  26  46  72 100 140 178 216 282 348 410
#     4  12  26  44  76  95 127 180 221 275 334 396
#     4  10  23  44  72 104 137 180 228 274 339 410
#     4   9  18  36  62  95 136 176 222 275 321 383
#     4  12  24  43  65  95 138 176 219 277 328 388
#     4  12  26  46  72 100 136 168 222 286 344 406
#
# _framework density 20.996544
#
# number of rings (size 3 to 8) (size 9 to 14) (size 15 to 20)
#    0.000    1.000    3.333    4.500    3.500    2.000 
#    1.500    0.000    0.000    0.000    0.000    0.000 
#    0.000    0.000    0.000    0.000    0.000    0.000 
#
# Total GULP energy -133952.339423 kJ/mol
# GULP energy per Si atom -5581.347476 kJ/mol
# Density = 2.094875 g / cm^3
# Si number density = 20.996544 Si / 1000 Ang^3
#
#
#
# Elastic Constant Matrix: (Units=GPa)
#
#
# Indices 1 2 3 4 5 6 
#
# 1 68.0069 8.1770 0.9533 0.0000 0.0000 0.0000
# 2 8.1770 164.3239 40.3499 0.0000 0.0000 0.0000
# 3 0.9533 40.3499 96.0906 0.0000 0.0000 0.0000
# 4 0.0000 0.0000 0.0000 38.8736 0.0000 0.0000
# 5 0.0000 0.0000 0.0000 0.0000 25.4394 0.0000
# 6 0.0000 0.0000 0.0000 0.0000 0.0000 4.2571
#
#
#
# Elastic Compliance Matrix: (Units=1/GPa)
#
#
# Indices 1 2 3 4 5 6 
#
# 1 0.014796 -0.000781 0.000181 0.000000 0.000000 0.000000
# 2 -0.000781 0.006826 -0.002859 0.000000 0.000000 0.000000
# 3 0.000181 -0.002859 0.011605 0.000000 0.000000 0.000000
# 4 0.000000 0.000000 0.000000 0.025724 0.000000 0.000000
# 5 0.000000 0.000000 0.000000 0.000000 0.039309 0.000000
# 6 0.000000 0.000000 0.000000 0.000000 0.000000 0.234901
#
#
# Mechanical properties :
#
#
# Convention : Reuss Voigt Hill
#
# Bulk Modulus (GPa) = 38.00728 47.48685 42.74706
# Shear Modulus (GPa) = 14.33284 32.31012 23.32148
#
# Velocity S-wave (km/s) = 2.61555 3.92705 3.33638
# Velocity P-wave (km/s) = 5.22135 6.57479 5.93676
#
# Compressibility (1/GPa) = 0.02631075
#
# Stress axis : x y z
#
# Youngs Moduli (GPa) = 67.58708 146.49098 86.16624
#
# Poissons Ratio (x) = 0.11437 -0.01560
# Poissons Ratio (y) = 0.05277 0.24633
# Poissons Ratio (z) = -0.01224 0.41878
#
# Static dielectric constant tensor:
#      x y z
#    x 1.758910 0.000000 0.000000 
#    y 0.000000 1.730510 0.000000 
#    z 0.000000 0.000000 1.758200 
# 
# From -- ./inp_files/17711.got.cif
#   From: 2010.05.17/outbox.cif.g08.bks.cpg/sg39_9_cif.got.tgz:17711.got - 2010.06.03 18:22:40.
