data_PCOD9361087
_publ_section_title
;
Structure prediction by ZEFSAII (Michael W. Deem and Ramdas Pophale) SiO2 
 PCOD9361087
Probable space group: A B M 2
;
_chemical_formula_sum "Si O2"
_cell_formula_units_Z 36
_cell_length_a 6.402531
_cell_length_b 20.742539
_cell_length_c 10.960327
_cell_angle_alpha 90.000000
_cell_angle_beta 90.000000
_cell_angle_gamma 90.000000
_cell_volume 1455.583476
_symmetry_space_group_name_H-M "A B M 2"
_symmetry_group_IT_number 39
_symmetry_cell_setting 'orthorhombic'
loop_
_space_group_symop_operation_xyz
x,y,z
-x,-y,z
-x,1/2+y,z
x,1/2-y,z
x,1/2+y,1/2+z
-x,1/2-y,1/2+z
-x,y,1/2+z
x,-y,1/2+z
loop_
_atom_site_type_symbol
_atom_site_label
_atom_site_fract_x
_atom_site_fract_y
_atom_site_fract_z
Si Si1 0.390835 0.750000 0.411400
Si Si2 0.832784 0.750000 0.315517
Si Si3 0.126667 0.433276 0.158021
Si Si4 0.472415 0.134213 0.574847
Si Si5 0.889489 0.112676 0.927633
Si Si6 0.808064 0.750000 0.679883
O O1 0.576509 0.750000 0.308736
O O2 0.409333 0.813449 0.491726
O O3 0.191166 0.750000 0.327178
O O4 0.859430 0.686987 0.396759
O O5 0.937719 0.750000 0.179943
O O6 0.373349 0.410973 0.153761
O O7 0.000000 0.500000 0.139955
O O8 0.058315 0.415654 0.295633
O O9 0.050498 0.397680 0.035597
O O10 0.331701 0.090220 0.485377
O O11 0.304655 0.183318 0.641184
#
# Coordination Sequence:
#
# PCOD9361087 Si02
#       6
#     4   4   8   8   8   4
#     4   9  19  35  60 100 147 187 226 292 373 450
#     4  10  20  38  69 109 148 183 229 294 374 452
#     4  12  27  48  71 100 144 199 257 307 361 438
#     4  10  22  39  65 103 144 193 245 300 372 450
#     4  11  25  45  73 108 146 192 242 305 380 451
#     4  11  19  35  65 105 151 190 227 292 377 460
#
# _framework density 24.732348999999999
#
# number of rings (size 3 to 8) (size 9 to 14) (size 15 to 20)
#    0.000    1.333    0.000    6.667    0.000    5.333 
#    0.000    4.444    0.000    0.000    0.000    0.000 
#    0.000    0.000    0.000    0.000    0.000    0.000 
#
# Total GULP energy -100242.514892 kJ/mol
# GULP energy per Si atom -5569.028605 kJ/mol
# Density = 2.467606 g / cm^3
# Si number density = 24.732349 Si / 1000 Ang^3
#
#
#
# Elastic Constant Matrix: (Units=GPa)
#
#
# Indices 1 2 3 4 5 6 
#
# 1 82.9399 52.5459 53.2506 0.0000 0.0000 0.0000
# 2 52.5459 80.5292 13.0845 0.0000 0.0000 0.0000
# 3 53.2506 13.0845 118.3807 0.0000 0.0000 0.0000
# 4 0.0000 0.0000 0.0000 -251.4474 0.0000 0.0000
# 5 0.0000 0.0000 0.0000 0.0000 61.2737 0.0000
# 6 0.0000 0.0000 0.0000 0.0000 0.0000 24.5169
#
#
#
# Elastic Compliance Matrix: (Units=1/GPa)
#
#
# Indices 1 2 3 4 5 6 
#
# 1 0.031790 -0.018757 -0.012227 0.000000 0.000000 0.000000
# 2 -0.018757 0.023712 0.005816 0.000000 0.000000 0.000000
# 3 -0.012227 0.005816 0.013304 0.000000 0.000000 0.000000
# 4 0.000000 0.000000 0.000000 -0.003977 0.000000 0.000000
# 5 0.000000 0.000000 0.000000 0.000000 0.016320 0.000000
# 6 0.000000 0.000000 0.000000 0.000000 0.000000 0.040788
#
#
# Mechanical properties :
#
#
# Convention : Reuss Voigt Hill
#
# Bulk Modulus (GPa) = 54.13613 57.73462 55.93537
# Shear Modulus (GPa) = 28.02235 -22.26676 2.87779
#
# Velocity S-wave (km/s) = 3.36969 -3.00377 1.07986
# Velocity P-wave (km/s) = 6.08901 3.37109 4.92140
#
# Compressibility (1/GPa) = 0.01847195
#
# Stress axis : x y z
#
# Youngs Moduli (GPa) = 31.45634 42.17338 75.16327
#
# Poissons Ratio (x) = 0.79103 0.91901
# Poissons Ratio (y) = 0.59001 -0.43718
# Poissons Ratio (z) = 0.38461 -0.24530
#
# Static dielectric constant tensor:
#      x y z
#    x 2.186770 0.000000 0.000000 
#    y 0.000000 2.890530 0.000000 
#    z 0.000000 0.000000 2.021120 
# 
# From -- ./inp_files/5032.got.cif
#   From: 2010.05.17/outbox.cif.g08.bks.cpg/sg39_3_cif.got.tgz:5032.got - 2010.06.03 18:22:40.
