data_PCOD9361545
_publ_section_title
;
Structure prediction by ZEFSAII (Michael W. Deem and Ramdas Pophale) SiO2 
 PCOD9361545
Probable space group: A B M 2
;
_chemical_formula_sum "Si O2"
_cell_formula_units_Z 56
_cell_length_a 21.193941
_cell_length_b 13.352833
_cell_length_c 7.045099
_cell_angle_alpha 90.000000
_cell_angle_beta 90.000000
_cell_angle_gamma 90.000000
_cell_volume 1993.757062
_symmetry_space_group_name_H-M "A B M 2"
_symmetry_group_IT_number 39
_symmetry_cell_setting 'orthorhombic'
loop_
_space_group_symop_operation_xyz
x,y,z
-x,-y,z
-x,1/2+y,z
x,1/2-y,z
x,1/2+y,1/2+z
-x,1/2-y,1/2+z
-x,y,1/2+z
x,-y,1/2+z
loop_
_atom_site_type_symbol
_atom_site_label
_atom_site_fract_x
_atom_site_fract_y
_atom_site_fract_z
Si Si1 0.938223 0.637618 0.119600
Si Si2 0.310517 0.250000 0.591222
Si Si3 0.345504 0.075578 0.768362
Si Si4 0.544042 0.589829 0.048175
Si Si5 0.453319 0.250000 0.336808
Si Si6 0.744728 0.084521 0.568626
Si Si7 0.800845 0.112070 0.939177
Si Si8 0.082421 0.909811 0.194131
O O1 0.926619 0.750000 0.198026
O O2 0.915298 0.532056 0.211684
O O3 0.014060 0.620942 0.113872
O O4 0.913740 0.633602 0.904467
O O5 0.363847 0.161208 0.619550
O O6 0.257792 0.335527 0.540699
O O7 0.403252 0.049452 0.902491
O O8 0.296273 0.137339 0.907139
O O9 0.306763 0.981574 0.687195
O O10 0.500000 0.500000 0.119244
O O11 0.577740 0.660751 0.202444
O O12 0.497693 0.664603 0.939533
O O13 0.788929 0.006584 0.457721
O O14 0.789051 0.138794 0.719444
O O15 0.863585 0.130702 0.056384
#
# Coordination Sequence:
#
# PCOD9361545 Si02
#       8
#     8   4   8   8   4   8   8   8
#     4  11  24  41  65  99 135 185 229 280 368 419
#     4  10  22  40  65  96 134 176 228 288 347 408
#     4  10  22  42  64  94 131 173 224 283 341 426
#     4  11  24  43  68  96 139 177 226 277 353 407
#     4  10  24  42  59 104 130 168 232 280 311 434
#     4   9  21  41  65  94 126 172 229 269 348 415
#     4  10  21  41  68  96 133 177 227 291 342 409
#     4  11  23  42  68  98 141 177 237 294 339 438
#
# _framework density 28.087672999999999
#
# number of rings (size 3 to 8) (size 9 to 14) (size 15 to 20)
#    0.000    1.714    0.000    4.286    6.000    0.571 
#    2.571    0.714    4.714    0.000    0.000    0.000 
#    0.000    0.000    0.000    0.000    0.000    0.000 
#
# Total GULP energy -155875.335098 kJ/mol
# GULP energy per Si atom -5566.976253 kJ/mol
# Density = 2.802374 g / cm^3
# Si number density = 28.087673 Si / 1000 Ang^3
#
#
#
# Elastic Constant Matrix: (Units=GPa)
#
#
# Indices 1 2 3 4 5 6 
#
# 1 98.7842 19.1949 19.1842 0.0000 0.0000 0.0000
# 2 19.1949 191.5291 18.3113 0.0000 0.0000 0.0000
# 3 19.1842 18.3113 86.1499 0.0000 0.0000 0.0000
# 4 0.0000 0.0000 0.0000 -25.0928 0.0000 0.0000
# 5 0.0000 0.0000 0.0000 0.0000 56.7821 0.0000
# 6 0.0000 0.0000 0.0000 0.0000 0.0000 2.5430
#
#
#
# Elastic Compliance Matrix: (Units=1/GPa)
#
#
# Indices 1 2 3 4 5 6 
#
# 1 0.010719 -0.000864 -0.002203 0.000000 0.000000 0.000000
# 2 -0.000864 0.005399 -0.000955 0.000000 0.000000 0.000000
# 3 -0.002203 -0.000955 0.012301 0.000000 0.000000 0.000000
# 4 0.000000 0.000000 0.000000 -0.039852 0.000000 0.000000
# 5 0.000000 0.000000 0.000000 0.000000 0.017611 0.000000
# 6 0.000000 0.000000 0.000000 0.000000 0.000000 0.393231
#
#
# Mechanical properties :
#
#
# Convention : Reuss Voigt Hill
#
# Bulk Modulus (GPa) = 49.08025 54.42710 51.75367
# Shear Modulus (GPa) = 12.07014 28.16465 20.11739
#
# Velocity S-wave (km/s) = 2.07524 3.17004 2.67916
# Velocity P-wave (km/s) = 4.82225 5.72875 5.29493
#
# Compressibility (1/GPa) = 0.02037480
#
# Stress axis : x y z
#
# Youngs Moduli (GPa) = 93.29429 185.21903 81.29176
#
# Poissons Ratio (x) = 0.15995 0.17911
# Poissons Ratio (y) = 0.08057 0.07766
# Poissons Ratio (z) = 0.20556 0.17693
#
# Static dielectric constant tensor:
#      x y z
#    x 2.299670 0.000000 0.000000 
#    y 0.000000 2.112590 0.000000 
#    z 0.000000 0.000000 2.472140 
# 
# From -- ./inp_files/3985.got.cif
#   From: 2010.05.17/outbox.cif.g08.bks.cpg/sg39_2_cif.got.tgz:3985.got - 2010.06.03 18:22:40.
