data_PCOD9361424
_publ_section_title
;
Structure prediction by ZEFSAII (Michael W. Deem and Ramdas Pophale) SiO2 
 PCOD9361424
Probable space group: A B M 2
;
_chemical_formula_sum "Si O2"
_cell_formula_units_Z 56
_cell_length_a 9.214338
_cell_length_b 21.120948
_cell_length_c 15.611799
_cell_angle_alpha 90.000000
_cell_angle_beta 90.000000
_cell_angle_gamma 90.000000
_cell_volume 3038.298907
_symmetry_space_group_name_H-M "A B M 2"
_symmetry_group_IT_number 39
_symmetry_cell_setting 'orthorhombic'
loop_
_space_group_symop_operation_xyz
x,y,z
-x,-y,z
-x,1/2+y,z
x,1/2-y,z
x,1/2+y,1/2+z
-x,1/2-y,1/2+z
-x,y,1/2+z
x,-y,1/2+z
loop_
_atom_site_type_symbol
_atom_site_label
_atom_site_fract_x
_atom_site_fract_y
_atom_site_fract_z
Si Si1 0.657121 0.617034 0.312290
Si Si2 0.832604 0.625774 0.472717
Si Si3 0.347627 0.322986 0.806260
Si Si4 0.330789 0.506371 0.929284
Si Si5 0.144897 0.675413 0.157486
Si Si6 0.811920 0.826684 0.150423
Si Si7 0.178227 0.127043 0.958861
O O1 0.752101 0.650487 0.387488
O O2 0.491176 0.636918 0.323453
O O3 0.674007 0.542734 0.337016
O O4 0.712686 0.639459 0.220660
O O5 0.758092 0.557173 0.486052
O O6 0.811433 0.664335 0.559432
O O7 0.004080 0.621893 0.455583
O O8 0.390642 0.250000 0.790025
O O9 0.259578 0.350456 0.725288
O O10 0.240566 0.326371 0.887052
O O11 0.500000 0.500000 0.952969
O O12 0.250888 0.440114 0.936879
O O13 0.140257 0.750000 0.174343
O O14 0.979200 0.653298 0.168660
O O15 0.800137 0.750000 0.155716
O O16 0.780318 0.848879 0.053616
#
# Coordination Sequence:
#
# PCOD9361424 Si02
#       7
#     8   8   8   8   8   8   8
#     4  10  22  38  58  88 123 161 199 241 300 361
#     4   9  21  38  63  88 116 162 196 254 300 351
#     4  11  22  36  59  89 123 160 197 249 301 360
#     4  10  21  41  58  85 121 158 200 245 294 358
#     4   9  20  38  60  90 122 154 200 250 305 360
#     4  10  21  39  62  92 123 156 202 255 304 359
#     4  11  20  40  64  87 121 152 210 248 300 359
#
# _framework density 18.431365
#
# number of rings (size 3 to 8) (size 9 to 14) (size 15 to 20)
#    0.857    1.143    1.429    2.143    0.000    4.000 
#    2.571    2.143    3.143    0.000    0.000    0.000 
#    0.000    0.000    0.000    0.000    0.000    0.000 
#
# Total GULP energy -155965.976868 kJ/mol
# GULP energy per Si atom -5570.213460 kJ/mol
# Density = 1.838941 g / cm^3
# Si number density = 18.431365 Si / 1000 Ang^3
#
#
#
# Elastic Constant Matrix: (Units=GPa)
#
#
# Indices 1 2 3 4 5 6 
#
# 1 105.9410 18.4507 69.9404 0.0000 0.0000 0.0000
# 2 18.4507 43.3862 11.0614 0.0000 0.0000 0.0000
# 3 69.9404 11.0614 106.0321 0.0000 0.0000 0.0000
# 4 0.0000 0.0000 0.0000 26.0628 0.0000 0.0000
# 5 0.0000 0.0000 0.0000 0.0000 9.4450 0.0000
# 6 0.0000 0.0000 0.0000 0.0000 0.0000 21.6488
#
#
#
# Elastic Compliance Matrix: (Units=1/GPa)
#
#
# Indices 1 2 3 4 5 6 
#
# 1 0.017587 -0.004645 -0.011116 0.000000 0.000000 0.000000
# 2 -0.004645 0.024905 0.000466 0.000000 0.000000 0.000000
# 3 -0.011116 0.000466 0.016715 0.000000 0.000000 0.000000
# 4 0.000000 0.000000 0.000000 0.038369 0.000000 0.000000
# 5 0.000000 0.000000 0.000000 0.000000 0.105876 0.000000
# 6 0.000000 0.000000 0.000000 0.000000 0.000000 0.046192
#
#
# Mechanical properties :
#
#
# Convention : Reuss Voigt Hill
#
# Bulk Modulus (GPa) = 34.94478 50.47382 42.70930
# Shear Modulus (GPa) = 17.25487 21.82508 19.53998
#
# Velocity S-wave (km/s) = 3.06301 3.44485 3.25952
# Velocity P-wave (km/s) = 5.61337 6.57775 6.11460
#
# Compressibility (1/GPa) = 0.02861658
#
# Stress axis : x y z
#
# Youngs Moduli (GPa) = 56.86103 40.15184 59.82739
#
# Poissons Ratio (x) = 0.18651 0.66504
# Poissons Ratio (y) = 0.26412 -0.02787
# Poissons Ratio (z) = 0.63206 -0.01870
#
# Static dielectric constant tensor:
#      x y z
#    x 1.630330 0.000000 0.000000 
#    y 0.000000 1.649780 0.000000 
#    z 0.000000 0.000000 1.629190 
# 
# From -- ./inp_files/8614.got.cif
#   From: 2010.05.17/outbox.cif.g08.bks.cpg/sg39_5_cif.got.tgz:8614.got - 2010.06.03 18:22:40.
