data_PCOD9361572
_publ_section_title
;
Structure prediction by ZEFSAII (Michael W. Deem and Ramdas Pophale) SiO2 
 PCOD9361572
Probable space group: A B M 2
;
_chemical_formula_sum "Si O2"
_cell_formula_units_Z 40
_cell_length_a 12.292762
_cell_length_b 15.216400
_cell_length_c 9.310397
_cell_angle_alpha 90.000000
_cell_angle_beta 90.000000
_cell_angle_gamma 90.000000
_cell_volume 1741.524504
_symmetry_space_group_name_H-M "A B M 2"
_symmetry_group_IT_number 39
_symmetry_cell_setting 'orthorhombic'
loop_
_space_group_symop_operation_xyz
x,y,z
-x,-y,z
-x,1/2+y,z
x,1/2-y,z
x,1/2+y,1/2+z
-x,1/2-y,1/2+z
-x,y,1/2+z
x,-y,1/2+z
loop_
_atom_site_type_symbol
_atom_site_label
_atom_site_fract_x
_atom_site_fract_y
_atom_site_fract_z
Si Si1 0.415634 0.076486 0.751130
Si Si2 0.565446 0.347295 0.965204
Si Si3 0.246230 0.532511 0.038890
Si Si4 0.850907 0.346536 0.473042
Si Si5 0.960325 0.401629 0.177010
O O1 0.439705 0.153080 0.636800
O O2 0.299395 0.042166 0.698069
O O3 0.500000 0.000000 0.713900
O O4 0.454932 0.112615 0.902354
O O5 0.587683 0.250000 0.910229
O O6 0.665116 0.416122 0.941769
O O7 0.223412 0.432335 0.998382
O O8 0.132822 0.583430 0.055808
O O9 0.797566 0.250000 0.475578
O O10 0.910790 0.357783 0.318910
O O11 0.940694 0.352969 0.599528
O O12 0.000000 0.500000 0.217551
#
# Coordination Sequence:
#
# PCOD9361572 Si02
#       5
#     8   8   8   8   8
#     4  10  22  41  66  92 138 177 223 282 341 401
#     4  10  22  41  67  97 131 178 234 282 336 402
#     4   9  24  40  70  96 139 183 222 275 352 412
#     4  11  23  43  71 104 137 177 231 284 346 419
#     4  10  21  43  70  99 138 181 224 286 351 414
#
# _framework density 22.968381000000001
#
# number of rings (size 3 to 8) (size 9 to 14) (size 15 to 20)
#    1.200    0.800    0.000    3.600    2.800    1.600 
#    0.000    4.000    0.000    1.200    0.000    0.000 
#    0.000    0.000    0.000    0.000    0.000    0.000 
#
# Total GULP energy -111512.266110 kJ/mol
# GULP energy per Si atom -5575.613306 kJ/mol
# Density = 2.291610 g / cm^3
# Si number density = 22.968381 Si / 1000 Ang^3
#
#
#
# Elastic Constant Matrix: (Units=GPa)
#
#
# Indices 1 2 3 4 5 6 
#
# 1 92.5577 46.0480 16.6062 0.0000 0.0000 0.0000
# 2 46.0480 161.1989 30.8270 0.0000 0.0000 0.0000
# 3 16.6062 30.8270 81.7066 0.0000 0.0000 0.0000
# 4 0.0000 0.0000 0.0000 11.2042 0.0000 0.0000
# 5 0.0000 0.0000 0.0000 0.0000 32.4326 0.0000
# 6 0.0000 0.0000 0.0000 0.0000 0.0000 18.6146
#
#
#
# Elastic Compliance Matrix: (Units=1/GPa)
#
#
# Indices 1 2 3 4 5 6 
#
# 1 0.012722 -0.003384 -0.001309 0.000000 0.000000 0.000000
# 2 -0.003384 0.007586 -0.002174 0.000000 0.000000 0.000000
# 3 -0.001309 -0.002174 0.013325 0.000000 0.000000 0.000000
# 4 0.000000 0.000000 0.000000 0.089252 0.000000 0.000000
# 5 0.000000 0.000000 0.000000 0.000000 0.030833 0.000000
# 6 0.000000 0.000000 0.000000 0.000000 0.000000 0.053721
#
#
# Mechanical properties :
#
#
# Convention : Reuss Voigt Hill
#
# Bulk Modulus (GPa) = 50.25341 58.04728 54.15034
# Shear Modulus (GPa) = 21.94830 28.58240 25.26535
#
# Velocity S-wave (km/s) = 3.09461 3.53147 3.32023
# Velocity P-wave (km/s) = 5.89031 6.47734 6.19078
#
# Compressibility (1/GPa) = 0.01989915
#
# Stress axis : x y z
#
# Youngs Moduli (GPa) = 78.60112 131.82186 75.04511
#
# Poissons Ratio (x) = 0.44608 0.09823
# Poissons Ratio (y) = 0.26598 0.16317
# Poissons Ratio (z) = 0.10289 0.28663
#
# Static dielectric constant tensor:
#      x y z
#    x 1.883560 0.000000 0.000000 
#    y 0.000000 1.865890 0.000000 
#    z 0.000000 0.000000 1.899030 
# 
# From -- ./inp_files/3078.got.cif
#   From: 2010.05.17/outbox.cif.g08.bks.cpg/sg39_2_cif.got.tgz:3078.got - 2010.06.03 18:22:40.
