data_PCOD9361100
_publ_section_title
;
Structure prediction by ZEFSAII (Michael W. Deem and Ramdas Pophale) SiO2 
 PCOD9361100
Probable space group: A B M 2
;
_chemical_formula_sum "Si O2"
_cell_formula_units_Z 64
_cell_length_a 12.283039
_cell_length_b 19.100852
_cell_length_c 13.941866
_cell_angle_alpha 90.000000
_cell_angle_beta 90.000000
_cell_angle_gamma 90.000000
_cell_volume 3270.991944
_symmetry_space_group_name_H-M "A B M 2"
_symmetry_group_IT_number 39
_symmetry_cell_setting 'orthorhombic'
loop_
_space_group_symop_operation_xyz
x,y,z
-x,-y,z
-x,1/2+y,z
x,1/2-y,z
x,1/2+y,1/2+z
-x,1/2-y,1/2+z
-x,y,1/2+z
x,-y,1/2+z
loop_
_atom_site_type_symbol
_atom_site_label
_atom_site_fract_x
_atom_site_fract_y
_atom_site_fract_z
Si Si1 0.439760 0.567812 0.074550
Si Si2 0.281795 0.020318 0.746794
Si Si3 0.493235 0.171870 0.717231
Si Si4 0.949780 0.170306 0.074998
Si Si5 0.872885 0.169209 0.858162
Si Si6 0.923703 0.933296 0.195752
Si Si7 0.767600 0.327721 0.239723
Si Si8 0.360661 0.102672 0.371707
O O1 0.500000 0.500000 0.035390
O O2 0.364114 0.540594 0.161566
O O3 0.518864 0.623435 0.125991
O O4 0.379125 0.601921 0.985209
O O5 0.195129 0.967356 0.699574
O O6 0.338170 0.975208 0.830327
O O7 0.227943 0.093442 0.784211
O O8 0.538073 0.250000 0.709613
O O9 0.361707 0.177534 0.718460
O O10 0.539236 0.135012 0.812195
O O11 0.991539 0.250000 0.082733
O O12 0.845602 0.165707 0.146679
O O13 0.038834 0.113879 0.106869
O O14 0.910373 0.158444 0.967099
O O15 0.890210 0.250000 0.832214
O O16 0.935252 0.118073 0.786463
O O17 0.746078 0.148919 0.850890
O O18 0.000000 0.000000 0.202700
O O19 0.796011 0.250000 0.283601
#
# Coordination Sequence:
#
# PCOD9361100 Si02
#       8
#     8   8   8   8   8   8   8   8
#     4  11  23  38  63  89 118 162 200 246 303 363
#     4  10  21  40  57  89 121 155 201 250 307 356
#     4  10  21  38  60  88 120 155 198 248 299 353
#     4  10  20  39  64  88 117 158 202 248 299 360
#     4  10  22  40  61  89 118 154 201 245 295 358
#     4  11  22  37  60  90 120 155 194 251 303 357
#     4   9  18  33  57  83 113 152 196 240 288 346
#     4  11  23  37  63  90 122 158 203 250 301 363
#
# _framework density 19.565930000000002
#
# number of rings (size 3 to 8) (size 9 to 14) (size 15 to 20)
#    0.000    1.750    2.500    2.250    3.500    2.500 
#    2.250    0.000    0.000    0.000    0.000    0.000 
#    0.000    0.000    0.000    0.000    0.000    0.000 
#
# Total GULP energy -178341.123031 kJ/mol
# GULP energy per Si atom -5573.160095 kJ/mol
# Density = 1.952140 g / cm^3
# Si number density = 19.565930 Si / 1000 Ang^3
#
#
#
# Elastic Constant Matrix: (Units=GPa)
#
#
# Indices 1 2 3 4 5 6 
#
# 1 18.8862 13.5748 -1.9247 0.0000 0.0000 0.0000
# 2 13.5748 149.9790 29.8189 0.0000 0.0000 0.0000
# 3 -1.9247 29.8189 51.2756 0.0000 0.0000 0.0000
# 4 0.0000 0.0000 0.0000 13.0335 0.0000 0.0000
# 5 0.0000 0.0000 0.0000 0.0000 22.2163 0.0000
# 6 0.0000 0.0000 0.0000 0.0000 0.0000 -17.4564
#
#
#
# Elastic Compliance Matrix: (Units=1/GPa)
#
#
# Indices 1 2 3 4 5 6 
#
# 1 0.058187 -0.006446 0.005933 0.000000 0.000000 0.000000
# 2 -0.006446 0.008253 -0.005042 0.000000 0.000000 0.000000
# 3 0.005933 -0.005042 0.022657 0.000000 0.000000 0.000000
# 4 0.000000 0.000000 0.000000 0.076725 0.000000 0.000000
# 5 0.000000 0.000000 0.000000 0.000000 0.045012 0.000000
# 6 0.000000 0.000000 0.000000 0.000000 0.000000 -0.057285
#
#
# Mechanical properties :
#
#
# Convention : Reuss Voigt Hill
#
# Bulk Modulus (GPa) = 12.82260 33.67541 23.24901
# Shear Modulus (GPa) = 26.22540 15.47013 20.84776
#
# Velocity S-wave (km/s) = 3.66507 2.81493 3.26776
# Velocity P-wave (km/s) = 4.94753 5.27387 5.11330
#
# Compressibility (1/GPa) = 0.07798730
#
# Stress axis : x y z
#
# Youngs Moduli (GPa) = 17.18605 121.16167 44.13627
#
# Poissons Ratio (x) = 0.78102 -0.26185
# Poissons Ratio (y) = 0.11078 0.22252
# Poissons Ratio (z) = -0.10196 0.61086
#
# Static dielectric constant tensor:
#      x y z
#    x 1.725800 0.000000 0.000000 
#    y 0.000000 1.751450 0.000000 
#    z 0.000000 0.000000 1.639440 
# 
# From -- ./inp_files/6640.got.cif
#   From: 2010.05.17/outbox.cif.g08.bks.cpg/sg39_4_cif.got.tgz:6640.got - 2010.06.03 18:22:40.
