data_PCOD9361960
_publ_section_title
;
Structure prediction by ZEFSAII (Michael W. Deem and Ramdas Pophale) SiO2 
 PCOD9361960
Probable space group: A B M 2
;
_chemical_formula_sum "Si O2"
_cell_formula_units_Z 32
_cell_length_a 16.335772
_cell_length_b 8.318784
_cell_length_c 9.807955
_cell_angle_alpha 90.000000
_cell_angle_beta 90.000000
_cell_angle_gamma 90.000000
_cell_volume 1332.839871
_symmetry_space_group_name_H-M "A B M 2"
_symmetry_group_IT_number 39
_symmetry_cell_setting 'orthorhombic'
loop_
_space_group_symop_operation_xyz
x,y,z
-x,-y,z
-x,1/2+y,z
x,1/2-y,z
x,1/2+y,1/2+z
-x,1/2-y,1/2+z
-x,y,1/2+z
x,-y,1/2+z
loop_
_atom_site_type_symbol
_atom_site_label
_atom_site_fract_x
_atom_site_fract_y
_atom_site_fract_z
Si Si1 0.909160 0.561101 0.748380
Si Si2 0.475790 0.250000 0.485453
Si Si3 0.663172 0.424849 0.842719
Si Si4 0.191559 0.063424 0.007597
Si Si5 0.602687 0.750000 0.762812
O O1 0.905076 0.750000 0.718690
O O2 0.840947 0.475473 0.656643
O O3 0.000000 0.500000 0.720460
O O4 0.884561 0.534955 0.905111
O O5 0.420896 0.103574 0.426546
O O6 0.468276 0.250000 0.648087
O O7 0.562246 0.250000 0.412479
O O8 0.676508 0.250000 0.773194
O O9 0.652776 0.584163 0.752300
O O10 0.735043 0.457144 0.949930
O O11 0.214951 0.250000 0.993942
#
# Coordination Sequence:
#
# PCOD9361960 Si02
#       5
#     8   4   8   8   4
#     4  11  25  43  68 101 140 180 235 289 348 421
#     4  10  28  46  76 104 141 187 238 286 357 429
#     4  10  25  44  70 107 137 189 232 292 349 417
#     4  11  24  44  70 100 141 186 233 290 347 415
#     4  12  24  54  70 104 147 181 236 296 351 427
#
# _framework density 24.008886
#
# number of rings (size 3 to 8) (size 9 to 14) (size 15 to 20)
#    0.750    0.500    1.250    3.000    3.500   10.000 
#    2.250    0.000    0.000    0.000    0.000    0.000 
#    0.000    0.000    0.000    0.000    0.000    0.000 
#
# Total GULP energy -89520.676296 kJ/mol
# GULP energy per Si atom -5595.042269 kJ/mol
# Density = 2.395424 g / cm^3
# Si number density = 24.008886 Si / 1000 Ang^3
#
#
#
# Elastic Constant Matrix: (Units=GPa)
#
#
# Indices 1 2 3 4 5 6 
#
# 1 86.7249 27.3861 -1.2611 0.0000 0.0000 0.0000
# 2 27.3861 152.3340 21.9526 0.0000 0.0000 0.0000
# 3 -1.2611 21.9526 86.4171 0.0000 0.0000 0.0000
# 4 0.0000 0.0000 0.0000 7.8680 0.0000 0.0000
# 5 0.0000 0.0000 0.0000 0.0000 38.2005 0.0000
# 6 0.0000 0.0000 0.0000 0.0000 0.0000 41.1441
#
#
#
# Elastic Compliance Matrix: (Units=1/GPa)
#
#
# Indices 1 2 3 4 5 6 
#
# 1 0.012274 -0.002317 0.000768 0.000000 0.000000 0.000000
# 2 -0.002317 0.007251 -0.001876 0.000000 0.000000 0.000000
# 3 0.000768 -0.001876 0.012060 0.000000 0.000000 0.000000
# 4 0.000000 0.000000 0.000000 0.127097 0.000000 0.000000
# 5 0.000000 0.000000 0.000000 0.000000 0.026178 0.000000
# 6 0.000000 0.000000 0.000000 0.000000 0.000000 0.024305
#
#
# Mechanical properties :
#
#
# Convention : Reuss Voigt Hill
#
# Bulk Modulus (GPa) = 40.43029 46.84790 43.63909
# Shear Modulus (GPa) = 22.29567 35.93574 29.11570
#
# Velocity S-wave (km/s) = 3.05067 3.87301 3.48617
# Velocity P-wave (km/s) = 5.41157 6.28930 5.86687
#
# Compressibility (1/GPa) = 0.02473393
#
# Stress axis : x y z
#
# Youngs Moduli (GPa) = 81.47579 137.90393 82.92201
#
# Poissons Ratio (x) = 0.31954 -0.06366
# Poissons Ratio (y) = 0.18879 0.15555
# Poissons Ratio (z) = -0.06255 0.25869
#
# Static dielectric constant tensor:
#      x y z
#    x 1.865270 0.000000 0.000000 
#    y 0.000000 1.932030 0.000000 
#    z 0.000000 0.000000 1.868600 
# 
# From -- ./inp_files/6204.got.cif
#   From: 2010.05.17/outbox.cif.g08.bks.cpg/sg39_4_cif.got.tgz:6204.got - 2010.06.03 18:22:40.
