data_PCOD9361142
_publ_section_title
;
Structure prediction by ZEFSAII (Michael W. Deem and Ramdas Pophale) SiO2 
 PCOD9361142
Probable space group: A B M 2
;
_chemical_formula_sum "Si O2"
_cell_formula_units_Z 52
_cell_length_a 5.164171
_cell_length_b 28.262223
_cell_length_c 16.958912
_cell_angle_alpha 90.000000
_cell_angle_beta 90.000000
_cell_angle_gamma 90.000000
_cell_volume 2475.169358
_symmetry_space_group_name_H-M "A B M 2"
_symmetry_group_IT_number 39
_symmetry_cell_setting 'orthorhombic'
loop_
_space_group_symop_operation_xyz
x,y,z
-x,-y,z
-x,1/2+y,z
x,1/2-y,z
x,1/2+y,1/2+z
-x,1/2-y,1/2+z
-x,y,1/2+z
x,-y,1/2+z
loop_
_atom_site_type_symbol
_atom_site_label
_atom_site_fract_x
_atom_site_fract_y
_atom_site_fract_z
Si Si1 0.383180 0.850136 0.929140
Si Si2 0.117313 0.250000 0.114550
Si Si3 0.902303 0.854013 0.169322
Si Si4 0.108347 0.397827 0.997464
Si Si5 0.407607 0.876634 0.265194
Si Si6 0.612132 0.250000 0.011804
Si Si7 0.000000 0.000000 0.937369
Si Si8 0.252804 0.517914 0.284466
O O1 0.604074 0.879538 0.976286
O O2 0.488437 0.848748 0.840580
O O3 0.106161 0.875410 0.938740
O O4 0.351515 0.797916 0.963520
O O5 0.169265 0.201108 0.159233
O O6 0.319113 0.250000 0.042754
O O7 0.823854 0.250000 0.081883
O O8 0.661007 0.880618 0.210028
O O9 0.166896 0.855097 0.218575
O O10 0.951881 0.877885 0.084380
O O11 0.071932 0.454029 0.986904
O O12 0.293053 0.926844 0.294719
O O13 0.224096 0.992384 0.870370
O O14 0.500000 0.500000 0.239783
O O15 0.000000 0.500000 0.240770
#
# Coordination Sequence:
#
# PCOD9361142 Si02
#       8
#     8   4   8   8   8   4   4   8
#     4  12  23  43  73 101 130 177 239 290 331 422
#     4  12  24  46  70  96 138 194 222 284 366 426
#     4  12  26  44  68 100 145 185 222 291 360 423
#     4  12  24  45  70 103 132 183 239 278 341 416
#     4  12  25  44  67 102 146 177 228 294 353 414
#     4  12  22  42  74 100 128 178 244 292 346 402
#     4  10  24  40  76  96 134 180 238 284 336 408
#     4  10  20  40  67  96 127 183 225 273 347 396
#
# _framework density 21.008662000000001
#
# number of rings (size 3 to 8) (size 9 to 14) (size 15 to 20)
#    0.462    0.000    4.615    4.615    0.000    1.231 
#    4.154    0.000    0.000    0.000    0.000    0.000 
#    0.000    0.000    0.000    0.000    0.000    0.000 
#
# Total GULP energy -145187.099196 kJ/mol
# GULP energy per Si atom -5584.119200 kJ/mol
# Density = 2.096084 g / cm^3
# Si number density = 21.008662 Si / 1000 Ang^3
#
#
#
# Elastic Constant Matrix: (Units=GPa)
#
#
# Indices 1 2 3 4 5 6 
#
# 1 112.5288 9.5224 0.3605 0.0000 0.0000 0.0000
# 2 9.5224 82.1328 2.2774 0.0000 0.0000 0.0000
# 3 0.3605 2.2774 53.5892 0.0000 0.0000 0.0000
# 4 0.0000 0.0000 0.0000 4.8954 0.0000 0.0000
# 5 0.0000 0.0000 0.0000 0.0000 23.4991 0.0000
# 6 0.0000 0.0000 0.0000 0.0000 0.0000 29.0405
#
#
#
# Elastic Compliance Matrix: (Units=1/GPa)
#
#
# Indices 1 2 3 4 5 6 
#
# 1 0.008975 -0.001040 -0.000016 0.000000 0.000000 0.000000
# 2 -0.001040 0.012310 -0.000516 0.000000 0.000000 0.000000
# 3 -0.000016 -0.000516 0.018683 0.000000 0.000000 0.000000
# 4 0.000000 0.000000 0.000000 0.204274 0.000000 0.000000
# 5 0.000000 0.000000 0.000000 0.000000 0.042555 0.000000
# 6 0.000000 0.000000 0.000000 0.000000 0.000000 0.034435
#
#
# Mechanical properties :
#
#
# Convention : Reuss Voigt Hill
#
# Bulk Modulus (GPa) = 27.15713 30.28568 28.72140
# Shear Modulus (GPa) = 14.85223 27.22638 21.03931
#
# Velocity S-wave (km/s) = 2.66175 3.60385 3.16802
# Velocity P-wave (km/s) = 4.73300 5.63596 5.20410
#
# Compressibility (1/GPa) = 0.03682275
#
# Stress axis : x y z
#
# Youngs Moduli (GPa) = 111.42460 81.23281 53.52593
#
# Poissons Ratio (x) = 0.08449 0.00087
# Poissons Ratio (y) = 0.11589 0.02763
# Poissons Ratio (z) = 0.00180 0.04193
#
# Static dielectric constant tensor:
#      x y z
#    x 1.795150 0.000000 0.000000 
#    y 0.000000 1.687560 0.000000 
#    z 0.000000 0.000000 1.748850 
# 
# From -- ./inp_files/11135.got.cif
#   From: 2010.05.17/outbox.cif.g08.bks.cpg/sg39_6_cif.got.tgz:11135.got - 2010.06.03 18:22:40.
