data_PCOD9361441
_publ_section_title
;
Structure prediction by ZEFSAII (Michael W. Deem and Ramdas Pophale) SiO2 
 PCOD9361441
Probable space group: A B M 2
;
_chemical_formula_sum "Si O2"
_cell_formula_units_Z 56
_cell_length_a 14.471678
_cell_length_b 14.371812
_cell_length_c 11.102845
_cell_angle_alpha 90.000000
_cell_angle_beta 90.000000
_cell_angle_gamma 90.000000
_cell_volume 2309.216730
_symmetry_space_group_name_H-M "A B M 2"
_symmetry_group_IT_number 39
_symmetry_cell_setting 'orthorhombic'
loop_
_space_group_symop_operation_xyz
x,y,z
-x,-y,z
-x,1/2+y,z
x,1/2-y,z
x,1/2+y,1/2+z
-x,1/2-y,1/2+z
-x,y,1/2+z
x,-y,1/2+z
loop_
_atom_site_type_symbol
_atom_site_label
_atom_site_fract_x
_atom_site_fract_y
_atom_site_fract_z
Si Si1 0.951103 0.138108 0.625000
Si Si2 0.943673 0.137416 0.361152
Si Si3 0.526702 0.644263 0.500485
Si Si4 0.729561 0.356282 0.391630
Si Si5 0.250718 0.445732 0.127047
Si Si6 0.281658 0.350661 0.628622
Si Si7 0.577216 0.364742 0.742070
O O1 0.956147 0.250000 0.625091
O O2 0.982973 0.107523 0.491263
O O3 0.844133 0.109855 0.637638
O O4 0.006899 0.103974 0.740838
O O5 0.948698 0.250000 0.358971
O O6 0.834927 0.114727 0.361455
O O7 0.490154 0.750000 0.489035
O O8 0.634658 0.648548 0.536239
O O9 0.477933 0.607703 0.620934
O O10 0.526540 0.606085 0.365401
O O11 0.732384 0.250000 0.436143
O O12 0.699188 0.418511 0.501410
O O13 0.678271 0.355795 0.264839
O O14 0.227395 0.554266 0.116515
O O15 0.322894 0.414304 0.229096
O O16 0.232036 0.250000 0.621133
O O17 0.586914 0.250000 0.744674
#
# Coordination Sequence:
#
# PCOD9361441 Si02
#       7
#     8   8   8   8   8   8   8
#     4   9  17  34  59  96 132 166 211 264 325 392
#     4   8  15  31  56  87 126 164 204 252 317 391
#     4   9  21  40  62  90 130 173 214 261 322 387
#     4   9  19  38  64  91 124 171 214 256 325 399
#     4  11  22  36  65  95 129 168 219 270 324 382
#     4  10  23  42  61  87 128 172 219 270 324 387
#     4  10  21  39  64  97 133 170 213 266 324 386
#
# _framework density 24.250647000000001
#
# number of rings (size 3 to 8) (size 9 to 14) (size 15 to 20)
#    0.000    2.571    0.000    2.143    4.000    0.571 
#    2.571    2.143    0.000    3.429    0.000   10.000 
#    0.000    0.000    0.000    0.000    0.000    0.000 
#
# Total GULP energy -156375.930425 kJ/mol
# GULP energy per Si atom -5584.854658 kJ/mol
# Density = 2.419545 g / cm^3
# Si number density = 24.250647 Si / 1000 Ang^3
#
#
#
# Elastic Constant Matrix: (Units=GPa)
#
#
# Indices 1 2 3 4 5 6 
#
# 1 44.2170 1.3253 61.3460 0.0000 0.0000 0.0000
# 2 1.3253 111.5086 24.6430 0.0000 0.0000 0.0000
# 3 61.3460 24.6430 207.6244 0.0000 0.0000 0.0000
# 4 0.0000 0.0000 0.0000 -10.0329 0.0000 0.0000
# 5 0.0000 0.0000 0.0000 0.0000 44.3798 0.0000
# 6 0.0000 0.0000 0.0000 0.0000 0.0000 1.6684
#
#
#
# Elastic Compliance Matrix: (Units=1/GPa)
#
#
# Indices 1 2 3 4 5 6 
#
# 1 0.038813 0.002129 -0.011721 0.000000 0.000000 0.000000
# 2 0.002129 0.009326 -0.001736 0.000000 0.000000 0.000000
# 3 -0.011721 -0.001736 0.008485 0.000000 0.000000 0.000000
# 4 0.000000 0.000000 0.000000 -0.099672 0.000000 0.000000
# 5 0.000000 0.000000 0.000000 0.000000 0.022533 0.000000
# 6 0.000000 0.000000 0.000000 0.000000 0.000000 0.599362
#
#
# Mechanical properties :
#
#
# Convention : Reuss Voigt Hill
#
# Bulk Modulus (GPa) = 29.43831 59.77539 44.60685
# Shear Modulus (GPa) = 8.15892 25.60546 16.88219
#
# Velocity S-wave (km/s) = 1.83622 3.25294 2.64134
# Velocity P-wave (km/s) = 4.08181 6.22987 5.26652
#
# Compressibility (1/GPa) = 0.03396934
#
# Stress axis : x y z
#
# Youngs Moduli (GPa) = 25.76469 107.22412 117.84864
#
# Poissons Ratio (x) = -0.22827 1.38125
# Poissons Ratio (y) = -0.05485 0.20458
# Poissons Ratio (z) = 0.30198 0.18614
#
# Static dielectric constant tensor:
#      x y z
#    x 1.921550 0.000000 0.000000 
#    y 0.000000 1.965000 0.000000 
#    z 0.000000 0.000000 1.953880 
# 
# From -- ./inp_files/6470.got.cif
#   From: 2010.05.17/outbox.cif.g08.bks.cpg/sg39_4_cif.got.tgz:6470.got - 2010.06.03 18:22:40.
