data_PCOD9361367
_publ_section_title
;
Structure prediction by ZEFSAII (Michael W. Deem and Ramdas Pophale) SiO2 
 PCOD9361367
Probable space group: A B M 2
;
_chemical_formula_sum "Si O2"
_cell_formula_units_Z 36
_cell_length_a 8.098449
_cell_length_b 19.211052
_cell_length_c 10.551389
_cell_angle_alpha 90.000000
_cell_angle_beta 90.000000
_cell_angle_gamma 90.000000
_cell_volume 1641.582197
_symmetry_space_group_name_H-M "A B M 2"
_symmetry_group_IT_number 39
_symmetry_cell_setting 'orthorhombic'
loop_
_space_group_symop_operation_xyz
x,y,z
-x,-y,z
-x,1/2+y,z
x,1/2-y,z
x,1/2+y,1/2+z
-x,1/2-y,1/2+z
-x,y,1/2+z
x,-y,1/2+z
loop_
_atom_site_type_symbol
_atom_site_label
_atom_site_fract_x
_atom_site_fract_y
_atom_site_fract_z
Si Si1 0.196176 0.826833 0.226250
Si Si2 0.000000 0.000000 0.064908
Si Si3 0.385263 0.332505 0.978806
Si Si4 0.156661 0.369595 0.208862
Si Si5 0.284796 0.907221 0.974847
O O1 0.261484 0.750000 0.206039
O O2 0.293548 0.853365 0.348433
O O3 0.002628 0.827477 0.255488
O O4 0.213257 0.864070 0.092746
O O5 0.918456 0.941380 0.154099
O O6 0.157740 0.972670 0.983249
O O7 0.442322 0.250000 0.968707
O O8 0.521158 0.393190 0.001486
O O9 0.257448 0.335141 0.095050
O O10 0.266980 0.380234 0.332244
#
# Coordination Sequence:
#
# PCOD9361367 Si02
#       5
#     8   4   8   8   8
#     4  10  21  38  62  94 131 170 212 262 327 395
#     4  10  24  44  64  92 126 172 222 270 328 392
#     4  11  24  41  65 100 134 167 214 273 334 389
#     4  11  23  41  65  91 126 174 221 268 322 389
#     4  11  23  41  65  91 127 169 216 271 326 385
#
# _framework density 21.930063000000001
#
# number of rings (size 3 to 8) (size 9 to 14) (size 15 to 20)
#    0.000    1.333    0.000    6.000    0.000    9.778 
#    0.000    2.222    0.000    0.000    0.000    0.000 
#    0.000    0.000    0.000    0.000    0.000    0.000 
#
# Total GULP energy -100237.670346 kJ/mol
# GULP energy per Si atom -5568.759464 kJ/mol
# Density = 2.188015 g / cm^3
# Si number density = 21.930063 Si / 1000 Ang^3
#
#
#
# Elastic Constant Matrix: (Units=GPa)
#
#
# Indices 1 2 3 4 5 6 
#
# 1 97.4669 22.0794 -5.6871 0.0000 0.0000 0.0000
# 2 22.0794 58.1145 16.5959 0.0000 0.0000 0.0000
# 3 -5.6871 16.5959 75.5752 0.0000 0.0000 0.0000
# 4 0.0000 0.0000 0.0000 97.1317 0.0000 0.0000
# 5 0.0000 0.0000 0.0000 0.0000 130.0691 0.0000
# 6 0.0000 0.0000 0.0000 0.0000 0.0000 18.3588
#
#
#
# Elastic Compliance Matrix: (Units=1/GPa)
#
#
# Indices 1 2 3 4 5 6 
#
# 1 0.011488 -0.004920 0.001945 0.000000 0.000000 0.000000
# 2 -0.004920 0.020466 -0.004864 0.000000 0.000000 0.000000
# 3 0.001945 -0.004864 0.014446 0.000000 0.000000 0.000000
# 4 0.000000 0.000000 0.000000 0.010295 0.000000 0.000000
# 5 0.000000 0.000000 0.000000 0.000000 0.007688 0.000000
# 6 0.000000 0.000000 0.000000 0.000000 0.000000 0.054470
#
#
# Mechanical properties :
#
#
# Convention : Reuss Voigt Hill
#
# Bulk Modulus (GPa) = 32.55097 33.01478 32.78287
# Shear Modulus (GPa) = 34.53683 62.32315 48.42999
#
# Velocity S-wave (km/s) = 3.97276 5.33674 4.70444
# Velocity P-wave (km/s) = 5.99325 7.28434 6.67011
#
# Compressibility (1/GPa) = 0.03072106
#
# Stress axis : x y z
#
# Youngs Moduli (GPa) = 87.04799 48.86192 69.22134
#
# Poissons Ratio (x) = 0.24040 -0.13463
# Poissons Ratio (y) = 0.42828 0.33672
# Poissons Ratio (z) = -0.16930 0.23769
#
# Static dielectric constant tensor:
#      x y z
#    x 1.070270 0.000000 0.000000 
#    y 0.000000 1.755290 0.000000 
#    z 0.000000 0.000000 1.796250 
# 
# From -- ./inp_files/2037.got.cif
#   From: 2010.05.17/outbox.cif.g08.bks.cpg/sg39_2_cif.got.tgz:2037.got - 2010.06.03 18:22:40.
