data_PCOD9361161
_publ_section_title
;
Structure prediction by ZEFSAII (Michael W. Deem and Ramdas Pophale) SiO2 
 PCOD9361161
Probable space group: A B M 2
;
_chemical_formula_sum "Si O2"
_cell_formula_units_Z 36
_cell_length_a 7.441716
_cell_length_b 7.421499
_cell_length_c 25.286958
_cell_angle_alpha 90.000000
_cell_angle_beta 90.000000
_cell_angle_gamma 90.000000
_cell_volume 1396.565510
_symmetry_space_group_name_H-M "A B M 2"
_symmetry_group_IT_number 39
_symmetry_cell_setting 'orthorhombic'
loop_
_space_group_symop_operation_xyz
x,y,z
-x,-y,z
-x,1/2+y,z
x,1/2-y,z
x,1/2+y,1/2+z
-x,1/2-y,1/2+z
-x,y,1/2+z
x,-y,1/2+z
loop_
_atom_site_type_symbol
_atom_site_label
_atom_site_fract_x
_atom_site_fract_y
_atom_site_fract_z
Si Si1 0.713072 0.964152 0.637410
Si Si2 0.203799 0.534877 0.254586
Si Si3 0.203166 0.051250 0.906930
Si Si4 0.286123 0.535488 0.023278
Si Si5 0.353014 0.750000 0.835673
O O1 0.741318 0.750000 0.636094
O O2 0.788420 0.026605 0.693309
O O3 0.779930 0.034000 0.580547
O O4 0.500000 0.000000 0.639322
O O5 0.245043 0.750000 0.258062
O O6 0.326516 0.408730 0.290237
O O7 0.000000 0.500000 0.272881
O O8 0.248156 0.250000 0.886392
O O9 0.330420 0.904563 0.882018
O O10 0.000000 0.000000 0.891601
O O11 0.209739 0.049386 0.970321
O O12 0.500000 0.500000 0.022396
O O13 0.255601 0.750000 0.020184
#
# Coordination Sequence:
#
# PCOD9361161 Si02
#       5
#     8   8   8   8   4
#     4   9  21  39  65  92 126 161 203 253 312 372
#     4  11  23  39  63  94 122 164 208 256 304 368
#     4  12  24  40  65  94 123 166 210 259 308 369
#     4  10  20  41  65  94 128 164 204 257 315 374
#     4  12  24  42  64  86 132 162 216 244 322 356
#
# _framework density 25.777522999999999
#
# number of rings (size 3 to 8) (size 9 to 14) (size 15 to 20)
#    0.000    1.333    3.333    2.000    1.556    1.778 
#    0.000    3.333    0.000    0.000    0.000    0.000 
#    0.000    0.000    0.000    0.000    0.000    0.000 
#
# Total GULP energy -100357.963725 kJ/mol
# GULP energy per Si atom -5575.442429 kJ/mol
# Density = 2.571885 g / cm^3
# Si number density = 25.777523 Si / 1000 Ang^3
#
#
#
# Elastic Constant Matrix: (Units=GPa)
#
#
# Indices 1 2 3 4 5 6 
#
# 1 83.1802 13.0822 8.9445 0.0000 0.0000 0.0000
# 2 13.0822 217.4170 42.0141 0.0000 0.0000 0.0000
# 3 8.9445 42.0141 238.7829 0.0000 0.0000 0.0000
# 4 0.0000 0.0000 0.0000 37.1372 0.0000 0.0000
# 5 0.0000 0.0000 0.0000 0.0000 -204.1094 0.0000
# 6 0.0000 0.0000 0.0000 0.0000 0.0000 19.0600
#
#
#
# Elastic Compliance Matrix: (Units=1/GPa)
#
#
# Indices 1 2 3 4 5 6 
#
# 1 0.012163 -0.000666 -0.000338 0.000000 0.000000 0.000000
# 2 -0.000666 0.004798 -0.000819 0.000000 0.000000 0.000000
# 3 -0.000338 -0.000819 0.004345 0.000000 0.000000 0.000000
# 4 0.000000 0.000000 0.000000 0.026927 0.000000 0.000000
# 5 0.000000 0.000000 0.000000 0.000000 -0.004899 0.000000
# 6 0.000000 0.000000 0.000000 0.000000 0.000000 0.052466
#
#
# Mechanical properties :
#
#
# Convention : Reuss Voigt Hill
#
# Bulk Modulus (GPa) = 56.63233 74.16240 65.39736
# Shear Modulus (GPa) = 47.46819 2.10684 24.78751
#
# Velocity S-wave (km/s) = 4.29587 0.90504 3.10432
# Velocity P-wave (km/s) = 6.82813 5.47035 6.18660
#
# Compressibility (1/GPa) = 0.01765776
#
# Stress axis : x y z
#
# Youngs Moduli (GPa) = 82.21451 208.42586 230.16433
#
# Poissons Ratio (x) = 0.13891 0.07788
# Poissons Ratio (y) = 0.05480 0.18856
# Poissons Ratio (z) = 0.02782 0.17075
#
# Static dielectric constant tensor:
#      x y z
#    x 2.131690 0.000000 0.000000 
#    y 0.000000 1.873680 0.000000 
#    z 0.000000 0.000000 2.016290 
# 
# From -- ./inp_files/16696.got.cif
#   From: 2010.05.17/outbox.cif.g08.bks.cpg/sg39_9_cif.got.tgz:16696.got - 2010.06.03 18:22:40.
