data_PCOD9361195
_publ_section_title
;
Structure prediction by ZEFSAII (Michael W. Deem and Ramdas Pophale) SiO2 
 PCOD9361195
Probable space group: A B M 2
;
_chemical_formula_sum "Si O2"
_cell_formula_units_Z 56
_cell_length_a 5.180777
_cell_length_b 14.191357
_cell_length_c 31.125938
_cell_angle_alpha 90.000000
_cell_angle_beta 90.000000
_cell_angle_gamma 90.000000
_cell_volume 2288.449180
_symmetry_space_group_name_H-M "A B M 2"
_symmetry_group_IT_number 39
_symmetry_cell_setting 'orthorhombic'
loop_
_space_group_symop_operation_xyz
x,y,z
-x,-y,z
-x,1/2+y,z
x,1/2-y,z
x,1/2+y,1/2+z
-x,1/2-y,1/2+z
-x,y,1/2+z
x,-y,1/2+z
loop_
_atom_site_type_symbol
_atom_site_label
_atom_site_fract_x
_atom_site_fract_y
_atom_site_fract_z
Si Si1 0.278139 0.863636 0.741540
Si Si2 0.186996 0.750000 0.455050
Si Si3 0.221626 0.363898 0.793733
Si Si4 0.366627 0.136470 0.595727
Si Si5 0.500000 0.500000 0.859577
Si Si6 0.132058 0.634227 0.646868
Si Si7 0.115763 0.403249 0.425181
Si Si8 0.469722 0.108176 0.498231
O O1 0.266134 0.750000 0.738952
O O2 0.064923 0.888690 0.777330
O O3 0.569382 0.884742 0.755830
O O4 0.194208 0.899357 0.694880
O O5 0.274489 0.831930 0.490422
O O6 0.117566 0.667813 0.419017
O O7 0.232482 0.250000 0.802223
O O8 0.323099 0.429717 0.831699
O O9 0.360185 0.250000 0.597014
O O10 0.638013 0.106102 0.615283
O O11 0.356918 0.111284 0.545766
O O12 0.135663 0.103257 0.626012
O O13 0.691944 0.434408 0.887708
O O14 0.127225 0.750000 0.648344
O O15 0.275978 0.350700 0.462484
O O16 0.000000 0.500000 0.441802
O O17 0.500000 0.000000 0.486290
#
# Coordination Sequence:
#
# PCOD9361195 Si02
#       8
#     8   4   8   8   4   8   8   8
#     4   9  18  39  68 102 141 188 241 291 376 455
#     4  12  26  48  82 104 148 206 246 322 392 472
#     4  10  23  42  72 103 140 191 238 303 384 462
#     4  10  21  34  64 102 142 191 247 303 369 433
#     4  12  28  48  70 112 142 180 256 324 384 464
#     4   9  18  34  63 102 138 186 245 303 358 443
#     4  12  27  49  76 106 148 195 252 318 396 460
#     4  12  25  47  70 108 147 198 259 311 379 467
#
# _framework density 24.470718999999999
#
# number of rings (size 3 to 8) (size 9 to 14) (size 15 to 20)
#    0.000    1.429    2.857    1.286    5.000    3.429 
#    1.286    0.000    9.429    0.000    0.000    0.000 
#    0.000    0.000    0.000    0.000    0.000    0.000 
#
# Total GULP energy -156219.421162 kJ/mol
# GULP energy per Si atom -5579.265041 kJ/mol
# Density = 2.441502 g / cm^3
# Si number density = 24.470719 Si / 1000 Ang^3
#
#
#
# Elastic Constant Matrix: (Units=GPa)
#
#
# Indices 1 2 3 4 5 6 
#
# 1 64.7648 -5.2901 5.6689 0.0000 0.0000 0.0000
# 2 -5.2901 128.2430 4.1946 0.0000 0.0000 0.0000
# 3 5.6689 4.1946 105.2721 0.0000 0.0000 0.0000
# 4 0.0000 0.0000 0.0000 26.3081 0.0000 0.0000
# 5 0.0000 0.0000 0.0000 0.0000 21.2374 0.0000
# 6 0.0000 0.0000 0.0000 0.0000 0.0000 -131.0389
#
#
#
# Elastic Compliance Matrix: (Units=1/GPa)
#
#
# Indices 1 2 3 4 5 6 
#
# 1 0.015571 0.000671 -0.000865 0.000000 0.000000 0.000000
# 2 0.000671 0.007837 -0.000348 0.000000 0.000000 0.000000
# 3 -0.000865 -0.000348 0.009560 0.000000 0.000000 0.000000
# 4 0.000000 0.000000 0.000000 0.038011 0.000000 0.000000
# 5 0.000000 0.000000 0.000000 0.000000 0.047087 0.000000
# 6 0.000000 0.000000 0.000000 0.000000 0.000000 -0.007631
#
#
# Mechanical properties :
#
#
# Convention : Reuss Voigt Hill
#
# Bulk Modulus (GPa) = 31.36618 34.15851 32.76234
# Shear Modulus (GPa) = 40.93427 2.88176 21.90802
#
# Velocity S-wave (km/s) = 4.09441 1.08637 2.99536
# Velocity P-wave (km/s) = 5.93278 3.94497 5.03789
#
# Compressibility (1/GPa) = 0.03188148
#
# Stress axis : x y z
#
# Youngs Moduli (GPa) = 64.22197 127.60380 104.60621
#
# Poissons Ratio (x) = -0.08557 0.09051
# Poissons Ratio (y) = -0.04307 0.03644
# Poissons Ratio (z) = 0.05557 0.04445
#
# Static dielectric constant tensor:
#      x y z
#    x 2.362540 0.000000 0.000000 
#    y 0.000000 1.995830 0.000000 
#    z 0.000000 0.000000 1.929060 
# 
# From -- ./inp_files/17294.got.cif
#   From: 2010.05.17/outbox.cif.g08.bks.cpg/sg39_9_cif.got.tgz:17294.got - 2010.06.03 18:22:40.
