data_PCOD9361942
_publ_section_title
;
Structure prediction by ZEFSAII (Michael W. Deem and Ramdas Pophale) SiO2 
 PCOD9361942
Probable space group: A B M 2
;
_chemical_formula_sum "Si O2"
_cell_formula_units_Z 44
_cell_length_a 6.945230
_cell_length_b 33.730765
_cell_length_c 8.023948
_cell_angle_alpha 90.000000
_cell_angle_beta 90.000000
_cell_angle_gamma 90.000000
_cell_volume 1879.753616
_symmetry_space_group_name_H-M "A B M 2"
_symmetry_group_IT_number 39
_symmetry_cell_setting 'orthorhombic'
loop_
_space_group_symop_operation_xyz
x,y,z
-x,-y,z
-x,1/2+y,z
x,1/2-y,z
x,1/2+y,1/2+z
-x,1/2-y,1/2+z
-x,y,1/2+z
x,-y,1/2+z
loop_
_atom_site_type_symbol
_atom_site_label
_atom_site_fract_x
_atom_site_fract_y
_atom_site_fract_z
Si Si1 0.707511 0.793111 0.228670
Si Si2 0.696193 0.376725 0.654279
Si Si3 0.500000 0.500000 0.406699
Si Si4 0.128344 0.206478 0.605728
Si Si5 0.647153 0.439542 0.160275
Si Si6 0.102570 0.125622 0.794256
O O1 0.612637 0.750000 0.209327
O O2 0.600002 0.833385 0.181084
O O3 0.785673 0.795637 0.419473
O O4 0.894495 0.793365 0.107800
O O5 0.542057 0.411399 0.670914
O O6 0.798403 0.378647 0.473905
O O7 0.870788 0.377253 0.787752
O O8 0.641612 0.471934 0.305144
O O9 0.373128 0.468033 0.503994
O O10 0.180026 0.250000 0.676519
O O11 0.165045 0.167624 0.714911
O O12 0.822143 0.410012 0.179557
#
# Coordination Sequence:
#
# PCOD9361942 Si02
#       6
#     8   8   4   8   8   8
#     4   9  17  30  52  84 123 164 204 246 292 347
#     4  11  23  38  64  95 125 163 205 249 300 361
#     4  10  24  46  70  86 122 156 200 250 318 374
#     4   9  17  30  52  84 123 164 204 246 292 347
#     4  11  24  46  67  90 120 162 197 254 310 369
#     4  11  23  38  64  95 125 163 205 249 300 361
#
# _framework density 23.407323000000002
#
# number of rings (size 3 to 8) (size 9 to 14) (size 15 to 20)
#    0.000    1.818    1.818    4.364    5.091    2.182 
#    0.000    6.364    0.000    0.000    0.000    0.000 
#    0.000    0.000    0.000    0.000    0.000    0.000 
#
# Total GULP energy -122907.645170 kJ/mol
# GULP energy per Si atom -5586.711144 kJ/mol
# Density = 2.335405 g / cm^3
# Si number density = 23.407323 Si / 1000 Ang^3
#
#
#
# Elastic Constant Matrix: (Units=GPa)
#
#
# Indices 1 2 3 4 5 6 
#
# 1 78.4720 38.8658 -9.5771 0.0000 0.0000 0.0000
# 2 38.8658 208.8026 33.2052 0.0000 0.0000 0.0000
# 3 -9.5771 33.2052 56.2727 0.0000 0.0000 0.0000
# 4 0.0000 0.0000 0.0000 136.0437 0.0000 0.0000
# 5 0.0000 0.0000 0.0000 0.0000 67.5890 0.0000
# 6 0.0000 0.0000 0.0000 0.0000 0.0000 32.6530
#
#
#
# Elastic Compliance Matrix: (Units=1/GPa)
#
#
# Indices 1 2 3 4 5 6 
#
# 1 0.015067 -0.003545 0.004656 0.000000 0.000000 0.000000
# 2 -0.003545 0.006119 -0.004214 0.000000 0.000000 0.000000
# 3 0.004656 -0.004214 0.021050 0.000000 0.000000 0.000000
# 4 0.000000 0.000000 0.000000 0.007351 0.000000 0.000000
# 5 0.000000 0.000000 0.000000 0.000000 0.014795 0.000000
# 6 0.000000 0.000000 0.000000 0.000000 0.000000 0.030625
#
#
# Mechanical properties :
#
#
# Convention : Reuss Voigt Hill
#
# Bulk Modulus (GPa) = 27.75435 52.05945 39.90690
# Shear Modulus (GPa) = 44.16041 65.99403 55.07722
#
# Velocity S-wave (km/s) = 4.34822 5.31554 4.85603
# Velocity P-wave (km/s) = 6.09034 7.74353 6.96615
#
# Compressibility (1/GPa) = 0.03603039
#
# Stress axis : x y z
#
# Youngs Moduli (GPa) = 66.36812 163.41892 47.50658
#
# Poissons Ratio (x) = 0.57933 -0.22120
# Poissons Ratio (y) = 0.23528 0.20020
# Poissons Ratio (z) = -0.30902 0.68867
#
# Static dielectric constant tensor:
#      x y z
#    x 1.868890 0.000000 0.000000 
#    y 0.000000 1.853630 0.000000 
#    z 0.000000 0.000000 1.957970 
# 
# From -- ./inp_files/2252.got.cif
#   From: 2010.05.17/outbox.cif.g08.bks.cpg/sg39_2_cif.got.tgz:2252.got - 2010.06.03 18:22:40.
