data_PCOD9361229
_publ_section_title
;
Structure prediction by ZEFSAII (Michael W. Deem and Ramdas Pophale) SiO2 
 PCOD9361229
Probable space group: A B M 2
;
_chemical_formula_sum "Si O2"
_cell_formula_units_Z 56
_cell_length_a 5.330289
_cell_length_b 14.732517
_cell_length_c 31.787703
_cell_angle_alpha 90.000000
_cell_angle_beta 90.000000
_cell_angle_gamma 90.000000
_cell_volume 2496.242965
_symmetry_space_group_name_H-M "A B M 2"
_symmetry_group_IT_number 39
_symmetry_cell_setting 'orthorhombic'
loop_
_space_group_symop_operation_xyz
x,y,z
-x,-y,z
-x,1/2+y,z
x,1/2-y,z
x,1/2+y,1/2+z
-x,1/2-y,1/2+z
-x,y,1/2+z
x,-y,1/2+z
loop_
_atom_site_type_symbol
_atom_site_label
_atom_site_fract_x
_atom_site_fract_y
_atom_site_fract_z
Si Si1 0.139121 0.640794 0.539890
Si Si2 0.250000 0.556511 0.450612
Si Si3 0.639972 0.639586 0.587572
Si Si4 0.860028 0.860414 0.313652
Si Si5 0.639120 0.859206 0.861333
Si Si6 0.048128 0.395520 0.217714
Si Si7 0.548128 0.395520 0.183509
O O1 0.135016 0.750000 0.541680
O O2 0.170626 0.612404 0.491717
O O3 0.381898 0.609657 0.565862
O O4 0.881206 0.608133 0.561136
O O5 0.500000 0.500000 0.461823
O O6 0.329373 0.612405 0.409506
O O7 0.000000 0.500000 0.439400
O O8 0.643299 0.750000 0.587950
O O9 0.639215 0.608623 0.635677
O O10 0.856700 0.750000 0.313273
O O11 0.618795 0.891867 0.340088
O O12 0.860785 0.891376 0.265547
O O13 0.118103 0.890343 0.335361
O O14 0.635014 0.750000 0.859542
O O15 0.271388 0.354439 0.189764
O O16 0.000000 0.500000 0.204954
O O17 0.771388 0.354439 0.211459
O O18 0.500000 0.500000 0.196269
#
# Coordination Sequence:
#
# PCOD9361229 Si02
#       7
#     8   8   8   8   8   8   8
#     4  10  22  41  61  84 118 156 191 235 295 351
#     4  12  25  40  61  92 120 148 194 240 285 344
#     4  10  21  37  60  86 111 149 198 240 284 341
#     4  10  21  37  60  86 111 149 198 240 284 341
#     4  10  22  41  61  84 118 156 191 235 295 351
#     4  10  21  36  54  80 115 153 189 231 288 343
#     4  10  21  36  54  80 115 153 189 231 288 343
#
# _framework density 22.433713999999998
#
# number of rings (size 3 to 8) (size 9 to 14) (size 15 to 20)
#    0.000    1.714    0.000    3.857    0.000    4.571 
#    0.000    5.714    0.000    0.000    0.000    0.000 
#    0.000    0.000    0.000    0.000    0.000    0.000 
#
# Total GULP energy -156602.773328 kJ/mol
# GULP energy per Si atom -5592.956190 kJ/mol
# Density = 2.238265 g / cm^3
# Si number density = 22.433714 Si / 1000 Ang^3
#
#
#
# Elastic Constant Matrix: (Units=GPa)
#
#
# Indices 1 2 3 4 5 6 
#
# 1 223.2228 28.0743 73.9551 0.0000 0.0000 0.0000
# 2 28.0743 45.3976 -7.1659 0.0000 0.0000 0.0000
# 3 73.9551 -7.1659 140.2935 0.0000 0.0000 0.0000
# 4 0.0000 0.0000 0.0000 1.9362 0.0000 0.0000
# 5 0.0000 0.0000 0.0000 0.0000 49.4808 0.0000
# 6 0.0000 0.0000 0.0000 0.0000 0.0000 1.8616
#
#
#
# Elastic Compliance Matrix: (Units=1/GPa)
#
#
# Indices 1 2 3 4 5 6 
#
# 1 0.006184 -0.004374 -0.003483 0.000000 0.000000 0.000000
# 2 -0.004374 0.025301 0.003598 0.000000 0.000000 0.000000
# 3 -0.003483 0.003598 0.009148 0.000000 0.000000 0.000000
# 4 0.000000 0.000000 0.000000 0.516464 0.000000 0.000000
# 5 0.000000 0.000000 0.000000 0.000000 0.020210 0.000000
# 6 0.000000 0.000000 0.000000 0.000000 0.000000 0.537168
#
#
# Mechanical properties :
#
#
# Convention : Reuss Voigt Hill
#
# Bulk Modulus (GPa) = 31.13922 66.51565 48.82743
# Shear Modulus (GPa) = 4.41035 31.59243 18.00139
#
# Velocity S-wave (km/s) = 1.40364 3.75675 2.83578
# Velocity P-wave (km/s) = 4.06665 6.96647 5.70392
#
# Compressibility (1/GPa) = 0.03211384
#
# Stress axis : x y z
#
# Youngs Moduli (GPa) = 161.70826 39.52490 109.31484
#
# Poissons Ratio (x) = 0.17288 0.38077
# Poissons Ratio (y) = 0.70732 -0.39332
# Poissons Ratio (z) = 0.56327 -0.14221
#
# Static dielectric constant tensor:
#      x y z
#    x 1.870920 0.000000 0.000000 
#    y 0.000000 1.862460 0.000000 
#    z 0.000000 0.000000 1.762080 
# 
# From -- ./inp_files/17262.got.cif
#   From: 2010.05.17/outbox.cif.g08.bks.cpg/sg39_9_cif.got.tgz:17262.got - 2010.06.03 18:22:40.
