data_PCOD9361850
_publ_section_title
;
Structure prediction by ZEFSAII (Michael W. Deem and Ramdas Pophale) SiO2 
 PCOD9361850
Probable space group: A B M 2
;
_chemical_formula_sum "Si O2"
_cell_formula_units_Z 56
_cell_length_a 5.474871
_cell_length_b 14.908986
_cell_length_c 27.660015
_cell_angle_alpha 90.000000
_cell_angle_beta 90.000000
_cell_angle_gamma 90.000000
_cell_volume 2257.742503
_symmetry_space_group_name_H-M "A B M 2"
_symmetry_group_IT_number 39
_symmetry_cell_setting 'orthorhombic'
loop_
_space_group_symop_operation_xyz
x,y,z
-x,-y,z
-x,1/2+y,z
x,1/2-y,z
x,1/2+y,1/2+z
-x,1/2-y,1/2+z
-x,y,1/2+z
x,-y,1/2+z
loop_
_atom_site_type_symbol
_atom_site_label
_atom_site_fract_x
_atom_site_fract_y
_atom_site_fract_z
Si Si1 0.637261 0.644343 0.291210
Si Si2 0.867633 0.858423 0.746357
Si Si3 0.575876 0.398583 0.155102
Si Si4 0.225411 0.250000 0.132878
Si Si5 0.920455 0.103715 0.072137
Si Si6 0.145267 0.349496 0.979047
Si Si7 0.134883 0.911521 0.889704
Si Si8 0.500000 0.500000 0.964546
O O1 0.620816 0.750000 0.280708
O O2 0.368200 0.608351 0.277445
O O3 0.720541 0.634997 0.346801
O O4 0.869611 0.605011 0.262266
O O5 0.882247 0.750000 0.752256
O O6 0.798862 0.877127 0.691061
O O7 0.500000 0.500000 0.161874
O O8 0.366047 0.327784 0.164885
O O9 0.667578 0.383283 0.100397
O O10 0.103840 0.171152 0.098818
O O11 0.924209 0.131926 0.016206
O O12 0.000000 0.000000 0.077937
O O13 0.243185 0.250000 0.986595
O O14 0.334319 0.428279 0.991818
O O15 0.059882 0.358959 0.923231
O O16 0.326505 0.944920 0.929064
O O17 0.000000 0.000000 0.870013
#
# Coordination Sequence:
#
# PCOD9361850 Si02
#       8
#     8   8   8   4   8   8   8   4
#     4  10  23  42  70 107 142 193 247 310 378 457
#     4  10  24  42  71 104 149 193 249 313 383 452
#     4  12  27  47  76 107 147 200 252 313 381 458
#     4  12  26  46  74 106 144 198 242 312 388 434
#     4  12  26  48  74 106 151 191 253 312 370 456
#     4  11  25  46  72 107 145 196 244 306 376 447
#     4  10  23  43  69  98 146 189 244 305 371 445
#     4  10  24  46  70 104 148 194 240 310 372 448
#
# _framework density 24.803536999999999
#
# number of rings (size 3 to 8) (size 9 to 14) (size 15 to 20)
#    0.000    1.143    2.857    2.143    6.000    4.571 
#    1.286    0.000    0.000    0.000    0.000    0.000 
#    0.000    0.000    0.000    0.000    0.000    0.000 
#
# Total GULP energy -156256.691344 kJ/mol
# GULP energy per Si atom -5580.596119 kJ/mol
# Density = 2.474708 g / cm^3
# Si number density = 24.803537 Si / 1000 Ang^3
#
#
#
# Elastic Constant Matrix: (Units=GPa)
#
#
# Indices 1 2 3 4 5 6 
#
# 1 94.4113 42.1338 31.0305 0.0000 0.0000 0.0000
# 2 42.1338 129.0896 27.3415 0.0000 0.0000 0.0000
# 3 31.0305 27.3415 99.4785 0.0000 0.0000 0.0000
# 4 0.0000 0.0000 0.0000 -10.4642 0.0000 0.0000
# 5 0.0000 0.0000 0.0000 0.0000 32.4199 0.0000
# 6 0.0000 0.0000 0.0000 0.0000 0.0000 6.2855
#
#
#
# Elastic Compliance Matrix: (Units=1/GPa)
#
#
# Indices 1 2 3 4 5 6 
#
# 1 0.013255 -0.003664 -0.003128 0.000000 0.000000 0.000000
# 2 -0.003664 0.009238 -0.001396 0.000000 0.000000 0.000000
# 3 -0.003128 -0.001396 0.011412 0.000000 0.000000 0.000000
# 4 0.000000 0.000000 0.000000 -0.095564 0.000000 0.000000
# 5 0.000000 0.000000 0.000000 0.000000 0.030845 0.000000
# 6 0.000000 0.000000 0.000000 0.000000 0.000000 0.159096
#
#
# Mechanical properties :
#
#
# Convention : Reuss Voigt Hill
#
# Bulk Modulus (GPa) = 57.04679 58.22121 57.63400
# Shear Modulus (GPa) = 33.22227 20.47981 26.85104
#
# Velocity S-wave (km/s) = 3.66377 2.87658 3.29378
# Velocity P-wave (km/s) = 6.39899 5.87851 6.14426
#
# Compressibility (1/GPa) = 0.01752947
#
# Stress axis : x y z
#
# Youngs Moduli (GPa) = 75.44297 108.24682 87.62869
#
# Poissons Ratio (x) = 0.39660 0.27407
# Poissons Ratio (y) = 0.27642 0.12235
# Poissons Ratio (z) = 0.23596 0.15114
#
# Static dielectric constant tensor:
#      x y z
#    x 2.103150 0.000000 0.000000 
#    y 0.000000 1.928350 0.000000 
#    z 0.000000 0.000000 1.962060 
# 
# From -- ./inp_files/17347.got.cif
#   From: 2010.05.17/outbox.cif.g08.bks.cpg/sg39_9_cif.got.tgz:17347.got - 2010.06.03 18:22:40.
