data_PCOD9361675
_publ_section_title
;
Structure prediction by ZEFSAII (Michael W. Deem and Ramdas Pophale) SiO2 
 PCOD9361675
Probable space group: A B M 2
;
_chemical_formula_sum "Si O2"
_cell_formula_units_Z 36
_cell_length_a 8.219524
_cell_length_b 14.757384
_cell_length_c 13.276844
_cell_angle_alpha 90.000000
_cell_angle_beta 90.000000
_cell_angle_gamma 90.000000
_cell_volume 1610.463545
_symmetry_space_group_name_H-M "A B M 2"
_symmetry_group_IT_number 39
_symmetry_cell_setting 'orthorhombic'
loop_
_space_group_symop_operation_xyz
x,y,z
-x,-y,z
-x,1/2+y,z
x,1/2-y,z
x,1/2+y,1/2+z
-x,1/2-y,1/2+z
-x,y,1/2+z
x,-y,1/2+z
loop_
_atom_site_type_symbol
_atom_site_label
_atom_site_fract_x
_atom_site_fract_y
_atom_site_fract_z
Si Si1 0.231494 0.850479 0.993860
Si Si2 0.440562 0.597254 0.418158
Si Si3 0.000000 0.500000 0.043933
Si Si4 0.414221 0.856573 0.205140
Si Si5 0.758348 0.646418 0.107819
O O1 0.155365 0.750000 0.991200
O O2 0.388612 0.849647 0.922041
O O3 0.303712 0.867810 0.106450
O O4 0.112429 0.934157 0.976673
O O5 0.500000 0.500000 0.457482
O O6 0.372508 0.590465 0.306021
O O7 0.313291 0.641086 0.494042
O O8 0.104267 0.429645 0.110536
O O9 0.405566 0.750000 0.230390
O O10 0.599853 0.877046 0.173708
O O11 0.809066 0.750000 0.130046
#
# Coordination Sequence:
#
# PCOD9361675 Si02
#       5
#     8   8   4   8   8
#     4  10  22  40  60  85 117 151 190 237 286 337
#     4  11  20  36  64  89 111 147 195 244 285 329
#     4  12  22  38  58  86 120 156 190 224 286 352
#     4   9  20  38  62  86 110 148 193 241 288 329
#     4  10  22  40  60  85 117 151 190 237 286 337
#
# _framework density 22.353812999999999
#
# number of rings (size 3 to 8) (size 9 to 14) (size 15 to 20)
#    0.000    1.778    2.222    4.000    3.111    0.000 
#    0.000    4.444    0.000    5.333    0.000    0.000 
#    0.000    0.000    0.000    0.000    0.000    0.000 
#
# Total GULP energy -100532.934673 kJ/mol
# GULP energy per Si atom -5585.163037 kJ/mol
# Density = 2.230293 g / cm^3
# Si number density = 22.353813 Si / 1000 Ang^3
#
#
#
# Elastic Constant Matrix: (Units=GPa)
#
#
# Indices 1 2 3 4 5 6 
#
# 1 65.7068 45.0736 -11.4270 0.0000 0.0000 0.0000
# 2 45.0736 129.5033 1.4027 0.0000 0.0000 0.0000
# 3 -11.4270 1.4027 66.2104 0.0000 0.0000 0.0000
# 4 0.0000 0.0000 0.0000 16.0684 0.0000 0.0000
# 5 0.0000 0.0000 0.0000 0.0000 2.6238 0.0000
# 6 0.0000 0.0000 0.0000 0.0000 0.0000 44.1839
#
#
#
# Elastic Compliance Matrix: (Units=1/GPa)
#
#
# Indices 1 2 3 4 5 6 
#
# 1 0.020888 -0.007311 0.003760 0.000000 0.000000 0.000000
# 2 -0.007311 0.010282 -0.001480 0.000000 0.000000 0.000000
# 3 0.003760 -0.001480 0.015784 0.000000 0.000000 0.000000
# 4 0.000000 0.000000 0.000000 0.062234 0.000000 0.000000
# 5 0.000000 0.000000 0.000000 0.000000 0.381122 0.000000
# 6 0.000000 0.000000 0.000000 0.000000 0.000000 0.022633
#
#
# Mechanical properties :
#
#
# Convention : Reuss Voigt Hill
#
# Bulk Modulus (GPa) = 27.10540 36.83546 31.97043
# Shear Modulus (GPa) = 9.34053 27.66664 18.50359
#
# Velocity S-wave (km/s) = 2.04635 3.52187 2.88020
# Velocity P-wave (km/s) = 4.21134 5.74911 5.03923
#
# Compressibility (1/GPa) = 0.03689302
#
# Stress axis : x y z
#
# Youngs Moduli (GPa) = 47.87417 97.25388 63.35682
#
# Poissons Ratio (x) = 0.71101 -0.23821
# Poissons Ratio (y) = 0.35000 0.09374
# Poissons Ratio (z) = -0.18000 0.14390
#
# Static dielectric constant tensor:
#      x y z
#    x 1.863580 0.000000 0.000000 
#    y 0.000000 1.874170 0.000000 
#    z 0.000000 0.000000 1.796650 
# 
# From -- ./inp_files/7982.got.cif
#   From: 2010.05.17/outbox.cif.g08.bks.cpg/sg39_4_cif.got.tgz:7982.got - 2010.06.03 18:22:40.
