data_PCOD9361135
_publ_section_title
;
Structure prediction by ZEFSAII (Michael W. Deem and Ramdas Pophale) SiO2 
 PCOD9361135
Probable space group: A B M 2
;
_chemical_formula_sum "Si O2"
_cell_formula_units_Z 44
_cell_length_a 15.674477
_cell_length_b 9.933784
_cell_length_c 14.661394
_cell_angle_alpha 90.000000
_cell_angle_beta 90.000000
_cell_angle_gamma 90.000000
_cell_volume 2282.879752
_symmetry_space_group_name_H-M "A B M 2"
_symmetry_group_IT_number 39
_symmetry_cell_setting 'orthorhombic'
loop_
_space_group_symop_operation_xyz
x,y,z
-x,-y,z
-x,1/2+y,z
x,1/2-y,z
x,1/2+y,1/2+z
-x,1/2-y,1/2+z
-x,y,1/2+z
x,-y,1/2+z
loop_
_atom_site_type_symbol
_atom_site_label
_atom_site_fract_x
_atom_site_fract_y
_atom_site_fract_z
Si Si1 0.370460 0.409576 0.921870
Si Si2 0.826905 0.908822 0.879193
Si Si3 0.375813 0.097571 0.124838
Si Si4 0.078856 0.409230 0.519677
Si Si5 0.500000 0.500000 0.767437
Si Si6 0.777834 0.903804 0.674771
O O1 0.380972 0.250000 0.918256
O O2 0.270194 0.438722 0.910788
O O3 0.425022 0.461414 0.837282
O O4 0.398629 0.453925 0.023077
O O5 0.845048 0.750000 0.899965
O O6 0.825566 0.925876 0.770447
O O7 0.888406 0.012691 0.929687
O O8 0.343344 0.250000 0.114418
O O9 0.453897 0.098265 0.195468
O O10 0.300528 0.004082 0.162177
O O11 0.058790 0.250000 0.505759
O O12 0.155483 0.416201 0.592623
O O13 0.000000 0.500000 0.553405
O O14 0.744584 0.750000 0.677300
#
# Coordination Sequence:
#
# PCOD9361135 Si02
#       6
#     8   8   8   8   4   8
#     4  10  21  38  58  85 123 166 206 254 314 364
#     4  10  20  40  66  89 124 168 204 251 311 367
#     4  11  23  38  61  90 121 163 213 260 310 365
#     4  11  24  42  66  97 126 159 203 254 306 370
#     4  12  22  38  58  90 126 164 214 260 306 366
#     4  10  22  41  65  91 125 165 204 249 311 371
#
# _framework density 19.273900999999999
#
# number of rings (size 3 to 8) (size 9 to 14) (size 15 to 20)
#    0.000    1.455    3.636    1.636    0.000    2.909 
#    0.000    3.636    0.000    0.000    0.000    0.000 
#    0.000    0.000    0.000    0.000    0.000    0.000 
#
# Total GULP energy -122695.494102 kJ/mol
# GULP energy per Si atom -5577.067914 kJ/mol
# Density = 1.923003 g / cm^3
# Si number density = 19.273901 Si / 1000 Ang^3
#
#
#
# Elastic Constant Matrix: (Units=GPa)
#
#
# Indices 1 2 3 4 5 6 
#
# 1 39.7302 37.7258 20.3515 0.0000 0.0000 0.0000
# 2 37.7258 101.2808 39.2721 0.0000 0.0000 0.0000
# 3 20.3515 39.2721 105.4880 0.0000 0.0000 0.0000
# 4 0.0000 0.0000 0.0000 21.4861 0.0000 0.0000
# 5 0.0000 0.0000 0.0000 0.0000 22.7532 0.0000
# 6 0.0000 0.0000 0.0000 0.0000 0.0000 19.4620
#
#
#
# Elastic Compliance Matrix: (Units=1/GPa)
#
#
# Indices 1 2 3 4 5 6 
#
# 1 0.039502 -0.013743 -0.002505 0.000000 0.000000 0.000000
# 2 -0.013743 0.016320 -0.003425 0.000000 0.000000 0.000000
# 3 -0.002505 -0.003425 0.011238 0.000000 0.000000 0.000000
# 4 0.000000 0.000000 0.000000 0.046542 0.000000 0.000000
# 5 0.000000 0.000000 0.000000 0.000000 0.043950 0.000000
# 6 0.000000 0.000000 0.000000 0.000000 0.000000 0.051382
#
#
# Mechanical properties :
#
#
# Convention : Reuss Voigt Hill
#
# Bulk Modulus (GPa) = 36.07978 49.02197 42.55088
# Shear Modulus (GPa) = 19.41616 22.68358 21.04987
#
# Velocity S-wave (km/s) = 3.17737 3.43433 3.30835
# Velocity P-wave (km/s) = 5.67636 6.41995 6.05957
#
# Compressibility (1/GPa) = 0.02771636
#
# Stress axis : x y z
#
# Youngs Moduli (GPa) = 25.31496 61.27276 88.98448
#
# Poissons Ratio (x) = 0.84206 0.22288
# Poissons Ratio (y) = 0.34790 0.30473
# Poissons Ratio (z) = 0.06341 0.20983
#
# Static dielectric constant tensor:
#      x y z
#    x 1.687050 0.000000 0.000000 
#    y 0.000000 1.669340 0.000000 
#    z 0.000000 0.000000 1.696640 
# 
# From -- ./inp_files/10000.got.cif
#   From: 2010.05.17/outbox.cif.g08.bks.cpg/sg39_5_cif.got.tgz:10000.got - 2010.06.03 18:22:40.
