data_PCOD9361280
_publ_section_title
;
Structure prediction by ZEFSAII (Michael W. Deem and Ramdas Pophale) SiO2 
 PCOD9361280
Probable space group: A B M 2
;
_chemical_formula_sum "Si O2"
_cell_formula_units_Z 64
_cell_length_a 20.623232
_cell_length_b 8.746137
_cell_length_c 19.994576
_cell_angle_alpha 90.000000
_cell_angle_beta 90.000000
_cell_angle_gamma 90.000000
_cell_volume 3606.493903
_symmetry_space_group_name_H-M "A B M 2"
_symmetry_group_IT_number 39
_symmetry_cell_setting 'orthorhombic'
loop_
_space_group_symop_operation_xyz
x,y,z
-x,-y,z
-x,1/2+y,z
x,1/2-y,z
x,1/2+y,1/2+z
-x,1/2-y,1/2+z
-x,y,1/2+z
x,-y,1/2+z
loop_
_atom_site_type_symbol
_atom_site_label
_atom_site_fract_x
_atom_site_fract_y
_atom_site_fract_z
Si Si1 0.823723 0.066825 0.321410
Si Si2 0.326011 0.931951 0.327152
Si Si3 0.570379 0.932876 0.072608
Si Si4 0.929338 0.932837 0.578282
Si Si5 0.929372 0.932705 0.421129
Si Si6 0.321688 0.432863 0.670032
Si Si7 0.430486 0.431821 0.425620
Si Si8 0.820148 0.067387 0.674375
O O1 0.828285 0.250000 0.314392
O O2 0.749340 0.031032 0.341485
O O3 0.874523 0.006220 0.375123
O O4 0.835479 0.991410 0.249190
O O5 0.335205 0.750000 0.337912
O O6 0.336252 0.963178 0.248369
O O7 0.375260 0.022893 0.373346
O O8 0.567607 0.750000 0.071667
O O9 0.500000 0.000000 0.091736
O O10 0.624973 0.991562 0.122992
O O11 0.584201 0.994947 0.998000
O O12 0.929776 0.750000 0.586931
O O13 0.917568 0.966225 0.499665
O O14 0.874299 0.006733 0.623780
O O15 0.000000 0.000000 0.595328
O O16 0.930027 0.750000 0.412590
O O17 0.000000 0.000000 0.403983
O O18 0.320886 0.250000 0.660746
O O19 0.250267 0.499086 0.656238
O O20 0.500000 0.500000 0.404044
O O21 0.435868 0.250000 0.432658
O O22 0.817538 0.250000 0.673540
#
# Coordination Sequence:
#
# PCOD9361280 Si02
#       8
#     8   8   8   8   8   8   8   8
#     4  10  21  38  59  82 112 147 184 228 275 326
#     4   9  20  38  58  81 111 145 182 227 275 325
#     4  11  22  38  59  83 113 147 186 230 277 329
#     4  10  21  38  58  82 113 147 186 231 279 330
#     4  10  21  37  58  83 112 145 183 228 275 328
#     4  10  21  39  60  83 113 147 185 229 277 328
#     4  11  22  37  58  82 112 147 185 229 275 327
#     4  11  22  37  58  84 114 147 185 228 277 331
#
# _framework density 17.745767000000001
#
# number of rings (size 3 to 8) (size 9 to 14) (size 15 to 20)
#    0.000    1.750    0.000    6.375    0.000    6.500 
#    0.000    5.000    0.000    0.000    0.000    0.000 
#    0.000    0.000    0.000    0.000    0.000    0.000 
#
# Total GULP energy -178813.442424 kJ/mol
# GULP energy per Si atom -5587.920076 kJ/mol
# Density = 1.770538 g / cm^3
# Si number density = 17.745767 Si / 1000 Ang^3
#
#
#
# Elastic Constant Matrix: (Units=GPa)
#
#
# Indices 1 2 3 4 5 6 
#
# 1 163.4364 100.0309 116.3159 0.0000 0.0000 0.0000
# 2 100.0309 143.7911 81.2912 0.0000 0.0000 0.0000
# 3 116.3159 81.2912 95.0800 0.0000 0.0000 0.0000
# 4 0.0000 0.0000 0.0000 30.7634 0.0000 0.0000
# 5 0.0000 0.0000 0.0000 0.0000 41.6594 0.0000
# 6 0.0000 0.0000 0.0000 0.0000 0.0000 36.0900
#
#
#
# Elastic Compliance Matrix: (Units=1/GPa)
#
#
# Indices 1 2 3 4 5 6 
#
# 1 0.047311 -0.000372 -0.057560 0.000000 0.000000 0.000000
# 2 -0.000372 0.013464 -0.011057 0.000000 0.000000 0.000000
# 3 -0.057560 -0.011057 0.090386 0.000000 0.000000 0.000000
# 4 0.000000 0.000000 0.000000 0.032506 0.000000 0.000000
# 5 0.000000 0.000000 0.000000 0.000000 0.024004 0.000000
# 6 0.000000 0.000000 0.000000 0.000000 0.000000 0.027709
#
#
# Mechanical properties :
#
#
# Convention : Reuss Voigt Hill
#
# Bulk Modulus (GPa) = 75.84506 110.84261 93.34384
# Shear Modulus (GPa) = 13.23623 28.68051 20.95837
#
# Velocity S-wave (km/s) = 2.73405 4.02455 3.44035
# Velocity P-wave (km/s) = 7.26631 9.17567 8.27624
#
# Compressibility (1/GPa) = 0.01318477
#
# Stress axis : x y z
#
# Youngs Moduli (GPa) = 21.13687 74.27283 11.06361
#
# Poissons Ratio (x) = 0.02760 0.63682
# Poissons Ratio (y) = 0.00785 0.12233
# Poissons Ratio (z) = 1.21663 0.82122
#
# Static dielectric constant tensor:
#      x y z
#    x 1.576650 0.000000 0.000000 
#    y 0.000000 1.590640 0.000000 
#    z 0.000000 0.000000 1.580720 
# 
# From -- ./inp_files/13233.got.cif
#   From: 2010.05.17/outbox.cif.g08.bks.cpg/sg39_7_cif.got.tgz:13233.got - 2010.06.03 18:22:40.
