data_PCOD9361613
_publ_section_title
;
Structure prediction by ZEFSAII (Michael W. Deem and Ramdas Pophale) SiO2 
 PCOD9361613
Probable space group: A B M 2
;
_chemical_formula_sum "Si O2"
_cell_formula_units_Z 48
_cell_length_a 9.226475
_cell_length_b 8.591057
_cell_length_c 32.150331
_cell_angle_alpha 90.000000
_cell_angle_beta 90.000000
_cell_angle_gamma 90.000000
_cell_volume 2548.401537
_symmetry_space_group_name_H-M "A B M 2"
_symmetry_group_IT_number 39
_symmetry_cell_setting 'orthorhombic'
loop_
_space_group_symop_operation_xyz
x,y,z
-x,-y,z
-x,1/2+y,z
x,1/2-y,z
x,1/2+y,1/2+z
-x,1/2-y,1/2+z
-x,y,1/2+z
x,-y,1/2+z
loop_
_atom_site_type_symbol
_atom_site_label
_atom_site_fract_x
_atom_site_fract_y
_atom_site_fract_z
Si Si1 0.162821 0.936055 0.694390
Si Si2 0.664768 0.435770 0.115381
Si Si3 0.837973 0.437880 0.356252
Si Si4 0.337065 0.437290 0.773604
Si Si5 0.336193 0.062158 0.937211
Si Si6 0.664759 0.063101 0.528716
O O1 0.161282 0.750000 0.694179
O O2 0.242182 0.997763 0.653128
O O3 0.250592 0.996364 0.734339
O O4 0.000000 0.000000 0.696095
O O5 0.500000 0.500000 0.118649
O O6 0.659866 0.250000 0.117018
O O7 0.727617 0.490056 0.070694
O O8 0.842283 0.250000 0.357033
O O9 0.743659 0.484273 0.316187
O O10 0.761108 0.491932 0.398799
O O11 0.000000 0.500000 0.352877
O O12 0.500000 0.500000 0.773491
O O13 0.338711 0.250000 0.771214
O O14 0.343798 0.250000 0.936018
O O15 0.500000 0.000000 0.933094
O O16 0.275541 0.019983 0.983095
O O17 0.663828 0.250000 0.532741
O O18 0.500000 0.000000 0.527489
#
# Coordination Sequence:
#
# PCOD9361613 Si02
#       6
#     8   8   8   8   8   8
#     4  12  25  42  61  84 115 149 186 229 281 337
#     4  11  21  36  58  85 115 149 191 235 282 333
#     4  10  22  38  56  81 114 150 187 228 277 332
#     4  11  23  40  62  88 115 146 187 232 279 331
#     4   9  18  33  54  81 111 145 187 234 280 329
#     4   9  16  29  51  79 111 145 185 234 283 328
#
# _framework density 18.835336000000002
#
# number of rings (size 3 to 8) (size 9 to 14) (size 15 to 20)
#    0.000    1.667    0.000    6.500    0.000    4.000 
#    0.000    0.833    0.000    2.000    0.000    0.000 
#    0.000    0.000    0.000    0.000    0.000    0.000 
#
# Total GULP energy -134060.114402 kJ/mol
# GULP energy per Si atom -5585.838100 kJ/mol
# Density = 1.879247 g / cm^3
# Si number density = 18.835336 Si / 1000 Ang^3
#
#
#
# Elastic Constant Matrix: (Units=GPa)
#
#
# Indices 1 2 3 4 5 6 
#
# 1 131.5813 45.2895 105.5612 0.0000 0.0000 0.0000
# 2 45.2895 101.5937 71.4019 0.0000 0.0000 0.0000
# 3 105.5612 71.4019 230.7445 0.0000 0.0000 0.0000
# 4 0.0000 0.0000 0.0000 -0.2237 0.0000 0.0000
# 5 0.0000 0.0000 0.0000 0.0000 16.0700 0.0000
# 6 0.0000 0.0000 0.0000 0.0000 0.0000 31.6868
#
#
#
# Elastic Compliance Matrix: (Units=1/GPa)
#
#
# Indices 1 2 3 4 5 6 
#
# 1 0.012302 -0.001954 -0.005024 0.000000 0.000000 0.000000
# 2 -0.001954 0.012889 -0.003095 0.000000 0.000000 0.000000
# 3 -0.005024 -0.003095 0.007590 0.000000 0.000000 0.000000
# 4 0.000000 0.000000 0.000000 -4.469287 0.000000 0.000000
# 5 0.000000 0.000000 0.000000 0.000000 0.062228 0.000000
# 6 0.000000 0.000000 0.000000 0.000000 0.000000 0.031559
#
#
# Mechanical properties :
#
#
# Convention : Reuss Voigt Hill
#
# Bulk Modulus (GPa) = 79.13067 100.93607 90.03337
# Shear Modulus (GPa) = -1.15785 25.61772 12.22994
#
# Velocity S-wave (km/s) = -0.78489 3.69194 2.55092
# Velocity P-wave (km/s) = 6.42508 8.47814 7.52198
#
# Compressibility (1/GPa) = 0.01263732
#
# Stress axis : x y z
#
# Youngs Moduli (GPa) = 81.28430 77.58550 131.75892
#
# Poissons Ratio (x) = 0.15157 0.66191
# Poissons Ratio (y) = 0.15880 0.40775
# Poissons Ratio (z) = 0.40834 0.24010
#
# Static dielectric constant tensor:
#      x y z
#    x 1.593380 0.000000 0.000000 
#    y 0.000000 1.643470 0.000000 
#    z 0.000000 0.000000 1.681380 
# 
# From -- ./inp_files/17606.got.cif
#   From: 2010.05.17/outbox.cif.g08.bks.cpg/sg39_9_cif.got.tgz:17606.got - 2010.06.03 18:22:40.
