data_PCOD9361599
_publ_section_title
;
Structure prediction by ZEFSAII (Michael W. Deem and Ramdas Pophale) SiO2 
 PCOD9361599
Probable space group: A B M 2
;
_chemical_formula_sum "Si O2"
_cell_formula_units_Z 48
_cell_length_a 8.595382
_cell_length_b 29.986951
_cell_length_c 8.987860
_cell_angle_alpha 90.000000
_cell_angle_beta 90.000000
_cell_angle_gamma 90.000000
_cell_volume 2316.614613
_symmetry_space_group_name_H-M "A B M 2"
_symmetry_group_IT_number 39
_symmetry_cell_setting 'orthorhombic'
loop_
_space_group_symop_operation_xyz
x,y,z
-x,-y,z
-x,1/2+y,z
x,1/2-y,z
x,1/2+y,1/2+z
-x,1/2-y,1/2+z
-x,y,1/2+z
x,-y,1/2+z
loop_
_atom_site_type_symbol
_atom_site_label
_atom_site_fract_x
_atom_site_fract_y
_atom_site_fract_z
Si Si1 0.724813 0.198471 0.625000
Si Si2 0.548821 0.801791 0.818782
Si Si3 0.953048 0.375209 0.504411
Si Si4 0.341395 0.526927 0.268552
Si Si5 0.230998 0.123133 0.695350
Si Si6 0.852696 0.527406 0.050550
O O1 0.777747 0.250000 0.627898
O O2 0.629184 0.188478 0.774848
O O3 0.598987 0.194036 0.490476
O O4 0.862168 0.165175 0.583457
O O5 0.575898 0.750000 0.776308
O O6 0.658001 0.835560 0.729546
O O7 0.893820 0.377519 0.333572
O O8 0.902643 0.422155 0.576117
O O9 0.134605 0.371898 0.543476
O O10 0.500000 0.500000 0.247798
O O11 0.328194 0.577002 0.203746
O O12 0.204559 0.498830 0.193020
O O13 0.293745 0.529110 0.440260
O O14 0.000000 0.500000 0.988692
#
# Coordination Sequence:
#
# PCOD9361599 Si02
#       6
#     8   8   8   8   8   8
#     4   9  19  37  59  84 115 149 189 236 288 343
#     4   9  19  37  58  83 116 150 186 236 289 341
#     4  10  22  37  57  84 112 150 191 233 289 341
#     4  11  24  39  58  86 116 151 196 240 290 341
#     4  10  22  39  56  85 115 150 191 237 287 342
#     4  11  22  40  60  82 116 155 191 239 291 344
#
# _framework density 20.719888999999998
#
# number of rings (size 3 to 8) (size 9 to 14) (size 15 to 20)
#    0.000    2.000    1.667    1.000    4.667    2.000 
#    3.000    0.000    0.000    0.000    0.000    0.000 
#    0.000    0.000    0.000    0.000    0.000    0.000 
#
# Total GULP energy -133958.426029 kJ/mol
# GULP energy per Si atom -5581.601085 kJ/mol
# Density = 2.067273 g / cm^3
# Si number density = 20.719889 Si / 1000 Ang^3
#
#
#
# Elastic Constant Matrix: (Units=GPa)
#
#
# Indices 1 2 3 4 5 6 
#
# 1 79.2564 43.4861 21.3711 0.0000 0.0000 0.0000
# 2 43.4861 101.1353 26.5126 0.0000 0.0000 0.0000
# 3 21.3711 26.5126 18.1538 0.0000 0.0000 0.0000
# 4 0.0000 0.0000 0.0000 16.3668 0.0000 0.0000
# 5 0.0000 0.0000 0.0000 0.0000 37.0841 0.0000
# 6 0.0000 0.0000 0.0000 0.0000 0.0000 26.5828
#
#
#
# Elastic Compliance Matrix: (Units=1/GPa)
#
#
# Indices 1 2 3 4 5 6 
#
# 1 0.019348 -0.003805 -0.017220 0.000000 0.000000 0.000000
# 2 -0.003805 0.016770 -0.020012 0.000000 0.000000 0.000000
# 3 -0.017220 -0.020012 0.104584 0.000000 0.000000 0.000000
# 4 0.000000 0.000000 0.000000 0.061099 0.000000 0.000000
# 5 0.000000 0.000000 0.000000 0.000000 0.026966 0.000000
# 6 0.000000 0.000000 0.000000 0.000000 0.000000 0.037618
#
#
# Mechanical properties :
#
#
# Convention : Reuss Voigt Hill
#
# Bulk Modulus (GPa) = 17.05695 42.36500 29.71098
# Shear Modulus (GPa) = 13.58683 23.15181 18.36932
#
# Velocity S-wave (km/s) = 2.56352 3.34634 2.98074
# Velocity P-wave (km/s) = 4.12458 5.95160 5.12024
#
# Compressibility (1/GPa) = 0.05862711
#
# Stress axis : x y z
#
# Youngs Moduli (GPa) = 51.68384 59.62986 9.56169
#
# Poissons Ratio (x) = 0.22690 0.16465
# Poissons Ratio (y) = 0.19666 0.19135
# Poissons Ratio (z) = 0.89001 1.19333
#
# Static dielectric constant tensor:
#      x y z
#    x 1.756190 0.000000 0.000000 
#    y 0.000000 1.713980 0.000000 
#    z 0.000000 0.000000 1.747520 
# 
# From -- ./inp_files/2302.got.cif
#   From: 2010.05.17/outbox.cif.g08.bks.cpg/sg39_2_cif.got.tgz:2302.got - 2010.06.03 18:22:40.
