data_PCOD9361305
_publ_section_title
;
Structure prediction by ZEFSAII (Michael W. Deem and Ramdas Pophale) SiO2 
 PCOD9361305
Probable space group: A B M 2
;
_chemical_formula_sum "Si O2"
_cell_formula_units_Z 48
_cell_length_a 9.481989
_cell_length_b 28.100614
_cell_length_c 8.583569
_cell_angle_alpha 90.000000
_cell_angle_beta 90.000000
_cell_angle_gamma 90.000000
_cell_volume 2287.089495
_symmetry_space_group_name_H-M "A B M 2"
_symmetry_group_IT_number 39
_symmetry_cell_setting 'orthorhombic'
loop_
_space_group_symop_operation_xyz
x,y,z
-x,-y,z
-x,1/2+y,z
x,1/2-y,z
x,1/2+y,1/2+z
-x,1/2-y,1/2+z
-x,y,1/2+z
x,-y,1/2+z
loop_
_atom_site_type_symbol
_atom_site_label
_atom_site_fract_x
_atom_site_fract_y
_atom_site_fract_z
Si Si1 0.862586 0.803137 0.674130
Si Si2 0.222908 0.933125 0.023986
Si Si3 0.665093 0.389784 0.509653
Si Si4 0.406356 0.146312 0.666139
Si Si5 0.029742 0.863560 0.456817
Si Si6 0.658561 0.015989 0.326881
O O1 0.893800 0.750000 0.728500
O O2 0.694295 0.808201 0.646266
O O3 0.913876 0.845724 0.789221
O O4 0.949353 0.817420 0.521994
O O5 0.335556 0.891109 0.046709
O O6 0.246805 0.960293 0.190202
O O7 0.077171 0.907600 0.977820
O O8 0.265767 0.969601 0.891448
O O9 0.569502 0.362014 0.632984
O O10 0.620231 0.367952 0.343652
O O11 0.827316 0.378539 0.543860
O O12 0.646146 0.445888 0.470300
O O13 0.500000 0.000000 0.277764
#
# Coordination Sequence:
#
# PCOD9361305 Si02
#       6
#     8   8   8   8   8   8
#     4  10  21  42  68  92 121 162 211 267 335 408
#     4  10  22  38  59  90 127 170 219 263 313 364
#     4  10  21  37  60  87 124 168 208 259 316 369
#     4   9  20  38  59  88 121 161 210 261 318 381
#     4  10  23  42  62  94 131 165 206 269 333 389
#     4  11  21  36  64  90 125 176 227 258 300 372
#
# _framework density 20.987372000000001
#
# number of rings (size 3 to 8) (size 9 to 14) (size 15 to 20)
#    0.000    2.000    1.667    2.000    2.333    4.667 
#    0.000    9.167    0.000    0.000    0.000    0.000 
#    0.000    0.000    0.000    0.000    0.000    0.000 
#
# Total GULP energy -133695.209998 kJ/mol
# GULP energy per Si atom -5570.633750 kJ/mol
# Density = 2.093960 g / cm^3
# Si number density = 20.987372 Si / 1000 Ang^3
#
#
#
# Elastic Constant Matrix: (Units=GPa)
#
#
# Indices 1 2 3 4 5 6 
#
# 1 125.6014 52.2832 23.9605 0.0000 0.0000 0.0000
# 2 52.2832 98.9511 33.1009 0.0000 0.0000 0.0000
# 3 23.9605 33.1009 37.8053 0.0000 0.0000 0.0000
# 4 0.0000 0.0000 0.0000 4.1009 0.0000 0.0000
# 5 0.0000 0.0000 0.0000 0.0000 19.8440 0.0000
# 6 0.0000 0.0000 0.0000 0.0000 0.0000 19.2094
#
#
#
# Elastic Compliance Matrix: (Units=1/GPa)
#
#
# Indices 1 2 3 4 5 6 
#
# 1 0.010372 -0.004641 -0.002511 0.000000 0.000000 0.000000
# 2 -0.004641 0.016368 -0.011390 0.000000 0.000000 0.000000
# 3 -0.002511 -0.011390 0.038015 0.000000 0.000000 0.000000
# 4 0.000000 0.000000 0.000000 0.243847 0.000000 0.000000
# 5 0.000000 0.000000 0.000000 0.000000 0.050393 0.000000
# 6 0.000000 0.000000 0.000000 0.000000 0.000000 0.052058
#
#
# Mechanical properties :
#
#
# Convention : Reuss Voigt Hill
#
# Bulk Modulus (GPa) = 36.13648 53.44965 44.79307
# Shear Modulus (GPa) = 10.93227 18.83175 14.88201
#
# Velocity S-wave (km/s) = 2.28479 2.99873 2.66577
# Velocity P-wave (km/s) = 4.92097 6.12476 5.55557
#
# Compressibility (1/GPa) = 0.02767286
#
# Stress axis : x y z
#
# Youngs Moduli (GPa) = 96.40996 61.09407 26.30515
#
# Poissons Ratio (x) = 0.28351 0.06605
# Poissons Ratio (y) = 0.44740 0.29962
# Poissons Ratio (z) = 0.24206 0.69587
#
# Static dielectric constant tensor:
#      x y z
#    x 1.824670 0.000000 0.000000 
#    y 0.000000 1.789650 0.000000 
#    z 0.000000 0.000000 1.824600 
# 
# From -- ./inp_files/2304.got.cif
#   From: 2010.05.17/outbox.cif.g08.bks.cpg/sg39_2_cif.got.tgz:2304.got - 2010.06.03 18:22:40.
