data_PCOD9361344
_publ_section_title
;
Structure prediction by ZEFSAII (Michael W. Deem and Ramdas Pophale) SiO2 
 PCOD9361344
Probable space group: A B M 2
;
_chemical_formula_sum "Si O2"
_cell_formula_units_Z 64
_cell_length_a 19.336347
_cell_length_b 8.784456
_cell_length_c 19.940629
_cell_angle_alpha 90.000000
_cell_angle_beta 90.000000
_cell_angle_gamma 90.000000
_cell_volume 3387.101073
_symmetry_space_group_name_H-M "A B M 2"
_symmetry_group_IT_number 39
_symmetry_cell_setting 'orthorhombic'
loop_
_space_group_symop_operation_xyz
x,y,z
-x,-y,z
-x,1/2+y,z
x,1/2-y,z
x,1/2+y,1/2+z
-x,1/2-y,1/2+z
-x,y,1/2+z
x,-y,1/2+z
loop_
_atom_site_type_symbol
_atom_site_label
_atom_site_fract_x
_atom_site_fract_y
_atom_site_fract_z
Si Si1 0.693258 0.068640 0.414130
Si Si2 0.151453 0.071930 0.886295
Si Si3 0.156369 0.431178 0.123180
Si Si4 0.702716 0.067050 0.062855
Si Si5 0.927488 0.571303 0.504243
Si Si6 0.424689 0.933330 0.157344
Si Si7 0.424662 0.566055 0.311474
Si Si8 0.923358 0.930791 0.745635
O O1 0.684734 0.250000 0.425536
O O2 0.766870 0.048632 0.377223
O O3 0.631982 0.015226 0.365479
O O4 0.696059 0.989697 0.486483
O O5 0.141675 0.250000 0.906512
O O6 0.106855 0.045021 0.820044
O O7 0.126375 0.964182 0.945574
O O8 0.160728 0.250000 0.124254
O O9 0.228847 0.499410 0.097577
O O10 0.130111 0.494837 0.193831
O O11 0.099054 0.485901 0.069972
O O12 0.707958 0.250000 0.063638
O O13 0.635418 0.020534 0.106114
O O14 0.933531 0.750000 0.516796
O O15 0.000000 0.500000 0.482700
O O16 0.429249 0.750000 0.155634
O O17 0.407670 0.978142 0.234423
O O18 0.500000 0.000000 0.140691
O O19 0.500000 0.500000 0.327101
O O20 0.427179 0.750000 0.313221
O O21 0.926849 0.750000 0.733235
O O22 0.000000 0.000000 0.738860
#
# Coordination Sequence:
#
# PCOD9361344 Si02
#       8
#     8   8   8   8   8   8   8   8
#     4  10  21  38  61  87 121 162 200 244 299 358
#     4  10  22  40  63  90 122 160 201 249 302 361
#     4  12  25  42  62  88 122 159 203 253 305 362
#     4  11  23  39  61  90 122 160 202 251 301 358
#     4  12  24  40  64  90 120 158 201 249 300 359
#     4   9  20  38  62  89 121 157 201 245 295 353
#     4   9  19  37  61  88 119 159 200 245 294 352
#     4  11  24  42  64  90 122 159 201 251 306 364
#
# _framework density 18.895213999999999
#
# number of rings (size 3 to 8) (size 9 to 14) (size 15 to 20)
#    0.000    1.500    1.250    3.750    1.750    4.000 
#    0.000    2.500    0.000    0.000    0.000    0.000 
#    0.000    0.000    0.000    0.000    0.000    0.000 
#
# Total GULP energy -178822.463063 kJ/mol
# GULP energy per Si atom -5588.201971 kJ/mol
# Density = 1.885221 g / cm^3
# Si number density = 18.895214 Si / 1000 Ang^3
#
#
#
# Elastic Constant Matrix: (Units=GPa)
#
#
# Indices 1 2 3 4 5 6 
#
# 1 92.9113 23.3526 31.5180 0.0000 0.0000 0.0000
# 2 23.3526 59.0472 30.5026 0.0000 0.0000 0.0000
# 3 31.5180 30.5026 59.1745 0.0000 0.0000 0.0000
# 4 0.0000 0.0000 0.0000 21.6515 0.0000 0.0000
# 5 0.0000 0.0000 0.0000 0.0000 47.3053 0.0000
# 6 0.0000 0.0000 0.0000 0.0000 0.0000 31.1756
#
#
#
# Elastic Compliance Matrix: (Units=1/GPa)
#
#
# Indices 1 2 3 4 5 6 
#
# 1 0.013341 -0.002188 -0.005978 0.000000 0.000000 0.000000
# 2 -0.002188 0.023441 -0.010918 0.000000 0.000000 0.000000
# 3 -0.005978 -0.010918 0.025711 0.000000 0.000000 0.000000
# 4 0.000000 0.000000 0.000000 0.046186 0.000000 0.000000
# 5 0.000000 0.000000 0.000000 0.000000 0.021139 0.000000
# 6 0.000000 0.000000 0.000000 0.000000 0.000000 0.032076
#
#
# Mechanical properties :
#
#
# Convention : Reuss Voigt Hill
#
# Bulk Modulus (GPa) = 41.10925 42.43106 41.77015
# Shear Modulus (GPa) = 24.01891 28.41048 26.21469
#
# Velocity S-wave (km/s) = 3.56921 3.88181 3.72879
# Velocity P-wave (km/s) = 6.22811 6.52656 6.37908
#
# Compressibility (1/GPa) = 0.02432543
#
# Stress axis : x y z
#
# Youngs Moduli (GPa) = 74.95840 42.66071 38.89423
#
# Poissons Ratio (x) = 0.09335 0.23250
# Poissons Ratio (y) = 0.16402 0.42463
# Poissons Ratio (z) = 0.44808 0.46575
#
# Static dielectric constant tensor:
#      x y z
#    x 1.636790 0.000000 0.000000 
#    y 0.000000 1.638300 0.000000 
#    z 0.000000 0.000000 1.639280 
# 
# From -- ./inp_files/13220.got.cif
#   From: 2010.05.17/outbox.cif.g08.bks.cpg/sg39_7_cif.got.tgz:13220.got - 2010.06.03 18:22:40.
