data_PCOD9361729
_publ_section_title
;
Structure prediction by ZEFSAII (Michael W. Deem and Ramdas Pophale) SiO2 
 PCOD9361729
Probable space group: A B M 2
;
_chemical_formula_sum "Si O2"
_cell_formula_units_Z 48
_cell_length_a 6.261701
_cell_length_b 25.038240
_cell_length_c 14.094855
_cell_angle_alpha 90.000000
_cell_angle_beta 90.000000
_cell_angle_gamma 90.000000
_cell_volume 2209.819168
_symmetry_space_group_name_H-M "A B M 2"
_symmetry_group_IT_number 39
_symmetry_cell_setting 'orthorhombic'
loop_
_space_group_symop_operation_xyz
x,y,z
-x,-y,z
-x,1/2+y,z
x,1/2-y,z
x,1/2+y,1/2+z
-x,1/2-y,1/2+z
-x,y,1/2+z
x,-y,1/2+z
loop_
_atom_site_type_symbol
_atom_site_label
_atom_site_fract_x
_atom_site_fract_y
_atom_site_fract_z
Si Si1 0.379846 0.632519 0.896400
Si Si2 0.102121 0.611557 0.147870
Si Si3 0.651270 0.551975 0.792665
Si Si4 0.477527 0.812339 0.076493
Si Si5 0.983878 0.439019 0.467075
Si Si6 0.173952 0.691682 0.744312
O O1 0.504822 0.603146 0.812733
O O2 0.204434 0.589191 0.932043
O O3 0.272124 0.683510 0.847801
O O4 0.528605 0.654581 0.980570
O O5 0.226187 0.561642 0.194100
O O6 0.268084 0.655803 0.110610
O O7 0.979364 0.641687 0.230769
O O8 0.944822 0.594069 0.063510
O O9 0.500000 0.500000 0.794095
O O10 0.817601 0.555343 0.880421
O O11 0.434777 0.750000 0.055628
O O12 0.653198 0.812338 0.159551
O O13 0.000000 0.500000 0.499340
O O14 0.070182 0.750000 0.736256
#
# Coordination Sequence:
#
# PCOD9361729 Si02
#       6
#     8   8   8   8   8   8
#     4  11  22  41  64  94 130 167 219 269 328 386
#     4  11  24  42  66  96 130 170 217 271 330 394
#     4  12  24  43  69  97 131 176 219 271 330 398
#     4  10  22  41  63  92 128 170 218 271 327 390
#     4  11  24  43  65  95 130 171 216 275 326 391
#     4  11  22  40  67  94 129 169 214 268 327 392
#
# _framework density 21.721233999999999
#
# number of rings (size 3 to 8) (size 9 to 14) (size 15 to 20)
#    0.000    1.000    5.000    2.000    0.000    2.000 
#    6.000    0.000    0.000    0.000    0.000    0.000 
#    0.000    0.000    0.000    0.000    0.000    0.000 
#
# Total GULP energy -133844.289173 kJ/mol
# GULP energy per Si atom -5576.845382 kJ/mol
# Density = 2.167180 g / cm^3
# Si number density = 21.721234 Si / 1000 Ang^3
#
#
#
# Elastic Constant Matrix: (Units=GPa)
#
#
# Indices 1 2 3 4 5 6 
#
# 1 36.2776 31.5572 12.5378 0.0000 0.0000 0.0000
# 2 31.5572 119.6265 35.9855 0.0000 0.0000 0.0000
# 3 12.5378 35.9855 67.6337 0.0000 0.0000 0.0000
# 4 0.0000 0.0000 0.0000 30.4286 0.0000 0.0000
# 5 0.0000 0.0000 0.0000 0.0000 32.8597 0.0000
# 6 0.0000 0.0000 0.0000 0.0000 0.0000 30.9815
#
#
#
# Elastic Compliance Matrix: (Units=1/GPa)
#
#
# Indices 1 2 3 4 5 6 
#
# 1 0.035985 -0.008912 -0.001929 0.000000 0.000000 0.000000
# 2 -0.008912 0.012160 -0.004818 0.000000 0.000000 0.000000
# 3 -0.001929 -0.004818 0.017706 0.000000 0.000000 0.000000
# 4 0.000000 0.000000 0.000000 0.032864 0.000000 0.000000
# 5 0.000000 0.000000 0.000000 0.000000 0.030432 0.000000
# 6 0.000000 0.000000 0.000000 0.000000 0.000000 0.032277
#
#
# Mechanical properties :
#
#
# Convention : Reuss Voigt Hill
#
# Bulk Modulus (GPa) = 28.95776 42.63319 35.79548
# Shear Modulus (GPa) = 24.47950 28.41778 26.44864
#
# Velocity S-wave (km/s) = 3.36070 3.62096 3.49326
# Velocity P-wave (km/s) = 5.33100 6.09523 5.72588
#
# Compressibility (1/GPa) = 0.03453306
#
# Stress axis : x y z
#
# Youngs Moduli (GPa) = 27.78971 82.23934 56.47699
#
# Poissons Ratio (x) = 0.73295 0.10893
# Poissons Ratio (y) = 0.24767 0.27208
# Poissons Ratio (z) = 0.05360 0.39619
#
# Static dielectric constant tensor:
#      x y z
#    x 1.848120 0.000000 0.000000 
#    y 0.000000 1.763720 0.000000 
#    z 0.000000 0.000000 1.820280 
# 
# From -- ./inp_files/7541.got.cif
#   From: 2010.05.17/outbox.cif.g08.bks.cpg/sg39_4_cif.got.tgz:7541.got - 2010.06.03 18:22:40.
