data_PCOD9361779
_publ_section_title
;
Structure prediction by ZEFSAII (Michael W. Deem and Ramdas Pophale) SiO2 
 PCOD9361779
Probable space group: A B M 2
;
_chemical_formula_sum "Si O2"
_cell_formula_units_Z 64
_cell_length_a 12.936745
_cell_length_b 18.081544
_cell_length_c 12.618346
_cell_angle_alpha 90.000000
_cell_angle_beta 90.000000
_cell_angle_gamma 90.000000
_cell_volume 2951.637110
_symmetry_space_group_name_H-M "A B M 2"
_symmetry_group_IT_number 39
_symmetry_cell_setting 'orthorhombic'
loop_
_space_group_symop_operation_xyz
x,y,z
-x,-y,z
-x,1/2+y,z
x,1/2-y,z
x,1/2+y,1/2+z
-x,1/2-y,1/2+z
-x,y,1/2+z
x,-y,1/2+z
loop_
_atom_site_type_symbol
_atom_site_label
_atom_site_fract_x
_atom_site_fract_y
_atom_site_fract_z
Si Si1 0.088842 0.442801 0.328430
Si Si2 0.621719 0.667700 0.975715
Si Si3 0.620029 0.968217 0.635173
Si Si4 0.896712 0.333190 0.652115
Si Si5 0.326481 0.620937 0.690756
Si Si6 0.437289 0.578474 0.906700
Si Si7 0.240044 0.425094 0.826262
Si Si8 0.054709 0.163856 0.907433
O O1 0.065219 0.405959 0.214020
O O2 0.192862 0.491462 0.335782
O O3 0.000000 0.500000 0.357681
O O4 0.059566 0.372757 0.401019
O O5 0.659397 0.750000 0.950906
O O6 0.515264 0.645916 0.922572
O O7 0.698883 0.607062 0.926910
O O8 0.604847 0.660769 0.101864
O O9 0.619647 0.932047 0.519425
O O10 0.675922 0.922526 0.729802
O O11 0.500000 0.000000 0.651689
O O12 0.689623 0.041354 0.636174
O O13 0.939410 0.250000 0.672382
O O14 0.778639 0.334182 0.692584
O O15 0.904379 0.345529 0.527039
O O16 0.374021 0.601305 0.803444
O O17 0.500000 0.500000 0.891559
O O18 0.137291 0.373775 0.826782
O O19 0.049064 0.250000 0.885869
#
# Coordination Sequence:
#
# PCOD9361779 Si02
#       8
#     8   8   8   8   8   8   8   8
#     4  10  23  41  67  99 130 168 225 287 342 415
#     4  12  25  41  66  98 136 183 230 283 340 407
#     4  11  22  41  67  99 137 187 237 291 339 400
#     4  11  23  41  66  95 132 175 220 280 351 418
#     4  12  22  40  65  96 135 175 232 281 336 410
#     4  11  25  42  67  98 138 184 237 289 341 398
#     4  11  22  41  67 102 134 178 233 286 340 409
#     4  10  22  43  69  99 136 178 225 285 358 427
#
# _framework density 21.682883
#
# number of rings (size 3 to 8) (size 9 to 14) (size 15 to 20)
#    0.000    1.000    5.000    3.000    0.000    2.500 
#    0.000    3.125    0.000    1.500    0.000    0.000 
#    0.000    0.000    0.000    0.000    0.000    0.000 
#
# Total GULP energy -178168.137071 kJ/mol
# GULP energy per Si atom -5567.754283 kJ/mol
# Density = 2.163353 g / cm^3
# Si number density = 21.682883 Si / 1000 Ang^3
#
#
#
# Elastic Constant Matrix: (Units=GPa)
#
#
# Indices 1 2 3 4 5 6 
#
# 1 81.1935 30.6666 66.6253 0.0000 0.0000 0.0000
# 2 30.6666 111.1870 47.1769 0.0000 0.0000 0.0000
# 3 66.6253 47.1769 161.6476 0.0000 0.0000 0.0000
# 4 0.0000 0.0000 0.0000 19.8110 0.0000 0.0000
# 5 0.0000 0.0000 0.0000 0.0000 27.1218 0.0000
# 6 0.0000 0.0000 0.0000 0.0000 0.0000 16.6742
#
#
#
# Elastic Compliance Matrix: (Units=1/GPa)
#
#
# Indices 1 2 3 4 5 6 
#
# 1 0.019069 -0.002197 -0.007219 0.000000 0.000000 0.000000
# 2 -0.002197 0.010518 -0.002164 0.000000 0.000000 0.000000
# 3 -0.007219 -0.002164 0.009793 0.000000 0.000000 0.000000
# 4 0.000000 0.000000 0.000000 0.050477 0.000000 0.000000
# 5 0.000000 0.000000 0.000000 0.000000 0.036871 0.000000
# 6 0.000000 0.000000 0.000000 0.000000 0.000000 0.059973
#
#
# Mechanical properties :
#
#
# Convention : Reuss Voigt Hill
#
# Bulk Modulus (GPa) = 61.64685 71.44064 66.54375
# Shear Modulus (GPa) = 23.22692 26.69202 24.95947
#
# Velocity S-wave (km/s) = 3.27649 3.51239 3.39649
# Velocity P-wave (km/s) = 6.54268 7.03340 6.79247
#
# Compressibility (1/GPa) = 0.01622143
#
# Stress axis : x y z
#
# Youngs Moduli (GPa) = 52.44027 95.07470 102.11174
#
# Poissons Ratio (x) = 0.20885 0.73710
# Poissons Ratio (y) = 0.11519 0.22100
# Poissons Ratio (z) = 0.37854 0.20577
#
# Static dielectric constant tensor:
#      x y z
#    x 1.899200 0.000000 0.000000 
#    y 0.000000 1.836960 0.000000 
#    z 0.000000 0.000000 1.836240 
# 
# From -- ./inp_files/6676.got.cif
#   From: 2010.05.17/outbox.cif.g08.bks.cpg/sg39_4_cif.got.tgz:6676.got - 2010.06.03 18:22:40.
