data_PCOD9361747
_publ_section_title
;
Structure prediction by ZEFSAII (Michael W. Deem and Ramdas Pophale) SiO2 
 PCOD9361747
Probable space group: A B M 2
;
_chemical_formula_sum "Si O2"
_cell_formula_units_Z 56
_cell_length_a 5.448188
_cell_length_b 31.923032
_cell_length_c 14.557406
_cell_angle_alpha 90.000000
_cell_angle_beta 90.000000
_cell_angle_gamma 90.000000
_cell_volume 2531.863063
_symmetry_space_group_name_H-M "A B M 2"
_symmetry_group_IT_number 39
_symmetry_cell_setting 'orthorhombic'
loop_
_space_group_symop_operation_xyz
x,y,z
-x,-y,z
-x,1/2+y,z
x,1/2-y,z
x,1/2+y,1/2+z
-x,1/2-y,1/2+z
-x,y,1/2+z
x,-y,1/2+z
loop_
_atom_site_type_symbol
_atom_site_label
_atom_site_fract_x
_atom_site_fract_y
_atom_site_fract_z
Si Si1 0.101359 0.156748 0.933380
Si Si2 0.255823 0.569145 0.783471
Si Si3 0.898637 0.156747 0.741011
Si Si4 0.631728 0.797011 0.087196
Si Si5 0.744187 0.930854 0.890926
Si Si6 0.384955 0.545314 0.587197
Si Si7 0.739134 0.125898 0.087196
O O1 0.286118 0.119254 0.907291
O O2 0.999998 0.172856 0.837195
O O3 0.208304 0.192885 0.997073
O O4 0.905051 0.131941 0.996775
O O5 0.286121 0.619253 0.767100
O O6 0.500004 0.554247 0.837200
O O7 0.239196 0.550053 0.681998
O O8 0.000003 0.562476 0.837198
O O9 0.791693 0.192885 0.677319
O O10 0.094942 0.131940 0.677615
O O11 0.536324 0.750000 0.087196
O O12 0.433794 0.833637 0.087196
O O13 0.760821 0.949944 0.992400
O O14 0.500000 0.500000 0.587191
O O15 0.585967 0.583082 0.587197
#
# Coordination Sequence:
#
# PCOD9361747 Si02
#       7
#     8   8   8   8   8   8   8
#     4  10  22  41  71  93 133 185 225 285 356 422
#     4  11  24  45  74 105 141 186 238 298 353 418
#     4  10  22  41  71  93 133 185 225 285 356 422
#     4  11  24  40  66  99 134 172 231 295 352 424
#     4  11  24  45  74 105 141 186 238 298 353 418
#     4  12  24  45  73 106 143 197 237 292 361 434
#     4  11  22  45  64  95 142 174 231 292 355 417
#
# _framework density 22.118098
#
# number of rings (size 3 to 8) (size 9 to 14) (size 15 to 20)
#    0.000    1.143    2.857    4.286    0.000    4.571 
#    0.000   18.571    0.000    0.000    0.000    0.000 
#    0.000    0.000    0.000    0.000    0.000    0.000 
#
# Total GULP energy -156574.876595 kJ/mol
# GULP energy per Si atom -5591.959878 kJ/mol
# Density = 2.206776 g / cm^3
# Si number density = 22.118098 Si / 1000 Ang^3
#
#
#
# Elastic Constant Matrix: (Units=GPa)
#
#
# Indices 1 2 3 4 5 6 
#
# 1 89.4652 40.9202 63.9358 0.0000 0.0000 0.0000
# 2 40.9202 129.6142 31.8285 0.0000 0.0000 0.0000
# 3 63.9358 31.8285 198.0601 0.0000 0.0000 0.0000
# 4 0.0000 0.0000 0.0000 1.4675 0.0000 0.0000
# 5 0.0000 0.0000 0.0000 0.0000 30.4696 0.0000
# 6 0.0000 0.0000 0.0000 0.0000 0.0000 9.2289
#
#
#
# Elastic Compliance Matrix: (Units=1/GPa)
#
#
# Indices 1 2 3 4 5 6 
#
# 1 0.016318 -0.004017 -0.004622 0.000000 0.000000 0.000000
# 2 -0.004017 0.009021 -0.000153 0.000000 0.000000 0.000000
# 3 -0.004622 -0.000153 0.006566 0.000000 0.000000 0.000000
# 4 0.000000 0.000000 0.000000 0.681422 0.000000 0.000000
# 5 0.000000 0.000000 0.000000 0.000000 0.032820 0.000000
# 6 0.000000 0.000000 0.000000 0.000000 0.000000 0.108355
#
#
# Mechanical properties :
#
#
# Convention : Reuss Voigt Hill
#
# Bulk Modulus (GPa) = 69.82866 76.72317 73.27592
# Shear Modulus (GPa) = 5.70217 26.93020 16.31619
#
# Velocity S-wave (km/s) = 1.60737 3.49315 2.71898
# Velocity P-wave (km/s) = 5.92319 7.14372 6.56189
#
# Compressibility (1/GPa) = 0.01432077
#
# Stress axis : x y z
#
# Youngs Moduli (GPa) = 61.28267 110.85399 152.30854
#
# Poissons Ratio (x) = 0.44526 0.70398
# Poissons Ratio (y) = 0.24615 0.02331
# Poissons Ratio (z) = 0.28325 0.01697
#
# Static dielectric constant tensor:
#      x y z
#    x 1.919470 0.000000 0.000000 
#    y 0.000000 1.814090 0.000000 
#    z 0.000000 0.000000 1.867270 
# 
# From -- ./inp_files/7680.got.cif
#   From: 2010.05.17/outbox.cif.g08.bks.cpg/sg39_4_cif.got.tgz:7680.got - 2010.06.03 18:22:40.
