data_PCOD9361666
_publ_section_title
;
Structure prediction by ZEFSAII (Michael W. Deem and Ramdas Pophale) SiO2 
 PCOD9361666
Probable space group: A B M 2
;
_chemical_formula_sum "Si O2"
_cell_formula_units_Z 64
_cell_length_a 12.220227
_cell_length_b 24.295701
_cell_length_c 10.681297
_cell_angle_alpha 90.000000
_cell_angle_beta 90.000000
_cell_angle_gamma 90.000000
_cell_volume 3171.266199
_symmetry_space_group_name_H-M "A B M 2"
_symmetry_group_IT_number 39
_symmetry_cell_setting 'orthorhombic'
loop_
_space_group_symop_operation_xyz
x,y,z
-x,-y,z
-x,1/2+y,z
x,1/2-y,z
x,1/2+y,1/2+z
-x,1/2-y,1/2+z
-x,y,1/2+z
x,-y,1/2+z
loop_
_atom_site_type_symbol
_atom_site_label
_atom_site_fract_x
_atom_site_fract_y
_atom_site_fract_z
Si Si1 0.952387 0.685897 0.658970
Si Si2 0.416193 0.549819 0.518546
Si Si3 0.521310 0.388847 0.260622
Si Si4 0.861175 0.880705 0.263565
Si Si5 0.951678 0.077392 0.999693
Si Si6 0.298197 0.812321 0.144661
Si Si7 0.332958 0.686491 0.849015
Si Si8 0.159669 0.028055 0.051736
O O1 0.976241 0.750000 0.626299
O O2 0.964758 0.638854 0.553175
O O3 0.825197 0.683816 0.695406
O O4 0.037171 0.661591 0.758952
O O5 0.500000 0.500000 0.528725
O O6 0.439721 0.574688 0.379572
O O7 0.450933 0.585089 0.643971
O O8 0.288436 0.531035 0.522906
O O9 0.625170 0.358909 0.199882
O O10 0.446503 0.343152 0.326635
O O11 0.867517 0.916016 0.387905
O O12 0.754487 0.843844 0.262751
O O13 0.860696 0.926366 0.157496
O O14 0.067901 0.051794 0.954646
O O15 0.889551 0.032052 0.085950
O O16 0.339154 0.750000 0.170790
O O17 0.295802 0.818062 0.993806
O O18 0.339443 0.750000 0.816941
#
# Coordination Sequence:
#
# PCOD9361666 Si02
#       8
#     8   8   8   8   8   8   8   8
#     4  10  22  39  64  99 131 167 215 270 329 398
#     4  12  28  45  68  99 134 177 230 289 342 399
#     4  12  25  46  67  98 135 180 229 284 344 402
#     4  11  22  41  68  95 134 174 217 277 339 406
#     4  10  23  41  67  94 129 173 216 269 334 409
#     4  10  22  42  68  98 135 176 224 275 333 406
#     4  11  22  41  69  99 134 180 225 279 340 411
#     4  10  25  44  63  97 130 171 225 275 337 403
#
# _framework density 20.181214000000001
#
# number of rings (size 3 to 8) (size 9 to 14) (size 15 to 20)
#    0.000    1.250    3.750    1.125    5.250    5.500 
#    0.000    0.000    0.000    0.000    0.000    0.000 
#    0.000    0.000    0.000    0.000    0.000    0.000 
#
# Total GULP energy -178214.678209 kJ/mol
# GULP energy per Si atom -5569.208694 kJ/mol
# Density = 2.013528 g / cm^3
# Si number density = 20.181214 Si / 1000 Ang^3
#
#
#
# Elastic Constant Matrix: (Units=GPa)
#
#
# Indices 1 2 3 4 5 6 
#
# 1 102.9964 67.0605 15.0891 0.0000 0.0000 0.0000
# 2 67.0605 129.5522 34.5728 0.0000 0.0000 0.0000
# 3 15.0891 34.5728 40.4643 0.0000 0.0000 0.0000
# 4 0.0000 0.0000 0.0000 27.0171 0.0000 0.0000
# 5 0.0000 0.0000 0.0000 0.0000 7.6234 0.0000
# 6 0.0000 0.0000 0.0000 0.0000 0.0000 49.7145
#
#
#
# Elastic Compliance Matrix: (Units=1/GPa)
#
#
# Indices 1 2 3 4 5 6 
#
# 1 0.014699 -0.007961 0.001321 0.000000 0.000000 0.000000
# 2 -0.007961 0.014311 -0.009258 0.000000 0.000000 0.000000
# 3 0.001321 -0.009258 0.032131 0.000000 0.000000 0.000000
# 4 0.000000 0.000000 0.000000 0.037014 0.000000 0.000000
# 5 0.000000 0.000000 0.000000 0.000000 0.131174 0.000000
# 6 0.000000 0.000000 0.000000 0.000000 0.000000 0.020115
#
#
# Mechanical properties :
#
#
# Convention : Reuss Voigt Hill
#
# Bulk Modulus (GPa) = 34.07941 56.27309 45.17625
# Shear Modulus (GPa) = 17.18085 27.29039 22.23562
#
# Velocity S-wave (km/s) = 2.92092 3.68131 3.32294
# Velocity P-wave (km/s) = 5.31969 6.78335 6.09561
#
# Compressibility (1/GPa) = 0.02934323
#
# Stress axis : x y z
#
# Youngs Moduli (GPa) = 68.03141 69.87833 31.12267
#
# Poissons Ratio (x) = 0.55632 -0.04111
# Poissons Ratio (y) = 0.54161 0.28814
# Poissons Ratio (z) = -0.08986 0.64695
#
# Static dielectric constant tensor:
#      x y z
#    x 1.741520 0.000000 0.000000 
#    y 0.000000 1.727800 0.000000 
#    z 0.000000 0.000000 1.819350 
# 
# From -- ./inp_files/6075.got.cif
#   From: 2010.05.17/outbox.cif.g08.bks.cpg/sg39_4_cif.got.tgz:6075.got - 2010.06.03 18:22:40.
