data_PCOD9361284
_publ_section_title
;
Structure prediction by ZEFSAII (Michael W. Deem and Ramdas Pophale) SiO2 
 PCOD9361284
Probable space group: A B M 2
;
_chemical_formula_sum "Si O2"
_cell_formula_units_Z 48
_cell_length_a 7.268595
_cell_length_b 16.417820
_cell_length_c 18.478135
_cell_angle_alpha 90.000000
_cell_angle_beta 90.000000
_cell_angle_gamma 90.000000
_cell_volume 2205.078712
_symmetry_space_group_name_H-M "A B M 2"
_symmetry_group_IT_number 39
_symmetry_cell_setting 'orthorhombic'
loop_
_space_group_symop_operation_xyz
x,y,z
-x,-y,z
-x,1/2+y,z
x,1/2-y,z
x,1/2+y,1/2+z
-x,1/2-y,1/2+z
-x,y,1/2+z
x,-y,1/2+z
loop_
_atom_site_type_symbol
_atom_site_label
_atom_site_fract_x
_atom_site_fract_y
_atom_site_fract_z
Si Si1 0.741684 0.660316 0.872030
Si Si2 0.004611 0.341094 0.625749
Si Si3 0.779846 0.018996 0.889549
Si Si4 0.902650 0.158329 0.969490
Si Si5 0.730074 0.430589 0.725695
Si Si6 0.339125 0.380015 0.707554
O O1 0.657008 0.750000 0.890655
O O2 0.678608 0.568652 0.896464
O O3 0.733255 0.651883 0.785145
O O4 0.946815 0.664387 0.905290
O O5 0.929934 0.250000 0.632512
O O6 0.989576 0.366791 0.542471
O O7 0.220017 0.340656 0.645131
O O8 0.906501 0.397059 0.684623
O O9 0.758001 0.088603 0.949498
O O10 0.740481 0.060346 0.812192
O O11 0.000000 0.000000 0.890134
O O12 0.829367 0.250000 0.980510
O O13 0.558109 0.373367 0.706078
O O14 0.696841 0.523322 0.702191
#
# Coordination Sequence:
#
# PCOD9361284 Si02
#       6
#     8   8   8   8   8   8
#     4   9  17  32  53  77 107 142 183 230 279 332
#     4  11  22  36  57  84 117 153 189 238 296 349
#     4   9  17  32  56  83 109 145 189 233 281 337
#     4   9  19  34  53  81 115 153 194 235 286 343
#     4  10  21  37  58  85 113 149 196 238 285 347
#     4  10  21  37  58  84 116 151 191 239 287 343
#
# _framework density 21.767931999999998
#
# number of rings (size 3 to 8) (size 9 to 14) (size 15 to 20)
#    0.000    2.333    0.000    4.000    0.000    7.333 
#    0.000    1.667    0.000    8.000    0.000    0.000 
#    0.000    0.000    0.000    0.000    0.000    0.000 
#
# Total GULP energy -133715.906733 kJ/mol
# GULP energy per Si atom -5571.496114 kJ/mol
# Density = 2.171839 g / cm^3
# Si number density = 21.767932 Si / 1000 Ang^3
#
#
#
# Elastic Constant Matrix: (Units=GPa)
#
#
# Indices 1 2 3 4 5 6 
#
# 1 63.5437 18.2229 18.4446 0.0000 0.0000 0.0000
# 2 18.2229 129.7666 52.9339 0.0000 0.0000 0.0000
# 3 18.4446 52.9339 33.0237 0.0000 0.0000 0.0000
# 4 0.0000 0.0000 0.0000 35.4407 0.0000 0.0000
# 5 0.0000 0.0000 0.0000 0.0000 -14.6145 0.0000
# 6 0.0000 0.0000 0.0000 0.0000 0.0000 -0.5865
#
#
#
# Elastic Compliance Matrix: (Units=1/GPa)
#
#
# Indices 1 2 3 4 5 6 
#
# 1 0.019850 0.005012 -0.019121 0.000000 0.000000 0.000000
# 2 0.005012 0.023528 -0.040513 0.000000 0.000000 0.000000
# 3 -0.019121 -0.040513 0.105899 0.000000 0.000000 0.000000
# 4 0.000000 0.000000 0.000000 0.028216 0.000000 0.000000
# 5 0.000000 0.000000 0.000000 0.000000 -0.068425 0.000000
# 6 0.000000 0.000000 0.000000 0.000000 0.000000 -1.705174
#
#
# Mechanical properties :
#
#
# Convention : Reuss Voigt Hill
#
# Bulk Modulus (GPa) = 24.97858 45.05965 35.01912
# Shear Modulus (GPa) = -3.39324 13.16345 4.88511
#
# Velocity S-wave (km/s) = -1.24988 2.46177 1.49968
# Velocity P-wave (km/s) = 3.06870 5.36893 4.37277
#
# Compressibility (1/GPa) = 0.04003430
#
# Stress axis : x y z
#
# Youngs Moduli (GPa) = 50.37792 42.50228 9.44293
#
# Poissons Ratio (x) = -0.21303 0.18056
# Poissons Ratio (y) = -0.25250 0.38256
# Poissons Ratio (z) = 0.96327 1.72189
#
# Static dielectric constant tensor:
#      x y z
#    x 1.829820 0.000000 0.000000 
#    y 0.000000 1.877630 0.000000 
#    z 0.000000 0.000000 1.745260 
# 
# From -- ./inp_files/11699.got.cif
#   From: 2010.05.17/outbox.cif.g08.bks.cpg/sg39_6_cif.got.tgz:11699.got - 2010.06.03 18:22:40.
