data_PCOD9361237
_publ_section_title
;
Structure prediction by ZEFSAII (Michael W. Deem and Ramdas Pophale) SiO2 
 PCOD9361237
Probable space group: A B M 2
;
_chemical_formula_sum "Si O2"
_cell_formula_units_Z 64
_cell_length_a 33.117659
_cell_length_b 18.663889
_cell_length_c 5.262330
_cell_angle_alpha 90.000000
_cell_angle_beta 90.000000
_cell_angle_gamma 90.000000
_cell_volume 3252.668862
_symmetry_space_group_name_H-M "A B M 2"
_symmetry_group_IT_number 39
_symmetry_cell_setting 'orthorhombic'
loop_
_space_group_symop_operation_xyz
x,y,z
-x,-y,z
-x,1/2+y,z
x,1/2-y,z
x,1/2+y,1/2+z
-x,1/2-y,1/2+z
-x,y,1/2+z
x,-y,1/2+z
loop_
_atom_site_type_symbol
_atom_site_label
_atom_site_fract_x
_atom_site_fract_y
_atom_site_fract_z
Si Si1 0.045096 0.972003 0.697830
Si Si2 0.647803 0.667632 0.721561
Si Si3 0.191741 0.454225 0.758237
Si Si4 0.075047 0.330165 0.361906
Si Si5 0.127885 0.831893 0.360449
Si Si6 0.406066 0.666131 0.720211
Si Si7 0.483773 0.082843 0.358839
Si Si8 0.286419 0.046444 0.793757
O O1 0.043582 0.891305 0.793236
O O2 0.065770 0.984164 0.426324
O O3 0.000000 0.000000 0.652974
O O4 0.661749 0.750000 0.738438
O O5 0.625178 0.658538 0.453024
O O6 0.684391 0.613101 0.751875
O O7 0.616321 0.656340 0.952292
O O8 0.184347 0.487554 0.480496
O O9 0.162899 0.387932 0.811311
O O10 0.239043 0.433989 0.777230
O O11 0.058557 0.250000 0.344557
O O12 0.094258 0.340602 0.639027
O O13 0.108765 0.338637 0.141180
O O14 0.142577 0.750000 0.335085
O O15 0.421297 0.750000 0.729319
O O16 0.439857 0.604628 0.758051
O O17 0.487622 0.114485 0.640095
O O18 0.500000 0.000000 0.387539
O O19 0.293893 0.989748 0.566971
#
# Coordination Sequence:
#
# PCOD9361237 Si02
#       8
#     8   8   8   8   8   8   8   8
#     4  10  21  37  55  80 108 141 187 237 281 339
#     4  10  21  39  60  85 113 147 190 232 276 327
#     4  10  21  36  57  82 119 152 187 229 277 333
#     4  10  21  37  56  80 114 147 184 238 290 337
#     4  10  21  36  56  85 114 148 192 231 281 342
#     4  10  21  38  59  82 110 144 186 231 276 331
#     4  10  21  38  53  78 112 140 177 226 276 334
#     4  10  21  39  56  86 118 151 189 230 277 329
#
# _framework density 19.676151000000001
#
# number of rings (size 3 to 8) (size 9 to 14) (size 15 to 20)
#    0.000    2.000    0.000    3.000    0.000    4.000 
#   13.500    2.500    0.000    9.000    0.000    0.000 
#    0.000    0.000    0.000    0.000    0.000    0.000 
#
# Total GULP energy -178509.610241 kJ/mol
# GULP energy per Si atom -5578.425320 kJ/mol
# Density = 1.963137 g / cm^3
# Si number density = 19.676151 Si / 1000 Ang^3
#
#
#
# Elastic Constant Matrix: (Units=GPa)
#
#
# Indices 1 2 3 4 5 6 
#
# 1 34.4290 42.9340 -17.3732 0.0000 0.0000 0.0000
# 2 42.9340 83.7353 -16.8890 0.0000 0.0000 0.0000
# 3 -17.3732 -16.8890 93.0904 0.0000 0.0000 0.0000
# 4 0.0000 0.0000 0.0000 26.3510 0.0000 0.0000
# 5 0.0000 0.0000 0.0000 0.0000 21.2918 0.0000
# 6 0.0000 0.0000 0.0000 0.0000 0.0000 -26.0831
#
#
#
# Elastic Compliance Matrix: (Units=1/GPa)
#
#
# Indices 1 2 3 4 5 6 
#
# 1 0.086440 -0.042627 0.008398 0.000000 0.000000 0.000000
# 2 -0.042627 0.033417 -0.001893 0.000000 0.000000 0.000000
# 3 0.008398 -0.001893 0.011966 0.000000 0.000000 0.000000
# 4 0.000000 0.000000 0.000000 0.037949 0.000000 0.000000
# 5 0.000000 0.000000 0.000000 0.000000 0.046966 0.000000
# 6 0.000000 0.000000 0.000000 0.000000 0.000000 -0.038339
#
#
# Mechanical properties :
#
#
# Convention : Reuss Voigt Hill
#
# Bulk Modulus (GPa) = 16.78379 25.39979 21.09179
# Shear Modulus (GPa) = 18.48408 17.81748 18.15078
#
# Velocity S-wave (km/s) = 3.06831 3.01248 3.04052
# Velocity P-wave (km/s) = 4.59361 5.00370 4.80303
#
# Compressibility (1/GPa) = 0.05958130
#
# Stress axis : x y z
#
# Youngs Moduli (GPa) = 11.56866 29.92490 83.56830
#
# Poissons Ratio (x) = 1.27561 -0.70185
# Poissons Ratio (y) = 0.49314 0.15817
# Poissons Ratio (z) = -0.09716 0.05664
#
# Static dielectric constant tensor:
#      x y z
#    x 1.465760 0.000000 0.000000 
#    y 0.000000 1.626760 0.000000 
#    z 0.000000 0.000000 1.746830 
# 
# From -- ./inp_files/1532.got.cif
#   From: 2010.05.17/outbox.cif.g08.bks.cpg/sg39_1_cif.got.tgz:1532.got - 2010.06.03 18:22:40.
