data_PCOD9361704
_publ_section_title
;
Structure prediction by ZEFSAII (Michael W. Deem and Ramdas Pophale) SiO2 
 PCOD9361704
Probable space group: A B M 2
;
_chemical_formula_sum "Si O2"
_cell_formula_units_Z 52
_cell_length_a 18.513205
_cell_length_b 8.367126
_cell_length_c 15.667089
_cell_angle_alpha 90.000000
_cell_angle_beta 90.000000
_cell_angle_gamma 90.000000
_cell_volume 2426.868416
_symmetry_space_group_name_H-M "A B M 2"
_symmetry_group_IT_number 39
_symmetry_cell_setting 'orthorhombic'
loop_
_space_group_symop_operation_xyz
x,y,z
-x,-y,z
-x,1/2+y,z
x,1/2-y,z
x,1/2+y,1/2+z
-x,1/2-y,1/2+z
-x,y,1/2+z
x,-y,1/2+z
loop_
_atom_site_type_symbol
_atom_site_label
_atom_site_fract_x
_atom_site_fract_y
_atom_site_fract_z
Si Si1 0.187538 0.059405 0.343950
Si Si2 0.663252 0.004520 0.085476
Si Si3 0.568765 0.750000 0.305195
Si Si4 0.183987 0.440067 0.540728
Si Si5 0.662288 0.574427 0.781770
Si Si6 0.540665 0.250000 0.621806
Si Si7 0.584529 0.250000 0.987663
Si Si8 0.918272 0.941302 0.188624
O O1 0.203749 0.250000 0.334854
O O2 0.164843 0.032322 0.441855
O O3 0.126917 0.018523 0.274183
O O4 0.259863 0.963230 0.321883
O O5 0.744912 0.955973 0.064320
O O6 0.670353 0.082097 0.179017
O O7 0.638056 0.103617 0.003039
O O8 0.594591 0.892772 0.100518
O O9 0.614285 0.584445 0.298811
O O10 0.519841 0.750000 0.221331
O O11 0.540486 0.750000 0.400921
O O12 0.202768 0.250000 0.549617
O O13 0.121818 0.481847 0.607405
O O14 0.636388 0.750000 0.811829
O O15 0.470525 0.250000 0.565470
O O16 0.916977 0.750000 0.179078
O O17 0.000000 0.000000 0.195084
#
# Coordination Sequence:
#
# PCOD9361704 Si02
#       8
#     8   8   4   8   8   4   4   8
#     4  10  22  40  65  96 136 175 223 279 340 398
#     4  11  22  40  70  99 135 179 231 287 344 408
#     4  10  24  44  70  96 141 178 229 290 346 418
#     4  11  22  41  68  98 133 178 227 281 341 400
#     4  11  20  38  68 104 132 178 228 286 343 410
#     4  10  26  44  70  98 137 184 233 283 354 428
#     4  12  22  48  68  98 140 186 224 291 364 406
#     4  11  25  43  67  96 137 181 224 278 346 410
#
# _framework density 21.42679
#
# number of rings (size 3 to 8) (size 9 to 14) (size 15 to 20)
#    0.000    1.231    3.846    1.846    1.077    1.846 
#    4.154    9.231    0.000    0.000    0.000    0.000 
#    0.000    0.000    0.000    0.000    0.000    0.000 
#
# Total GULP energy -145151.843442 kJ/mol
# GULP energy per Si atom -5582.763209 kJ/mol
# Density = 2.137802 g / cm^3
# Si number density = 21.426790 Si / 1000 Ang^3
#
#
#
# Elastic Constant Matrix: (Units=GPa)
#
#
# Indices 1 2 3 4 5 6 
#
# 1 97.3776 21.3567 41.3053 0.0000 0.0000 0.0000
# 2 21.3567 71.3054 29.9587 0.0000 0.0000 0.0000
# 3 41.3053 29.9587 153.2071 0.0000 0.0000 0.0000
# 4 0.0000 0.0000 0.0000 11.5785 0.0000 0.0000
# 5 0.0000 0.0000 0.0000 0.0000 20.2424 0.0000
# 6 0.0000 0.0000 0.0000 0.0000 0.0000 -4.1666
#
#
#
# Elastic Compliance Matrix: (Units=1/GPa)
#
#
# Indices 1 2 3 4 5 6 
#
# 1 0.011969 -0.002429 -0.002752 0.000000 0.000000 0.000000
# 2 -0.002429 0.015772 -0.002429 0.000000 0.000000 0.000000
# 3 -0.002752 -0.002429 0.007744 0.000000 0.000000 0.000000
# 4 0.000000 0.000000 0.000000 0.086367 0.000000 0.000000
# 5 0.000000 0.000000 0.000000 0.000000 0.049401 0.000000
# 6 0.000000 0.000000 0.000000 0.000000 0.000000 -0.240003
#
#
# Mechanical properties :
#
#
# Convention : Reuss Voigt Hill
#
# Bulk Modulus (GPa) = 49.34498 56.34794 52.84646
# Shear Modulus (GPa) = -106.89816 20.81549 -43.04134
#
# Velocity S-wave (km/s) = -7.07094 3.12022 -4.48678
# Velocity P-wave (km/s) = 6.60188 6.27184 1.45752
#
# Compressibility (1/GPa) = 0.02026549
#
# Stress axis : x y z
#
# Youngs Moduli (GPa) = 83.54701 63.40238 129.13002
#
# Poissons Ratio (x) = 0.15398 0.35537
# Poissons Ratio (y) = 0.20291 0.31371
# Poissons Ratio (z) = 0.22993 0.15403
#
# Static dielectric constant tensor:
#      x y z
#    x 1.722340 0.000000 0.000000 
#    y 0.000000 1.845360 0.000000 
#    z 0.000000 0.000000 1.760210 
# 
# From -- ./inp_files/10321.got.cif
#   From: 2010.05.17/outbox.cif.g08.bks.cpg/sg39_6_cif.got.tgz:10321.got - 2010.06.03 18:22:40.
