data_PCOD9361860
_publ_section_title
;
Structure prediction by ZEFSAII (Michael W. Deem and Ramdas Pophale) SiO2 
 PCOD9361860
Probable space group: A B M 2
;
_chemical_formula_sum "Si O2"
_cell_formula_units_Z 64
_cell_length_a 22.189555
_cell_length_b 14.994554
_cell_length_c 9.324262
_cell_angle_alpha 90.000000
_cell_angle_beta 90.000000
_cell_angle_gamma 90.000000
_cell_volume 3102.391583
_symmetry_space_group_name_H-M "A B M 2"
_symmetry_group_IT_number 39
_symmetry_cell_setting 'orthorhombic'
loop_
_space_group_symop_operation_xyz
x,y,z
-x,-y,z
-x,1/2+y,z
x,1/2-y,z
x,1/2+y,1/2+z
-x,1/2-y,1/2+z
-x,y,1/2+z
x,-y,1/2+z
loop_
_atom_site_type_symbol
_atom_site_label
_atom_site_fract_x
_atom_site_fract_y
_atom_site_fract_z
Si Si1 0.072317 0.144601 0.716250
Si Si2 0.948437 0.144739 0.879087
Si Si3 0.558731 0.151149 0.654534
Si Si4 0.845892 0.513074 0.313749
Si Si5 0.338658 0.143382 0.615960
Si Si6 0.330089 0.644763 0.452846
Si Si7 0.539763 0.586712 0.466065
Si Si8 0.762033 0.501286 0.066188
O O1 0.086809 0.250000 0.729438
O O2 0.055343 0.127582 0.549866
O O3 0.126106 0.081690 0.768666
O O4 0.014095 0.124974 0.814671
O O5 0.937167 0.250000 0.856510
O O6 0.898126 0.086042 0.800434
O O7 0.573181 0.250000 0.710567
O O8 0.615297 0.121337 0.559584
O O9 0.544644 0.095060 0.795387
O O10 0.502240 0.156928 0.548089
O O11 0.822163 0.513925 0.475106
O O12 0.786361 0.530811 0.220485
O O13 0.334243 0.250000 0.585443
O O14 0.348794 0.133137 0.787111
O O15 0.394163 0.098935 0.531640
O O16 0.278867 0.087121 0.578041
O O17 0.315677 0.750000 0.471296
O O18 0.275914 0.579696 0.492378
O O19 0.500000 0.500000 0.499677
#
# Coordination Sequence:
#
# PCOD9361860 Si02
#       8
#     8   8   8   8   8   8   8   8
#     4  10  23  43  68  97 133 174 218 271 333 394
#     4  10  23  43  67  98 133 172 218 271 333 392
#     4  11  23  41  65  94 124 160 208 260 321 386
#     4  12  25  42  67  97 134 175 222 273 322 388
#     4  11  25  47  70  93 131 178 220 270 331 391
#     4  10  24  46  69  94 132 173 219 275 329 389
#     4  12  25  41  65  95 126 162 207 263 324 386
#     4  12  26  43  65  98 132 174 228 267 323 390
#
# _framework density 20.629246999999999
#
# number of rings (size 3 to 8) (size 9 to 14) (size 15 to 20)
#    0.000    1.000    2.500    3.375    3.500    6.000 
#    0.000    0.625    0.000    0.000    0.000    0.000 
#    0.000    0.000    0.000    0.000    0.000    0.000 
#
# Total GULP energy -178844.127789 kJ/mol
# GULP energy per Si atom -5588.878993 kJ/mol
# Density = 2.058229 g / cm^3
# Si number density = 20.629247 Si / 1000 Ang^3
#
#
#
# Elastic Constant Matrix: (Units=GPa)
#
#
# Indices 1 2 3 4 5 6 
#
# 1 90.3126 42.0198 39.0948 0.0000 0.0000 0.0000
# 2 42.0198 92.3723 53.0068 0.0000 0.0000 0.0000
# 3 39.0948 53.0068 91.2377 0.0000 0.0000 0.0000
# 4 0.0000 0.0000 0.0000 -0.7314 0.0000 0.0000
# 5 0.0000 0.0000 0.0000 0.0000 49.1796 0.0000
# 6 0.0000 0.0000 0.0000 0.0000 0.0000 13.5750
#
#
#
# Elastic Compliance Matrix: (Units=1/GPa)
#
#
# Indices 1 2 3 4 5 6 
#
# 1 0.014813 -0.004645 -0.003649 0.000000 0.000000 0.000000
# 2 -0.004645 0.017696 -0.008291 0.000000 0.000000 0.000000
# 3 -0.003649 -0.008291 0.017341 0.000000 0.000000 0.000000
# 4 0.000000 0.000000 0.000000 -1.367207 0.000000 0.000000
# 5 0.000000 0.000000 0.000000 0.000000 0.020334 0.000000
# 6 0.000000 0.000000 0.000000 0.000000 0.000000 0.073665
#
#
# Mechanical properties :
#
#
# Convention : Reuss Voigt Hill
#
# Bulk Modulus (GPa) = 59.94741 60.24062 60.09401
# Shear Modulus (GPa) = -4.22073 21.72473 8.75200
#
# Velocity S-wave (km/s) = -1.43193 3.24868 2.06197
# Velocity P-wave (km/s) = 5.13698 6.58307 5.90447
#
# Compressibility (1/GPa) = 0.01668129
#
# Stress axis : x y z
#
# Youngs Moduli (GPa) = 67.50730 56.50940 57.66764
#
# Poissons Ratio (x) = 0.26246 0.21043
# Poissons Ratio (y) = 0.31354 0.47812
# Poissons Ratio (z) = 0.24633 0.46851
#
# Static dielectric constant tensor:
#      x y z
#    x 1.709770 0.000000 0.000000 
#    y 0.000000 1.795190 0.000000 
#    z 0.000000 0.000000 1.727260 
# 
# From -- ./inp_files/4095.got.cif
#   From: 2010.05.17/outbox.cif.g08.bks.cpg/sg39_3_cif.got.tgz:4095.got - 2010.06.03 18:22:40.
