data_PCOD9361832
_publ_section_title
;
Structure prediction by ZEFSAII (Michael W. Deem and Ramdas Pophale) SiO2 
 PCOD9361832
Probable space group: A B M 2
;
_chemical_formula_sum "Si O2"
_cell_formula_units_Z 40
_cell_length_a 13.875865
_cell_length_b 22.042748
_cell_length_c 5.447421
_cell_angle_alpha 90.000000
_cell_angle_beta 90.000000
_cell_angle_gamma 90.000000
_cell_volume 1666.160147
_symmetry_space_group_name_H-M "A B M 2"
_symmetry_group_IT_number 39
_symmetry_cell_setting 'orthorhombic'
loop_
_space_group_symop_operation_xyz
x,y,z
-x,-y,z
-x,1/2+y,z
x,1/2-y,z
x,1/2+y,1/2+z
-x,1/2-y,1/2+z
-x,y,1/2+z
x,-y,1/2+z
loop_
_atom_site_type_symbol
_atom_site_label
_atom_site_fract_x
_atom_site_fract_y
_atom_site_fract_z
Si Si1 0.732146 0.613746 0.022990
Si Si2 0.462104 0.568001 0.387834
Si Si3 0.111786 0.023645 0.914737
Si Si4 0.736511 0.682329 0.519514
Si Si5 0.966167 0.819437 0.501326
O O1 0.650164 0.565386 0.955174
O O2 0.708542 0.640085 0.290657
O O3 0.839256 0.585626 0.011884
O O4 0.721137 0.660983 0.798716
O O5 0.500000 0.500000 0.358208
O O6 0.484330 0.597442 0.122955
O O7 0.148902 0.019835 0.634742
O O8 0.000000 0.000000 0.892160
O O9 0.697389 0.750000 0.484330
O O10 0.852573 0.684905 0.492658
O O11 0.008303 0.750000 0.506682
O O12 0.996326 0.849824 0.754712
#
# Coordination Sequence:
#
# PCOD9361832 Si02
#       5
#     8   8   8   8   8
#     4  12  24  42  73 101 136 185 223 276 354 400
#     4  10  23  41  69 102 133 168 215 284 347 421
#     4  10  23  43  63  95 140 183 221 278 340 417
#     4  11  24  43  65  98 136 182 235 278 325 403
#     4   9  17  33  54  80 121 170 222 276 314 349
#
# _framework density 24.007297000000001
#
# number of rings (size 3 to 8) (size 9 to 14) (size 15 to 20)
#    0.000    1.600    0.000    4.200    5.600    3.200 
#   21.600    0.000    0.000   12.000    0.000    0.000 
#    0.000    0.000    0.000    0.000    0.000    0.000 
#
# Total GULP energy -111540.641015 kJ/mol
# GULP energy per Si atom -5577.032051 kJ/mol
# Density = 2.395266 g / cm^3
# Si number density = 24.007297 Si / 1000 Ang^3
#
#
#
# Elastic Constant Matrix: (Units=GPa)
#
#
# Indices 1 2 3 4 5 6 
#
# 1 72.6337 17.9382 10.9870 0.0000 0.0000 0.0000
# 2 17.9382 49.5063 3.0349 0.0000 0.0000 0.0000
# 3 10.9870 3.0349 178.3098 0.0000 0.0000 0.0000
# 4 0.0000 0.0000 0.0000 35.8987 0.0000 0.0000
# 5 0.0000 0.0000 0.0000 0.0000 15.2408 0.0000
# 6 0.0000 0.0000 0.0000 0.0000 0.0000 18.4708
#
#
#
# Elastic Compliance Matrix: (Units=1/GPa)
#
#
# Indices 1 2 3 4 5 6 
#
# 1 0.015247 -0.005473 -0.000846 0.000000 0.000000 0.000000
# 2 -0.005473 0.022185 -0.000040 0.000000 0.000000 0.000000
# 3 -0.000846 -0.000040 0.005661 0.000000 0.000000 0.000000
# 4 0.000000 0.000000 0.000000 0.027856 0.000000 0.000000
# 5 0.000000 0.000000 0.000000 0.000000 0.065613 0.000000
# 6 0.000000 0.000000 0.000000 0.000000 0.000000 0.054140
#
#
# Mechanical properties :
#
#
# Convention : Reuss Voigt Hill
#
# Bulk Modulus (GPa) = 32.92267 40.48554 36.70411
# Shear Modulus (GPa) = 23.41411 31.82137 27.61774
#
# Velocity S-wave (km/s) = 3.12635 3.64467 3.39542
# Velocity P-wave (km/s) = 5.17450 5.88320 5.54019
#
# Compressibility (1/GPa) = 0.03037421
#
# Stress axis : x y z
#
# Youngs Moduli (GPa) = 65.58506 45.07549 176.64561
#
# Poissons Ratio (x) = 0.24669 0.14950
# Poissons Ratio (y) = 0.35894 0.00713
# Poissons Ratio (z) = 0.05551 0.00182
#
# Static dielectric constant tensor:
#      x y z
#    x 1.950110 0.000000 0.000000 
#    y 0.000000 1.966710 0.000000 
#    z 0.000000 0.000000 1.997460 
# 
# From -- ./inp_files/343.got.cif
#   From: 2010.05.17/outbox.cif.g08.bks.cpg/sg39_1_cif.got.tgz:343.got - 2010.06.03 18:22:40.
