data_PCOD9361080
_publ_section_title
;
Structure prediction by ZEFSAII (Michael W. Deem and Ramdas Pophale) SiO2 
 PCOD9361080
Probable space group: A B M 2
;
_chemical_formula_sum "Si O2"
_cell_formula_units_Z 48
_cell_length_a 8.417499
_cell_length_b 13.432772
_cell_length_c 18.557996
_cell_angle_alpha 90.000000
_cell_angle_beta 90.000000
_cell_angle_gamma 90.000000
_cell_volume 2098.359008
_symmetry_space_group_name_H-M "A B M 2"
_symmetry_group_IT_number 39
_symmetry_cell_setting 'orthorhombic'
loop_
_space_group_symop_operation_xyz
x,y,z
-x,-y,z
-x,1/2+y,z
x,1/2-y,z
x,1/2+y,1/2+z
-x,1/2-y,1/2+z
-x,y,1/2+z
x,-y,1/2+z
loop_
_atom_site_type_symbol
_atom_site_label
_atom_site_fract_x
_atom_site_fract_y
_atom_site_fract_z
Si Si1 0.635473 0.633436 0.651150
Si Si2 0.847300 0.959919 0.767634
Si Si3 0.750495 0.872481 0.497186
Si Si4 0.402109 0.368141 0.269735
Si Si5 0.081228 0.129967 0.921748
Si Si6 0.568521 0.868722 0.916235
O O1 0.617361 0.750000 0.637252
O O2 0.759092 0.614313 0.714663
O O3 0.705637 0.590765 0.577382
O O4 0.469220 0.606265 0.690193
O O5 0.911938 0.907463 0.839537
O O6 0.739520 0.056392 0.784969
O O7 0.000000 0.000000 0.726002
O O8 0.755803 0.750000 0.496912
O O9 0.595962 0.903010 0.451106
O O10 0.921294 0.902247 0.463651
O O11 0.361552 0.250000 0.273675
O O12 0.537990 0.385207 0.330801
O O13 0.077232 0.250000 0.921658
O O14 0.260007 0.099643 0.946993
O O15 0.569342 0.750000 0.925771
#
# Coordination Sequence:
#
# PCOD9361080 Si02
#       6
#     8   8   8   8   8   8
#     4  10  21  41  65  91 131 177 218 270 333 397
#     4  12  24  38  63  95 135 169 217 275 336 402
#     4   9  19  37  63  95 132 171 216 267 327 393
#     4  10  21  40  67  94 126 175 231 275 330 404
#     4  10  20  38  66  97 129 168 215 268 328 399
#     4   9  17  34  63  94 121 162 214 265 320 386
#
# _framework density 22.875018000000001
#
# number of rings (size 3 to 8) (size 9 to 14) (size 15 to 20)
#    0.000    2.000    1.667    2.000    0.000    2.667 
#    3.000    2.500    7.333    0.000    0.000    1.167 
#    0.000    0.000    0.000    0.000    0.000    0.000 
#
# Total GULP energy -133919.763031 kJ/mol
# GULP energy per Si atom -5579.990126 kJ/mol
# Density = 2.282295 g / cm^3
# Si number density = 22.875018 Si / 1000 Ang^3
#
#
#
# Elastic Constant Matrix: (Units=GPa)
#
#
# Indices 1 2 3 4 5 6 
#
# 1 193.6801 39.1859 80.6439 0.0000 0.0000 0.0000
# 2 39.1859 87.6474 6.3293 0.0000 0.0000 0.0000
# 3 80.6439 6.3293 152.6405 0.0000 0.0000 0.0000
# 4 0.0000 0.0000 0.0000 -3.0109 0.0000 0.0000
# 5 0.0000 0.0000 0.0000 0.0000 23.6738 0.0000
# 6 0.0000 0.0000 0.0000 0.0000 0.0000 41.6052
#
#
#
# Elastic Compliance Matrix: (Units=1/GPa)
#
#
# Indices 1 2 3 4 5 6 
#
# 1 0.007333 -0.003008 -0.003749 0.000000 0.000000 0.000000
# 2 -0.003008 0.012677 0.001063 0.000000 0.000000 0.000000
# 3 -0.003749 0.001063 0.008488 0.000000 0.000000 0.000000
# 4 0.000000 0.000000 0.000000 -0.332129 0.000000 0.000000
# 5 0.000000 0.000000 0.000000 0.000000 0.042241 0.000000
# 6 0.000000 0.000000 0.000000 0.000000 0.000000 0.024035
#
#
# Mechanical properties :
#
#
# Convention : Reuss Voigt Hill
#
# Bulk Modulus (GPa) = 58.44259 76.25403 67.34831
# Shear Modulus (GPa) = -22.70011 32.97424 5.13706
#
# Velocity S-wave (km/s) = -3.15358 3.80082 1.50019
# Velocity P-wave (km/s) = 3.51340 7.25735 5.70145
#
# Compressibility (1/GPa) = 0.01711081
#
# Stress axis : x y z
#
# Youngs Moduli (GPa) = 136.37295 78.88158 117.81122
#
# Poissons Ratio (x) = 0.23725 0.44172
# Poissons Ratio (y) = 0.41016 -0.12527
# Poissons Ratio (z) = 0.51132 -0.08388
#
# Static dielectric constant tensor:
#      x y z
#    x 1.935280 0.000000 0.000000 
#    y 0.000000 1.892700 0.000000 
#    z 0.000000 0.000000 1.855650 
# 
# From -- ./inp_files/11618.got.cif
#   From: 2010.05.17/outbox.cif.g08.bks.cpg/sg39_6_cif.got.tgz:11618.got - 2010.06.03 18:22:40.
