data_PCOD9361474
_publ_section_title
;
Structure prediction by ZEFSAII (Michael W. Deem and Ramdas Pophale) SiO2 
 PCOD9361474
Probable space group: A B M 2
;
_chemical_formula_sum "Si O2"
_cell_formula_units_Z 40
_cell_length_a 10.681327
_cell_length_b 23.421633
_cell_length_c 7.723275
_cell_angle_alpha 90.000000
_cell_angle_beta 90.000000
_cell_angle_gamma 90.000000
_cell_volume 1932.163534
_symmetry_space_group_name_H-M "A B M 2"
_symmetry_group_IT_number 39
_symmetry_cell_setting 'orthorhombic'
loop_
_space_group_symop_operation_xyz
x,y,z
-x,-y,z
-x,1/2+y,z
x,1/2-y,z
x,1/2+y,1/2+z
-x,1/2-y,1/2+z
-x,y,1/2+z
x,-y,1/2+z
loop_
_atom_site_type_symbol
_atom_site_label
_atom_site_fract_x
_atom_site_fract_y
_atom_site_fract_z
Si Si1 0.841050 0.365855 0.868710
Si Si2 0.903107 0.683659 0.738401
Si Si3 0.678111 0.967811 0.329275
Si Si4 0.697889 0.185224 0.542575
Si Si5 0.418292 0.573566 0.462192
O O1 0.800729 0.432362 0.878701
O O2 0.747297 0.335766 0.730355
O O3 0.977380 0.354442 0.787566
O O4 0.841924 0.338122 0.059619
O O5 0.943371 0.750000 0.713317
O O6 0.810525 0.682433 0.902634
O O7 0.561287 0.944454 0.441655
O O8 0.667863 0.036340 0.332418
O O9 0.638497 0.948416 0.140281
O O10 0.653542 0.250000 0.553989
O O11 0.597561 0.140962 0.466060
#
# Coordination Sequence:
#
# PCOD9361474 Si02
#       5
#     8   8   8   8   8
#     4  11  22  37  63  91 119 161 209 250 296 367
#     4  11  21  36  61  85 121 167 203 246 304 364
#     4  10  22  38  66  89 119 161 208 255 305 378
#     4  10  22  39  60  89 122 160 205 251 304 369
#     4  10  21  40  63  89 119 162 202 255 313 365
#
# _framework density 20.702179000000001
#
# number of rings (size 3 to 8) (size 9 to 14) (size 15 to 20)
#    0.000    1.600    2.000    4.200    5.600    0.000 
#    0.000    7.000    0.000    0.000    0.000    0.000 
#    0.000    0.000    0.000    0.000    0.000    0.000 
#
# Total GULP energy -111567.513472 kJ/mol
# GULP energy per Si atom -5578.375674 kJ/mol
# Density = 2.065506 g / cm^3
# Si number density = 20.702179 Si / 1000 Ang^3
#
#
#
# Elastic Constant Matrix: (Units=GPa)
#
#
# Indices 1 2 3 4 5 6 
#
# 1 20.2754 4.5078 -2.5192 0.0000 0.0000 0.0000
# 2 4.5078 98.9695 14.4964 0.0000 0.0000 0.0000
# 3 -2.5192 14.4964 76.9206 0.0000 0.0000 0.0000
# 4 0.0000 0.0000 0.0000 11.6756 0.0000 0.0000
# 5 0.0000 0.0000 0.0000 0.0000 21.7179 0.0000
# 6 0.0000 0.0000 0.0000 0.0000 0.0000 37.3532
#
#
#
# Elastic Compliance Matrix: (Units=1/GPa)
#
#
# Indices 1 2 3 4 5 6 
#
# 1 0.050163 -0.002597 0.002132 0.000000 0.000000 0.000000
# 2 -0.002597 0.010525 -0.002069 0.000000 0.000000 0.000000
# 3 0.002132 -0.002069 0.013460 0.000000 0.000000 0.000000
# 4 0.000000 0.000000 0.000000 0.085649 0.000000 0.000000
# 5 0.000000 0.000000 0.000000 0.000000 0.046045 0.000000
# 6 0.000000 0.000000 0.000000 0.000000 0.000000 0.026771
#
#
# Mechanical properties :
#
#
# Convention : Reuss Voigt Hill
#
# Bulk Modulus (GPa) = 14.47557 25.45950 19.96753
# Shear Modulus (GPa) = 19.17850 26.12803 22.65326
#
# Velocity S-wave (km/s) = 3.04698 3.55645 3.31153
# Velocity P-wave (km/s) = 4.40299 5.40269 4.92825
#
# Compressibility (1/GPa) = 0.06908192
#
# Stress axis : x y z
#
# Youngs Moduli (GPa) = 19.93488 95.00810 74.29353
#
# Poissons Ratio (x) = 0.24675 -0.15842
# Poissons Ratio (y) = 0.05177 0.15369
# Poissons Ratio (z) = -0.04251 0.19654
#
# Static dielectric constant tensor:
#      x y z
#    x 1.714940 0.000000 0.000000 
#    y 0.000000 1.813280 0.000000 
#    z 0.000000 0.000000 1.799230 
# 
# From -- ./inp_files/2523.got.cif
#   From: 2010.05.17/outbox.cif.g08.bks.cpg/sg39_2_cif.got.tgz:2523.got - 2010.06.03 18:22:40.
