data_PCOD9361050
_publ_section_title
;
Structure prediction by ZEFSAII (Michael W. Deem and Ramdas Pophale) SiO2 
 PCOD9361050
Probable space group: A B M 2
;
_chemical_formula_sum "Si O2"
_cell_formula_units_Z 64
_cell_length_a 12.487292
_cell_length_b 14.045447
_cell_length_c 17.985405
_cell_angle_alpha 90.000000
_cell_angle_beta 90.000000
_cell_angle_gamma 90.000000
_cell_volume 3154.452952
_symmetry_space_group_name_H-M "A B M 2"
_symmetry_group_IT_number 39
_symmetry_cell_setting 'orthorhombic'
loop_
_space_group_symop_operation_xyz
x,y,z
-x,-y,z
-x,1/2+y,z
x,1/2-y,z
x,1/2+y,1/2+z
-x,1/2-y,1/2+z
-x,y,1/2+z
x,-y,1/2+z
loop_
_atom_site_type_symbol
_atom_site_label
_atom_site_fract_x
_atom_site_fract_y
_atom_site_fract_z
Si Si1 0.544102 0.638404 0.133260
Si Si2 0.120374 0.007637 0.255829
Si Si3 0.688883 0.640543 0.598920
Si Si4 0.384764 0.483652 0.886356
Si Si5 0.122549 0.998486 0.577851
Si Si6 0.710000 0.857238 0.777005
Si Si7 0.274575 0.358999 0.007991
Si Si8 0.683863 0.636852 0.276637
O O1 0.517198 0.750000 0.150313
O O2 0.432200 0.598146 0.100395
O O3 0.606786 0.603293 0.207611
O O4 0.630713 0.637534 0.068324
O O5 0.194192 0.101044 0.264447
O O6 0.115234 0.995065 0.166991
O O7 0.188322 0.923228 0.293196
O O8 0.000000 0.000000 0.284629
O O9 0.690264 0.750000 0.570391
O O10 0.783988 0.578127 0.562103
O O11 0.706573 0.644388 0.687994
O O12 0.500000 0.500000 0.921016
O O13 0.388612 0.411841 0.815151
O O14 0.306758 0.429842 0.942120
O O15 0.349192 0.583668 0.851977
O O16 0.171758 0.899874 0.549762
O O17 0.000000 0.000000 0.549310
O O18 0.716514 0.750000 0.803832
O O19 0.262028 0.250000 0.983617
O O20 0.677533 0.750000 0.280457
#
# Coordination Sequence:
#
# PCOD9361050 Si02
#       8
#     8   8   8   8   8   8   8   8
#     4   9  18  34  60  91 119 152 195 245 304 363
#     4   9  18  33  56  91 124 152 200 257 308 356
#     4   9  18  33  58  90 120 151 193 255 312 359
#     4  11  24  38  57  88 119 166 199 242 305 368
#     4  10  21  37  59  87 120 160 206 253 301 363
#     4   9  18  35  55  81 116 156 201 241 297 363
#     4  11  24  41  60  87 122 161 204 250 304 365
#     4  10  20  38  62  92 125 159 202 252 305 363
#
# _framework density 20.288779999999999
#
# number of rings (size 3 to 8) (size 9 to 14) (size 15 to 20)
#    0.000    2.250    1.250    1.125    1.750    3.000 
#    0.000    5.625    0.000    3.000    0.000    0.000 
#    0.000    0.000    0.000    0.000    0.000    0.000 
#
# Total GULP energy -178282.086297 kJ/mol
# GULP energy per Si atom -5571.315197 kJ/mol
# Density = 2.024260 g / cm^3
# Si number density = 20.288780 Si / 1000 Ang^3
#
#
#
# Elastic Constant Matrix: (Units=GPa)
#
#
# Indices 1 2 3 4 5 6 
#
# 1 152.4080 52.2236 23.1372 0.0000 0.0000 0.0000
# 2 52.2236 117.8063 21.9690 0.0000 0.0000 0.0000
# 3 23.1372 21.9690 30.0822 0.0000 0.0000 0.0000
# 4 0.0000 0.0000 0.0000 25.5282 0.0000 0.0000
# 5 0.0000 0.0000 0.0000 0.0000 -7.9707 0.0000
# 6 0.0000 0.0000 0.0000 0.0000 0.0000 16.0960
#
#
#
# Elastic Compliance Matrix: (Units=1/GPa)
#
#
# Indices 1 2 3 4 5 6 
#
# 1 0.008173 -0.002837 -0.004214 0.000000 0.000000 0.000000
# 2 -0.002837 0.010812 -0.005714 0.000000 0.000000 0.000000
# 3 -0.004214 -0.005714 0.040656 0.000000 0.000000 0.000000
# 4 0.000000 0.000000 0.000000 0.039172 0.000000 0.000000
# 5 0.000000 0.000000 0.000000 0.000000 -0.125459 0.000000
# 6 0.000000 0.000000 0.000000 0.000000 0.000000 0.062127
#
#
# Mechanical properties :
#
#
# Convention : Reuss Voigt Hill
#
# Bulk Modulus (GPa) = 29.31610 54.99512 42.15561
# Shear Modulus (GPa) = 69.07797 20.26183 44.66990
#
# Velocity S-wave (km/s) = 5.84134 3.16360 4.69732
# Velocity P-wave (km/s) = 7.74441 6.36471 7.08821
#
# Compressibility (1/GPa) = 0.03411095
#
# Stress axis : x y z
#
# Youngs Moduli (GPa) = 122.34904 92.49155 24.59654
#
# Poissons Ratio (x) = 0.26243 0.10366
# Poissons Ratio (y) = 0.34715 0.14053
# Poissons Ratio (z) = 0.51561 0.52846
#
# Static dielectric constant tensor:
#      x y z
#    x 1.796170 0.000000 0.000000 
#    y 0.000000 1.752040 0.000000 
#    z 0.000000 0.000000 1.737750 
# 
# From -- ./inp_files/12351.got.cif
#   From: 2010.05.17/outbox.cif.g08.bks.cpg/sg39_7_cif.got.tgz:12351.got - 2010.06.03 18:22:40.
