data_PCOD9361302
_publ_section_title
;
Structure prediction by ZEFSAII (Michael W. Deem and Ramdas Pophale) SiO2 
 PCOD9361302
Probable space group: A B M 2
;
_chemical_formula_sum "Si O2"
_cell_formula_units_Z 40
_cell_length_a 9.340129
_cell_length_b 11.046449
_cell_length_c 17.741252
_cell_angle_alpha 90.000000
_cell_angle_beta 90.000000
_cell_angle_gamma 90.000000
_cell_volume 1830.458264
_symmetry_space_group_name_H-M "A B M 2"
_symmetry_group_IT_number 39
_symmetry_cell_setting 'orthorhombic'
loop_
_space_group_symop_operation_xyz
x,y,z
-x,-y,z
-x,1/2+y,z
x,1/2-y,z
x,1/2+y,1/2+z
-x,1/2-y,1/2+z
-x,y,1/2+z
x,-y,1/2+z
loop_
_atom_site_type_symbol
_atom_site_label
_atom_site_fract_x
_atom_site_fract_y
_atom_site_fract_z
Si Si1 0.595404 0.613465 0.932170
Si Si2 0.991055 0.124553 0.310879
Si Si3 0.112092 0.109862 0.022481
Si Si4 0.334946 0.380717 0.757543
Si Si5 0.245478 0.615679 0.688067
O O1 0.500000 0.500000 0.958504
O O2 0.546146 0.750000 0.954390
O O3 0.598584 0.610660 0.841035
O O4 0.757323 0.600971 0.962766
O O5 0.012840 0.250000 0.353789
O O6 0.111760 0.118126 0.246459
O O7 0.836131 0.127747 0.273278
O O8 0.000000 0.000000 0.355421
O O9 0.055886 0.250000 0.020139
O O10 0.185160 0.097431 0.104829
O O11 0.000000 0.000000 0.016880
O O12 0.374744 0.250000 0.723395
O O13 0.346027 0.505132 0.712014
O O14 0.310590 0.750000 0.692796
#
# Coordination Sequence:
#
# PCOD9361302 Si02
#       5
#     8   8   8   8   8
#     4  10  23  42  60  81 115 159 204 247 293 350
#     4   8  13  22  40  68 100 130 160 202 259 317
#     4  10  21  37  59  89 121 153 194 243 295 354
#     4   9  17  31  52  76 103 139 184 231 279 333
#     4   9  17  30  52  84 118 147 180 229 289 350
#
# _framework density 21.852450999999999
#
# number of rings (size 3 to 8) (size 9 to 14) (size 15 to 20)
#    0.000    2.800    0.000    1.800    0.000    6.400 
#    0.000    3.000    0.000    4.800    0.000    0.000 
#    0.000    0.000    0.000    0.000    0.000    0.000 
#
# Total GULP energy -111488.885921 kJ/mol
# GULP energy per Si atom -5574.444296 kJ/mol
# Density = 2.180271 g / cm^3
# Si number density = 21.852451 Si / 1000 Ang^3
#
#
#
# Elastic Constant Matrix: (Units=GPa)
#
#
# Indices 1 2 3 4 5 6 
#
# 1 88.6334 58.6616 1.5099 0.0000 0.0000 0.0000
# 2 58.6616 275.4202 35.5714 0.0000 0.0000 0.0000
# 3 1.5099 35.5714 75.9297 0.0000 0.0000 0.0000
# 4 0.0000 0.0000 0.0000 -505.0581 0.0000 0.0000
# 5 0.0000 0.0000 0.0000 0.0000 7.2942 0.0000
# 6 0.0000 0.0000 0.0000 0.0000 0.0000 -3.5484
#
#
#
# Elastic Compliance Matrix: (Units=1/GPa)
#
#
# Indices 1 2 3 4 5 6 
#
# 1 0.013223 -0.002962 0.001125 0.000000 0.000000 0.000000
# 2 -0.002962 0.004528 -0.002062 0.000000 0.000000 0.000000
# 3 0.001125 -0.002062 0.014114 0.000000 0.000000 0.000000
# 4 0.000000 0.000000 0.000000 -0.001980 0.000000 0.000000
# 5 0.000000 0.000000 0.000000 0.000000 0.137095 0.000000
# 6 0.000000 0.000000 0.000000 0.000000 0.000000 -0.281818
#
#
# Mechanical properties :
#
#
# Convention : Reuss Voigt Hill
#
# Bulk Modulus (GPa) = 41.55190 70.16324 55.85757
# Shear Modulus (GPa) = -50.49676 -77.31310 -63.90493
#
# Velocity S-wave (km/s) = -4.81230 -5.95453 -5.41362
# Velocity P-wave (km/s) = 3.43825 3.88559 3.66875
#
# Compressibility (1/GPa) = 0.02406629
#
# Stress axis : x y z
#
# Youngs Moduli (GPa) = 75.62320 220.84867 70.85213
#
# Poissons Ratio (x) = 0.65409 -0.07968
# Poissons Ratio (y) = 0.22397 0.14612
# Poissons Ratio (z) = -0.08504 0.45547
#
# Static dielectric constant tensor:
#      x y z
#    x 1.779140 0.000000 0.000000 
#    y 0.000000 1.921240 0.000000 
#    z 0.000000 0.000000 1.754520 
# 
# From -- ./inp_files/11365.got.cif
#   From: 2010.05.17/outbox.cif.g08.bks.cpg/sg39_6_cif.got.tgz:11365.got - 2010.06.03 18:22:40.
