data_PCOD9361505
_publ_section_title
;
Structure prediction by ZEFSAII (Michael W. Deem and Ramdas Pophale) SiO2 
 PCOD9361505
Probable space group: A B M 2
;
_chemical_formula_sum "Si O2"
_cell_formula_units_Z 56
_cell_length_a 5.598993
_cell_length_b 15.172344
_cell_length_c 28.842235
_cell_angle_alpha 90.000000
_cell_angle_beta 90.000000
_cell_angle_gamma 90.000000
_cell_volume 2450.143475
_symmetry_space_group_name_H-M "A B M 2"
_symmetry_group_IT_number 39
_symmetry_cell_setting 'orthorhombic'
loop_
_space_group_symop_operation_xyz
x,y,z
-x,-y,z
-x,1/2+y,z
x,1/2-y,z
x,1/2+y,1/2+z
-x,1/2-y,1/2+z
-x,y,1/2+z
x,-y,1/2+z
loop_
_atom_site_type_symbol
_atom_site_label
_atom_site_fract_x
_atom_site_fract_y
_atom_site_fract_z
Si Si1 0.102325 0.854914 0.509500
Si Si2 0.597952 0.355302 0.968429
Si Si3 0.000000 0.500000 0.314475
Si Si4 0.322952 0.847051 0.178587
Si Si5 0.000000 0.500000 0.667721
Si Si6 0.663469 0.650339 0.777533
Si Si7 0.364799 0.581364 0.597267
Si Si8 0.711382 0.348268 0.861249
O O1 0.089207 0.750000 0.500989
O O2 0.336248 0.890404 0.482383
O O3 0.184949 0.870680 0.562492
O O4 0.840166 0.889380 0.494183
O O5 0.589367 0.250000 0.979951
O O6 0.623252 0.362972 0.913380
O O7 0.822616 0.437156 0.285238
O O8 0.875597 0.571598 0.346916
O O9 0.221356 0.750000 0.175318
O O10 0.469754 0.854654 0.227143
O O11 0.455309 0.862746 0.129543
O O12 0.111338 0.914205 0.189626
O O13 0.211052 0.533889 0.635925
O O14 0.779098 0.750000 0.777031
O O15 0.490908 0.651609 0.821814
O O16 0.500000 0.500000 0.572500
O O17 0.824939 0.250000 0.860915
#
# Coordination Sequence:
#
# PCOD9361505 Si02
#       8
#     8   8   4   8   4   8   8   8
#     4  10  21  40  67  95 126 173 227 281 345 413
#     4   9  21  40  66  95 128 172 226 283 344 412
#     4  12  23  38  65  98 128 170 228 277 339 412
#     4  10  22  41  66  96 130 178 228 276 342 414
#     4  10  23  40  63  94 136 172 218 287 339 402
#     4  10  23  42  65  94 134 176 223 282 344 411
#     4  10  23  40  59  90 134 174 219 278 340 401
#     4  10  23  43  65  92 132 175 221 281 344 409
#
# _framework density 22.855803000000002
#
# number of rings (size 3 to 8) (size 9 to 14) (size 15 to 20)
#    0.000    2.000    0.000    1.714    6.000    5.714 
#    2.571    2.857    0.000    0.000    0.000    0.000 
#    0.000    0.000    0.000    0.000    0.000    0.000 
#
# Total GULP energy -155987.284401 kJ/mol
# GULP energy per Si atom -5570.974443 kJ/mol
# Density = 2.280378 g / cm^3
# Si number density = 22.855803 Si / 1000 Ang^3
#
#
#
# Elastic Constant Matrix: (Units=GPa)
#
#
# Indices 1 2 3 4 5 6 
#
# 1 41.6933 45.5049 0.9852 0.0000 0.0000 0.0000
# 2 45.5049 129.7040 33.4588 0.0000 0.0000 0.0000
# 3 0.9852 33.4588 68.8921 0.0000 0.0000 0.0000
# 4 0.0000 0.0000 0.0000 726.4054 0.0000 0.0000
# 5 0.0000 0.0000 0.0000 0.0000 17.9376 0.0000
# 6 0.0000 0.0000 0.0000 0.0000 0.0000 29.5010
#
#
#
# Elastic Compliance Matrix: (Units=1/GPa)
#
#
# Indices 1 2 3 4 5 6 
#
# 1 0.042000 -0.016668 0.007495 0.000000 0.000000 0.000000
# 2 -0.016668 0.015429 -0.007255 0.000000 0.000000 0.000000
# 3 0.007495 -0.007255 0.017932 0.000000 0.000000 0.000000
# 4 0.000000 0.000000 0.000000 0.001377 0.000000 0.000000
# 5 0.000000 0.000000 0.000000 0.000000 0.055749 0.000000
# 6 0.000000 0.000000 0.000000 0.000000 0.000000 0.033897
#
#
# Mechanical properties :
#
#
# Convention : Reuss Voigt Hill
#
# Bulk Modulus (GPa) = 23.52761 44.46525 33.99643
# Shear Modulus (GPa) = 23.42914 165.45815 94.44365
#
# Velocity S-wave (km/s) = 3.20517 8.51759 6.43516
# Velocity P-wave (km/s) = 4.90038 10.78097 8.37386
#
# Compressibility (1/GPa) = 0.04250326
#
# Stress axis : x y z
#
# Youngs Moduli (GPa) = 23.80959 64.81164 55.76659
#
# Poissons Ratio (x) = 1.08031 -0.41795
# Poissons Ratio (y) = 0.39687 0.40460
# Poissons Ratio (z) = -0.17845 0.47022
#
# Static dielectric constant tensor:
#      x y z
#    x 1.898750 0.000000 0.000000 
#    y 0.000000 1.775910 0.000000 
#    z 0.000000 0.000000 1.865130 
# 
# From -- ./inp_files/17326.got.cif
#   From: 2010.05.17/outbox.cif.g08.bks.cpg/sg39_9_cif.got.tgz:17326.got - 2010.06.03 18:22:40.
