data_PCOD9361181
_publ_section_title
;
Structure prediction by ZEFSAII (Michael W. Deem and Ramdas Pophale) SiO2 
 PCOD9361181
Probable space group: A B M 2
;
_chemical_formula_sum "Si O2"
_cell_formula_units_Z 28
_cell_length_a 4.927371
_cell_length_b 14.730090
_cell_length_c 13.712659
_cell_angle_alpha 90.000000
_cell_angle_beta 90.000000
_cell_angle_gamma 90.000000
_cell_volume 995.273269
_symmetry_space_group_name_H-M "A B M 2"
_symmetry_group_IT_number 39
_symmetry_cell_setting 'orthorhombic'
loop_
_space_group_symop_operation_xyz
x,y,z
-x,-y,z
-x,1/2+y,z
x,1/2-y,z
x,1/2+y,1/2+z
-x,1/2-y,1/2+z
-x,y,1/2+z
x,-y,1/2+z
loop_
_atom_site_type_symbol
_atom_site_label
_atom_site_fract_x
_atom_site_fract_y
_atom_site_fract_z
Si Si1 0.077532 0.903003 0.696390
Si Si2 0.746965 0.250000 0.106171
Si Si3 0.000000 0.500000 0.515331
Si Si4 0.743635 0.750000 0.971603
Si Si5 0.596809 0.401904 0.870000
O O1 0.831122 0.837913 0.667852
O O2 0.179713 0.939319 0.590803
O O3 0.259865 0.856848 0.777354
O O4 0.000000 0.000000 0.742506
O O5 0.948544 0.250000 0.010354
O O6 0.442486 0.250000 0.069073
O O7 0.807840 0.565654 0.453648
O O8 0.639386 0.662517 0.910933
O O9 0.500000 0.500000 0.834124
#
# Coordination Sequence:
#
# PCOD9361181 Si02
#       5
#     8   4   4   4   8
#     4  10  23  43  72 105 144 189 246 307 364 445
#     4  12  25  48  73 109 149 199 244 306 379 439
#     4  10  20  46  68  98 146 188 236 304 372 440
#     4  12  27  46  79 105 153 197 248 308 369 453
#     4  12  25  44  74 110 144 197 250 308 376 441
#
# _framework density 28.132978999999999
#
# number of rings (size 3 to 8) (size 9 to 14) (size 15 to 20)
#    0.857    0.000    4.286    2.571    0.000    5.714 
#    0.000    4.286    0.000    0.000    0.000    0.000 
#    0.000    0.000    0.000    0.000    0.000    0.000 
#
# Total GULP energy -78420.436708 kJ/mol
# GULP energy per Si atom -5601.459765 kJ/mol
# Density = 2.806895 g / cm^3
# Si number density = 28.132979 Si / 1000 Ang^3
#
#
#
# Elastic Constant Matrix: (Units=GPa)
#
#
# Indices 1 2 3 4 5 6 
#
# 1 75.1045 6.4296 38.1316 0.0000 0.0000 0.0000
# 2 6.4296 156.5074 -6.3189 0.0000 0.0000 0.0000
# 3 38.1316 -6.3189 134.8304 0.0000 0.0000 0.0000
# 4 0.0000 0.0000 0.0000 -43.4642 0.0000 0.0000
# 5 0.0000 0.0000 0.0000 0.0000 51.5597 0.0000
# 6 0.0000 0.0000 0.0000 0.0000 0.0000 39.2355
#
#
#
# Elastic Compliance Matrix: (Units=1/GPa)
#
#
# Indices 1 2 3 4 5 6 
#
# 1 0.015652 -0.000823 -0.004465 0.000000 0.000000 0.000000
# 2 -0.000823 0.006445 0.000535 0.000000 0.000000 0.000000
# 3 -0.004465 0.000535 0.008705 0.000000 0.000000 0.000000
# 4 0.000000 0.000000 0.000000 -0.023007 0.000000 0.000000
# 5 0.000000 0.000000 0.000000 0.000000 0.019395 0.000000
# 6 0.000000 0.000000 0.000000 0.000000 0.000000 0.025487
#
#
# Mechanical properties :
#
#
# Convention : Reuss Voigt Hill
#
# Bulk Modulus (GPa) = 46.96049 49.21412 48.08731
# Shear Modulus (GPa) = 72.16876 31.34618 51.75747
#
# Velocity S-wave (km/s) = 5.07035 3.34161 4.29388
# Velocity P-wave (km/s) = 7.14188 5.69384 6.45857
#
# Compressibility (1/GPa) = 0.02129450
#
# Stress axis : x y z
#
# Youngs Moduli (GPa) = 63.88825 155.16163 114.88159
#
# Poissons Ratio (x) = 0.12775 0.51297
# Poissons Ratio (y) = 0.05260 -0.06145
# Poissons Ratio (z) = 0.28528 -0.08299
#
# Static dielectric constant tensor:
#      x y z
#    x 2.212960 0.000000 0.000000 
#    y 0.000000 2.242270 0.000000 
#    z 0.000000 0.000000 2.184310 
# 
# From -- ./inp_files/7219.got.cif
#   From: 2010.05.17/outbox.cif.g08.bks.cpg/sg39_4_cif.got.tgz:7219.got - 2010.06.03 18:22:40.
