data_PCOD9361929
_publ_section_title
;
Structure prediction by ZEFSAII (Michael W. Deem and Ramdas Pophale) SiO2 
 PCOD9361929
Probable space group: A B M 2
;
_chemical_formula_sum "Si O2"
_cell_formula_units_Z 48
_cell_length_a 10.583603
_cell_length_b 17.402314
_cell_length_c 10.723836
_cell_angle_alpha 90.000000
_cell_angle_beta 90.000000
_cell_angle_gamma 90.000000
_cell_volume 1975.107349
_symmetry_space_group_name_H-M "A B M 2"
_symmetry_group_IT_number 39
_symmetry_cell_setting 'orthorhombic'
loop_
_space_group_symop_operation_xyz
x,y,z
-x,-y,z
-x,1/2+y,z
x,1/2-y,z
x,1/2+y,1/2+z
-x,1/2-y,1/2+z
-x,y,1/2+z
x,-y,1/2+z
loop_
_atom_site_type_symbol
_atom_site_label
_atom_site_fract_x
_atom_site_fract_y
_atom_site_fract_z
Si Si1 0.413026 0.834659 0.603170
Si Si2 0.788699 0.115745 0.405873
Si Si3 0.763367 0.663615 0.329111
Si Si4 0.173020 0.460789 0.531539
Si Si5 0.604561 0.554239 0.699390
Si Si6 0.028282 0.836442 0.198460
O O1 0.465235 0.750000 0.578978
O O2 0.291627 0.845859 0.515288
O O3 0.360391 0.839340 0.744139
O O4 0.525915 0.895180 0.600530
O O5 0.679438 0.098681 0.304785
O O6 0.892603 0.161361 0.327594
O O7 0.857385 0.038055 0.455299
O O8 0.773507 0.750000 0.381906
O O9 0.771270 0.598798 0.432031
O O10 0.884035 0.652562 0.238364
O O11 0.284672 0.487920 0.624203
O O12 0.078135 0.407584 0.613853
O O13 0.500000 0.500000 0.758465
O O14 0.042505 0.750000 0.143083
#
# Coordination Sequence:
#
# PCOD9361929 Si02
#       6
#     8   8   8   8   8   8
#     4  11  25  42  67 100 134 176 228 276 337 416
#     4  11  25  43  68 100 135 175 225 288 339 401
#     4  10  24  44  68  98 136 178 223 278 338 402
#     4  11  24  43  70 100 133 177 226 278 339 408
#     4  11  24  43  67  93 134 178 219 275 351 396
#     4  10  24  47  71  97 138 184 226 278 342 407
#
# _framework density 24.302475999999999
#
# number of rings (size 3 to 8) (size 9 to 14) (size 15 to 20)
#    0.000    1.333    1.667    2.000    9.333    4.667 
#    0.000    0.000    0.000    0.000    0.000    0.000 
#    0.000    0.000    0.000    0.000    0.000    0.000 
#
# Total GULP energy -134235.643869 kJ/mol
# GULP energy per Si atom -5593.151828 kJ/mol
# Density = 2.424716 g / cm^3
# Si number density = 24.302476 Si / 1000 Ang^3
#
#
#
# Elastic Constant Matrix: (Units=GPa)
#
#
# Indices 1 2 3 4 5 6 
#
# 1 82.3108 15.7084 1.9068 0.0000 0.0000 0.0000
# 2 15.7084 73.3267 -4.4728 0.0000 0.0000 0.0000
# 3 1.9068 -4.4728 60.3230 0.0000 0.0000 0.0000
# 4 0.0000 0.0000 0.0000 31.0250 0.0000 0.0000
# 5 0.0000 0.0000 0.0000 0.0000 29.0364 0.0000
# 6 0.0000 0.0000 0.0000 0.0000 0.0000 16.8131
#
#
#
# Elastic Compliance Matrix: (Units=1/GPa)
#
#
# Indices 1 2 3 4 5 6 
#
# 1 0.012689 -0.002755 -0.000605 0.000000 0.000000 0.000000
# 2 -0.002755 0.014298 0.001147 0.000000 0.000000 0.000000
# 3 -0.000605 0.001147 0.016682 0.000000 0.000000 0.000000
# 4 0.000000 0.000000 0.000000 0.032232 0.000000 0.000000
# 5 0.000000 0.000000 0.000000 0.000000 0.034440 0.000000
# 6 0.000000 0.000000 0.000000 0.000000 0.000000 0.059478
#
#
# Mechanical properties :
#
#
# Convention : Reuss Voigt Hill
#
# Bulk Modulus (GPa) = 25.48315 26.91615 26.19965
# Shear Modulus (GPa) = 26.69161 28.89610 27.79386
#
# Velocity S-wave (km/s) = 3.31767 3.45196 3.38548
# Velocity P-wave (km/s) = 5.01841 5.19495 5.10745
#
# Compressibility (1/GPa) = 0.03924162
#
# Stress axis : x y z
#
# Youngs Moduli (GPa) = 78.80893 69.94082 59.94622
#
# Poissons Ratio (x) = 0.19270 0.03629
# Poissons Ratio (y) = 0.21714 -0.06877
# Poissons Ratio (z) = 0.04771 -0.08024
#
# Static dielectric constant tensor:
#      x y z
#    x 1.899870 0.000000 0.000000 
#    y 0.000000 2.008330 0.000000 
#    z 0.000000 0.000000 1.963630 
# 
# From -- ./inp_files/5825.got.cif
#   From: 2010.05.17/outbox.cif.g08.bks.cpg/sg39_3_cif.got.tgz:5825.got - 2010.06.03 18:22:40.
