data_PCOD9361467
_publ_section_title
;
Structure prediction by ZEFSAII (Michael W. Deem and Ramdas Pophale) SiO2 
 PCOD9361467
Probable space group: A B M 2
;
_chemical_formula_sum "Si O2"
_cell_formula_units_Z 48
_cell_length_a 8.761664
_cell_length_b 18.134428
_cell_length_c 14.169393
_cell_angle_alpha 90.000000
_cell_angle_beta 90.000000
_cell_angle_gamma 90.000000
_cell_volume 2251.343185
_symmetry_space_group_name_H-M "A B M 2"
_symmetry_group_IT_number 39
_symmetry_cell_setting 'orthorhombic'
loop_
_space_group_symop_operation_xyz
x,y,z
-x,-y,z
-x,1/2+y,z
x,1/2-y,z
x,1/2+y,1/2+z
-x,1/2-y,1/2+z
-x,y,1/2+z
x,-y,1/2+z
loop_
_atom_site_type_symbol
_atom_site_label
_atom_site_fract_x
_atom_site_fract_y
_atom_site_fract_z
Si Si1 0.574891 0.660980 0.980590
Si Si2 0.981791 0.332758 0.084071
Si Si3 0.724958 0.572335 0.513364
Si Si4 0.264709 0.574758 0.634979
Si Si5 0.128771 0.830346 0.376296
Si Si6 0.117256 0.063199 0.315535
O O1 0.555361 0.750000 0.973870
O O2 0.423442 0.612780 0.972045
O O3 0.706262 0.636627 0.905280
O O4 0.637481 0.638431 0.084610
O O5 0.990063 0.250000 0.125141
O O6 0.091259 0.396636 0.122667
O O7 0.813972 0.366404 0.075109
O O8 0.046969 0.324799 0.977856
O O9 0.701129 0.500344 0.578294
O O10 0.828306 0.550689 0.423232
O O11 0.263868 0.566214 0.747484
O O12 0.162626 0.750000 0.337426
O O13 0.998135 0.867689 0.315163
O O14 0.000000 0.000000 0.286946
#
# Coordination Sequence:
#
# PCOD9361467 Si02
#       6
#     8   8   8   8   8   8
#     4  10  21  40  62  87 122 165 201 244 305 367
#     4   9  17  33  56  82 113 155 199 244 293 349
#     4  11  21  38  62  88 122 161 201 251 306 364
#     4  11  22  38  59  86 121 160 206 256 302 354
#     4   8  17  34  57  82 112 150 195 240 291 350
#     4  11  22  37  61  89 117 155 206 255 301 354
#
# _framework density 21.320605
#
# number of rings (size 3 to 8) (size 9 to 14) (size 15 to 20)
#    0.000    2.000    0.000    7.000    0.000    2.000 
#    0.000    8.333    0.000    4.000    0.000    0.000 
#    0.000    0.000    0.000    0.000    0.000    0.000 
#
# Total GULP energy -133667.991248 kJ/mol
# GULP energy per Si atom -5569.499635 kJ/mol
# Density = 2.127208 g / cm^3
# Si number density = 21.320605 Si / 1000 Ang^3
#
#
#
# Elastic Constant Matrix: (Units=GPa)
#
#
# Indices 1 2 3 4 5 6 
#
# 1 64.5050 33.2513 1.8750 0.0000 0.0000 0.0000
# 2 33.2513 103.2332 20.2657 0.0000 0.0000 0.0000
# 3 1.8750 20.2657 45.3804 0.0000 0.0000 0.0000
# 4 0.0000 0.0000 0.0000 15.6704 0.0000 0.0000
# 5 0.0000 0.0000 0.0000 0.0000 18.3883 0.0000
# 6 0.0000 0.0000 0.0000 0.0000 0.0000 33.6781
#
#
#
# Elastic Compliance Matrix: (Units=1/GPa)
#
#
# Indices 1 2 3 4 5 6 
#
# 1 0.018772 -0.006460 0.002109 0.000000 0.000000 0.000000
# 2 -0.006460 0.012841 -0.005468 0.000000 0.000000 0.000000
# 3 0.002109 -0.005468 0.024390 0.000000 0.000000 0.000000
# 4 0.000000 0.000000 0.000000 0.063814 0.000000 0.000000
# 5 0.000000 0.000000 0.000000 0.000000 0.054382 0.000000
# 6 0.000000 0.000000 0.000000 0.000000 0.000000 0.029693
#
#
# Mechanical properties :
#
#
# Convention : Reuss Voigt Hill
#
# Bulk Modulus (GPa) = 27.49815 35.98918 31.74366
# Shear Modulus (GPa) = 21.21775 24.06248 22.64011
#
# Velocity S-wave (km/s) = 3.15806 3.36311 3.26220
# Velocity P-wave (km/s) = 5.12087 5.65662 5.39540
#
# Compressibility (1/GPa) = 0.03636608
#
# Stress axis : x y z
#
# Youngs Moduli (GPa) = 53.27198 77.87539 40.99965
#
# Poissons Ratio (x) = 0.50311 -0.08649
# Poissons Ratio (y) = 0.34416 0.22417
# Poissons Ratio (z) = -0.11237 0.42579
#
# Static dielectric constant tensor:
#      x y z
#    x 1.819150 0.000000 0.000000 
#    y 0.000000 1.862700 0.000000 
#    z 0.000000 0.000000 1.874910 
# 
# From -- ./inp_files/8350.got.cif
#   From: 2010.05.17/outbox.cif.g08.bks.cpg/sg39_5_cif.got.tgz:8350.got - 2010.06.03 18:22:40.
