data_PCOD9361103
_publ_section_title
;
Structure prediction by ZEFSAII (Michael W. Deem and Ramdas Pophale) SiO2 
 PCOD9361103
Probable space group: A B M 2
;
_chemical_formula_sum "Si O2"
_cell_formula_units_Z 48
_cell_length_a 9.572538
_cell_length_b 16.839277
_cell_length_c 14.899376
_cell_angle_alpha 90.000000
_cell_angle_beta 90.000000
_cell_angle_gamma 90.000000
_cell_volume 2401.699237
_symmetry_space_group_name_H-M "A B M 2"
_symmetry_group_IT_number 39
_symmetry_cell_setting 'orthorhombic'
loop_
_space_group_symop_operation_xyz
x,y,z
-x,-y,z
-x,1/2+y,z
x,1/2-y,z
x,1/2+y,1/2+z
-x,1/2-y,1/2+z
-x,y,1/2+z
x,-y,1/2+z
loop_
_atom_site_type_symbol
_atom_site_label
_atom_site_fract_x
_atom_site_fract_y
_atom_site_fract_z
Si Si1 0.673848 0.158287 0.560380
Si Si2 0.183520 0.841318 0.919848
Si Si3 0.646265 0.396056 0.760931
Si Si4 0.400388 0.578074 0.043997
Si Si5 0.665571 0.080809 0.253145
Si Si6 0.861149 0.845625 0.895094
O O1 0.709163 0.250000 0.574479
O O2 0.682074 0.115560 0.656318
O O3 0.512937 0.148350 0.532025
O O4 0.770767 0.126049 0.480842
O O5 0.188952 0.750000 0.954718
O O6 0.254883 0.844561 0.822567
O O7 0.022603 0.865868 0.909765
O O8 0.273658 0.902928 0.978344
O O9 0.662811 0.489038 0.782366
O O10 0.482592 0.378283 0.777812
O O11 0.500000 0.500000 0.031410
O O12 0.340023 0.579395 0.144996
O O13 0.792515 0.121494 0.304258
O O14 0.851052 0.750000 0.892045
#
# Coordination Sequence:
#
# PCOD9361103 Si02
#       6
#     8   8   8   8   8   8
#     4  10  20  39  65  90 122 167 211 263 318 374
#     4  11  25  41  61  94 129 170 213 259 320 390
#     4  10  21  38  63  92 125 157 210 266 315 377
#     4  11  22  41  64  94 127 162 213 273 317 376
#     4  10  21  40  63  93 123 162 207 266 322 370
#     4  10  24  42  61  91 131 170 212 258 319 388
#
# _framework density 19.985849999999999
#
# number of rings (size 3 to 8) (size 9 to 14) (size 15 to 20)
#    0.000    1.667    3.333    2.000    4.667    7.333 
#    0.000    3.333    0.000    0.000    0.000    0.000 
#    0.000    0.000    0.000    0.000    0.000    0.000 
#
# Total GULP energy -133945.001504 kJ/mol
# GULP energy per Si atom -5581.041729 kJ/mol
# Density = 1.994036 g / cm^3
# Si number density = 19.985850 Si / 1000 Ang^3
#
#
#
# Elastic Constant Matrix: (Units=GPa)
#
#
# Indices 1 2 3 4 5 6 
#
# 1 151.6726 47.0943 84.7683 0.0000 0.0000 0.0000
# 2 47.0943 49.7798 34.3792 0.0000 0.0000 0.0000
# 3 84.7683 34.3792 90.4383 0.0000 0.0000 0.0000
# 4 0.0000 0.0000 0.0000 27.5160 0.0000 0.0000
# 5 0.0000 0.0000 0.0000 0.0000 -95.6128 0.0000
# 6 0.0000 0.0000 0.0000 0.0000 0.0000 28.1820
#
#
#
# Elastic Compliance Matrix: (Units=1/GPa)
#
#
# Indices 1 2 3 4 5 6 
#
# 1 0.015107 -0.006119 -0.011834 0.000000 0.000000 0.000000
# 2 -0.006119 0.029719 -0.005562 0.000000 0.000000 0.000000
# 3 -0.011834 -0.005562 0.024263 0.000000 0.000000 0.000000
# 4 0.000000 0.000000 0.000000 0.036342 0.000000 0.000000
# 5 0.000000 0.000000 0.000000 0.000000 -0.010459 0.000000
# 6 0.000000 0.000000 0.000000 0.000000 0.000000 0.035484
#
#
# Mechanical properties :
#
#
# Convention : Reuss Voigt Hill
#
# Bulk Modulus (GPa) = 45.33154 69.37494 57.35324
# Shear Modulus (GPa) = 27.05075 0.39363 13.72219
#
# Velocity S-wave (km/s) = 3.68298 0.44428 2.62314
# Velocity P-wave (km/s) = 6.38881 5.92035 6.15903
#
# Compressibility (1/GPa) = 0.02205970
#
# Stress axis : x y z
#
# Youngs Moduli (GPa) = 66.19518 33.64895 41.21493
#
# Poissons Ratio (x) = 0.20591 0.48772
# Poissons Ratio (y) = 0.40507 0.22922
# Poissons Ratio (z) = 0.78332 0.18714
#
# Static dielectric constant tensor:
#      x y z
#    x 1.688580 0.000000 0.000000 
#    y 0.000000 1.733710 0.000000 
#    z 0.000000 0.000000 1.724320 
# 
# From -- ./inp_files/8377.got.cif
#   From: 2010.05.17/outbox.cif.g08.bks.cpg/sg39_5_cif.got.tgz:8377.got - 2010.06.03 18:22:40.
