data_PCOD9361857
_publ_section_title
;
Structure prediction by ZEFSAII (Michael W. Deem and Ramdas Pophale) SiO2 
 PCOD9361857
Probable space group: A B M 2
;
_chemical_formula_sum "Si O2"
_cell_formula_units_Z 60
_cell_length_a 9.149824
_cell_length_b 28.173831
_cell_length_c 10.963753
_cell_angle_alpha 90.000000
_cell_angle_beta 90.000000
_cell_angle_gamma 90.000000
_cell_volume 2826.297591
_symmetry_space_group_name_H-M "A B M 2"
_symmetry_group_IT_number 39
_symmetry_cell_setting 'orthorhombic'
loop_
_space_group_symop_operation_xyz
x,y,z
-x,-y,z
-x,1/2+y,z
x,1/2-y,z
x,1/2+y,1/2+z
-x,1/2-y,1/2+z
-x,y,1/2+z
x,-y,1/2+z
loop_
_atom_site_type_symbol
_atom_site_label
_atom_site_fract_x
_atom_site_fract_y
_atom_site_fract_z
Si Si1 0.784278 0.566806 0.227990
Si Si2 0.395263 0.367397 0.401004
Si Si3 0.906621 0.197910 0.197663
Si Si4 0.000000 0.500000 0.869609
Si Si5 0.515579 0.447255 0.092594
Si Si6 0.897441 0.825684 0.429555
Si Si7 0.679666 0.882291 0.773411
Si Si8 0.104830 0.091833 0.986019
O O1 0.714254 0.598200 0.331098
O O2 0.884943 0.526660 0.284152
O O3 0.640950 0.550383 0.157038
O O4 0.871947 0.597616 0.129216
O O5 0.462643 0.401900 0.504485
O O6 0.280089 0.326133 0.434829
O O7 0.528356 0.356342 0.309922
O O8 0.838600 0.250000 0.221194
O O9 0.791727 0.154204 0.209641
O O10 0.032060 0.192402 0.302368
O O11 0.954619 0.197700 0.055671
O O12 0.077083 0.462667 0.956974
O O13 0.500000 0.500000 0.030577
O O14 0.634948 0.430128 0.196891
O O15 0.967494 0.877914 0.444067
O O16 0.761290 0.894340 0.899512
#
# Coordination Sequence:
#
# PCOD9361857 Si02
#       8
#     8   8   8   4   8   8   8   8
#     4  11  24  38  58  88 130 176 231 279 324 388
#     4  11  22  42  64  96 129 183 222 277 342 405
#     4  11  24  46  75 106 133 173 227 291 363 431
#     4  12  24  36  60  90 136 176 240 270 328 396
#     4  11  23  38  65  92 135 179 234 272 326 399
#     4  11  23  43  73  99 140 174 225 285 356 417
#     4  10  23  43  66  91 136 178 222 280 348 407
#     4  11  23  40  58  93 128 183 219 282 329 401
#
# _framework density 21.229185999999999
#
# number of rings (size 3 to 8) (size 9 to 14) (size 15 to 20)
#    0.000    1.067    4.000    2.400    3.733    3.200 
#    0.000    1.333    0.000    0.000    0.000    0.000 
#    0.000    0.000    0.000    0.000    0.000    0.000 
#
# Total GULP energy -167044.923336 kJ/mol
# GULP energy per Si atom -5568.164111 kJ/mol
# Density = 2.118087 g / cm^3
# Si number density = 21.229186 Si / 1000 Ang^3
#
#
#
# Elastic Constant Matrix: (Units=GPa)
#
#
# Indices 1 2 3 4 5 6 
#
# 1 85.3732 18.2061 16.2223 0.0000 0.0000 0.0000
# 2 18.2061 52.6447 14.0601 0.0000 0.0000 0.0000
# 3 16.2223 14.0601 77.9795 0.0000 0.0000 0.0000
# 4 0.0000 0.0000 0.0000 0.7676 0.0000 0.0000
# 5 0.0000 0.0000 0.0000 0.0000 34.1514 0.0000
# 6 0.0000 0.0000 0.0000 0.0000 0.0000 13.6121
#
#
#
# Elastic Compliance Matrix: (Units=1/GPa)
#
#
# Indices 1 2 3 4 5 6 
#
# 1 0.012930 -0.003943 -0.001979 0.000000 0.000000 0.000000
# 2 -0.003943 0.021159 -0.002995 0.000000 0.000000 0.000000
# 3 -0.001979 -0.002995 0.013776 0.000000 0.000000 0.000000
# 4 0.000000 0.000000 0.000000 1.302771 0.000000 0.000000
# 5 0.000000 0.000000 0.000000 0.000000 0.029281 0.000000
# 6 0.000000 0.000000 0.000000 0.000000 0.000000 0.073464
#
#
# Mechanical properties :
#
#
# Convention : Reuss Voigt Hill
#
# Bulk Modulus (GPa) = 33.29906 34.77494 34.03700
# Shear Modulus (GPa) = 3.37558 20.87348 12.12453
#
# Velocity S-wave (km/s) = 1.26235 3.13907 2.39242
# Velocity P-wave (km/s) = 4.22425 5.43642 4.86821
#
# Compressibility (1/GPa) = 0.03003087
#
# Stress axis : x y z
#
# Youngs Moduli (GPa) = 77.33838 47.26182 72.59250
#
# Poissons Ratio (x) = 0.18636 0.14366
# Poissons Ratio (y) = 0.30495 0.21740
# Poissons Ratio (z) = 0.15305 0.14154
#
# Static dielectric constant tensor:
#      x y z
#    x 1.803440 0.000000 0.000000 
#    y 0.000000 1.731130 0.000000 
#    z 0.000000 0.000000 1.878760 
# 
# From -- ./inp_files/5379.got.cif
#   From: 2010.05.17/outbox.cif.g08.bks.cpg/sg39_3_cif.got.tgz:5379.got - 2010.06.03 18:22:40.
