data_PCOD9361824
_publ_section_title
;
Structure prediction by ZEFSAII (Michael W. Deem and Ramdas Pophale) SiO2 
 PCOD9361824
Probable space group: A B M 2
;
_chemical_formula_sum "Si O2"
_cell_formula_units_Z 64
_cell_length_a 9.479046
_cell_length_b 22.764557
_cell_length_c 14.740741
_cell_angle_alpha 90.000000
_cell_angle_beta 90.000000
_cell_angle_gamma 90.000000
_cell_volume 3180.849709
_symmetry_space_group_name_H-M "A B M 2"
_symmetry_group_IT_number 39
_symmetry_cell_setting 'orthorhombic'
loop_
_space_group_symop_operation_xyz
x,y,z
-x,-y,z
-x,1/2+y,z
x,1/2-y,z
x,1/2+y,1/2+z
-x,1/2-y,1/2+z
-x,y,1/2+z
x,-y,1/2+z
loop_
_atom_site_type_symbol
_atom_site_label
_atom_site_fract_x
_atom_site_fract_y
_atom_site_fract_z
Si Si1 0.034958 0.139089 0.192170
Si Si2 0.114771 0.050768 0.457724
Si Si3 0.470274 0.903073 0.551126
Si Si4 0.404807 0.555255 0.864802
Si Si5 0.214890 0.183840 0.027541
Si Si6 0.280346 0.953670 0.691071
Si Si7 0.021128 0.318897 0.393297
Si Si8 0.239971 0.577598 0.148186
O O1 0.094975 0.171946 0.103798
O O2 0.130636 0.079509 0.189583
O O3 0.051684 0.173345 0.286648
O O4 0.869922 0.124206 0.186326
O O5 0.253261 0.035834 0.401623
O O6 0.085148 0.119993 0.434959
O O7 0.155513 0.049972 0.562876
O O8 0.000000 0.000000 0.439554
O O9 0.521898 0.911762 0.448161
O O10 0.352414 0.853288 0.548913
O O11 0.374081 0.953394 0.599021
O O12 0.612607 0.897365 0.610332
O O13 0.500000 0.500000 0.846352
O O14 0.370401 0.581975 0.766591
O O15 0.259429 0.250000 0.033250
O O16 0.139314 0.174548 0.930451
O O17 0.263671 0.022174 0.713546
O O18 0.060810 0.250000 0.418614
#
# Coordination Sequence:
#
# PCOD9361824 Si02
#       8
#     8   8   8   8   8   8   8   8
#     4  11  22  39  68  93 127 171 220 279 329 402
#     4  11  23  40  63  99 129 171 219 276 342 403
#     4  10  23  41  60  87 131 171 218 264 331 410
#     4  11  23  36  60  91 131 170 210 268 336 393
#     4  10  23  44  67  89 124 177 225 282 340 398
#     4  11  22  38  59  94 133 173 212 264 336 401
#     4  11  24  42  65  98 132 172 228 282 339 405
#     4  11  22  38  62  98 132 168 216 273 331 394
#
# _framework density 20.120411000000001
#
# number of rings (size 3 to 8) (size 9 to 14) (size 15 to 20)
#    0.000    1.250    2.500    4.125    5.250    1.000 
#    0.000    3.750    0.000    1.500    0.000    0.000 
#    0.000    0.000    0.000    0.000    0.000    0.000 
#
# Total GULP energy -178205.641573 kJ/mol
# GULP energy per Si atom -5568.926299 kJ/mol
# Density = 2.007462 g / cm^3
# Si number density = 20.120411 Si / 1000 Ang^3
#
#
#
# Elastic Constant Matrix: (Units=GPa)
#
#
# Indices 1 2 3 4 5 6 
#
# 1 103.5429 47.0081 14.4896 0.0000 0.0000 0.0000
# 2 47.0081 48.3288 19.7940 0.0000 0.0000 0.0000
# 3 14.4896 19.7940 75.0049 0.0000 0.0000 0.0000
# 4 0.0000 0.0000 0.0000 18.2807 0.0000 0.0000
# 5 0.0000 0.0000 0.0000 0.0000 39.8016 0.0000
# 6 0.0000 0.0000 0.0000 0.0000 0.0000 5.1324
#
#
#
# Elastic Compliance Matrix: (Units=1/GPa)
#
#
# Indices 1 2 3 4 5 6 
#
# 1 0.017397 -0.017429 0.001239 0.000000 0.000000 0.000000
# 2 -0.017429 0.040660 -0.007363 0.000000 0.000000 0.000000
# 3 0.001239 -0.007363 0.015036 0.000000 0.000000 0.000000
# 4 0.000000 0.000000 0.000000 0.054703 0.000000 0.000000
# 5 0.000000 0.000000 0.000000 0.000000 0.025125 0.000000
# 6 0.000000 0.000000 0.000000 0.000000 0.000000 0.194842
#
#
# Mechanical properties :
#
#
# Convention : Reuss Voigt Hill
#
# Bulk Modulus (GPa) = 38.48170 43.27334 40.87752
# Shear Modulus (GPa) = 12.39055 22.34859 17.36957
#
# Velocity S-wave (km/s) = 2.48426 3.33640 2.94135
# Velocity P-wave (km/s) = 5.23412 6.03290 5.64765
#
# Compressibility (1/GPa) = 0.02598638
#
# Stress axis : x y z
#
# Youngs Moduli (GPa) = 57.48017 24.59397 66.50546
#
# Poissons Ratio (x) = 0.42865 -0.08238
# Poissons Ratio (y) = 1.00184 0.48970
# Poissons Ratio (z) = -0.07120 0.18109
#
# Static dielectric constant tensor:
#      x y z
#    x 1.699120 0.000000 0.000000 
#    y 0.000000 1.764860 0.000000 
#    z 0.000000 0.000000 1.823200 
# 
# From -- ./inp_files/8778.got.cif
#   From: 2010.05.17/outbox.cif.g08.bks.cpg/sg39_5_cif.got.tgz:8778.got - 2010.06.03 18:22:40.
