data_PCOD9361338
_publ_section_title
;
Structure prediction by ZEFSAII (Michael W. Deem and Ramdas Pophale) SiO2 
 PCOD9361338
Probable space group: A B M 2
;
_chemical_formula_sum "Si O2"
_cell_formula_units_Z 64
_cell_length_a 24.232823
_cell_length_b 8.738598
_cell_length_c 15.209573
_cell_angle_alpha 90.000000
_cell_angle_beta 90.000000
_cell_angle_gamma 90.000000
_cell_volume 3220.792846
_symmetry_space_group_name_H-M "A B M 2"
_symmetry_group_IT_number 39
_symmetry_cell_setting 'orthorhombic'
loop_
_space_group_symop_operation_xyz
x,y,z
-x,-y,z
-x,1/2+y,z
x,1/2-y,z
x,1/2+y,1/2+z
-x,1/2-y,1/2+z
-x,y,1/2+z
x,-y,1/2+z
loop_
_atom_site_type_symbol
_atom_site_label
_atom_site_fract_x
_atom_site_fract_y
_atom_site_fract_z
Si Si1 0.614006 0.565851 0.804020
Si Si2 0.263529 0.428865 0.747327
Si Si3 0.869628 0.431988 0.564822
Si Si4 0.939616 0.066621 0.913207
Si Si5 0.852266 0.066202 0.766371
Si Si6 0.634651 0.065738 0.986371
Si Si7 0.440903 0.932711 0.636702
Si Si8 0.245382 0.570805 0.037698
O O1 0.610341 0.750000 0.798488
O O2 0.676559 0.517360 0.778000
O O3 0.605407 0.506575 0.902166
O O4 0.573267 0.489999 0.734459
O O5 0.258961 0.250000 0.769555
O O6 0.210076 0.513210 0.784987
O O7 0.260186 0.442115 0.641376
O O8 0.877127 0.250000 0.563008
O O9 0.916019 0.511578 0.506652
O O10 0.867900 0.484092 0.666956
O O11 0.810016 0.475794 0.524359
O O12 0.941735 0.250000 0.911380
O O13 0.896317 0.013477 0.838355
O O14 0.000000 0.000000 0.897268
O O15 0.852466 0.250000 0.766113
O O16 0.631950 0.250000 0.986021
O O17 0.699572 0.022127 0.986927
O O18 0.605602 0.002077 0.073119
O O19 0.441007 0.750000 0.632177
O O20 0.500000 0.000000 0.609961
O O21 0.234055 0.750000 0.018880
#
# Coordination Sequence:
#
# PCOD9361338 Si02
#       8
#     8   8   8   8   8   8   8   8
#     4  11  23  41  63  96 132 167 212 261 313 377
#     4   9  18  35  60  89 124 162 201 249 306 364
#     4  10  21  38  60  89 121 157 201 250 302 363
#     4  11  24  42  61  85 118 159 204 252 304 365
#     4   9  21  39  59  86 120 157 200 248 301 362
#     4  11  23  41  64  95 131 169 212 261 315 375
#     4  12  26  46  70  94 125 170 215 264 319 375
#     4   9  18  36  60  88 125 165 202 249 307 366
#
# _framework density 19.870885000000001
#
# number of rings (size 3 to 8) (size 9 to 14) (size 15 to 20)
#    0.000    1.750    1.250    2.625    1.750    4.500 
#    0.000    3.750    0.000    0.000    0.000    0.000 
#    0.000    0.000    0.000    0.000    0.000    0.000 
#
# Total GULP energy -178862.702427 kJ/mol
# GULP energy per Si atom -5589.459451 kJ/mol
# Density = 1.982566 g / cm^3
# Si number density = 19.870885 Si / 1000 Ang^3
#
#
#
# Elastic Constant Matrix: (Units=GPa)
#
#
# Indices 1 2 3 4 5 6 
#
# 1 71.4547 21.1411 -0.2665 0.0000 0.0000 0.0000
# 2 21.1411 48.5433 7.7670 0.0000 0.0000 0.0000
# 3 -0.2665 7.7670 41.4309 0.0000 0.0000 0.0000
# 4 0.0000 0.0000 0.0000 24.8137 0.0000 0.0000
# 5 0.0000 0.0000 0.0000 0.0000 25.6169 0.0000
# 6 0.0000 0.0000 0.0000 0.0000 0.0000 34.5803
#
#
#
# Elastic Compliance Matrix: (Units=1/GPa)
#
#
# Indices 1 2 3 4 5 6 
#
# 1 0.016151 -0.007269 0.001467 0.000000 0.000000 0.000000
# 2 -0.007269 0.024508 -0.004641 0.000000 0.000000 0.000000
# 3 0.001467 -0.004641 0.025016 0.000000 0.000000 0.000000
# 4 0.000000 0.000000 0.000000 0.040300 0.000000 0.000000
# 5 0.000000 0.000000 0.000000 0.000000 0.039037 0.000000
# 6 0.000000 0.000000 0.000000 0.000000 0.000000 0.028918
#
#
# Mechanical properties :
#
#
# Convention : Reuss Voigt Hill
#
# Bulk Modulus (GPa) = 22.32706 24.30133 23.31420
# Shear Modulus (GPa) = 23.83828 25.85466 24.84647
#
# Velocity S-wave (km/s) = 3.46737 3.61104 3.53993
# Velocity P-wave (km/s) = 5.22404 5.44447 5.33540
#
# Compressibility (1/GPa) = 0.04478870
#
# Stress axis : x y z
#
# Youngs Moduli (GPa) = 61.91620 40.80249 39.97427
#
# Poissons Ratio (x) = 0.29657 -0.05862
# Poissons Ratio (y) = 0.45004 0.18553
# Poissons Ratio (z) = -0.09080 0.18938
#
# Static dielectric constant tensor:
#      x y z
#    x 1.679990 0.000000 0.000000 
#    y 0.000000 1.664580 0.000000 
#    z 0.000000 0.000000 1.723860 
# 
# From -- ./inp_files/10600.got.cif
#   From: 2010.05.17/outbox.cif.g08.bks.cpg/sg39_6_cif.got.tgz:10600.got - 2010.06.03 18:22:40.
