data_PCOD9361451
_publ_section_title
;
Structure prediction by ZEFSAII (Michael W. Deem and Ramdas Pophale) SiO2 
 PCOD9361451
Probable space group: A B M 2
;
_chemical_formula_sum "Si O2"
_cell_formula_units_Z 64
_cell_length_a 18.788673
_cell_length_b 19.192096
_cell_length_c 9.177856
_cell_angle_alpha 90.000000
_cell_angle_beta 90.000000
_cell_angle_gamma 90.000000
_cell_volume 3309.479953
_symmetry_space_group_name_H-M "A B M 2"
_symmetry_group_IT_number 39
_symmetry_cell_setting 'orthorhombic'
loop_
_space_group_symop_operation_xyz
x,y,z
-x,-y,z
-x,1/2+y,z
x,1/2-y,z
x,1/2+y,1/2+z
-x,1/2-y,1/2+z
-x,y,1/2+z
x,-y,1/2+z
loop_
_atom_site_type_symbol
_atom_site_label
_atom_site_fract_x
_atom_site_fract_y
_atom_site_fract_z
Si Si1 0.428584 0.831159 0.470590
Si Si2 0.044949 0.089854 0.016218
Si Si3 0.182983 0.331711 0.071380
Si Si4 0.753324 0.441298 0.100525
Si Si5 0.433809 0.670219 0.810494
Si Si6 0.290770 0.923827 0.412651
Si Si7 0.918045 0.447982 0.180294
Si Si8 0.272333 0.334084 0.357346
O O1 0.412791 0.750000 0.423718
O O2 0.447584 0.827738 0.639734
O O3 0.497391 0.860848 0.387658
O O4 0.360824 0.881015 0.456246
O O5 0.057082 0.067770 0.846861
O O6 0.100125 0.150181 0.056436
O O7 0.963336 0.100275 0.067066
O O8 0.066723 0.026024 0.122403
O O9 0.195056 0.250000 0.057649
O O10 0.220366 0.354406 0.223571
O O11 0.224949 0.372554 0.946654
O O12 0.704560 0.439696 0.242475
O O13 0.833802 0.444152 0.159900
O O14 0.728972 0.506407 0.001463
O O15 0.749621 0.372215 0.003594
O O16 0.430898 0.750000 0.867292
O O17 0.353986 0.642425 0.829863
O O18 0.270591 0.250000 0.366383
#
# Coordination Sequence:
#
# PCOD9361451 Si02
#       8
#     8   8   8   8   8   8   8   8
#     4  10  21  39  66  95 127 168 213 263 319 381
#     4  11  23  39  64  95 120 166 209 263 311 375
#     4  11  22  41  65  92 128 167 210 264 325 376
#     4  12  25  41  65  95 125 167 212 268 314 385
#     4   9  19  37  62  92 122 163 211 256 309 377
#     4  12  24  41  65  92 127 167 214 266 319 380
#     4  11  22  39  63  92 122 159 212 255 311 374
#     4  10  23  41  66  93 125 166 213 266 319 376
#
# _framework density 19.338386
#
# number of rings (size 3 to 8) (size 9 to 14) (size 15 to 20)
#    0.000    1.250    3.750    2.625    5.250    1.000 
#    0.000    1.875    0.000    0.000    0.000    0.000 
#    0.000    0.000    0.000    0.000    0.000    0.000 
#
# Total GULP energy -178441.374677 kJ/mol
# GULP energy per Si atom -5576.292959 kJ/mol
# Density = 1.929437 g / cm^3
# Si number density = 19.338386 Si / 1000 Ang^3
#
#
#
# Elastic Constant Matrix: (Units=GPa)
#
#
# Indices 1 2 3 4 5 6 
#
# 1 42.2402 12.3425 18.3628 0.0000 0.0000 0.0000
# 2 12.3425 43.9076 33.9309 0.0000 0.0000 0.0000
# 3 18.3628 33.9309 104.1588 0.0000 0.0000 0.0000
# 4 0.0000 0.0000 0.0000 22.6519 0.0000 0.0000
# 5 0.0000 0.0000 0.0000 0.0000 35.0045 0.0000
# 6 0.0000 0.0000 0.0000 0.0000 0.0000 20.9128
#
#
#
# Elastic Compliance Matrix: (Units=1/GPa)
#
#
# Indices 1 2 3 4 5 6 
#
# 1 0.026475 -0.005126 -0.002998 0.000000 0.000000 0.000000
# 2 -0.005126 0.031430 -0.009335 0.000000 0.000000 0.000000
# 3 -0.002998 -0.009335 0.013170 0.000000 0.000000 0.000000
# 4 0.000000 0.000000 0.000000 0.044146 0.000000 0.000000
# 5 0.000000 0.000000 0.000000 0.000000 0.028568 0.000000
# 6 0.000000 0.000000 0.000000 0.000000 0.000000 0.047818
#
#
# Mechanical properties :
#
#
# Convention : Reuss Voigt Hill
#
# Bulk Modulus (GPa) = 27.65614 35.50881 31.58248
# Shear Modulus (GPa) = 20.95767 24.09186 22.52476
#
# Velocity S-wave (km/s) = 3.29558 3.53343 3.41657
# Velocity P-wave (km/s) = 5.36781 5.92018 5.65075
#
# Compressibility (1/GPa) = 0.03615833
#
# Stress axis : x y z
#
# Youngs Moduli (GPa) = 37.77151 31.81695 75.92898
#
# Poissons Ratio (x) = 0.16308 0.22761
# Poissons Ratio (y) = 0.19360 0.70880
# Poissons Ratio (z) = 0.11323 0.29701
#
# Static dielectric constant tensor:
#      x y z
#    x 1.775610 0.000000 0.000000 
#    y 0.000000 1.673010 0.000000 
#    z 0.000000 0.000000 1.671980 
# 
# From -- ./inp_files/3858.got.cif
#   From: 2010.05.17/outbox.cif.g08.bks.cpg/sg39_2_cif.got.tgz:3858.got - 2010.06.03 18:22:40.
