data_PCOD9361720
_publ_section_title
;
Structure prediction by ZEFSAII (Michael W. Deem and Ramdas Pophale) SiO2 
 PCOD9361720
Probable space group: A B M 2
;
_chemical_formula_sum "Si O2"
_cell_formula_units_Z 56
_cell_length_a 15.580261
_cell_length_b 9.058226
_cell_length_c 20.659644
_cell_angle_alpha 90.000000
_cell_angle_beta 90.000000
_cell_angle_gamma 90.000000
_cell_volume 2915.685750
_symmetry_space_group_name_H-M "A B M 2"
_symmetry_group_IT_number 39
_symmetry_cell_setting 'orthorhombic'
loop_
_space_group_symop_operation_xyz
x,y,z
-x,-y,z
-x,1/2+y,z
x,1/2-y,z
x,1/2+y,1/2+z
-x,1/2-y,1/2+z
-x,y,1/2+z
x,-y,1/2+z
loop_
_atom_site_type_symbol
_atom_site_label
_atom_site_fract_x
_atom_site_fract_y
_atom_site_fract_z
Si Si1 0.413925 0.076061 0.760620
Si Si2 0.235531 0.573584 0.941990
Si Si3 0.829911 0.421360 0.661882
Si Si4 0.627983 0.918845 0.132337
Si Si5 0.236623 0.426498 0.297570
Si Si6 0.910919 0.073794 0.043258
Si Si7 0.588286 0.075882 0.481651
O O1 0.416521 0.250000 0.769953
O O2 0.500000 0.000000 0.786470
O O3 0.407301 0.033615 0.684426
O O4 0.327876 0.006593 0.790214
O O5 0.248673 0.750000 0.948741
O O6 0.202469 0.545194 0.869269
O O7 0.166346 0.527108 0.995484
O O8 0.326561 0.495090 0.951679
O O9 0.857596 0.250000 0.658237
O O10 0.731397 0.427922 0.636421
O O11 0.822964 0.468961 0.736875
O O12 0.886643 0.519900 0.615119
O O13 0.604460 0.750000 0.151720
O O14 0.597882 0.944294 0.059471
O O15 0.251274 0.250000 0.290360
O O16 0.917846 0.250000 0.040977
O O17 0.000000 0.000000 0.023519
O O18 0.585745 0.250000 0.468192
O O19 0.500000 0.000000 0.460429
#
# Coordination Sequence:
#
# PCOD9361720 Si02
#       7
#     8   8   8   8   8   8   8
#     4  11  21  32  50  77 110 150 199 249 294 345
#     4  10  22  41  62  86 119 159 200 245 293 350
#     4   9  17  35  61  87 115 147 185 236 292 348
#     4   9  18  33  53  79 112 151 191 241 299 346
#     4   9  20  39  60  81 113 155 194 236 295 352
#     4  11  23  39  64  94 121 152 192 239 295 355
#     4  11  22  35  54  82 118 160 204 248 296 348
#
# _framework density 19.206458999999999
#
# number of rings (size 3 to 8) (size 9 to 14) (size 15 to 20)
#    0.000    2.000    1.429    3.429    0.000    6.286 
#    0.000    0.714    0.000    1.714    0.000    0.000 
#    0.000    0.000    0.000    0.000    0.000    0.000 
#
# Total GULP energy -156393.343709 kJ/mol
# GULP energy per Si atom -5585.476561 kJ/mol
# Density = 1.916274 g / cm^3
# Si number density = 19.206459 Si / 1000 Ang^3
#
#
#
# Elastic Constant Matrix: (Units=GPa)
#
#
# Indices 1 2 3 4 5 6 
#
# 1 81.8035 33.1029 40.8133 0.0000 0.0000 0.0000
# 2 33.1029 53.2895 39.1335 0.0000 0.0000 0.0000
# 3 40.8133 39.1335 104.8643 0.0000 0.0000 0.0000
# 4 0.0000 0.0000 0.0000 20.9358 0.0000 0.0000
# 5 0.0000 0.0000 0.0000 0.0000 -0.1410 0.0000
# 6 0.0000 0.0000 0.0000 0.0000 0.0000 30.2291
#
#
#
# Elastic Compliance Matrix: (Units=1/GPa)
#
#
# Indices 1 2 3 4 5 6 
#
# 1 0.017342 -0.008012 -0.003760 0.000000 0.000000 0.000000
# 2 -0.008012 0.029551 -0.007910 0.000000 0.000000 0.000000
# 3 -0.003760 -0.007910 0.013951 0.000000 0.000000 0.000000
# 4 0.000000 0.000000 0.000000 0.047765 0.000000 0.000000
# 5 0.000000 0.000000 0.000000 0.000000 -7.093465 0.000000
# 6 0.000000 0.000000 0.000000 0.000000 0.000000 0.033081
#
#
# Mechanical properties :
#
#
# Convention : Reuss Voigt Hill
#
# Bulk Modulus (GPa) = 46.55102 51.78408 49.16755
# Shear Modulus (GPa) = -0.72409 18.66530 8.97061
#
# Velocity S-wave (km/s) = -0.61467 3.12079 2.16351
# Velocity P-wave (km/s) = 4.87709 6.32504 5.64766
#
# Compressibility (1/GPa) = 0.02148180
#
# Stress axis : x y z
#
# Youngs Moduli (GPa) = 57.66235 33.84007 71.67857
#
# Poissons Ratio (x) = 0.27112 0.26950
# Poissons Ratio (y) = 0.46198 0.56695
# Poissons Ratio (z) = 0.21680 0.26766
#
# Static dielectric constant tensor:
#      x y z
#    x 1.647610 0.000000 0.000000 
#    y 0.000000 1.643880 0.000000 
#    z 0.000000 0.000000 1.698580 
# 
# From -- ./inp_files/14754.got.cif
#   From: 2010.05.17/outbox.cif.g08.bks.cpg/sg39_8_cif.got.tgz:14754.got - 2010.06.03 18:22:40.
