data_PCOD9361206
_publ_section_title
;
Structure prediction by ZEFSAII (Michael W. Deem and Ramdas Pophale) SiO2 
 PCOD9361206
Probable space group: A B M 2
;
_chemical_formula_sum "Si O2"
_cell_formula_units_Z 56
_cell_length_a 15.575244
_cell_length_b 8.830182
_cell_length_c 20.527367
_cell_angle_alpha 90.000000
_cell_angle_beta 90.000000
_cell_angle_gamma 90.000000
_cell_volume 2823.174749
_symmetry_space_group_name_H-M "A B M 2"
_symmetry_group_IT_number 39
_symmetry_cell_setting 'orthorhombic'
loop_
_space_group_symop_operation_xyz
x,y,z
-x,-y,z
-x,1/2+y,z
x,1/2-y,z
x,1/2+y,1/2+z
-x,1/2-y,1/2+z
-x,y,1/2+z
x,-y,1/2+z
loop_
_atom_site_type_symbol
_atom_site_label
_atom_site_fract_x
_atom_site_fract_y
_atom_site_fract_z
Si Si1 0.723547 0.067979 0.361330
Si Si2 0.591549 0.570944 0.463489
Si Si3 0.270324 0.931634 0.726176
Si Si4 0.127735 0.574045 0.554974
Si Si5 0.911413 0.569112 0.905469
Si Si6 0.670456 0.925690 0.084715
Si Si7 0.911497 0.571805 0.688195
O O1 0.720976 0.250000 0.363370
O O2 0.822745 0.018900 0.372277
O O3 0.664534 0.002248 0.418149
O O4 0.694380 0.005802 0.291551
O O5 0.500000 0.500000 0.446222
O O6 0.590521 0.750000 0.454941
O O7 0.613829 0.527588 0.537910
O O8 0.268110 0.750000 0.730801
O O9 0.322633 0.970419 0.660434
O O10 0.173511 0.992800 0.716133
O O11 0.103600 0.750000 0.569646
O O12 0.098320 0.534485 0.482570
O O13 0.231167 0.568143 0.558912
O O14 0.093249 0.464297 0.610791
O O15 0.915949 0.750000 0.899094
O O16 0.000000 0.500000 0.880678
O O17 0.642628 0.750000 0.079896
O O18 0.908809 0.750000 0.700813
O O19 0.000000 0.500000 0.712936
#
# Coordination Sequence:
#
# PCOD9361206 Si02
#       7
#     8   8   8   8   8   8   8
#     4  11  23  43  64  89 129 171 211 260 314 371
#     4  12  25  42  69 100 128 161 205 254 311 376
#     4  10  22  40  62  88 121 163 206 254 314 373
#     4   9  17  33  54  80 116 157 198 253 315 364
#     4  10  21  35  54  82 120 165 209 256 309 362
#     4   9  18  38  64  90 124 157 194 250 311 368
#     4  11  21  33  51  79 114 158 210 263 314 366
#
# _framework density 19.835825
#
# number of rings (size 3 to 8) (size 9 to 14) (size 15 to 20)
#    0.000    1.714    1.429    4.714    0.000    6.286 
#    0.000    2.143    0.000    3.429    0.000    0.000 
#    0.000    0.000    0.000    0.000    0.000    0.000 
#
# Total GULP energy -156509.569699 kJ/mol
# GULP energy per Si atom -5589.627489 kJ/mol
# Density = 1.979068 g / cm^3
# Si number density = 19.835825 Si / 1000 Ang^3
#
#
#
# Elastic Constant Matrix: (Units=GPa)
#
#
# Indices 1 2 3 4 5 6 
#
# 1 71.2202 32.9483 36.5331 0.0000 0.0000 0.0000
# 2 32.9483 84.3035 45.6775 0.0000 0.0000 0.0000
# 3 36.5331 45.6775 107.6683 0.0000 0.0000 0.0000
# 4 0.0000 0.0000 0.0000 15.0464 0.0000 0.0000
# 5 0.0000 0.0000 0.0000 0.0000 -3.7499 0.0000
# 6 0.0000 0.0000 0.0000 0.0000 0.0000 30.2278
#
#
#
# Elastic Compliance Matrix: (Units=1/GPa)
#
#
# Indices 1 2 3 4 5 6 
#
# 1 0.018473 -0.004965 -0.004162 0.000000 0.000000 0.000000
# 2 -0.004965 0.016737 -0.005416 0.000000 0.000000 0.000000
# 3 -0.004162 -0.005416 0.012998 0.000000 0.000000 0.000000
# 4 0.000000 0.000000 0.000000 0.066461 0.000000 0.000000
# 5 0.000000 0.000000 0.000000 0.000000 -0.266673 0.000000
# 6 0.000000 0.000000 0.000000 0.000000 0.000000 0.033082
#
#
# Mechanical properties :
#
#
# Convention : Reuss Voigt Hill
#
# Bulk Modulus (GPa) = 52.29508 54.83442 53.56475
# Shear Modulus (GPa) = -59.90534 18.17375 -20.86580
#
# Velocity S-wave (km/s) = -5.50147 3.03018 -3.24686
# Velocity P-wave (km/s) = 3.73278 6.32035 3.60646
#
# Compressibility (1/GPa) = 0.01912226
#
# Stress axis : x y z
#
# Youngs Moduli (GPa) = 54.13438 59.74904 76.93775
#
# Poissons Ratio (x) = 0.29664 0.32019
# Poissons Ratio (y) = 0.26876 0.41668
# Poissons Ratio (z) = 0.22529 0.32359
#
# Static dielectric constant tensor:
#      x y z
#    x 1.695320 0.000000 0.000000 
#    y 0.000000 1.660650 0.000000 
#    z 0.000000 0.000000 1.723630 
# 
# From -- ./inp_files/14764.got.cif
#   From: 2010.05.17/outbox.cif.g08.bks.cpg/sg39_8_cif.got.tgz:14764.got - 2010.06.03 18:22:40.
