data_PCOD9361184
_publ_section_title
;
Structure prediction by ZEFSAII (Michael W. Deem and Ramdas Pophale) SiO2 
 PCOD9361184
Probable space group: A B M 2
;
_chemical_formula_sum "Si O2"
_cell_formula_units_Z 64
_cell_length_a 19.646535
_cell_length_b 26.914287
_cell_length_c 5.342850
_cell_angle_alpha 90.000000
_cell_angle_beta 90.000000
_cell_angle_gamma 90.000000
_cell_volume 2825.152053
_symmetry_space_group_name_H-M "A B M 2"
_symmetry_group_IT_number 39
_symmetry_cell_setting 'orthorhombic'
loop_
_space_group_symop_operation_xyz
x,y,z
-x,-y,z
-x,1/2+y,z
x,1/2-y,z
x,1/2+y,1/2+z
-x,1/2-y,1/2+z
-x,y,1/2+z
x,-y,1/2+z
loop_
_atom_site_type_symbol
_atom_site_label
_atom_site_fract_x
_atom_site_fract_y
_atom_site_fract_z
Si Si1 0.391134 0.477982 0.860030
Si Si2 0.771899 0.976429 0.754270
Si Si3 0.539507 0.309460 0.344552
Si Si4 0.220562 0.370277 0.839638
Si Si5 0.642321 0.124735 0.581516
Si Si6 0.962821 0.690007 0.532722
Si Si7 0.698767 0.305844 0.958960
Si Si8 0.840998 0.694727 0.195882
O O1 0.418285 0.483820 0.574295
O O2 0.310176 0.484141 0.791637
O O3 0.397291 0.425303 0.005578
O O4 0.789242 0.919782 0.680999
O O5 0.798648 0.010113 0.528878
O O6 0.544403 0.250000 0.349964
O O7 0.495682 0.324656 0.587497
O O8 0.611828 0.334215 0.393829
O O9 0.258526 0.327075 0.688923
O O10 0.279370 0.388883 0.031125
O O11 0.157910 0.347021 0.985487
O O12 0.646461 0.153664 0.845727
O O13 0.967158 0.750000 0.547040
O O14 0.886190 0.680437 0.434884
O O15 0.990149 0.672537 0.800083
O O16 0.669861 0.250000 0.990299
O O17 0.761202 0.301213 0.761018
O O18 0.863792 0.750000 0.110937
#
# Coordination Sequence:
#
# PCOD9361184 Si02
#       8
#     8   8   8   8   8   8   8   8
#     4   9  19  32  54  81 107 134 172 216 265 321
#     4   9  19  32  51  74 106 139 175 218 261 318
#     4  10  23  41  60  81 105 139 182 228 270 312
#     4  10  21  32  54  79 110 146 175 217 274 329
#     4  10  22  36  57  79 107 141 182 219 273 327
#     4   9  18  31  49  70  97 142 190 222 253 298
#     4  10  21  33  50  78 110 146 182 218 266 326
#     4   9  19  33  47  73 112 147 179 219 263 314
#
# _framework density 22.653649999999999
#
# number of rings (size 3 to 8) (size 9 to 14) (size 15 to 20)
#    0.000    2.500    0.000    0.750   14.000    1.500 
#    0.000    0.000    0.000    2.250    0.000    0.000 
#    0.000    3.000    0.000    0.000    0.000    0.000 
#
# Total GULP energy -178318.170625 kJ/mol
# GULP energy per Si atom -5572.442832 kJ/mol
# Density = 2.260209 g / cm^3
# Si number density = 22.653650 Si / 1000 Ang^3
#
#
#
# Elastic Constant Matrix: (Units=GPa)
#
#
# Indices 1 2 3 4 5 6 
#
# 1 59.0822 -5.3784 14.5121 0.0000 0.0000 0.0000
# 2 -5.3784 34.4924 3.6182 0.0000 0.0000 0.0000
# 3 14.5121 3.6182 104.0140 0.0000 0.0000 0.0000
# 4 0.0000 0.0000 0.0000 21.5138 0.0000 0.0000
# 5 0.0000 0.0000 0.0000 0.0000 28.7653 0.0000
# 6 0.0000 0.0000 0.0000 0.0000 0.0000 7.2818
#
#
#
# Elastic Compliance Matrix: (Units=1/GPa)
#
#
# Indices 1 2 3 4 5 6 
#
# 1 0.017841 0.003054 -0.002595 0.000000 0.000000 0.000000
# 2 0.003054 0.029621 -0.001457 0.000000 0.000000 0.000000
# 3 -0.002595 -0.001457 0.010027 0.000000 0.000000 0.000000
# 4 0.000000 0.000000 0.000000 0.046482 0.000000 0.000000
# 5 0.000000 0.000000 0.000000 0.000000 0.034764 0.000000
# 6 0.000000 0.000000 0.000000 0.000000 0.000000 0.137328
#
#
# Mechanical properties :
#
#
# Convention : Reuss Voigt Hill
#
# Bulk Modulus (GPa) = 18.02015 24.78805 21.40410
# Shear Modulus (GPa) = 16.86022 23.83464 20.34743
#
# Velocity S-wave (km/s) = 2.73107 3.24718 3.00024
# Velocity P-wave (km/s) = 4.23284 5.00248 4.63367
#
# Compressibility (1/GPa) = 0.05549343
#
# Stress axis : x y z
#
# Youngs Moduli (GPa) = 56.05035 33.75993 99.73194
#
# Poissons Ratio (x) = -0.10311 0.25885
# Poissons Ratio (y) = -0.17119 0.14526
# Poissons Ratio (z) = 0.14548 0.04917
#
# Static dielectric constant tensor:
#      x y z
#    x 1.927240 0.000000 0.000000 
#    y 0.000000 1.882600 0.000000 
#    z 0.000000 0.000000 1.947140 
# 
# From -- ./inp_files/1172.got.cif
#   From: 2010.05.17/outbox.cif.g08.bks.cpg/sg39_1_cif.got.tgz:1172.got - 2010.06.03 18:22:40.
