data_PCOD9361127
_publ_section_title
;
Structure prediction by ZEFSAII (Michael W. Deem and Ramdas Pophale) SiO2 
 PCOD9361127
Probable space group: A B M 2
;
_chemical_formula_sum "Si O2"
_cell_formula_units_Z 48
_cell_length_a 6.141862
_cell_length_b 25.393677
_cell_length_c 14.824154
_cell_angle_alpha 90.000000
_cell_angle_beta 90.000000
_cell_angle_gamma 90.000000
_cell_volume 2312.041171
_symmetry_space_group_name_H-M "A B M 2"
_symmetry_group_IT_number 39
_symmetry_cell_setting 'orthorhombic'
loop_
_space_group_symop_operation_xyz
x,y,z
-x,-y,z
-x,1/2+y,z
x,1/2-y,z
x,1/2+y,1/2+z
-x,1/2-y,1/2+z
-x,y,1/2+z
x,-y,1/2+z
loop_
_atom_site_type_symbol
_atom_site_label
_atom_site_fract_x
_atom_site_fract_y
_atom_site_fract_z
Si Si1 0.347272 0.951103 0.334170
Si Si2 0.935978 0.077705 0.183315
Si Si3 0.681022 0.141336 0.780848
Si Si4 0.557215 0.151845 0.107445
Si Si5 0.169444 0.593619 0.510940
Si Si6 0.140209 0.308332 0.460316
O O1 0.198891 0.961459 0.246367
O O2 0.498918 0.899933 0.315896
O O3 0.201720 0.938787 0.420522
O O4 0.500000 0.000000 0.352052
O O5 0.755771 0.119718 0.151027
O O6 0.115949 0.107255 0.243870
O O7 0.052072 0.061793 0.090869
O O8 0.583124 0.171292 0.693217
O O9 0.759130 0.177012 0.863233
O O10 0.399318 0.112943 0.051554
O O11 0.668592 0.189697 0.035171
O O12 0.030863 0.646024 0.486708
O O13 0.041850 0.250000 0.458806
#
# Coordination Sequence:
#
# PCOD9361127 Si02
#       6
#     8   8   8   8   8   8
#     4  11  22  39  67  96 124 172 219 258 320 394
#     4   9  20  40  64  86 130 168 201 269 326 371
#     4  10  20  40  64  90 133 163 206 271 317 373
#     4   9  20  39  64  86 126 167 203 267 320 368
#     4  10  20  41  63  89 132 164 211 274 322 380
#     4  11  22  37  64  94 125 171 216 259 324 389
#
# _framework density 20.760876
#
# number of rings (size 3 to 8) (size 9 to 14) (size 15 to 20)
#    0.000    2.000    3.333    0.000    0.000    2.000 
#    0.000   15.833    3.667    0.000    0.000    0.000 
#    0.000    0.000    0.000    0.000    0.000    0.000 
#
# Total GULP energy -133970.532237 kJ/mol
# GULP energy per Si atom -5582.105510 kJ/mol
# Density = 2.071362 g / cm^3
# Si number density = 20.760876 Si / 1000 Ang^3
#
#
#
# Elastic Constant Matrix: (Units=GPa)
#
#
# Indices 1 2 3 4 5 6 
#
# 1 74.9499 14.7557 33.0556 0.0000 0.0000 0.0000
# 2 14.7557 73.1974 39.8746 0.0000 0.0000 0.0000
# 3 33.0556 39.8746 138.8952 0.0000 0.0000 0.0000
# 4 0.0000 0.0000 0.0000 -44.9422 0.0000 0.0000
# 5 0.0000 0.0000 0.0000 0.0000 39.4253 0.0000
# 6 0.0000 0.0000 0.0000 0.0000 0.0000 20.6452
#
#
#
# Elastic Compliance Matrix: (Units=1/GPa)
#
#
# Indices 1 2 3 4 5 6 
#
# 1 0.015007 -0.001280 -0.003204 0.000000 0.000000 0.000000
# 2 -0.001280 0.016303 -0.004376 0.000000 0.000000 0.000000
# 3 -0.003204 -0.004376 0.009218 0.000000 0.000000 0.000000
# 4 0.000000 0.000000 0.000000 -0.022251 0.000000 0.000000
# 5 0.000000 0.000000 0.000000 0.000000 0.025364 0.000000
# 6 0.000000 0.000000 0.000000 0.000000 0.000000 0.048437
#
#
# Mechanical properties :
#
#
# Convention : Reuss Voigt Hill
#
# Bulk Modulus (GPa) = 43.84127 51.37937 47.61032
# Shear Modulus (GPa) = 42.58827 16.31610 29.45218
#
# Velocity S-wave (km/s) = 4.53412 2.80644 3.77057
# Velocity P-wave (km/s) = 6.96951 5.94167 6.47601
#
# Compressibility (1/GPa) = 0.02280956
#
# Stress axis : x y z
#
# Youngs Moduli (GPa) = 66.63396 61.33667 108.47765
#
# Poissons Ratio (x) = 0.07850 0.34758
# Poissons Ratio (y) = 0.08528 0.47469
# Poissons Ratio (z) = 0.21351 0.26840
#
# Static dielectric constant tensor:
#      x y z
#    x 1.740220 0.000000 0.000000 
#    y 0.000000 1.723720 0.000000 
#    z 0.000000 0.000000 1.750130 
# 
# From -- ./inp_files/7542.got.cif
#   From: 2010.05.17/outbox.cif.g08.bks.cpg/sg39_4_cif.got.tgz:7542.got - 2010.06.03 18:22:40.
