data_PCOD9361003
_publ_section_title
;
Structure prediction by ZEFSAII (Michael W. Deem and Ramdas Pophale) SiO2 
 PCOD9361003
Probable space group: A B M 2
;
_chemical_formula_sum "Si O2"
_cell_formula_units_Z 56
_cell_length_a 9.361272
_cell_length_b 17.784703
_cell_length_c 17.236976
_cell_angle_alpha 90.000000
_cell_angle_beta 90.000000
_cell_angle_gamma 90.000000
_cell_volume 2869.740046
_symmetry_space_group_name_H-M "A B M 2"
_symmetry_group_IT_number 39
_symmetry_cell_setting 'orthorhombic'
loop_
_space_group_symop_operation_xyz
x,y,z
-x,-y,z
-x,1/2+y,z
x,1/2-y,z
x,1/2+y,1/2+z
-x,1/2-y,1/2+z
-x,y,1/2+z
x,-y,1/2+z
loop_
_atom_site_type_symbol
_atom_site_label
_atom_site_fract_x
_atom_site_fract_y
_atom_site_fract_z
Si Si1 0.395142 0.568278 0.766550
Si Si2 0.845432 0.964407 0.142682
Si Si3 0.761161 0.608457 0.554974
Si Si4 0.926161 0.660259 0.025063
Si Si5 0.586005 0.661792 0.414664
Si Si6 0.250198 0.337866 0.878837
Si Si7 0.345590 0.338013 0.716877
O O1 0.500000 0.500000 0.790577
O O2 0.263386 0.542636 0.713973
O O3 0.351461 0.615662 0.841998
O O4 0.502447 0.620681 0.716799
O O5 0.869376 0.885180 0.099670
O O6 0.780279 0.021987 0.079275
O O7 0.000000 0.000000 0.163957
O O8 0.907102 0.640713 0.519868
O O9 0.637460 0.625384 0.494290
O O10 0.731879 0.649655 0.636272
O O11 0.904315 0.750000 0.032979
O O12 0.848380 0.631175 0.946946
O O13 0.625676 0.750000 0.412306
O O14 0.414873 0.657476 0.405580
O O15 0.209366 0.250000 0.872955
O O16 0.253760 0.367674 0.790646
O O17 0.371053 0.250000 0.730897
#
# Coordination Sequence:
#
# PCOD9361003 Si02
#       7
#     8   8   8   8   8   8   8
#     4  11  22  41  61  91 124 166 211 255 321 384
#     4  10  24  43  60  92 132 163 211 266 320 380
#     4  11  22  41  63  91 128 164 208 261 323 379
#     4  10  21  39  63  90 125 167 212 257 313 386
#     4  10  22  40  63  93 126 161 211 267 312 373
#     4   8  18  36  58  89 122 155 202 257 307 361
#     4  10  20  37  64  91 124 163 212 267 314 375
#
# _framework density 19.513964000000001
#
# number of rings (size 3 to 8) (size 9 to 14) (size 15 to 20)
#    0.000    2.000    1.429    2.571    2.000    3.429 
#    5.143    0.714    0.000    0.000    0.000    0.000 
#    0.000    0.000    0.000    0.000    0.000    0.000 
#
# Total GULP energy -156249.017351 kJ/mol
# GULP energy per Si atom -5580.322048 kJ/mol
# Density = 1.946955 g / cm^3
# Si number density = 19.513964 Si / 1000 Ang^3
#
#
#
# Elastic Constant Matrix: (Units=GPa)
#
#
# Indices 1 2 3 4 5 6 
#
# 1 48.0737 11.7863 64.8494 0.0000 0.0000 0.0000
# 2 11.7863 73.9960 19.1012 0.0000 0.0000 0.0000
# 3 64.8494 19.1012 124.4963 0.0000 0.0000 0.0000
# 4 0.0000 0.0000 0.0000 25.6978 0.0000 0.0000
# 5 0.0000 0.0000 0.0000 0.0000 6.6457 0.0000
# 6 0.0000 0.0000 0.0000 0.0000 0.0000 23.5835
#
#
#
# Elastic Compliance Matrix: (Units=1/GPa)
#
#
# Indices 1 2 3 4 5 6 
#
# 1 0.070192 -0.001814 -0.036285 0.000000 0.000000 0.000000
# 2 -0.001814 0.014118 -0.001221 0.000000 0.000000 0.000000
# 3 -0.036285 -0.001221 0.027120 0.000000 0.000000 0.000000
# 4 0.000000 0.000000 0.000000 0.038914 0.000000 0.000000
# 5 0.000000 0.000000 0.000000 0.000000 0.150474 0.000000
# 6 0.000000 0.000000 0.000000 0.000000 0.000000 0.042402
#
#
# Mechanical properties :
#
#
# Convention : Reuss Voigt Hill
#
# Bulk Modulus (GPa) = 30.49579 48.67111 39.58345
# Shear Modulus (GPa) = 11.55292 21.24066 16.39679
#
# Velocity S-wave (km/s) = 2.43581 3.30280 2.90187
# Velocity P-wave (km/s) = 4.85515 6.28812 5.61752
#
# Compressibility (1/GPa) = 0.03279141
#
# Stress axis : x y z
#
# Youngs Moduli (GPa) = 14.24654 70.82934 36.87292
#
# Poissons Ratio (x) = 0.12849 1.33792
# Poissons Ratio (y) = 0.02584 0.04503
# Poissons Ratio (z) = 0.51693 0.08650
#
# Static dielectric constant tensor:
#      x y z
#    x 1.667110 0.000000 0.000000 
#    y 0.000000 1.729250 0.000000 
#    z 0.000000 0.000000 1.688220 
# 
# From -- ./inp_files/11880.got.cif
#   From: 2010.05.17/outbox.cif.g08.bks.cpg/sg39_6_cif.got.tgz:11880.got - 2010.06.03 18:22:40.
