data_PCOD9361978
_publ_section_title
;
Structure prediction by ZEFSAII (Michael W. Deem and Ramdas Pophale) SiO2 
 PCOD9361978
Probable space group: A B M 2
;
_chemical_formula_sum "Si O2"
_cell_formula_units_Z 56
_cell_length_a 5.846044
_cell_length_b 32.863240
_cell_length_c 13.431524
_cell_angle_alpha 90.000000
_cell_angle_beta 90.000000
_cell_angle_gamma 90.000000
_cell_volume 2580.463679
_symmetry_space_group_name_H-M "A B M 2"
_symmetry_group_IT_number 39
_symmetry_cell_setting 'orthorhombic'
loop_
_space_group_symop_operation_xyz
x,y,z
-x,-y,z
-x,1/2+y,z
x,1/2-y,z
x,1/2+y,1/2+z
-x,1/2-y,1/2+z
-x,y,1/2+z
x,-y,1/2+z
loop_
_atom_site_type_symbol
_atom_site_label
_atom_site_fract_x
_atom_site_fract_y
_atom_site_fract_z
Si Si1 0.190655 0.592479 0.789240
Si Si2 0.225737 0.702625 0.292036
Si Si3 0.491053 0.352520 0.154528
Si Si4 0.902493 0.296466 0.605509
Si Si5 0.882629 0.411860 0.099248
Si Si6 0.749652 0.477611 0.946087
Si Si7 0.026232 0.148284 0.953659
O O1 0.384989 0.612194 0.722392
O O2 0.258492 0.553174 0.852327
O O3 0.127549 0.627074 0.869123
O O4 0.986842 0.583859 0.709480
O O5 0.255858 0.750000 0.317831
O O6 0.421325 0.683983 0.223910
O O7 0.008335 0.699779 0.215830
O O8 0.204949 0.672579 0.384663
O O9 0.301679 0.328419 0.092548
O O10 0.689711 0.377025 0.100096
O O11 0.843570 0.250000 0.587863
O O12 0.070804 0.314235 0.520831
O O13 0.782511 0.451735 0.047952
O O14 0.068880 0.391607 0.023769
O O15 0.500000 0.500000 0.949645
O O16 0.000000 0.500000 0.936206
#
# Coordination Sequence:
#
# PCOD9361978 Si02
#       7
#     8   8   8   8   8   8   8
#     4  11  25  45  75 103 140 191 231 298 362 443
#     4  11  23  40  61  94 142 187 238 307 358 404
#     4  12  21  44  69  98 136 184 252 276 367 424
#     4  11  23  40  61  94 142 187 238 307 358 404
#     4  11  25  45  75 103 140 191 231 298 362 443
#     4  11  30  54  78 117 151 182 241 300 371 460
#     4  11  19  44  62  95 134 180 238 284 351 422
#
# _framework density 21.701526000000001
#
# number of rings (size 3 to 8) (size 9 to 14) (size 15 to 20)
#    0.000    0.857    5.714    0.857    4.000    2.857 
#    0.000    0.000    0.000    0.000    0.000    0.000 
#    0.000    0.000    0.000    0.000    0.000    0.000 
#
# Total GULP energy -155925.094778 kJ/mol
# GULP energy per Si atom -5568.753385 kJ/mol
# Density = 2.165213 g / cm^3
# Si number density = 21.701526 Si / 1000 Ang^3
#
#
#
# Elastic Constant Matrix: (Units=GPa)
#
#
# Indices 1 2 3 4 5 6 
#
# 1 79.2901 57.7668 18.2424 0.0000 0.0000 0.0000
# 2 57.7668 111.1402 33.1745 0.0000 0.0000 0.0000
# 3 18.2424 33.1745 92.9155 0.0000 0.0000 0.0000
# 4 0.0000 0.0000 0.0000 17.7204 0.0000 0.0000
# 5 0.0000 0.0000 0.0000 0.0000 13.9848 0.0000
# 6 0.0000 0.0000 0.0000 0.0000 0.0000 30.0807
#
#
#
# Elastic Compliance Matrix: (Units=1/GPa)
#
#
# Indices 1 2 3 4 5 6 
#
# 1 0.020303 -0.010480 -0.000244 0.000000 0.000000 0.000000
# 2 -0.010480 0.015480 -0.003470 0.000000 0.000000 0.000000
# 3 -0.000244 -0.003470 0.012049 0.000000 0.000000 0.000000
# 4 0.000000 0.000000 0.000000 0.056432 0.000000 0.000000
# 5 0.000000 0.000000 0.000000 0.000000 0.071506 0.000000
# 6 0.000000 0.000000 0.000000 0.000000 0.000000 0.033244
#
#
# Mechanical properties :
#
#
# Convention : Reuss Voigt Hill
#
# Bulk Modulus (GPa) = 51.42712 55.74592 53.58652
# Shear Modulus (GPa) = 20.50150 23.96800 22.23475
#
# Velocity S-wave (km/s) = 3.07694 3.32691 3.20436
# Velocity P-wave (km/s) = 6.03094 6.36405 6.19974
#
# Compressibility (1/GPa) = 0.01944499
#
# Stress axis : x y z
#
# Youngs Moduli (GPa) = 49.25290 64.59774 82.99288
#
# Poissons Ratio (x) = 0.67699 0.02029
# Poissons Ratio (y) = 0.51617 0.28795
# Poissons Ratio (z) = 0.01204 0.22412
#
# Static dielectric constant tensor:
#      x y z
#    x 1.878330 0.000000 0.000000 
#    y 0.000000 1.775980 0.000000 
#    z 0.000000 0.000000 1.887670 
# 
# From -- ./inp_files/7673.got.cif
#   From: 2010.05.17/outbox.cif.g08.bks.cpg/sg39_4_cif.got.tgz:7673.got - 2010.06.03 18:22:40.
