data_PCOD9361264
_publ_section_title
;
Structure prediction by ZEFSAII (Michael W. Deem and Ramdas Pophale) SiO2 
 PCOD9361264
Probable space group: A B M 2
;
_chemical_formula_sum "Si O2"
_cell_formula_units_Z 56
_cell_length_a 19.833689
_cell_length_b 8.718649
_cell_length_c 16.229836
_cell_angle_alpha 90.000000
_cell_angle_beta 90.000000
_cell_angle_gamma 90.000000
_cell_volume 2806.511489
_symmetry_space_group_name_H-M "A B M 2"
_symmetry_group_IT_number 39
_symmetry_cell_setting 'orthorhombic'
loop_
_space_group_symop_operation_xyz
x,y,z
-x,-y,z
-x,1/2+y,z
x,1/2-y,z
x,1/2+y,1/2+z
-x,1/2-y,1/2+z
-x,y,1/2+z
x,-y,1/2+z
loop_
_atom_site_type_symbol
_atom_site_label
_atom_site_fract_x
_atom_site_fract_y
_atom_site_fract_z
Si Si1 0.213411 0.567218 0.396980
Si Si2 0.069559 0.931992 0.637012
Si Si3 0.340290 0.566289 0.818536
Si Si4 0.068896 0.566928 0.321196
Si Si5 0.653288 0.935053 0.646855
Si Si6 0.574958 0.564988 0.480578
Si Si7 0.793715 0.931818 0.571900
O O1 0.218784 0.750000 0.409804
O O2 0.267626 0.513081 0.330263
O O3 0.137076 0.531982 0.369839
O O4 0.228593 0.475481 0.480090
O O5 0.064452 0.750000 0.638762
O O6 0.075133 0.996506 0.729941
O O7 0.136776 0.983368 0.590773
O O8 0.000000 0.000000 0.601441
O O9 0.333150 0.750000 0.819149
O O10 0.370081 0.511351 0.731575
O O11 0.384536 0.519283 0.898038
O O12 0.062724 0.750000 0.314095
O O13 0.000000 0.500000 0.358589
O O14 0.649150 0.750000 0.653641
O O15 0.612372 0.982509 0.565102
O O16 0.731762 0.975724 0.630851
O O17 0.500000 0.500000 0.478628
O O18 0.573007 0.750000 0.480907
O O19 0.804282 0.750000 0.579299
#
# Coordination Sequence:
#
# PCOD9361264 Si02
#       7
#     8   8   8   8   8   8   8
#     4  11  23  38  59  88 121 159 208 258 312 373
#     4  11  22  37  57  83 115 155 205 256 310 375
#     4  11  23  41  65  95 128 166 212 258 311 374
#     4  10  21  37  56  81 114 154 200 254 311 370
#     4  10  22  42  65  92 128 167 208 256 312 372
#     4  10  23  44  66  94 131 167 206 253 310 370
#     4  11  22  39  61  85 121 161 202 260 317 368
#
# _framework density 19.953598
#
# number of rings (size 3 to 8) (size 9 to 14) (size 15 to 20)
#    0.000    1.429    1.429    4.714    0.000    9.714 
#    0.000    4.286    0.000    0.000    0.000    0.000 
#    0.000    0.000    0.000    0.000    0.000    0.000 
#
# Total GULP energy -156521.629316 kJ/mol
# GULP energy per Si atom -5590.058190 kJ/mol
# Density = 1.990818 g / cm^3
# Si number density = 19.953598 Si / 1000 Ang^3
#
#
#
# Elastic Constant Matrix: (Units=GPa)
#
#
# Indices 1 2 3 4 5 6 
#
# 1 118.9529 35.0899 47.5483 0.0000 0.0000 0.0000
# 2 35.0899 45.3928 23.8715 0.0000 0.0000 0.0000
# 3 47.5483 23.8715 115.7830 0.0000 0.0000 0.0000
# 4 0.0000 0.0000 0.0000 31.4866 0.0000 0.0000
# 5 0.0000 0.0000 0.0000 0.0000 19.5953 0.0000
# 6 0.0000 0.0000 0.0000 0.0000 0.0000 23.4304
#
#
#
# Elastic Compliance Matrix: (Units=1/GPa)
#
#
# Indices 1 2 3 4 5 6 
#
# 1 0.011958 -0.007471 -0.003370 0.000000 0.000000 0.000000
# 2 -0.007471 0.029377 -0.002989 0.000000 0.000000 0.000000
# 3 -0.003370 -0.002989 0.010637 0.000000 0.000000 0.000000
# 4 0.000000 0.000000 0.000000 0.031760 0.000000 0.000000
# 5 0.000000 0.000000 0.000000 0.000000 0.051033 0.000000
# 6 0.000000 0.000000 0.000000 0.000000 0.000000 0.042680
#
#
# Mechanical properties :
#
#
# Convention : Reuss Voigt Hill
#
# Bulk Modulus (GPa) = 41.13259 54.79423 47.96341
# Shear Modulus (GPa) = 23.45128 26.47709 24.96419
#
# Velocity S-wave (km/s) = 3.43197 3.64666 3.54094
# Velocity P-wave (km/s) = 6.03021 6.72691 6.38806
#
# Compressibility (1/GPa) = 0.02431162
#
# Stress axis : x y z
#
# Youngs Moduli (GPa) = 83.62714 34.04009 94.01074
#
# Poissons Ratio (x) = 0.25432 0.31684
# Poissons Ratio (y) = 0.62481 0.28096
# Poissons Ratio (z) = 0.28185 0.10173
#
# Static dielectric constant tensor:
#      x y z
#    x 1.689300 0.000000 0.000000 
#    y 0.000000 1.665520 0.000000 
#    z 0.000000 0.000000 1.721140 
# 
# From -- ./inp_files/10364.got.cif
#   From: 2010.05.17/outbox.cif.g08.bks.cpg/sg39_6_cif.got.tgz:10364.got - 2010.06.03 18:22:40.
