data_PCOD9361491
_publ_section_title
;
Structure prediction by ZEFSAII (Michael W. Deem and Ramdas Pophale) SiO2 
 PCOD9361491
Probable space group: A B M 2
;
_chemical_formula_sum "Si O2"
_cell_formula_units_Z 56
_cell_length_a 14.660764
_cell_length_b 15.172841
_cell_length_c 10.822600
_cell_angle_alpha 90.000000
_cell_angle_beta 90.000000
_cell_angle_gamma 90.000000
_cell_volume 2407.438031
_symmetry_space_group_name_H-M "A B M 2"
_symmetry_group_IT_number 39
_symmetry_cell_setting 'orthorhombic'
loop_
_space_group_symop_operation_xyz
x,y,z
-x,-y,z
-x,1/2+y,z
x,1/2-y,z
x,1/2+y,1/2+z
-x,1/2-y,1/2+z
-x,y,1/2+z
x,-y,1/2+z
loop_
_atom_site_type_symbol
_atom_site_label
_atom_site_fract_x
_atom_site_fract_y
_atom_site_fract_z
Si Si1 0.958989 0.091394 0.651140
Si Si2 0.951720 0.151740 0.388794
Si Si3 0.525052 0.649231 0.488982
Si Si4 0.740811 0.349718 0.393047
Si Si5 0.248559 0.453851 0.124870
Si Si6 0.283291 0.347267 0.622285
Si Si7 0.585794 0.359516 0.728958
O O1 0.990447 0.102103 0.508695
O O2 0.849913 0.089403 0.645901
O O3 0.993885 0.152399 0.761289
O O4 0.000000 0.000000 0.696913
O O5 0.946461 0.250000 0.439209
O O6 0.846445 0.127121 0.361234
O O7 0.492074 0.750000 0.475853
O O8 0.629802 0.650957 0.534509
O O9 0.468363 0.614191 0.604724
O O10 0.529440 0.613473 0.350734
O O11 0.737953 0.250000 0.444267
O O12 0.712561 0.418235 0.495113
O O13 0.686745 0.349031 0.265881
O O14 0.234314 0.558680 0.111327
O O15 0.319616 0.414309 0.223708
O O16 0.236679 0.250000 0.606466
O O17 0.598230 0.250000 0.731950
#
# Coordination Sequence:
#
# PCOD9361491 Si02
#       7
#     8   8   8   8   8   8   8
#     4  11  23  42  64  94 134 176 223 279 338 406
#     4  10  21  40  65  93 127 173 222 272 340 411
#     4   9  21  41  66  95 135 177 219 271 338 407
#     4   9  20  39  64  94 131 178 224 272 344 422
#     4  11  24  39  68  97 133 176 231 284 343 401
#     4  10  22  41  63  92 131 174 226 279 334 402
#     4  10  22  42  68 102 138 176 220 279 344 407
#
# _framework density 23.261241999999999
#
# number of rings (size 3 to 8) (size 9 to 14) (size 15 to 20)
#    0.000    2.000    0.000    2.143    4.000    3.429 
#    2.571    2.143    0.000    0.000    0.000    1.000 
#    0.000    0.000    0.000    0.000    0.000    0.000 
#
# Total GULP energy -156129.668277 kJ/mol
# GULP energy per Si atom -5576.059581 kJ/mol
# Density = 2.320830 g / cm^3
# Si number density = 23.261242 Si / 1000 Ang^3
#
#
#
# Elastic Constant Matrix: (Units=GPa)
#
#
# Indices 1 2 3 4 5 6 
#
# 1 42.2822 -12.6106 51.4317 0.0000 0.0000 0.0000
# 2 -12.6106 83.0155 35.8846 0.0000 0.0000 0.0000
# 3 51.4317 35.8846 144.1377 0.0000 0.0000 0.0000
# 4 0.0000 0.0000 0.0000 22.4661 0.0000 0.0000
# 5 0.0000 0.0000 0.0000 0.0000 36.0442 0.0000
# 6 0.0000 0.0000 0.0000 0.0000 0.0000 4.6815
#
#
#
# Elastic Compliance Matrix: (Units=1/GPa)
#
#
# Indices 1 2 3 4 5 6 
#
# 1 0.065742 0.022554 -0.029073 0.000000 0.000000 0.000000
# 2 0.022554 0.021236 -0.013335 0.000000 0.000000 0.000000
# 3 -0.029073 -0.013335 0.020632 0.000000 0.000000 0.000000
# 4 0.000000 0.000000 0.000000 0.044511 0.000000 0.000000
# 5 0.000000 0.000000 0.000000 0.000000 0.027744 0.000000
# 6 0.000000 0.000000 0.000000 0.000000 0.000000 0.213606
#
#
# Mechanical properties :
#
#
# Convention : Reuss Voigt Hill
#
# Bulk Modulus (GPa) = 14.72725 46.53852 30.63288
# Shear Modulus (GPa) = 10.96942 25.62036 18.29489
#
# Velocity S-wave (km/s) = 2.17393 3.32236 2.80750
# Velocity P-wave (km/s) = 3.55616 5.89642 4.86899
#
# Compressibility (1/GPa) = 0.06790136
#
# Stress axis : x y z
#
# Youngs Moduli (GPa) = 15.21106 47.08957 48.46933
#
# Poissons Ratio (x) = -1.06205 1.40916
# Poissons Ratio (y) = -0.34307 0.64632
# Poissons Ratio (z) = 0.44223 0.62793
#
# Static dielectric constant tensor:
#      x y z
#    x 1.901910 0.000000 0.000000 
#    y 0.000000 1.790270 0.000000 
#    z 0.000000 0.000000 1.869090 
# 
# From -- ./inp_files/6469.got.cif
#   From: 2010.05.17/outbox.cif.g08.bks.cpg/sg39_4_cif.got.tgz:6469.got - 2010.06.03 18:22:40.
