data_PCOD9361735
_publ_section_title
;
Structure prediction by ZEFSAII (Michael W. Deem and Ramdas Pophale) SiO2 
 PCOD9361735
Probable space group: A B M 2
;
_chemical_formula_sum "Si O2"
_cell_formula_units_Z 48
_cell_length_a 7.574151
_cell_length_b 9.789292
_cell_length_c 31.855555
_cell_angle_alpha 90.000000
_cell_angle_beta 90.000000
_cell_angle_gamma 90.000000
_cell_volume 2361.948468
_symmetry_space_group_name_H-M "A B M 2"
_symmetry_group_IT_number 39
_symmetry_cell_setting 'orthorhombic'
loop_
_space_group_symop_operation_xyz
x,y,z
-x,-y,z
-x,1/2+y,z
x,1/2-y,z
x,1/2+y,1/2+z
-x,1/2-y,1/2+z
-x,y,1/2+z
x,-y,1/2+z
loop_
_atom_site_type_symbol
_atom_site_label
_atom_site_fract_x
_atom_site_fract_y
_atom_site_fract_z
Si Si1 0.300109 0.750000 0.819670
Si Si2 0.786408 0.485651 0.754244
Si Si3 0.833238 0.595629 0.165854
Si Si4 0.322652 0.411908 0.072867
Si Si5 0.311103 0.082754 0.494945
Si Si6 0.000000 0.500000 0.932154
Si Si7 0.313791 0.250000 0.800976
Si Si8 0.031794 0.250000 0.873973
O O1 0.255898 0.623232 0.789872
O O2 0.508024 0.750000 0.828028
O O3 0.172579 0.750000 0.859477
O O4 0.725604 0.445852 0.707421
O O5 0.697483 0.621960 0.770437
O O6 0.000000 0.500000 0.752899
O O7 0.891693 0.750000 0.173748
O O8 0.750624 0.587990 0.119897
O O9 0.000000 0.500000 0.164113
O O10 0.500000 0.500000 0.076607
O O11 0.339222 0.250000 0.060938
O O12 0.233194 0.502659 0.036173
O O13 0.334487 0.250000 0.500028
O O14 0.500000 0.000000 0.486995
O O15 0.163675 0.056531 0.459564
O O16 0.930695 0.618911 0.901987
O O17 0.147473 0.250000 0.831980
#
# Coordination Sequence:
#
# PCOD9361735 Si02
#       8
#     4   8   8   8   8   4   4   4
#     4  12  24  44  72  97 135 174 225 273 338 406
#     4  11  21  43  66  96 138 182 222 280 332 389
#     4  10  23  39  62  97 134 179 226 273 324 386
#     4  10  22  41  65  98 140 180 219 277 329 388
#     4  11  25  46  74 106 139 181 227 280 342 413
#     4  12  28  46  76  98 136 182 220 284 352 420
#     4  12  26  42  74  99 129 184 223 279 340 402
#     4  12  26  48  68 104 134 170 226 288 350 408
#
# _framework density 20.322203999999999
#
# number of rings (size 3 to 8) (size 9 to 14) (size 15 to 20)
#    0.000    1.000    3.333    3.500    7.000    4.000 
#    0.000    0.000    0.000    0.000    0.000    0.000 
#    0.000    0.000    0.000    0.000    0.000    0.000 
#
# Total GULP energy -133834.138598 kJ/mol
# GULP energy per Si atom -5576.422442 kJ/mol
# Density = 2.027595 g / cm^3
# Si number density = 20.322204 Si / 1000 Ang^3
#
#
#
# Elastic Constant Matrix: (Units=GPa)
#
#
# Indices 1 2 3 4 5 6 
#
# 1 67.4597 18.1250 9.8928 0.0000 0.0000 0.0000
# 2 18.1250 189.5852 58.5139 0.0000 0.0000 0.0000
# 3 9.8928 58.5139 97.3563 0.0000 0.0000 0.0000
# 4 0.0000 0.0000 0.0000 117.8177 0.0000 0.0000
# 5 0.0000 0.0000 0.0000 0.0000 17.4067 0.0000
# 6 0.0000 0.0000 0.0000 0.0000 0.0000 -11.1192
#
#
#
# Elastic Compliance Matrix: (Units=1/GPa)
#
#
# Indices 1 2 3 4 5 6 
#
# 1 0.015269 -0.001204 -0.000828 0.000000 0.000000 0.000000
# 2 -0.001204 0.006571 -0.003827 0.000000 0.000000 0.000000
# 3 -0.000828 -0.003827 0.012656 0.000000 0.000000 0.000000
# 4 0.000000 0.000000 0.000000 0.008488 0.000000 0.000000
# 5 0.000000 0.000000 0.000000 0.000000 0.057449 0.000000
# 6 0.000000 0.000000 0.000000 0.000000 0.000000 -0.089935
#
#
# Mechanical properties :
#
#
# Convention : Reuss Voigt Hill
#
# Bulk Modulus (GPa) = 43.90304 58.60717 51.25510
# Shear Modulus (GPa) = 167.74074 42.67901 105.20988
#
# Velocity S-wave (km/s) = 9.09504 4.58768 7.20301
# Velocity P-wave (km/s) = 11.48666 7.54745 9.71873
#
# Compressibility (1/GPa) = 0.02277746
#
# Stress axis : x y z
#
# Youngs Moduli (GPa) = 65.49386 152.18459 79.01539
#
# Poissons Ratio (x) = 0.18327 0.06540
# Poissons Ratio (y) = 0.07887 0.30239
# Poissons Ratio (z) = 0.05421 0.58240
#
# Static dielectric constant tensor:
#      x y z
#    x 1.763760 0.000000 0.000000 
#    y 0.000000 1.655150 0.000000 
#    z 0.000000 0.000000 1.756210 
# 
# From -- ./inp_files/17716.got.cif
#   From: 2010.05.17/outbox.cif.g08.bks.cpg/sg39_9_cif.got.tgz:17716.got - 2010.06.03 18:22:40.
