data_PCOD9361383
_publ_section_title
;
Structure prediction by ZEFSAII (Michael W. Deem and Ramdas Pophale) SiO2 
 PCOD9361383
Probable space group: A B M 2
;
_chemical_formula_sum "Si O2"
_cell_formula_units_Z 64
_cell_length_a 17.512782
_cell_length_b 15.506170
_cell_length_c 11.252320
_cell_angle_alpha 90.000000
_cell_angle_beta 90.000000
_cell_angle_gamma 90.000000
_cell_volume 3055.636978
_symmetry_space_group_name_H-M "A B M 2"
_symmetry_group_IT_number 39
_symmetry_cell_setting 'orthorhombic'
loop_
_space_group_symop_operation_xyz
x,y,z
-x,-y,z
-x,1/2+y,z
x,1/2-y,z
x,1/2+y,1/2+z
-x,1/2-y,1/2+z
-x,y,1/2+z
x,-y,1/2+z
loop_
_atom_site_type_symbol
_atom_site_label
_atom_site_fract_x
_atom_site_fract_y
_atom_site_fract_z
Si Si1 0.304975 0.078537 0.601260
Si Si2 0.588157 0.523459 0.413107
Si Si3 0.974327 0.900341 0.462795
Si Si4 0.797740 0.153587 0.280202
Si Si5 0.194620 0.850075 0.905720
Si Si6 0.310160 0.103782 0.214875
Si Si7 0.675329 0.153857 0.454538
Si Si8 0.955972 0.407536 0.226583
O O1 0.387402 0.068109 0.538772
O O2 0.278169 0.147109 0.698185
O O3 0.249569 0.096701 0.491797
O O4 0.287572 0.989455 0.665431
O O5 0.500000 0.500000 0.404036
O O6 0.621695 0.584218 0.308623
O O7 0.630989 0.430739 0.409564
O O8 0.887983 0.891127 0.417320
O O9 0.977356 0.866180 0.598685
O O10 0.021713 0.862844 0.351741
O O11 0.000000 0.000000 0.473735
O O12 0.829079 0.250000 0.268810
O O13 0.763114 0.140194 0.411195
O O14 0.863734 0.089719 0.235405
O O15 0.189895 0.750000 0.942714
O O16 0.237828 0.855417 0.780589
O O17 0.333102 0.153298 0.096531
O O18 0.652413 0.250000 0.412606
O O19 0.000000 0.500000 0.228728
#
# Coordination Sequence:
#
# PCOD9361383 Si02
#       8
#     8   8   8   8   8   8   8   8
#     4  10  21  38  66  93 118 166 216 262 316 391
#     4  10  22  41  66  95 133 173 217 265 324 398
#     4  10  23  37  57  84 124 168 212 266 333 408
#     4  11  22  41  66  91 127 170 221 278 335 397
#     4  11  23  40  64  92 122 160 214 274 319 381
#     4  10  22  38  66  95 125 167 215 264 326 392
#     4  10  22  42  65  97 133 170 216 274 332 387
#     4  10  23  39  59  89 121 170 219 275 335 408
#
# _framework density 20.944896
#
# number of rings (size 3 to 8) (size 9 to 14) (size 15 to 20)
#    0.000    1.750    2.500    0.750    3.500    3.500 
#    0.000    3.750    0.000    0.000    0.000    0.000 
#    0.000    0.000    0.000    0.000    0.000    0.000 
#
# Total GULP energy -178226.809278 kJ/mol
# GULP energy per Si atom -5569.587790 kJ/mol
# Density = 2.089722 g / cm^3
# Si number density = 20.944896 Si / 1000 Ang^3
#
#
#
# Elastic Constant Matrix: (Units=GPa)
#
#
# Indices 1 2 3 4 5 6 
#
# 1 99.3020 30.4719 38.3690 0.0000 0.0000 0.0000
# 2 30.4719 65.2701 5.7625 0.0000 0.0000 0.0000
# 3 38.3690 5.7625 130.6660 0.0000 0.0000 0.0000
# 4 0.0000 0.0000 0.0000 19.7943 0.0000 0.0000
# 5 0.0000 0.0000 0.0000 0.0000 27.0151 0.0000
# 6 0.0000 0.0000 0.0000 0.0000 0.0000 0.5422
#
#
#
# Elastic Compliance Matrix: (Units=1/GPa)
#
#
# Indices 1 2 3 4 5 6 
#
# 1 0.013281 -0.005879 -0.003641 0.000000 0.000000 0.000000
# 2 -0.005879 0.017983 0.000933 0.000000 0.000000 0.000000
# 3 -0.003641 0.000933 0.008681 0.000000 0.000000 0.000000
# 4 0.000000 0.000000 0.000000 0.050520 0.000000 0.000000
# 5 0.000000 0.000000 0.000000 0.000000 0.037016 0.000000
# 6 0.000000 0.000000 0.000000 0.000000 0.000000 1.844213
#
#
# Mechanical properties :
#
#
# Convention : Reuss Voigt Hill
#
# Bulk Modulus (GPa) = 43.91249 49.38279 46.64764
# Shear Modulus (GPa) = 2.50444 24.17930 13.34187
#
# Velocity S-wave (km/s) = 1.09468 3.40137 2.52662
# Velocity P-wave (km/s) = 4.75489 6.24935 5.55263
#
# Compressibility (1/GPa) = 0.02277256
#
# Stress axis : x y z
#
# Youngs Moduli (GPa) = 75.29566 55.60744 115.19447
#
# Poissons Ratio (x) = 0.32691 0.41938
# Poissons Ratio (y) = 0.44266 -0.10750
# Poissons Ratio (z) = 0.27412 -0.05189
#
# Static dielectric constant tensor:
#      x y z
#    x 1.661770 0.000000 0.000000 
#    y 0.000000 1.788270 0.000000 
#    z 0.000000 0.000000 1.863000 
# 
# From -- ./inp_files/6905.got.cif
#   From: 2010.05.17/outbox.cif.g08.bks.cpg/sg39_4_cif.got.tgz:6905.got - 2010.06.03 18:22:40.
