data_PCOD9361433
_publ_section_title
;
Structure prediction by ZEFSAII (Michael W. Deem and Ramdas Pophale) SiO2 
 PCOD9361433
Probable space group: A B M 2
;
_chemical_formula_sum "Si O2"
_cell_formula_units_Z 64
_cell_length_a 14.422372
_cell_length_b 18.987321
_cell_length_c 11.435592
_cell_angle_alpha 90.000000
_cell_angle_beta 90.000000
_cell_angle_gamma 90.000000
_cell_volume 3131.547749
_symmetry_space_group_name_H-M "A B M 2"
_symmetry_group_IT_number 39
_symmetry_cell_setting 'orthorhombic'
loop_
_space_group_symop_operation_xyz
x,y,z
-x,-y,z
-x,1/2+y,z
x,1/2-y,z
x,1/2+y,1/2+z
-x,1/2-y,1/2+z
-x,y,1/2+z
x,-y,1/2+z
loop_
_atom_site_type_symbol
_atom_site_label
_atom_site_fract_x
_atom_site_fract_y
_atom_site_fract_z
Si Si1 0.669863 0.668346 0.986220
Si Si2 0.219974 0.562375 0.080267
Si Si3 0.957364 0.429522 0.946839
Si Si4 0.665549 0.926299 0.347608
Si Si5 0.368565 0.418726 0.760633
Si Si6 0.149119 0.572951 0.716110
Si Si7 0.110286 0.667822 0.518100
Si Si8 0.542332 0.166814 0.713686
O O1 0.655916 0.750000 0.952768
O O2 0.633490 0.617869 0.886119
O O3 0.780354 0.656518 0.995610
O O4 0.614859 0.657680 0.107075
O O5 0.273766 0.595743 0.189385
O O6 0.182449 0.487744 0.127849
O O7 0.128636 0.597945 0.025038
O O8 0.296340 0.555810 0.976747
O O9 0.913673 0.452374 0.823275
O O10 0.000000 0.500000 0.002553
O O11 0.039873 0.374073 0.935711
O O12 0.756978 0.901377 0.278015
O O13 0.590624 0.865218 0.330050
O O14 0.628085 0.997428 0.284834
O O15 0.453055 0.382177 0.693061
O O16 0.097159 0.633384 0.645547
O O17 0.091620 0.750000 0.515394
O O18 0.521071 0.250000 0.724271
#
# Coordination Sequence:
#
# PCOD9361433 Si02
#       8
#     8   8   8   8   8   8   8   8
#     4  10  23  44  68  94 134 178 225 273 335 410
#     4  10  23  43  65 101 130 169 220 283 335 391
#     4  11  24  38  67  98 129 170 224 274 337 400
#     4  10  22  41  66  96 128 172 222 285 327 393
#     4  11  24  40  69  97 137 167 227 280 335 393
#     4  10  21  39  63  92 130 170 219 274 338 391
#     4  11  23  41  64  93 132 176 223 273 331 408
#     4  11  24  44  67  98 134 183 226 269 339 409
#
# _framework density 20.437177999999999
#
# number of rings (size 3 to 8) (size 9 to 14) (size 15 to 20)
#    0.000    1.500    2.500    1.500    8.750    0.500 
#    0.000    5.000    0.000    0.000    0.000    0.000 
#    0.000    0.000    0.000    0.000    0.000    0.000 
#
# Total GULP energy -178561.476395 kJ/mol
# GULP energy per Si atom -5580.046137 kJ/mol
# Density = 2.039066 g / cm^3
# Si number density = 20.437178 Si / 1000 Ang^3
#
#
#
# Elastic Constant Matrix: (Units=GPa)
#
#
# Indices 1 2 3 4 5 6 
#
# 1 91.1553 49.7136 13.2470 0.0000 0.0000 0.0000
# 2 49.7136 70.5416 20.8911 0.0000 0.0000 0.0000
# 3 13.2470 20.8911 60.2688 0.0000 0.0000 0.0000
# 4 0.0000 0.0000 0.0000 23.0112 0.0000 0.0000
# 5 0.0000 0.0000 0.0000 0.0000 23.1927 0.0000
# 6 0.0000 0.0000 0.0000 0.0000 0.0000 28.4692
#
#
#
# Elastic Compliance Matrix: (Units=1/GPa)
#
#
# Indices 1 2 3 4 5 6 
#
# 1 0.017832 -0.012711 0.000487 0.000000 0.000000 0.000000
# 2 -0.012711 0.024858 -0.005823 0.000000 0.000000 0.000000
# 3 0.000487 -0.005823 0.018504 0.000000 0.000000 0.000000
# 4 0.000000 0.000000 0.000000 0.043457 0.000000 0.000000
# 5 0.000000 0.000000 0.000000 0.000000 0.043117 0.000000
# 6 0.000000 0.000000 0.000000 0.000000 0.000000 0.035126
#
#
# Mechanical properties :
#
#
# Convention : Reuss Voigt Hill
#
# Bulk Modulus (GPa) = 39.84126 43.29654 41.56890
# Shear Modulus (GPa) = 21.99210 24.14223 23.06717
#
# Velocity S-wave (km/s) = 3.28393 3.44072 3.36324
# Velocity P-wave (km/s) = 5.82372 6.08407 5.95532
#
# Compressibility (1/GPa) = 0.02509961
#
# Stress axis : x y z
#
# Youngs Moduli (GPa) = 56.07981 40.22795 54.04304
#
# Poissons Ratio (x) = 0.51133 -0.02630
# Poissons Ratio (y) = 0.71282 0.31468
# Poissons Ratio (z) = -0.02729 0.23424
#
# Static dielectric constant tensor:
#      x y z
#    x 1.776480 0.000000 0.000000 
#    y 0.000000 1.715460 0.000000 
#    z 0.000000 0.000000 1.753070 
# 
# From -- ./inp_files/6630.got.cif
#   From: 2010.05.17/outbox.cif.g08.bks.cpg/sg39_4_cif.got.tgz:6630.got - 2010.06.03 18:22:40.
