data_PCOD9361730
_publ_section_title
;
Structure prediction by ZEFSAII (Michael W. Deem and Ramdas Pophale) SiO2 
 PCOD9361730
Probable space group: A B M 2
;
_chemical_formula_sum "Si O2"
_cell_formula_units_Z 56
_cell_length_a 11.056297
_cell_length_b 14.820803
_cell_length_c 15.807282
_cell_angle_alpha 90.000000
_cell_angle_beta 90.000000
_cell_angle_gamma 90.000000
_cell_volume 2590.231808
_symmetry_space_group_name_H-M "A B M 2"
_symmetry_group_IT_number 39
_symmetry_cell_setting 'orthorhombic'
loop_
_space_group_symop_operation_xyz
x,y,z
-x,-y,z
-x,1/2+y,z
x,1/2-y,z
x,1/2+y,1/2+z
-x,1/2-y,1/2+z
-x,y,1/2+z
x,-y,1/2+z
loop_
_atom_site_type_symbol
_atom_site_label
_atom_site_fract_x
_atom_site_fract_y
_atom_site_fract_z
Si Si1 0.441791 0.152064 0.951680
Si Si2 0.882495 0.149664 0.969041
Si Si3 0.419083 0.652178 0.127970
Si Si4 0.709479 0.497030 0.539539
Si Si5 0.428616 0.593668 0.784146
Si Si6 0.066241 0.904355 0.609989
Si Si7 0.161780 0.147856 0.283757
O O1 0.375634 0.250000 0.944183
O O2 0.525755 0.141806 0.869793
O O3 0.520331 0.157811 0.036387
O O4 0.368363 0.059912 0.971955
O O5 0.828843 0.250000 0.976235
O O6 0.912264 0.134487 0.870552
O O7 0.788267 0.072605 0.992825
O O8 0.992007 0.143448 0.035414
O O9 0.354516 0.750000 0.142654
O O10 0.349919 0.556407 0.115510
O O11 0.519206 0.642610 0.200716
O O12 0.798341 0.423469 0.579408
O O13 0.500000 0.500000 0.785385
O O14 0.283260 0.587902 0.782187
O O15 0.078282 0.861512 0.701844
O O16 0.000000 0.000000 0.620653
O O17 0.210145 0.250000 0.284858
#
# Coordination Sequence:
#
# PCOD9361730 Si02
#       7
#     8   8   8   8   8   8   8
#     4  11  23  38  58  88 126 165 207 254 303 363
#     4  10  22  41  64  89 118 156 206 261 314 370
#     4  11  22  37  59  89 127 165 205 252 302 365
#     4  11  22  39  61  88 124 168 203 248 312 368
#     4  12  23  38  63  94 129 168 210 252 303 373
#     4  10  23  40  62  89 118 155 205 260 314 368
#     4  11  22  39  64  89 118 159 203 249 306 369
#
# _framework density 21.619686000000002
#
# number of rings (size 3 to 8) (size 9 to 14) (size 15 to 20)
#    0.000    1.143    0.000    7.714    0.000    6.286 
#    0.000    1.429    0.000    3.429    0.000    0.000 
#    0.000    0.000    0.000    0.000    0.000    0.000 
#
# Total GULP energy -156215.237323 kJ/mol
# GULP energy per Si atom -5579.115619 kJ/mol
# Density = 2.157048 g / cm^3
# Si number density = 21.619686 Si / 1000 Ang^3
#
#
#
# Elastic Constant Matrix: (Units=GPa)
#
#
# Indices 1 2 3 4 5 6 
#
# 1 59.0029 18.9177 47.6166 0.0000 0.0000 0.0000
# 2 18.9177 103.1056 22.6233 0.0000 0.0000 0.0000
# 3 47.6166 22.6233 177.5507 0.0000 0.0000 0.0000
# 4 0.0000 0.0000 0.0000 -24.8142 0.0000 0.0000
# 5 0.0000 0.0000 0.0000 0.0000 30.1061 0.0000
# 6 0.0000 0.0000 0.0000 0.0000 0.0000 10.2336
#
#
#
# Elastic Compliance Matrix: (Units=1/GPa)
#
#
# Indices 1 2 3 4 5 6 
#
# 1 0.022429 -0.002876 -0.005649 0.000000 0.000000 0.000000
# 2 -0.002876 0.010346 -0.000547 0.000000 0.000000 0.000000
# 3 -0.005649 -0.000547 0.007217 0.000000 0.000000 0.000000
# 4 0.000000 0.000000 0.000000 -0.040300 0.000000 0.000000
# 5 0.000000 0.000000 0.000000 0.000000 0.033216 0.000000
# 6 0.000000 0.000000 0.000000 0.000000 0.000000 0.097717
#
#
# Mechanical properties :
#
#
# Convention : Reuss Voigt Hill
#
# Bulk Modulus (GPa) = 45.76851 57.55271 51.66061
# Shear Modulus (GPa) = 32.04054 19.80520 25.92287
#
# Velocity S-wave (km/s) = 3.85386 3.02995 3.46647
# Velocity P-wave (km/s) = 6.40459 6.23852 6.32210
#
# Compressibility (1/GPa) = 0.02184908
#
# Stress axis : x y z
#
# Youngs Moduli (GPa) = 44.58508 96.65112 138.56542
#
# Poissons Ratio (x) = 0.27795 0.78272
# Poissons Ratio (y) = 0.12822 0.07581
# Poissons Ratio (z) = 0.25185 0.05288
#
# Static dielectric constant tensor:
#      x y z
#    x 1.801470 0.000000 0.000000 
#    y 0.000000 1.905990 0.000000 
#    z 0.000000 0.000000 1.796390 
# 
# From -- ./inp_files/9290.got.cif
#   From: 2010.05.17/outbox.cif.g08.bks.cpg/sg39_5_cif.got.tgz:9290.got - 2010.06.03 18:22:40.
