data_PCOD9361586
_publ_section_title
;
Structure prediction by ZEFSAII (Michael W. Deem and Ramdas Pophale) SiO2 
 PCOD9361586
Probable space group: A B M 2
;
_chemical_formula_sum "Si O2"
_cell_formula_units_Z 60
_cell_length_a 5.315290
_cell_length_b 22.574966
_cell_length_c 22.137999
_cell_angle_alpha 90.000000
_cell_angle_beta 90.000000
_cell_angle_gamma 90.000000
_cell_volume 2656.393646
_symmetry_space_group_name_H-M "A B M 2"
_symmetry_group_IT_number 39
_symmetry_cell_setting 'orthorhombic'
loop_
_space_group_symop_operation_xyz
x,y,z
-x,-y,z
-x,1/2+y,z
x,1/2-y,z
x,1/2+y,1/2+z
-x,1/2-y,1/2+z
-x,y,1/2+z
x,-y,1/2+z
loop_
_atom_site_type_symbol
_atom_site_label
_atom_site_fract_x
_atom_site_fract_y
_atom_site_fract_z
Si Si1 0.554572 0.818376 0.984680
Si Si2 0.941816 0.177773 0.047438
Si Si3 0.543002 0.320025 0.237529
Si Si4 0.753593 0.608772 0.142938
Si Si5 0.500000 0.500000 0.141200
Si Si6 0.130456 0.442067 0.866821
Si Si7 0.862658 0.073391 0.229701
Si Si8 0.374086 0.870242 0.866326
O O1 0.563705 0.750000 0.001540
O O2 0.453353 0.823269 0.916882
O O3 0.837716 0.838593 0.998978
O O4 0.331724 0.843943 0.026290
O O5 0.936411 0.250000 0.055218
O O6 0.034135 0.143316 0.106360
O O7 0.567012 0.250000 0.240065
O O8 0.415534 0.341344 0.174910
O O9 0.799732 0.357137 0.237434
O O10 0.411086 0.344885 0.298705
O O11 0.640901 0.553031 0.105765
O O12 0.866490 0.573102 0.200130
O O13 0.322849 0.541341 0.183246
O O14 0.162361 0.453619 0.795197
O O15 0.412670 0.420515 0.881834
O O16 0.000000 0.500000 0.895147
O O17 0.911161 0.392665 0.872611
#
# Coordination Sequence:
#
# PCOD9361586 Si02
#       8
#     8   8   8   8   4   8   8   8
#     4  10  22  43  66  90 120 166 215 254 302 377
#     4  10  23  40  66  92 121 167 211 258 311 368
#     4  10  22  36  56  94 131 161 194 255 326 373
#     4  11  21  39  60  92 123 162 203 262 309 377
#     4  10  22  36  62  84 122 168 214 248 304 372
#     4  11  22  37  62  91 125 165 206 256 305 374
#     4  10  22  37  58  89 125 169 206 244 308 384
#     4  11  22  40  63  92 124 164 207 258 312 368
#
# _framework density 22.587015000000001
#
# number of rings (size 3 to 8) (size 9 to 14) (size 15 to 20)
#    0.000    1.600    1.333    3.200    7.467    1.067 
#    0.000    1.333    5.867    0.000    0.000    0.000 
#    0.000    0.000    0.000    0.000    0.000    0.000 
#
# Total GULP energy -167180.292683 kJ/mol
# GULP energy per Si atom -5572.676423 kJ/mol
# Density = 2.253561 g / cm^3
# Si number density = 22.587015 Si / 1000 Ang^3
#
#
#
# Elastic Constant Matrix: (Units=GPa)
#
#
# Indices 1 2 3 4 5 6 
#
# 1 64.6950 25.0364 -1.4794 0.0000 0.0000 0.0000
# 2 25.0364 99.3794 0.9921 0.0000 0.0000 0.0000
# 3 -1.4794 0.9921 39.2007 0.0000 0.0000 0.0000
# 4 0.0000 0.0000 0.0000 14.3631 0.0000 0.0000
# 5 0.0000 0.0000 0.0000 0.0000 29.9462 0.0000
# 6 0.0000 0.0000 0.0000 0.0000 0.0000 26.5042
#
#
#
# Elastic Compliance Matrix: (Units=1/GPa)
#
#
# Indices 1 2 3 4 5 6 
#
# 1 0.017149 -0.004328 0.000757 0.000000 0.000000 0.000000
# 2 -0.004328 0.011157 -0.000446 0.000000 0.000000 0.000000
# 3 0.000757 -0.000446 0.025550 0.000000 0.000000 0.000000
# 4 0.000000 0.000000 0.000000 0.069623 0.000000 0.000000
# 5 0.000000 0.000000 0.000000 0.000000 0.033393 0.000000
# 6 0.000000 0.000000 0.000000 0.000000 0.000000 0.037730
#
#
# Mechanical properties :
#
#
# Convention : Reuss Voigt Hill
#
# Bulk Modulus (GPa) = 21.82342 28.04147 24.93245
# Shear Modulus (GPa) = 22.94522 26.07774 24.51148
#
# Velocity S-wave (km/s) = 3.19071 3.40155 3.29781
# Velocity P-wave (km/s) = 4.82256 5.27913 5.05600
#
# Compressibility (1/GPa) = 0.04582232
#
# Stress axis : x y z
#
# Youngs Moduli (GPa) = 58.31137 89.62804 39.13954
#
# Poissons Ratio (x) = 0.38790 -0.02962
# Poissons Ratio (y) = 0.25237 0.01744
# Poissons Ratio (z) = -0.04412 0.03995
#
# Static dielectric constant tensor:
#      x y z
#    x 1.901760 0.000000 0.000000 
#    y 0.000000 1.900360 0.000000 
#    z 0.000000 0.000000 1.866590 
# 
# From -- ./inp_files/15351.got.cif
#   From: 2010.05.17/outbox.cif.g08.bks.cpg/sg39_8_cif.got.tgz:15351.got - 2010.06.03 18:22:40.
