data_PCOD9361918
_publ_section_title
;
Structure prediction by ZEFSAII (Michael W. Deem and Ramdas Pophale) SiO2 
 PCOD9361918
Probable space group: A B M 2
;
_chemical_formula_sum "Si O2"
_cell_formula_units_Z 36
_cell_length_a 8.141355
_cell_length_b 7.520561
_cell_length_c 25.074527
_cell_angle_alpha 90.000000
_cell_angle_beta 90.000000
_cell_angle_gamma 90.000000
_cell_volume 1535.252029
_symmetry_space_group_name_H-M "A B M 2"
_symmetry_group_IT_number 39
_symmetry_cell_setting 'orthorhombic'
loop_
_space_group_symop_operation_xyz
x,y,z
-x,-y,z
-x,1/2+y,z
x,1/2-y,z
x,1/2+y,1/2+z
-x,1/2-y,1/2+z
-x,y,1/2+z
x,-y,1/2+z
loop_
_atom_site_type_symbol
_atom_site_label
_atom_site_fract_x
_atom_site_fract_y
_atom_site_fract_z
Si Si1 0.191628 0.461851 0.629480
Si Si2 0.190535 0.538134 0.359368
Si Si3 0.245217 0.250000 0.442069
Si Si4 0.310982 0.948195 0.516104
Si Si5 0.308026 0.038450 0.744189
O O1 0.221133 0.250000 0.627805
O O2 0.285925 0.543382 0.579489
O O3 0.245203 0.532263 0.687522
O O4 0.000000 0.500000 0.622603
O O5 0.223570 0.750000 0.364401
O O6 0.287809 0.408421 0.398388
O O7 0.219061 0.479556 0.298164
O O8 0.000000 0.500000 0.373010
O O9 0.205135 0.404973 0.486724
O O10 0.278188 0.750000 0.496734
O O11 0.500000 0.000000 0.504582
O O12 0.282505 0.250000 0.742235
O O13 0.500000 0.000000 0.749441
#
# Coordination Sequence:
#
# PCOD9361918 Si02
#       5
#     8   8   4   8   8
#     4  11  23  44  69 106 142 182 230 288 351 417
#     4  11  24  47  71 104 139 188 236 288 350 413
#     4  12  26  46  72 102 142 182 242 282 352 414
#     4  12  25  48  72 103 139 187 235 289 350 413
#     4  10  24  42  69 104 141 180 230 288 349 419
#
# _framework density 23.448920999999999
#
# number of rings (size 3 to 8) (size 9 to 14) (size 15 to 20)
#    0.000    0.889    3.333    2.667    1.556    5.333 
#    8.000    0.000    0.000    0.000    0.000    0.000 
#    0.000    0.000    0.000    0.000    0.000    0.000 
#
# Total GULP energy -100234.197435 kJ/mol
# GULP energy per Si atom -5568.566524 kJ/mol
# Density = 2.339555 g / cm^3
# Si number density = 23.448921 Si / 1000 Ang^3
#
#
#
# Elastic Constant Matrix: (Units=GPa)
#
#
# Indices 1 2 3 4 5 6 
#
# 1 52.0921 2.2579 -4.1058 0.0000 0.0000 0.0000
# 2 2.2579 203.3105 60.2518 0.0000 0.0000 0.0000
# 3 -4.1058 60.2518 159.6095 0.0000 0.0000 0.0000
# 4 0.0000 0.0000 0.0000 47.6242 0.0000 0.0000
# 5 0.0000 0.0000 0.0000 0.0000 18.9397 0.0000
# 6 0.0000 0.0000 0.0000 0.0000 0.0000 17.3349
#
#
#
# Elastic Compliance Matrix: (Units=1/GPa)
#
#
# Indices 1 2 3 4 5 6 
#
# 1 0.019266 -0.000406 0.000649 0.000000 0.000000 0.000000
# 2 -0.000406 0.005547 -0.002104 0.000000 0.000000 0.000000
# 3 0.000649 -0.002104 0.007076 0.000000 0.000000 0.000000
# 4 0.000000 0.000000 0.000000 0.020998 0.000000 0.000000
# 5 0.000000 0.000000 0.000000 0.000000 0.052799 0.000000
# 6 0.000000 0.000000 0.000000 0.000000 0.000000 0.057687
#
#
# Mechanical properties :
#
#
# Convention : Reuss Voigt Hill
#
# Bulk Modulus (GPa) = 35.50463 59.09110 47.29787
# Shear Modulus (GPa) = 28.33113 40.55365 34.44239
#
# Velocity S-wave (km/s) = 3.47970 4.16317 3.83668
# Velocity P-wave (km/s) = 5.59630 6.95442 6.31199
#
# Compressibility (1/GPa) = 0.02816534
#
# Stress axis : x y z
#
# Youngs Moduli (GPa) = 51.90619 180.28682 141.31574
#
# Poissons Ratio (x) = 0.07325 -0.09171
# Poissons Ratio (y) = 0.02109 0.29737
# Poissons Ratio (z) = -0.03369 0.37938
#
# Static dielectric constant tensor:
#      x y z
#    x 1.878860 0.000000 0.000000 
#    y 0.000000 1.861670 0.000000 
#    z 0.000000 0.000000 1.919500 
# 
# From -- ./inp_files/13781.got.cif
#   From: 2010.05.17/outbox.cif.g08.bks.cpg/sg39_7_cif.got.tgz:13781.got - 2010.06.03 18:22:40.
