data_PCOD9361833
_publ_section_title
;
Structure prediction by ZEFSAII (Michael W. Deem and Ramdas Pophale) SiO2 
 PCOD9361833
Probable space group: A B M 2
;
_chemical_formula_sum "Si O2"
_cell_formula_units_Z 48
_cell_length_a 11.074884
_cell_length_b 21.000814
_cell_length_c 9.207387
_cell_angle_alpha 90.000000
_cell_angle_beta 90.000000
_cell_angle_gamma 90.000000
_cell_volume 2141.468607
_symmetry_space_group_name_H-M "A B M 2"
_symmetry_group_IT_number 39
_symmetry_cell_setting 'orthorhombic'
loop_
_space_group_symop_operation_xyz
x,y,z
-x,-y,z
-x,1/2+y,z
x,1/2-y,z
x,1/2+y,1/2+z
-x,1/2-y,1/2+z
-x,y,1/2+z
x,-y,1/2+z
loop_
_atom_site_type_symbol
_atom_site_label
_atom_site_fract_x
_atom_site_fract_y
_atom_site_fract_z
Si Si1 0.783972 0.002612 0.585290
Si Si2 0.363269 0.111488 0.183191
Si Si3 0.751752 0.179603 0.146392
Si Si4 0.847755 0.617647 0.390293
Si Si5 0.117315 0.420483 0.832691
Si Si6 0.486780 0.675100 0.947706
O O1 0.662087 0.037290 0.641477
O O2 0.851109 0.055939 0.492374
O O3 0.783303 0.941944 0.476759
O O4 0.860288 0.978765 0.721947
O O5 0.238856 0.134333 0.257468
O O6 0.401682 0.149454 0.040458
O O7 0.458711 0.130118 0.309823
O O8 0.752351 0.250000 0.206633
O O9 0.788772 0.130741 0.270433
O O10 0.626312 0.169973 0.059935
O O11 0.848380 0.170341 0.016210
O O12 0.980790 0.602597 0.336621
O O13 0.496278 0.750000 0.905836
#
# Coordination Sequence:
#
# PCOD9361833 Si02
#       6
#     8   8   8   8   8   8
#     4  11  24  41  66 105 141 185 229 275 344 425
#     4  11  24  43  69 101 129 180 236 288 341 410
#     4   9  22  44  67  98 140 184 235 298 349 406
#     4  10  23  41  70 103 141 188 228 280 352 425
#     4  11  24  40  72 104 147 187 230 282 354 421
#     4  10  23  48  73  95 134 183 239 292 352 412
#
# _framework density 22.414525000000001
#
# number of rings (size 3 to 8) (size 9 to 14) (size 15 to 20)
#    0.000    1.667    1.667    1.000    9.333    1.333 
#    0.000   13.333    0.000    0.000    0.000    0.000 
#    0.000    0.000    0.000    0.000    0.000    0.000 
#
# Total GULP energy -134007.509259 kJ/mol
# GULP energy per Si atom -5583.646219 kJ/mol
# Density = 2.236351 g / cm^3
# Si number density = 22.414525 Si / 1000 Ang^3
#
#
#
# Elastic Constant Matrix: (Units=GPa)
#
#
# Indices 1 2 3 4 5 6 
#
# 1 73.9443 40.0437 61.3714 0.0000 0.0000 0.0000
# 2 40.0437 65.0225 26.9757 0.0000 0.0000 0.0000
# 3 61.3714 26.9757 119.6885 0.0000 0.0000 0.0000
# 4 0.0000 0.0000 0.0000 25.7391 0.0000 0.0000
# 5 0.0000 0.0000 0.0000 0.0000 35.5780 0.0000
# 6 0.0000 0.0000 0.0000 0.0000 0.0000 24.5254
#
#
#
# Elastic Compliance Matrix: (Units=1/GPa)
#
#
# Indices 1 2 3 4 5 6 
#
# 1 0.032447 -0.014429 -0.013386 0.000000 0.000000 0.000000
# 2 -0.014429 0.023382 0.002129 0.000000 0.000000 0.000000
# 3 -0.013386 0.002129 0.014739 0.000000 0.000000 0.000000
# 4 0.000000 0.000000 0.000000 0.038851 0.000000 0.000000
# 5 0.000000 0.000000 0.000000 0.000000 0.028107 0.000000
# 6 0.000000 0.000000 0.000000 0.000000 0.000000 0.040774
#
#
# Mechanical properties :
#
#
# Convention : Reuss Voigt Hill
#
# Bulk Modulus (GPa) = 52.09326 57.27074 54.68200
# Shear Modulus (GPa) = 21.18000 25.85280 23.51640
#
# Velocity S-wave (km/s) = 3.07729 3.39985 3.24259
# Velocity P-wave (km/s) = 5.99313 6.40454 6.20225
#
# Compressibility (1/GPa) = 0.01919634
#
# Stress axis : x y z
#
# Youngs Moduli (GPa) = 30.81924 42.76743 67.84812
#
# Poissons Ratio (x) = 0.61710 0.90818
# Poissons Ratio (y) = 0.44470 -0.14443
# Poissons Ratio (z) = 0.41253 -0.09104
#
# Static dielectric constant tensor:
#      x y z
#    x 1.835300 0.000000 0.000000 
#    y 0.000000 1.870760 0.000000 
#    z 0.000000 0.000000 1.831860 
# 
# From -- ./inp_files/2724.got.cif
#   From: 2010.05.17/outbox.cif.g08.bks.cpg/sg39_2_cif.got.tgz:2724.got - 2010.06.03 18:22:40.
