data_PCOD9361969
_publ_section_title
;
Structure prediction by ZEFSAII (Michael W. Deem and Ramdas Pophale) SiO2 
 PCOD9361969
Probable space group: A B M 2
;
_chemical_formula_sum "Si O2"
_cell_formula_units_Z 60
_cell_length_a 9.366052
_cell_length_b 27.183170
_cell_length_c 10.406380
_cell_angle_alpha 90.000000
_cell_angle_beta 90.000000
_cell_angle_gamma 90.000000
_cell_volume 2649.453772
_symmetry_space_group_name_H-M "A B M 2"
_symmetry_group_IT_number 39
_symmetry_cell_setting 'orthorhombic'
loop_
_space_group_symop_operation_xyz
x,y,z
-x,-y,z
-x,1/2+y,z
x,1/2-y,z
x,1/2+y,1/2+z
-x,1/2-y,1/2+z
-x,y,1/2+z
x,-y,1/2+z
loop_
_atom_site_type_symbol
_atom_site_label
_atom_site_fract_x
_atom_site_fract_y
_atom_site_fract_z
Si Si1 0.329305 0.750000 0.802470
Si Si2 0.667299 0.497129 0.168593
Si Si3 0.755829 0.664078 0.118245
Si Si4 0.756134 0.391714 0.257129
Si Si5 0.113137 0.961766 0.471287
Si Si6 0.273514 0.587902 0.838969
Si Si7 0.959705 0.121693 0.043904
Si Si8 0.514467 0.841731 0.908547
O O1 0.243767 0.792368 0.719559
O O2 0.421976 0.794081 0.874542
O O3 0.500000 0.500000 0.148052
O O4 0.698982 0.439990 0.186959
O O5 0.756897 0.514562 0.046347
O O6 0.709507 0.531173 0.292912
O O7 0.732174 0.615411 0.202434
O O8 0.905158 0.658371 0.041316
O O9 0.616262 0.668552 0.029433
O O10 0.834609 0.418549 0.376992
O O11 0.860488 0.363175 0.162053
O O12 0.628439 0.356754 0.299566
O O13 0.021233 0.932397 0.578297
O O14 0.000000 0.000000 0.412134
O O15 0.410057 0.610680 0.914333
O O16 0.138098 0.608140 0.920604
#
# Coordination Sequence:
#
# PCOD9361969 Si02
#       8
#     4   8   8   8   8   8   8   8
#     4  10  26  48  80 108 136 182 234 314 390 456
#     4  12  25  42  65 103 147 200 257 315 361 445
#     4  11  24  49  77 107 147 191 250 312 385 465
#     4  12  26  42  68 105 149 198 260 306 374 449
#     4  12  25  42  64  95 148 204 252 303 370 436
#     4  11  25  44  71 108 152 198 252 312 379 451
#     4  12  25  42  72 101 147 202 245 311 379 448
#     4  11  24  47  77 104 144 193 244 315 384 458
#
# _framework density 22.646179
#
# number of rings (size 3 to 8) (size 9 to 14) (size 15 to 20)
#    0.000    0.533    5.333    2.000    5.600    1.600 
#    0.000    3.333    0.000    0.000    0.000    0.000 
#    0.000    0.000    0.000    0.000    0.000    0.000 
#
# Total GULP energy -167077.208011 kJ/mol
# GULP energy per Si atom -5569.240267 kJ/mol
# Density = 2.259464 g / cm^3
# Si number density = 22.646179 Si / 1000 Ang^3
#
#
#
# Elastic Constant Matrix: (Units=GPa)
#
#
# Indices 1 2 3 4 5 6 
#
# 1 128.9895 -2.6779 37.9546 0.0000 0.0000 0.0000
# 2 -2.6779 60.3566 13.3717 0.0000 0.0000 0.0000
# 3 37.9546 13.3717 61.5910 0.0000 0.0000 0.0000
# 4 0.0000 0.0000 0.0000 43.0129 0.0000 0.0000
# 5 0.0000 0.0000 0.0000 0.0000 49.3202 0.0000
# 6 0.0000 0.0000 0.0000 0.0000 0.0000 24.7840
#
#
#
# Elastic Compliance Matrix: (Units=1/GPa)
#
#
# Indices 1 2 3 4 5 6 
#
# 1 0.009659 0.001836 -0.006351 0.000000 0.000000 0.000000
# 2 0.001836 0.017754 -0.004986 0.000000 0.000000 0.000000
# 3 -0.006351 -0.004986 0.021232 0.000000 0.000000 0.000000
# 4 0.000000 0.000000 0.000000 0.023249 0.000000 0.000000
# 5 0.000000 0.000000 0.000000 0.000000 0.020276 0.000000
# 6 0.000000 0.000000 0.000000 0.000000 0.000000 0.040349
#
#
# Mechanical properties :
#
#
# Convention : Reuss Voigt Hill
#
# Bulk Modulus (GPa) = 33.73395 38.69264 36.21329
# Shear Modulus (GPa) = 30.97848 36.90935 33.94391
#
# Velocity S-wave (km/s) = 3.70257 4.04149 3.87574
# Velocity P-wave (km/s) = 5.76256 6.23707 6.00451
#
# Compressibility (1/GPa) = 0.02964373
#
# Stress axis : x y z
#
# Youngs Moduli (GPa) = 103.52580 56.32476 47.09812
#
# Poissons Ratio (x) = -0.10339 0.29912
# Poissons Ratio (y) = -0.19003 0.23482
# Poissons Ratio (z) = 0.65749 0.28082
#
# Static dielectric constant tensor:
#      x y z
#    x 2.011740 0.000000 0.000000 
#    y 0.000000 1.848620 0.000000 
#    z 0.000000 0.000000 1.951110 
# 
# From -- ./inp_files/5381.got.cif
#   From: 2010.05.17/outbox.cif.g08.bks.cpg/sg39_3_cif.got.tgz:5381.got - 2010.06.03 18:22:40.
