data_PCOD9361930
_publ_section_title
;
Structure prediction by ZEFSAII (Michael W. Deem and Ramdas Pophale) SiO2 
 PCOD9361930
Probable space group: A B M 2
;
_chemical_formula_sum "Si O2"
_cell_formula_units_Z 60
_cell_length_a 8.749824
_cell_length_b 20.744405
_cell_length_c 16.735865
_cell_angle_alpha 90.000000
_cell_angle_beta 90.000000
_cell_angle_gamma 90.000000
_cell_volume 3037.725061
_symmetry_space_group_name_H-M "A B M 2"
_symmetry_group_IT_number 39
_symmetry_cell_setting 'orthorhombic'
loop_
_space_group_symop_operation_xyz
x,y,z
-x,-y,z
-x,1/2+y,z
x,1/2-y,z
x,1/2+y,1/2+z
-x,1/2-y,1/2+z
-x,y,1/2+z
x,-y,1/2+z
loop_
_atom_site_type_symbol
_atom_site_label
_atom_site_fract_x
_atom_site_fract_y
_atom_site_fract_z
Si Si1 0.000000 0.500000 0.438431
Si Si2 0.335738 0.327801 0.449276
Si Si3 0.312706 0.826916 0.419106
Si Si4 0.152983 0.597516 0.818091
Si Si5 0.868331 0.825196 0.762690
Si Si6 0.837643 0.410785 0.549455
Si Si7 0.816631 0.389198 0.106334
Si Si8 0.323685 0.018932 0.182634
O O1 0.937430 0.555943 0.383199
O O2 0.865237 0.473314 0.493958
O O3 0.320577 0.250000 0.459281
O O4 0.512793 0.345486 0.435458
O O5 0.250055 0.351617 0.369384
O O6 0.269147 0.365523 0.526378
O O7 0.307182 0.750000 0.419333
O O8 0.243937 0.848328 0.333826
O O9 0.211636 0.854559 0.490433
O O10 0.250139 0.548862 0.762817
O O11 0.024869 0.634846 0.767793
O O12 0.900236 0.750000 0.775533
O O13 0.797102 0.836725 0.676142
O O14 0.711518 0.426854 0.615554
O O15 0.004115 0.396801 0.585774
O O16 0.760592 0.455485 0.147830
O O17 0.500000 0.000000 0.192478
#
# Coordination Sequence:
#
# PCOD9361930 Si02
#       8
#     4   8   8   8   8   8   8   8
#     4  12  22  38  68  94 118 170 220 274 324 380
#     4  11  24  45  69  98 137 176 220 274 339 401
#     4  10  24  44  68  99 133 172 217 272 337 400
#     4  12  24  41  67  97 132 175 221 273 326 396
#     4  11  23  41  68  98 129 171 223 276 327 389
#     4  12  22  42  67  95 128 170 226 274 322 393
#     4  12  23  44  67  97 130 173 226 274 327 389
#     4  12  27  42  63  99 139 175 218 273 336 400
#
# _framework density 19.751622999999999
#
# number of rings (size 3 to 8) (size 9 to 14) (size 15 to 20)
#    0.000    0.533    5.333    2.400    1.867    2.133 
#    0.000    0.667    0.000    0.000    0.000    0.000 
#    0.000    0.000    0.000    0.000    0.000    0.000 
#
# Total GULP energy -167628.046775 kJ/mol
# GULP energy per Si atom -5587.601559 kJ/mol
# Density = 1.970667 g / cm^3
# Si number density = 19.751623 Si / 1000 Ang^3
#
#
#
# Elastic Constant Matrix: (Units=GPa)
#
#
# Indices 1 2 3 4 5 6 
#
# 1 113.5873 40.7884 60.8296 0.0000 0.0000 0.0000
# 2 40.7884 38.4579 38.5712 0.0000 0.0000 0.0000
# 3 60.8296 38.5712 121.5261 0.0000 0.0000 0.0000
# 4 0.0000 0.0000 0.0000 39.6953 0.0000 0.0000
# 5 0.0000 0.0000 0.0000 0.0000 21.7390 0.0000
# 6 0.0000 0.0000 0.0000 0.0000 0.0000 35.2357
#
#
#
# Elastic Compliance Matrix: (Units=1/GPa)
#
#
# Indices 1 2 3 4 5 6 
#
# 1 0.015259 -0.012503 -0.003669 0.000000 0.000000 0.000000
# 2 -0.012503 0.048390 -0.009100 0.000000 0.000000 0.000000
# 3 -0.003669 -0.009100 0.012954 0.000000 0.000000 0.000000
# 4 0.000000 0.000000 0.000000 0.025192 0.000000 0.000000
# 5 0.000000 0.000000 0.000000 0.000000 0.046000 0.000000
# 6 0.000000 0.000000 0.000000 0.000000 0.000000 0.028380
#
#
# Mechanical properties :
#
#
# Convention : Reuss Voigt Hill
#
# Bulk Modulus (GPa) = 38.37701 61.54999 49.96350
# Shear Modulus (GPa) = 21.23990 28.22613 24.73302
#
# Velocity S-wave (km/s) = 3.28281 3.78438 3.54249
# Velocity P-wave (km/s) = 5.81731 7.09402 6.48715
#
# Compressibility (1/GPa) = 0.02605727
#
# Stress axis : x y z
#
# Youngs Moduli (GPa) = 65.53678 20.66534 77.19832
#
# Poissons Ratio (x) = 0.25838 0.28326
# Poissons Ratio (y) = 0.81942 0.70252
# Poissons Ratio (z) = 0.24047 0.18806
#
# Static dielectric constant tensor:
#      x y z
#    x 1.683820 0.000000 0.000000 
#    y 0.000000 1.717610 0.000000 
#    z 0.000000 0.000000 1.700490 
# 
# From -- ./inp_files/8715.got.cif
#   From: 2010.05.17/outbox.cif.g08.bks.cpg/sg39_5_cif.got.tgz:8715.got - 2010.06.03 18:22:40.
