data_PCOD9361895
_publ_section_title
;
Structure prediction by ZEFSAII (Michael W. Deem and Ramdas Pophale) SiO2 
 PCOD9361895
Probable space group: A B M 2
;
_chemical_formula_sum "Si O2"
_cell_formula_units_Z 44
_cell_length_a 15.582345
_cell_length_b 15.347434
_cell_length_c 8.671439
_cell_angle_alpha 90.000000
_cell_angle_beta 90.000000
_cell_angle_gamma 90.000000
_cell_volume 2073.766065
_symmetry_space_group_name_H-M "A B M 2"
_symmetry_group_IT_number 39
_symmetry_cell_setting 'orthorhombic'
loop_
_space_group_symop_operation_xyz
x,y,z
-x,-y,z
-x,1/2+y,z
x,1/2-y,z
x,1/2+y,1/2+z
-x,1/2-y,1/2+z
-x,y,1/2+z
x,-y,1/2+z
loop_
_atom_site_type_symbol
_atom_site_label
_atom_site_fract_x
_atom_site_fract_y
_atom_site_fract_z
Si Si1 0.134030 0.250000 0.619961
Si Si2 0.012636 0.250000 0.328076
Si Si3 0.396416 0.750000 0.526512
Si Si4 0.722240 0.894440 0.638570
Si Si5 0.413283 0.250000 0.655887
Si Si6 0.000000 0.500000 0.364686
Si Si7 0.910737 0.595540 0.129487
Si Si8 0.724064 0.588822 0.007873
O O1 0.058178 0.250000 0.493791
O O2 0.194167 0.164749 0.598332
O O3 0.089341 0.250000 0.789923
O O4 0.049476 0.331045 0.233904
O O5 0.489281 0.750000 0.603014
O O6 0.407928 0.750000 0.341414
O O7 0.343972 0.838585 0.564541
O O8 0.640082 0.834262 0.600396
O O9 0.713801 0.988325 0.559461
O O10 0.724583 0.907082 0.822934
O O11 0.920396 0.514902 0.248827
O O12 0.968877 0.425720 0.481768
O O13 0.816130 0.614714 0.076078
#
# Coordination Sequence:
#
# PCOD9361895 Si02
#       8
#     4   4   4   8   4   4   8   8
#     4  11  28  46  62  96 139 184 233 282 339 388
#     4  12  27  40  64  88 129 174 234 276 330 385
#     4  10  23  46  72 102 133 174 218 274 347 406
#     4  10  25  46  69  98 141 178 224 275 343 400
#     4   9  22  48  72 100 139 174 211 280 332 417
#     4  10  24  40  62  86 132 176 226 274 320 384
#     4  11  24  41  60  93 127 177 223 277 325 383
#     4  11  24  43  71  99 138 178 221 280 338 403
#
# _framework density 21.217438000000001
#
# number of rings (size 3 to 8) (size 9 to 14) (size 15 to 20)
#    0.000    1.455    0.000    3.273   15.273    2.182 
#    3.273    3.636    0.000    0.000    0.000    0.000 
#    0.000    0.000    0.000    0.000    0.000    0.000 
#
# Total GULP energy -122941.915846 kJ/mol
# GULP energy per Si atom -5588.268902 kJ/mol
# Density = 2.116915 g / cm^3
# Si number density = 21.217438 Si / 1000 Ang^3
#
#
#
# Elastic Constant Matrix: (Units=GPa)
#
#
# Indices 1 2 3 4 5 6 
#
# 1 158.2952 71.4406 47.9057 0.0000 0.0000 0.0000
# 2 71.4406 139.1470 45.8862 0.0000 0.0000 0.0000
# 3 47.9057 45.8862 93.0778 0.0000 0.0000 0.0000
# 4 0.0000 0.0000 0.0000 19.8879 0.0000 0.0000
# 5 0.0000 0.0000 0.0000 0.0000 37.1186 0.0000
# 6 0.0000 0.0000 0.0000 0.0000 0.0000 28.4345
#
#
#
# Elastic Compliance Matrix: (Units=1/GPa)
#
#
# Indices 1 2 3 4 5 6 
#
# 1 0.008771 -0.003600 -0.002740 0.000000 0.000000 0.000000
# 2 -0.003600 0.010059 -0.003106 0.000000 0.000000 0.000000
# 3 -0.002740 -0.003106 0.013685 0.000000 0.000000 0.000000
# 4 0.000000 0.000000 0.000000 0.050282 0.000000 0.000000
# 5 0.000000 0.000000 0.000000 0.000000 0.026941 0.000000
# 6 0.000000 0.000000 0.000000 0.000000 0.000000 0.035169
#
#
# Mechanical properties :
#
#
# Convention : Reuss Voigt Hill
#
# Bulk Modulus (GPa) = 73.40058 80.10945 76.75501
# Shear Modulus (GPa) = 29.70192 32.10737 30.90464
#
# Velocity S-wave (km/s) = 3.74556 3.89428 3.82064
# Velocity P-wave (km/s) = 7.30583 7.61964 7.46438
#
# Compressibility (1/GPa) = 0.01362387
#
# Stress axis : x y z
#
# Youngs Moduli (GPa) = 114.01140 99.41164 73.07186
#
# Poissons Ratio (x) = 0.35786 0.20019
# Poissons Ratio (y) = 0.41041 0.22698
# Poissons Ratio (z) = 0.31236 0.30880
#
# Static dielectric constant tensor:
#      x y z
#    x 1.731240 0.000000 0.000000 
#    y 0.000000 2.176760 0.000000 
#    z 0.000000 0.000000 1.757690 
# 
# From -- ./inp_files/3209.got.cif
#   From: 2010.05.17/outbox.cif.g08.bks.cpg/sg39_2_cif.got.tgz:3209.got - 2010.06.03 18:22:40.
