data_PCOD9361665
_publ_section_title
;
Structure prediction by ZEFSAII (Michael W. Deem and Ramdas Pophale) SiO2 
 PCOD9361665
Probable space group: A B M 2
;
_chemical_formula_sum "Si O2"
_cell_formula_units_Z 40
_cell_length_a 11.583362
_cell_length_b 14.010927
_cell_length_c 11.598104
_cell_angle_alpha 90.000000
_cell_angle_beta 90.000000
_cell_angle_gamma 90.000000
_cell_volume 1882.298508
_symmetry_space_group_name_H-M "A B M 2"
_symmetry_group_IT_number 39
_symmetry_cell_setting 'orthorhombic'
loop_
_space_group_symop_operation_xyz
x,y,z
-x,-y,z
-x,1/2+y,z
x,1/2-y,z
x,1/2+y,1/2+z
-x,1/2-y,1/2+z
-x,y,1/2+z
x,-y,1/2+z
loop_
_atom_site_type_symbol
_atom_site_label
_atom_site_fract_x
_atom_site_fract_y
_atom_site_fract_z
Si Si1 0.766952 0.643279 0.419800
Si Si2 0.783215 0.853058 0.795808
Si Si3 0.370071 0.035831 0.233693
Si Si4 0.203440 0.557587 0.542394
Si Si5 0.967704 0.102052 0.747221
O O1 0.748144 0.750000 0.468277
O O2 0.661123 0.607559 0.338161
O O3 0.791414 0.553795 0.503948
O O4 0.876490 0.647871 0.333536
O O5 0.726516 0.750000 0.781682
O O6 0.908406 0.850730 0.735872
O O7 0.709014 0.942034 0.753247
O O8 0.804418 0.876907 0.930191
O O9 0.320302 0.077989 0.114757
O O10 0.500000 0.000000 0.230093
O O11 0.098468 0.581381 0.628268
O O12 0.000000 0.000000 0.801312
#
# Coordination Sequence:
#
# PCOD9361665 Si02
#       5
#     8   8   8   8   8
#     4  10  22  40  64  93 123 159 204 252 303 365
#     4  11  24  40  63  92 123 160 206 252 306 367
#     4  10  23  43  64  85 122 165 205 258 313 358
#     4  10  22  39  64  89 127 160 204 246 309 365
#     4  11  20  39  62  89 126 162 192 240 306 369
#
# _framework density 21.250615
#
# number of rings (size 3 to 8) (size 9 to 14) (size 15 to 20)
#    0.000    1.600    6.000    0.600    2.800    8.800 
#    0.000    0.000    0.000    0.000    0.000    0.000 
#    0.000    0.000    0.000    0.000    0.000    0.000 
#
# Total GULP energy -111659.017438 kJ/mol
# GULP energy per Si atom -5582.950872 kJ/mol
# Density = 2.120225 g / cm^3
# Si number density = 21.250615 Si / 1000 Ang^3
#
#
#
# Elastic Constant Matrix: (Units=GPa)
#
#
# Indices 1 2 3 4 5 6 
#
# 1 128.4910 -10.4728 28.4594 0.0000 0.0000 0.0000
# 2 -10.4728 94.6008 1.4917 0.0000 0.0000 0.0000
# 3 28.4594 1.4917 91.4452 0.0000 0.0000 0.0000
# 4 0.0000 0.0000 0.0000 -0.8361 0.0000 0.0000
# 5 0.0000 0.0000 0.0000 0.0000 9.3742 0.0000
# 6 0.0000 0.0000 0.0000 0.0000 0.0000 -5.7045
#
#
#
# Elastic Compliance Matrix: (Units=1/GPa)
#
#
# Indices 1 2 3 4 5 6 
#
# 1 0.008448 0.000977 -0.002645 0.000000 0.000000 0.000000
# 2 0.000977 0.010686 -0.000478 0.000000 0.000000 0.000000
# 3 -0.002645 -0.000478 0.011767 0.000000 0.000000 0.000000
# 4 0.000000 0.000000 0.000000 -1.196047 0.000000 0.000000
# 5 0.000000 0.000000 0.000000 0.000000 0.106675 0.000000
# 6 0.000000 0.000000 0.000000 0.000000 0.000000 -0.175299
#
#
# Mechanical properties :
#
#
# Convention : Reuss Voigt Hill
#
# Bulk Modulus (GPa) = 37.58268 39.27706 38.42987
# Shear Modulus (GPa) = -4.09632 20.23730 8.07049
#
# Velocity S-wave (km/s) = -1.38990 3.08931 1.95090
# Velocity P-wave (km/s) = 3.89206 5.58999 4.81644
#
# Compressibility (1/GPa) = 0.02660800
#
# Stress axis : x y z
#
# Youngs Moduli (GPa) = 118.36917 93.57655 84.98679
#
# Poissons Ratio (x) = -0.09142 0.22480
# Poissons Ratio (y) = -0.11564 0.04066
# Poissons Ratio (z) = 0.31310 0.04476
#
# Static dielectric constant tensor:
#      x y z
#    x 1.749360 0.000000 0.000000 
#    y 0.000000 1.790050 0.000000 
#    z 0.000000 0.000000 1.811260 
# 
# From -- ./inp_files/5655.got.cif
#   From: 2010.05.17/outbox.cif.g08.bks.cpg/sg39_3_cif.got.tgz:5655.got - 2010.06.03 18:22:40.
