data_PCOD9361541
_publ_section_title
;
Structure prediction by ZEFSAII (Michael W. Deem and Ramdas Pophale) SiO2 
 PCOD9361541
Probable space group: A B M 2
;
_chemical_formula_sum "Si O2"
_cell_formula_units_Z 36
_cell_length_a 9.548769
_cell_length_b 16.608649
_cell_length_c 8.609037
_cell_angle_alpha 90.000000
_cell_angle_beta 90.000000
_cell_angle_gamma 90.000000
_cell_volume 1365.325711
_symmetry_space_group_name_H-M "A B M 2"
_symmetry_group_IT_number 39
_symmetry_cell_setting 'orthorhombic'
loop_
_space_group_symop_operation_xyz
x,y,z
-x,-y,z
-x,1/2+y,z
x,1/2-y,z
x,1/2+y,1/2+z
-x,1/2-y,1/2+z
-x,y,1/2+z
x,-y,1/2+z
loop_
_atom_site_type_symbol
_atom_site_label
_atom_site_fract_x
_atom_site_fract_y
_atom_site_fract_z
Si Si1 0.559375 0.750000 0.819590
Si Si2 0.300183 0.980330 0.821293
Si Si3 0.111572 0.573048 0.079167
Si Si4 0.831537 0.750000 0.584364
Si Si5 0.241663 0.750000 0.717286
Si Si6 0.635836 0.383220 0.557944
O O1 0.689094 0.750000 0.694342
O O2 0.412636 0.750000 0.732409
O O3 0.561041 0.824167 0.939110
O O4 0.403566 0.923980 0.722669
O O5 0.220062 0.040467 0.706506
O O6 0.186308 0.926004 0.911244
O O7 0.352351 0.037263 0.955728
O O8 0.087485 0.666730 0.120772
O O9 0.000000 0.500000 0.071724
O O10 0.806994 0.750000 0.395989
O O11 0.226990 0.669509 0.610596
#
# Coordination Sequence:
#
# PCOD9361541 Si02
#       6
#     4   8   8   4   4   8
#     4  11  23  43  70 104 139 183 246 306 373 451
#     4  10  21  42  69  90 142 184 231 302 363 432
#     4  11  23  42  69 103 140 187 250 301 366 444
#     4  12  22  44  72 102 148 198 236 306 382 432
#     4  11  23  43  70 104 139 183 246 306 373 451
#     4  10  21  41  67  99 136 187 229 298 370 432
#
# _framework density 26.367335000000001
#
# number of rings (size 3 to 8) (size 9 to 14) (size 15 to 20)
#    0.000    1.333    4.444    2.000    0.000    0.000 
#    0.000   16.667    0.000    0.000    0.000    0.000 
#    0.000    0.000    0.000    0.000    0.000    0.000 
#
# Total GULP energy -100344.384648 kJ/mol
# GULP energy per Si atom -5574.688036 kJ/mol
# Density = 2.630732 g / cm^3
# Si number density = 26.367335 Si / 1000 Ang^3
#
#
#
# Elastic Constant Matrix: (Units=GPa)
#
#
# Indices 1 2 3 4 5 6 
#
# 1 86.9157 33.6738 34.6792 0.0000 0.0000 0.0000
# 2 33.6738 229.8045 49.2583 0.0000 0.0000 0.0000
# 3 34.6792 49.2583 159.0893 0.0000 0.0000 0.0000
# 4 0.0000 0.0000 0.0000 66.3690 0.0000 0.0000
# 5 0.0000 0.0000 0.0000 0.0000 -2.8789 0.0000
# 6 0.0000 0.0000 0.0000 0.0000 0.0000 0.2426
#
#
#
# Elastic Compliance Matrix: (Units=1/GPa)
#
#
# Indices 1 2 3 4 5 6 
#
# 1 0.013003 -0.001390 -0.002404 0.000000 0.000000 0.000000
# 2 -0.001390 0.004809 -0.001186 0.000000 0.000000 0.000000
# 3 -0.002404 -0.001186 0.007177 0.000000 0.000000 0.000000
# 4 0.000000 0.000000 0.000000 0.015067 0.000000 0.000000
# 5 0.000000 0.000000 0.000000 0.000000 -0.347354 0.000000
# 6 0.000000 0.000000 0.000000 0.000000 0.000000 4.121238
#
#
# Mechanical properties :
#
#
# Convention : Reuss Voigt Hill
#
# Bulk Modulus (GPa) = 66.53736 79.00354 72.77045
# Shear Modulus (GPa) = 1.30585 36.62642 18.96614
#
# Velocity S-wave (km/s) = 0.70451 3.73108 2.68489
# Velocity P-wave (km/s) = 5.09424 6.97058 6.10493
#
# Compressibility (1/GPa) = 0.01502915
#
# Stress axis : x y z
#
# Youngs Moduli (GPa) = 76.90418 207.92359 139.33217
#
# Poissons Ratio (x) = 0.28903 0.33497
# Poissons Ratio (y) = 0.10690 0.16526
# Poissons Ratio (z) = 0.18489 0.24662
#
# Static dielectric constant tensor:
#      x y z
#    x 2.175310 0.000000 0.000000 
#    y 0.000000 2.130210 0.000000 
#    z 0.000000 0.000000 2.025010 
# 
# From -- ./inp_files/3059.got.cif
#   From: 2010.05.17/outbox.cif.g08.bks.cpg/sg39_2_cif.got.tgz:3059.got - 2010.06.03 18:22:40.
