data_PCOD9361123
_publ_section_title
;
Structure prediction by ZEFSAII (Michael W. Deem and Ramdas Pophale) SiO2 
 PCOD9361123
Probable space group: A B M 2
;
_chemical_formula_sum "Si O2"
_cell_formula_units_Z 60
_cell_length_a 19.216441
_cell_length_b 16.740709
_cell_length_c 9.425427
_cell_angle_alpha 90.000000
_cell_angle_beta 90.000000
_cell_angle_gamma 90.000000
_cell_volume 3032.130146
_symmetry_space_group_name_H-M "A B M 2"
_symmetry_group_IT_number 39
_symmetry_cell_setting 'orthorhombic'
loop_
_space_group_symop_operation_xyz
x,y,z
-x,-y,z
-x,1/2+y,z
x,1/2-y,z
x,1/2+y,1/2+z
-x,1/2-y,1/2+z
-x,y,1/2+z
x,-y,1/2+z
loop_
_atom_site_type_symbol
_atom_site_label
_atom_site_fract_x
_atom_site_fract_y
_atom_site_fract_z
Si Si1 0.071749 0.605148 0.777170
Si Si2 0.153301 0.057181 0.789734
Si Si3 0.519941 0.750000 0.198959
Si Si4 0.059658 0.655914 0.097754
Si Si5 0.524376 0.372402 0.447853
Si Si6 0.386629 0.027317 0.455691
Si Si7 0.189434 0.157501 0.066574
Si Si8 0.708426 0.463769 0.697079
O O1 0.097678 0.514670 0.801912
O O2 0.134535 0.649031 0.695083
O O3 0.005384 0.614933 0.676331
O O4 0.056140 0.642478 0.929931
O O5 0.127843 0.113912 0.662650
O O6 0.226728 0.015590 0.755277
O O7 0.159227 0.108266 0.933061
O O8 0.492056 0.681087 0.311440
O O9 0.543265 0.819192 0.083093
O O10 0.058702 0.750000 0.129609
O O11 0.581449 0.440415 0.418949
O O12 0.451827 0.416546 0.485277
O O13 0.336300 0.015628 0.588377
O O14 0.341142 0.059778 0.326023
O O15 0.199991 0.250000 0.031327
O O16 0.258675 0.112101 0.117242
#
# Coordination Sequence:
#
# PCOD9361123 Si02
#       8
#     8   8   4   8   8   8   8   8
#     4  11  24  42  66  94 127 169 213 262 319 387
#     4  11  24  43  65  89 127 170 217 266 312 385
#     4  10  20  40  62 104 134 156 200 270 338 362
#     4  12  24  40  65  96 128 164 209 267 323 376
#     4  10  22  40  69  94 133 165 210 272 320 378
#     4  11  22  43  66  92 124 179 219 252 317 393
#     4  11  23  44  65  93 129 168 214 274 327 372
#     4  11  23  41  65  91 127 172 223 260 306 399
#
# _framework density 19.788067999999999
#
# number of rings (size 3 to 8) (size 9 to 14) (size 15 to 20)
#    0.000    1.067    1.333    6.000    1.867    3.200 
#    7.200    0.000    4.400    0.000    0.000    0.000 
#    0.000    0.000    0.000    0.000    0.000    0.000 
#
# Total GULP energy -167219.200811 kJ/mol
# GULP energy per Si atom -5573.973360 kJ/mol
# Density = 1.974303 g / cm^3
# Si number density = 19.788068 Si / 1000 Ang^3
#
#
#
# Elastic Constant Matrix: (Units=GPa)
#
#
# Indices 1 2 3 4 5 6 
#
# 1 68.9579 35.9402 3.4617 0.0000 0.0000 0.0000
# 2 35.9402 126.8478 27.3616 0.0000 0.0000 0.0000
# 3 3.4617 27.3616 65.4021 0.0000 0.0000 0.0000
# 4 0.0000 0.0000 0.0000 23.4976 0.0000 0.0000
# 5 0.0000 0.0000 0.0000 0.0000 21.8555 0.0000
# 6 0.0000 0.0000 0.0000 0.0000 0.0000 10.2144
#
#
#
# Elastic Compliance Matrix: (Units=1/GPa)
#
#
# Indices 1 2 3 4 5 6 
#
# 1 0.017104 -0.005112 0.001233 0.000000 0.000000 0.000000
# 2 -0.005112 0.010193 -0.003994 0.000000 0.000000 0.000000
# 3 0.001233 -0.003994 0.016896 0.000000 0.000000 0.000000
# 4 0.000000 0.000000 0.000000 0.042558 0.000000 0.000000
# 5 0.000000 0.000000 0.000000 0.000000 0.045755 0.000000
# 6 0.000000 0.000000 0.000000 0.000000 0.000000 0.097901
#
#
# Mechanical properties :
#
#
# Convention : Reuss Voigt Hill
#
# Bulk Modulus (GPa) = 35.15217 43.85942 39.50579
# Shear Modulus (GPa) = 19.55914 24.07646 21.81780
#
# Velocity S-wave (km/s) = 3.14734 3.49193 3.32410
# Velocity P-wave (km/s) = 5.56871 6.20248 5.89412
#
# Compressibility (1/GPa) = 0.02844775
#
# Stress axis : x y z
#
# Youngs Moduli (GPa) = 58.46550 98.10249 59.18685
#
# Poissons Ratio (x) = 0.50152 -0.07300
# Poissons Ratio (y) = 0.29889 0.23639
# Poissons Ratio (z) = -0.07211 0.39181
#
# Static dielectric constant tensor:
#      x y z
#    x 1.688330 0.000000 0.000000 
#    y 0.000000 1.684590 0.000000 
#    z 0.000000 0.000000 1.684110 
# 
# From -- ./inp_files/3798.got.cif
#   From: 2010.05.17/outbox.cif.g08.bks.cpg/sg39_2_cif.got.tgz:3798.got - 2010.06.03 18:22:40.
