data_PCOD9361053
_publ_section_title
;
Structure prediction by ZEFSAII (Michael W. Deem and Ramdas Pophale) SiO2 
 PCOD9361053
Probable space group: A B M 2
;
_chemical_formula_sum "Si O2"
_cell_formula_units_Z 48
_cell_length_a 11.082192
_cell_length_b 17.073555
_cell_length_c 10.835693
_cell_angle_alpha 90.000000
_cell_angle_beta 90.000000
_cell_angle_gamma 90.000000
_cell_volume 2050.247637
_symmetry_space_group_name_H-M "A B M 2"
_symmetry_group_IT_number 39
_symmetry_cell_setting 'orthorhombic'
loop_
_space_group_symop_operation_xyz
x,y,z
-x,-y,z
-x,1/2+y,z
x,1/2-y,z
x,1/2+y,1/2+z
-x,1/2-y,1/2+z
-x,y,1/2+z
x,-y,1/2+z
loop_
_atom_site_type_symbol
_atom_site_label
_atom_site_fract_x
_atom_site_fract_y
_atom_site_fract_z
Si Si1 0.713466 0.924275 0.647750
Si Si2 0.849155 0.335981 0.343869
Si Si3 0.890016 0.959132 0.016859
Si Si4 0.627311 0.908152 0.228447
Si Si5 0.107240 0.340902 0.230599
Si Si6 0.495975 0.594237 0.976565
O O1 0.776134 0.855141 0.721878
O O2 0.627633 0.887310 0.546664
O O3 0.816528 0.973592 0.581034
O O4 0.645138 0.996396 0.720448
O O5 0.821344 0.250000 0.391603
O O6 0.809914 0.407938 0.427744
O O7 0.994020 0.342319 0.324612
O O8 0.933110 0.897504 0.119337
O O9 0.000000 0.000000 0.948049
O O10 0.759398 0.873304 0.263557
O O11 0.528925 0.882252 0.332912
O O12 0.591031 0.883399 0.087108
O O13 0.119096 0.250000 0.193763
O O14 0.500000 0.500000 0.971566
#
# Coordination Sequence:
#
# PCOD9361053 Si02
#       6
#     8   8   8   8   8   8
#     4  10  21  38  64  94 128 170 224 275 329 403
#     4  11  24  40  61  95 138 175 212 268 336 404
#     4  11  22  35  63  92 127 172 222 263 320 401
#     4  10  22  38  66  93 128 172 230 286 340 397
#     4  10  23  42  60  90 134 175 213 271 340 401
#     4  10  20  38  62  95 127 166 224 294 341 386
#
# _framework density 23.411805999999999
#
# number of rings (size 3 to 8) (size 9 to 14) (size 15 to 20)
#    0.000    1.667    1.667    3.000    7.000    2.667 
#    0.000    2.500    0.000    0.000    0.000    4.667 
#    0.000    0.000    0.000    0.000    0.000    0.000 
#
# Total GULP energy -133760.384128 kJ/mol
# GULP energy per Si atom -5573.349339 kJ/mol
# Density = 2.335852 g / cm^3
# Si number density = 23.411806 Si / 1000 Ang^3
#
#
#
# Elastic Constant Matrix: (Units=GPa)
#
#
# Indices 1 2 3 4 5 6 
#
# 1 65.5655 21.8174 41.5260 0.0000 0.0000 0.0000
# 2 21.8174 42.4349 -0.6159 0.0000 0.0000 0.0000
# 3 41.5260 -0.6159 80.8165 0.0000 0.0000 0.0000
# 4 0.0000 0.0000 0.0000 22.6822 0.0000 0.0000
# 5 0.0000 0.0000 0.0000 0.0000 28.1920 0.0000
# 6 0.0000 0.0000 0.0000 0.0000 0.0000 31.8548
#
#
#
# Elastic Compliance Matrix: (Units=1/GPa)
#
#
# Indices 1 2 3 4 5 6 
#
# 1 0.030598 -0.015962 -0.015844 0.000000 0.000000 0.000000
# 2 -0.015962 0.031894 0.008445 0.000000 0.000000 0.000000
# 3 -0.015844 0.008445 0.020579 0.000000 0.000000 0.000000
# 4 0.000000 0.000000 0.000000 0.044087 0.000000 0.000000
# 5 0.000000 0.000000 0.000000 0.000000 0.035471 0.000000
# 6 0.000000 0.000000 0.000000 0.000000 0.000000 0.031392
#
#
# Mechanical properties :
#
#
# Convention : Reuss Voigt Hill
#
# Bulk Modulus (GPa) = 27.51028 34.91910 31.21469
# Shear Modulus (GPa) = 19.77375 24.95176 22.36276
#
# Velocity S-wave (km/s) = 2.90936 3.26817 3.09397
# Velocity P-wave (km/s) = 4.80229 5.40266 5.11130
#
# Compressibility (1/GPa) = 0.03635005
#
# Stress axis : x y z
#
# Youngs Moduli (GPa) = 32.68195 31.35339 48.59298
#
# Poissons Ratio (x) = 0.50045 0.76990
# Poissons Ratio (y) = 0.52165 -0.41035
# Poissons Ratio (z) = 0.51781 -0.26477
#
# Static dielectric constant tensor:
#      x y z
#    x 1.966350 0.000000 0.000000 
#    y 0.000000 1.832730 0.000000 
#    z 0.000000 0.000000 2.011210 
# 
# From -- ./inp_files/5811.got.cif
#   From: 2010.05.17/outbox.cif.g08.bks.cpg/sg39_3_cif.got.tgz:5811.got - 2010.06.03 18:22:40.
