data_PCOD9361393
_publ_section_title
;
Structure prediction by ZEFSAII (Michael W. Deem and Ramdas Pophale) SiO2 
 PCOD9361393
Probable space group: A B M 2
;
_chemical_formula_sum "Si O2"
_cell_formula_units_Z 48
_cell_length_a 14.405332
_cell_length_b 8.667126
_cell_length_c 21.017593
_cell_angle_alpha 90.000000
_cell_angle_beta 90.000000
_cell_angle_gamma 90.000000
_cell_volume 2624.105914
_symmetry_space_group_name_H-M "A B M 2"
_symmetry_group_IT_number 39
_symmetry_cell_setting 'orthorhombic'
loop_
_space_group_symop_operation_xyz
x,y,z
-x,-y,z
-x,1/2+y,z
x,1/2-y,z
x,1/2+y,1/2+z
-x,1/2-y,1/2+z
-x,y,1/2+z
x,-y,1/2+z
loop_
_atom_site_type_symbol
_atom_site_label
_atom_site_fract_x
_atom_site_fract_y
_atom_site_fract_z
Si Si1 0.785318 0.564864 0.720040
Si Si2 0.600464 0.065703 0.770739
Si Si3 0.104120 0.563818 0.093088
Si Si4 0.896500 0.934899 0.340321
Si Si5 0.217902 0.435588 0.468091
Si Si6 0.400091 0.933870 0.412786
O O1 0.777957 0.750000 0.721023
O O2 0.683228 0.492962 0.726363
O O3 0.840371 0.517672 0.656577
O O4 0.842729 0.508255 0.781111
O O5 0.598094 0.250000 0.772741
O O6 0.500000 0.000000 0.751864
O O7 0.618935 0.003651 0.842421
O O8 0.098648 0.750000 0.092440
O O9 0.000000 0.500000 0.092673
O O10 0.161847 0.515792 0.030731
O O11 0.898179 0.750000 0.332962
O O12 0.842982 0.971489 0.405634
O O13 0.000000 0.000000 0.342890
O O14 0.230837 0.250000 0.470337
O O15 0.317229 0.514368 0.458548
O O16 0.404799 0.750000 0.407475
O O17 0.500000 0.000000 0.432906
#
# Coordination Sequence:
#
# PCOD9361393 Si02
#       6
#     8   8   8   8   8   8
#     4  11  22  38  59  86 118 153 198 243 293 348
#     4  11  21  36  59  88 120 154 192 239 295 351
#     4  10  23  41  61  84 117 160 199 242 291 349
#     4  11  22  35  56  83 114 149 192 245 296 346
#     4  10  21  39  59  84 117 154 197 241 292 345
#     4  11  21  35  59  89 120 154 192 238 293 349
#
# _framework density 18.291944000000001
#
# number of rings (size 3 to 8) (size 9 to 14) (size 15 to 20)
#    0.000    1.333    1.667    6.000    0.000    4.000 
#    0.000    0.833    0.000    0.000    0.000    0.000 
#    0.000    0.000    0.000    0.000    0.000    0.000 
#
# Total GULP energy -134173.970694 kJ/mol
# GULP energy per Si atom -5590.582112 kJ/mol
# Density = 1.825031 g / cm^3
# Si number density = 18.291944 Si / 1000 Ang^3
#
#
#
# Elastic Constant Matrix: (Units=GPa)
#
#
# Indices 1 2 3 4 5 6 
#
# 1 194.6181 68.2863 95.0987 0.0000 0.0000 0.0000
# 2 68.2863 90.8990 59.5240 0.0000 0.0000 0.0000
# 3 95.0987 59.5240 140.9471 0.0000 0.0000 0.0000
# 4 0.0000 0.0000 0.0000 21.4772 0.0000 0.0000
# 5 0.0000 0.0000 0.0000 0.0000 32.4588 0.0000
# 6 0.0000 0.0000 0.0000 0.0000 0.0000 38.2544
#
#
#
# Elastic Compliance Matrix: (Units=1/GPa)
#
#
# Indices 1 2 3 4 5 6 
#
# 1 0.008444 -0.003611 -0.004172 0.000000 0.000000 0.000000
# 2 -0.003611 0.016751 -0.004638 0.000000 0.000000 0.000000
# 3 -0.004172 -0.004638 0.011868 0.000000 0.000000 0.000000
# 4 0.000000 0.000000 0.000000 0.046561 0.000000 0.000000
# 5 0.000000 0.000000 0.000000 0.000000 0.030808 0.000000
# 6 0.000000 0.000000 0.000000 0.000000 0.000000 0.026141
#
#
# Mechanical properties :
#
#
# Convention : Reuss Voigt Hill
#
# Bulk Modulus (GPa) = 81.82461 96.92026 89.37243
# Shear Modulus (GPa) = 29.50030 32.00843 30.75436
#
# Velocity S-wave (km/s) = 4.02026 4.18768 4.10482
# Velocity P-wave (km/s) = 8.14737 8.74542 8.45169
#
# Compressibility (1/GPa) = 0.01222126
#
# Stress axis : x y z
#
# Youngs Moduli (GPa) = 118.42549 59.69772 84.25720
#
# Poissons Ratio (x) = 0.21559 0.35154
# Poissons Ratio (y) = 0.42768 0.39075
# Poissons Ratio (z) = 0.49410 0.27685
#
# Static dielectric constant tensor:
#      x y z
#    x 1.642050 0.000000 0.000000 
#    y 0.000000 1.616380 0.000000 
#    z 0.000000 0.000000 1.610450 
# 
# From -- ./inp_files/12656.got.cif
#   From: 2010.05.17/outbox.cif.g08.bks.cpg/sg39_7_cif.got.tgz:12656.got - 2010.06.03 18:22:40.
