data_PCOD9361736
_publ_section_title
;
Structure prediction by ZEFSAII (Michael W. Deem and Ramdas Pophale) SiO2 
 PCOD9361736
Probable space group: A B M 2
;
_chemical_formula_sum "Si O2"
_cell_formula_units_Z 52
_cell_length_a 10.564437
_cell_length_b 22.949480
_cell_length_c 8.905928
_cell_angle_alpha 90.000000
_cell_angle_beta 90.000000
_cell_angle_gamma 90.000000
_cell_volume 2159.227421
_symmetry_space_group_name_H-M "A B M 2"
_symmetry_group_IT_number 39
_symmetry_cell_setting 'orthorhombic'
loop_
_space_group_symop_operation_xyz
x,y,z
-x,-y,z
-x,1/2+y,z
x,1/2-y,z
x,1/2+y,1/2+z
-x,1/2-y,1/2+z
-x,y,1/2+z
x,-y,1/2+z
loop_
_atom_site_type_symbol
_atom_site_label
_atom_site_fract_x
_atom_site_fract_y
_atom_site_fract_z
Si Si1 0.235949 0.250000 0.419631
Si Si2 0.227993 0.544818 0.544500
Si Si3 0.575885 0.053261 0.788375
Si Si4 0.051155 0.250000 0.017943
Si Si5 0.185520 0.917814 0.994113
Si Si6 0.669162 0.121439 0.274390
Si Si7 0.721369 0.750000 0.778177
Si Si8 0.862242 0.652038 0.242004
O O1 0.283708 0.250000 0.592627
O O2 0.251043 0.307228 0.314085
O O3 0.085489 0.250000 0.446290
O O4 0.347902 0.527808 0.647319
O O5 0.151017 0.485228 0.521429
O O6 0.276475 0.576697 0.396577
O O7 0.165397 0.596226 0.639434
O O8 0.682954 0.076124 0.900086
O O9 0.472245 0.100037 0.736994
O O10 0.500000 0.000000 0.858668
O O11 0.148845 0.250000 0.877416
O O12 0.067645 0.304413 0.130557
O O13 0.088759 0.880651 0.892792
O O14 0.228177 0.883640 0.141380
O O15 0.661116 0.188400 0.324735
#
# Coordination Sequence:
#
# PCOD9361736 Si02
#       8
#     4   8   8   4   8   8   4   8
#     4  11  23  45  74  94 113 155 210 268 322 400
#     4  11  21  37  63  92 129 171 213 264 307 369
#     4  11  21  35  58  90 125 173 232 263 295 352
#     4  11  23  45  74  94 113 155 210 268 322 400
#     4  11  21  37  63  92 129 171 213 264 307 369
#     4  12  22  36  57  90 128 170 220 262 313 372
#     4  12  24  42  62  92 126 160 206 262 336 392
#     4  10  22  41  65  99 126 154 205 266 320 376
#
# _framework density 24.082688000000001
#
# number of rings (size 3 to 8) (size 9 to 14) (size 15 to 20)
#    0.000    0.923    6.154    2.769    0.000    0.000 
#    0.000    9.231    0.000    2.769    0.000    0.000 
#    0.000    0.000    0.000    0.000    0.000    0.000 
#
# Total GULP energy -145096.106530 kJ/mol
# GULP energy per Si atom -5580.619482 kJ/mol
# Density = 2.402787 g / cm^3
# Si number density = 24.082688 Si / 1000 Ang^3
#
#
#
# Elastic Constant Matrix: (Units=GPa)
#
#
# Indices 1 2 3 4 5 6 
#
# 1 35.2605 13.8861 2.1280 0.0000 0.0000 0.0000
# 2 13.8861 190.0786 10.4812 0.0000 0.0000 0.0000
# 3 2.1280 10.4812 100.2226 0.0000 0.0000 0.0000
# 4 0.0000 0.0000 0.0000 48.5069 0.0000 0.0000
# 5 0.0000 0.0000 0.0000 0.0000 29.1894 0.0000
# 6 0.0000 0.0000 0.0000 0.0000 0.0000 9.0220
#
#
#
# Elastic Compliance Matrix: (Units=1/GPa)
#
#
# Indices 1 2 3 4 5 6 
#
# 1 0.029216 -0.002112 -0.000399 0.000000 0.000000 0.000000
# 2 -0.002112 0.005444 -0.000525 0.000000 0.000000 0.000000
# 3 -0.000399 -0.000525 0.010041 0.000000 0.000000 0.000000
# 4 0.000000 0.000000 0.000000 0.020616 0.000000 0.000000
# 5 0.000000 0.000000 0.000000 0.000000 0.034259 0.000000
# 6 0.000000 0.000000 0.000000 0.000000 0.000000 0.110840
#
#
# Mechanical properties :
#
#
# Convention : Reuss Voigt Hill
#
# Bulk Modulus (GPa) = 25.88724 42.06138 33.97431
# Shear Modulus (GPa) = 21.79925 37.28143 29.54034
#
# Velocity S-wave (km/s) = 3.01189 3.93881 3.50612
# Velocity P-wave (km/s) = 4.78205 6.17972 5.52525
#
# Compressibility (1/GPa) = 0.03862908
#
# Stress axis : x y z
#
# Youngs Moduli (GPa) = 34.22744 183.68103 99.59045
#
# Poissons Ratio (x) = 0.38800 0.03978
# Poissons Ratio (y) = 0.07230 0.05224
# Poissons Ratio (z) = 0.01367 0.09634
#
# Static dielectric constant tensor:
#      x y z
#    x 1.948370 0.000000 0.000000 
#    y 0.000000 2.000580 0.000000 
#    z 0.000000 0.000000 1.983560 
# 
# From -- ./inp_files/3471.got.cif
#   From: 2010.05.17/outbox.cif.g08.bks.cpg/sg39_2_cif.got.tgz:3471.got - 2010.06.03 18:22:40.
