data_PCOD9361873
_publ_section_title
;
Structure prediction by ZEFSAII (Michael W. Deem and Ramdas Pophale) SiO2 
 PCOD9361873
Probable space group: A B M 2
;
_chemical_formula_sum "Si O2"
_cell_formula_units_Z 40
_cell_length_a 10.758123
_cell_length_b 26.035118
_cell_length_c 5.152855
_cell_angle_alpha 90.000000
_cell_angle_beta 90.000000
_cell_angle_gamma 90.000000
_cell_volume 1443.258013
_symmetry_space_group_name_H-M "A B M 2"
_symmetry_group_IT_number 39
_symmetry_cell_setting 'orthorhombic'
loop_
_space_group_symop_operation_xyz
x,y,z
-x,-y,z
-x,1/2+y,z
x,1/2-y,z
x,1/2+y,1/2+z
-x,1/2-y,1/2+z
-x,y,1/2+z
x,-y,1/2+z
loop_
_atom_site_type_symbol
_atom_site_label
_atom_site_fract_x
_atom_site_fract_y
_atom_site_fract_z
Si Si1 0.918776 0.810533 0.682420
Si Si2 0.638511 0.977489 0.626165
Si Si3 0.951888 0.558633 0.077916
Si Si4 0.738381 0.382365 0.873510
Si Si5 0.417055 0.192454 0.045390
O O1 0.888932 0.750000 0.666554
O O2 0.804128 0.841767 0.562592
O O3 0.031726 0.819747 0.475047
O O4 0.643737 0.919758 0.526885
O O5 0.500000 0.000000 0.666356
O O6 0.699354 0.012831 0.403688
O O7 0.836656 0.578453 0.244894
O O8 0.000000 0.500000 0.038982
O O9 0.056286 0.578465 0.283892
O O10 0.674708 0.351344 0.641021
O O11 0.362633 0.250000 0.076026
O O12 0.471226 0.188656 0.756911
#
# Coordination Sequence:
#
# PCOD9361873 Si02
#       5
#     8   8   8   8   8
#     4  10  23  44  69 103 137 167 219 278 332 402
#     4  10  26  44  62  93 132 173 226 282 317 383
#     4  10  24  42  60  91 130 169 220 273 315 377
#     4  12  25  42  76  92 136 182 225 260 348 391
#     4  10  25  46  69 103 137 167 219 279 330 399
#
# _framework density 27.715073
#
# number of rings (size 3 to 8) (size 9 to 14) (size 15 to 20)
#    0.000    1.600    0.000    1.800   11.200    4.800 
#    0.000    6.000    0.000    0.000    0.000    0.000 
#    0.000    0.000    0.000    0.000    0.000    0.000 
#
# Total GULP energy -112019.743081 kJ/mol
# GULP energy per Si atom -5600.987154 kJ/mol
# Density = 2.765199 g / cm^3
# Si number density = 27.715073 Si / 1000 Ang^3
#
#
#
# Elastic Constant Matrix: (Units=GPa)
#
#
# Indices 1 2 3 4 5 6 
#
# 1 84.6866 44.6425 5.3934 0.0000 0.0001 0.0000
# 2 44.6425 120.8384 2.0387 0.0000 0.0000 0.0000
# 3 5.3934 2.0387 183.9260 0.0000 0.0000 0.0000
# 4 0.0000 0.0000 0.0000 31.4043 0.0000 0.0000
# 5 0.0001 0.0000 0.0000 0.0000 488.7887 0.0000
# 6 0.0000 0.0000 0.0000 0.0000 0.0000 59.3892
#
#
#
# Elastic Compliance Matrix: (Units=1/GPa)
#
#
# Indices 1 2 3 4 5 6 
#
# 1 0.014689 -0.005421 -0.000371 0.000000 0.000000 0.000000
# 2 -0.005421 0.010277 0.000045 0.000000 0.000000 0.000000
# 3 -0.000371 0.000045 0.005447 0.000000 0.000000 0.000000
# 4 0.000000 0.000000 0.000000 0.031843 0.000000 0.000000
# 5 0.000000 0.000000 0.000000 0.000000 0.002046 0.000000
# 6 0.000000 0.000000 0.000000 0.000000 0.000000 0.016838
#
#
# Mechanical properties :
#
#
# Convention : Reuss Voigt Hill
#
# Bulk Modulus (GPa) = 52.84968 54.84446 53.84707
# Shear Modulus (GPa) = 50.53554 138.40819 94.47186
#
# Velocity S-wave (km/s) = 4.27476 7.07447 5.84473
# Velocity P-wave (km/s) = 6.59356 9.30389 8.06342
#
# Compressibility (1/GPa) = 0.01892159
#
# Stress axis : x y z
#
# Youngs Moduli (GPa) = 68.07683 97.30161 183.57584
#
# Poissons Ratio (x) = 0.52743 0.06804
# Poissons Ratio (y) = 0.36901 -0.00827
# Poissons Ratio (z) = 0.02523 -0.00438
#
# Static dielectric constant tensor:
#      x y z
#    x -53.722900 0.000000 0.000000 
#    y 0.000000 2.219740 0.000000 
#    z 0.000000 0.000000 2.180080 
# 
# From -- ./inp_files/335.got.cif
#   From: 2010.05.17/outbox.cif.g08.bks.cpg/sg39_1_cif.got.tgz:335.got - 2010.06.03 18:22:40.
