data_PCOD9361835
_publ_section_title
;
Structure prediction by ZEFSAII (Michael W. Deem and Ramdas Pophale) SiO2 
 PCOD9361835
Probable space group: A B M 2
;
_chemical_formula_sum "Si O2"
_cell_formula_units_Z 56
_cell_length_a 14.276056
_cell_length_b 15.182672
_cell_length_c 10.222977
_cell_angle_alpha 90.000000
_cell_angle_beta 90.000000
_cell_angle_gamma 90.000000
_cell_volume 2215.816726
_symmetry_space_group_name_H-M "A B M 2"
_symmetry_group_IT_number 39
_symmetry_cell_setting 'orthorhombic'
loop_
_space_group_symop_operation_xyz
x,y,z
-x,-y,z
-x,1/2+y,z
x,1/2-y,z
x,1/2+y,1/2+z
-x,1/2-y,1/2+z
-x,y,1/2+z
x,-y,1/2+z
loop_
_atom_site_type_symbol
_atom_site_label
_atom_site_fract_x
_atom_site_fract_y
_atom_site_fract_z
Si Si1 0.329968 0.498183 0.073100
Si Si2 0.303247 0.349553 0.396595
Si Si3 0.045436 0.094985 0.782806
Si Si4 0.904935 0.348174 0.994027
Si Si5 0.434688 0.654282 0.665152
Si Si6 0.362972 0.152454 0.767041
Si Si7 0.786936 0.352012 0.474009
O O1 0.418511 0.434515 0.088903
O O2 0.322112 0.569438 0.189404
O O3 0.352061 0.564833 0.955057
O O4 0.234574 0.438514 0.062664
O O5 0.324690 0.250000 0.444590
O O6 0.196331 0.370252 0.434255
O O7 0.338962 0.343836 0.249256
O O8 0.058937 0.103197 0.625595
O O9 0.140534 0.118184 0.861384
O O10 0.000000 0.000000 0.807284
O O11 0.972263 0.152189 0.868001
O O12 0.896221 0.250000 0.047459
O O13 0.445480 0.750000 0.598766
O O14 0.525351 0.646589 0.757462
O O15 0.337334 0.250000 0.713753
O O16 0.314336 0.153075 0.906096
O O17 0.809982 0.250000 0.519292
#
# Coordination Sequence:
#
# PCOD9361835 Si02
#       7
#     8   8   8   8   8   8   8
#     4  12  22  37  64  96 126 170 232 297 357 418
#     4  10  23  42  65  95 138 190 238 291 361 440
#     4  12  26  46  71 104 141 185 240 302 370 447
#     4  11  24  44  70 102 141 187 239 300 371 445
#     4  10  23  42  62  93 137 184 237 294 356 429
#     4  10  23  42  64  94 138 187 233 288 358 433
#     4  11  25  45  68  98 139 183 229 288 358 434
#
# _framework density 25.272849000000001
#
# number of rings (size 3 to 8) (size 9 to 14) (size 15 to 20)
#    0.000    1.143    0.000    5.571    0.000    8.000 
#    0.000    5.714    0.000    0.000    0.000    0.000 
#    0.000    0.000    0.000    0.000    0.000    0.000 
#
# Total GULP energy -156087.343658 kJ/mol
# GULP energy per Si atom -5574.547988 kJ/mol
# Density = 2.521533 g / cm^3
# Si number density = 25.272849 Si / 1000 Ang^3
#
#
#
# Elastic Constant Matrix: (Units=GPa)
#
#
# Indices 1 2 3 4 5 6 
#
# 1 83.1979 65.3867 30.8832 0.0000 0.0000 0.0000
# 2 65.3867 186.8088 31.7510 0.0000 0.0000 0.0000
# 3 30.8832 31.7510 45.1418 0.0000 0.0000 0.0000
# 4 0.0000 0.0000 0.0000 138.9914 0.0000 0.0000
# 5 0.0000 0.0000 0.0000 0.0000 36.2993 0.0000
# 6 0.0000 0.0000 0.0000 0.0000 0.0000 -86.4008
#
#
#
# Elastic Compliance Matrix: (Units=1/GPa)
#
#
# Indices 1 2 3 4 5 6 
#
# 1 0.019811 -0.005259 -0.009854 0.000000 0.000000 0.000000
# 2 -0.005259 0.007476 -0.001660 0.000000 0.000000 0.000000
# 3 -0.009854 -0.001660 0.030062 0.000000 0.000000 0.000000
# 4 0.000000 0.000000 0.000000 0.007195 0.000000 0.000000
# 5 0.000000 0.000000 0.000000 0.000000 0.027549 0.000000
# 6 0.000000 0.000000 0.000000 0.000000 0.000000 -0.011574
#
#
# Mechanical properties :
#
#
# Convention : Reuss Voigt Hill
#
# Bulk Modulus (GPa) = 42.01468 63.46560 52.74014
# Shear Modulus (GPa) = 40.98388 30.25314 35.61851
#
# Velocity S-wave (km/s) = 4.03135 3.46361 3.75822
# Velocity P-wave (km/s) = 6.19109 6.41577 6.30443
#
# Compressibility (1/GPa) = 0.02380121
#
# Stress axis : x y z
#
# Youngs Moduli (GPa) = 50.47764 133.75909 33.26489
#
# Poissons Ratio (x) = 0.70348 0.32779
# Poissons Ratio (y) = 0.26548 0.05523
# Poissons Ratio (z) = 0.49741 0.22209
#
# Static dielectric constant tensor:
#      x y z
#    x 2.034090 0.000000 0.000000 
#    y 0.000000 1.251410 0.000000 
#    z 0.000000 0.000000 2.139470 
# 
# From -- ./inp_files/6482.got.cif
#   From: 2010.05.17/outbox.cif.g08.bks.cpg/sg39_4_cif.got.tgz:6482.got - 2010.06.03 18:22:40.
