data_PCOD9361073
_publ_section_title
;
Structure prediction by ZEFSAII (Michael W. Deem and Ramdas Pophale) SiO2 
 PCOD9361073
Probable space group: A B M 2
;
_chemical_formula_sum "Si O2"
_cell_formula_units_Z 52
_cell_length_a 5.196212
_cell_length_b 14.557219
_cell_length_c 30.282730
_cell_angle_alpha 90.000000
_cell_angle_beta 90.000000
_cell_angle_gamma 90.000000
_cell_volume 2290.658256
_symmetry_space_group_name_H-M "A B M 2"
_symmetry_group_IT_number 39
_symmetry_cell_setting 'orthorhombic'
loop_
_space_group_symop_operation_xyz
x,y,z
-x,-y,z
-x,1/2+y,z
x,1/2-y,z
x,1/2+y,1/2+z
-x,1/2-y,1/2+z
-x,y,1/2+z
x,-y,1/2+z
loop_
_atom_site_type_symbol
_atom_site_label
_atom_site_fract_x
_atom_site_fract_y
_atom_site_fract_z
Si Si1 0.860979 0.861905 0.836730
Si Si2 0.359281 0.641096 0.789251
Si Si3 0.941192 0.891155 0.008941
Si Si4 0.586858 0.102710 0.427679
Si Si5 0.250331 0.065390 0.099274
Si Si6 0.749537 0.564293 0.195528
Si Si7 0.728851 0.250000 0.964790
O O1 0.869140 0.750000 0.837295
O O2 0.644258 0.892811 0.801230
O O3 0.755568 0.892261 0.883916
O O4 0.140434 0.896275 0.822147
O O5 0.368842 0.750000 0.796070
O O6 0.272981 0.623954 0.739293
O O7 0.800529 0.875925 0.055496
O O8 0.191630 0.830794 0.000716
O O9 0.757337 0.861167 0.968673
O O10 0.000000 0.000000 0.004892
O O11 0.345916 0.170238 0.428016
O O12 0.500000 0.000000 0.436226
O O13 0.258198 0.112533 0.147348
O O14 0.500000 0.000000 0.093364
O O15 0.000000 0.000000 0.101441
O O16 0.500000 0.500000 0.195463
O O17 0.000000 0.500000 0.198335
#
# Coordination Sequence:
#
# PCOD9361073 Si02
#       7
#     8   8   8   8   8   8   4
#     4  10  23  39  63  88 129 174 216 273 337 398
#     4  10  22  40  62  91 127 167 211 271 335 393
#     4  11  24  43  69  95 136 182 229 282 350 417
#     4  12  25  42  68  97 134 180 232 284 350 420
#     4   9  20  39  67  94 128 174 220 273 339 408
#     4  10  20  38  65  93 126 169 215 271 332 397
#     4  12  26  44  68  98 136 178 230 292 346 418
#
# _framework density 22.700900000000001
#
# number of rings (size 3 to 8) (size 9 to 14) (size 15 to 20)
#    0.000    1.538    2.308    1.846    4.308    1.846 
#    1.385    0.000    0.000    0.000    0.000    0.000 
#    0.000    0.000    0.000    0.000    0.000    0.000 
#
# Total GULP energy -144862.956096 kJ/mol
# GULP energy per Si atom -5571.652158 kJ/mol
# Density = 2.264923 g / cm^3
# Si number density = 22.700900 Si / 1000 Ang^3
#
#
#
# Elastic Constant Matrix: (Units=GPa)
#
#
# Indices 1 2 3 4 5 6 
#
# 1 100.1871 9.7897 11.9972 0.0000 0.0000 0.0000
# 2 9.7897 92.6889 -1.2974 0.0000 0.0000 0.0000
# 3 11.9972 -1.2974 137.8808 0.0000 0.0000 0.0000
# 4 0.0000 0.0000 0.0000 -0.3891 0.0000 0.0000
# 5 0.0000 0.0000 0.0000 0.0000 40.6775 0.0000
# 6 0.0000 0.0000 0.0000 0.0000 0.0000 -56.3949
#
#
#
# Elastic Compliance Matrix: (Units=1/GPa)
#
#
# Indices 1 2 3 4 5 6 
#
# 1 0.010195 -0.001089 -0.000897 0.000000 0.000000 0.000000
# 2 -0.001089 0.010907 0.000197 0.000000 0.000000 0.000000
# 3 -0.000897 0.000197 0.007333 0.000000 0.000000 0.000000
# 4 0.000000 0.000000 0.000000 -2.570353 0.000000 0.000000
# 5 0.000000 0.000000 0.000000 0.000000 0.024584 0.000000
# 6 0.000000 0.000000 0.000000 0.000000 0.000000 -0.017732
#
#
# Mechanical properties :
#
#
# Convention : Reuss Voigt Hill
#
# Bulk Modulus (GPa) = 40.23208 41.30399 40.76803
# Shear Modulus (GPa) = -1.98161 17.46321 7.74080
#
# Velocity S-wave (km/s) = -0.93532 2.77659 1.84860
# Velocity P-wave (km/s) = 4.07366 5.33981 4.74912
#
# Compressibility (1/GPa) = 0.02485579
#
# Stress axis : x y z
#
# Youngs Moduli (GPa) = 98.08514 91.68762 136.37767
#
# Poissons Ratio (x) = 0.09988 0.12238
# Poissons Ratio (y) = 0.10685 -0.02692
# Poissons Ratio (z) = 0.08802 -0.01810
#
# Static dielectric constant tensor:
#      x y z
#    x 1.991300 0.000000 0.000000 
#    y 0.000000 1.812570 0.000000 
#    z 0.000000 0.000000 1.872330 
# 
# From -- ./inp_files/16557.got.cif
#   From: 2010.05.17/outbox.cif.g08.bks.cpg/sg39_9_cif.got.tgz:16557.got - 2010.06.03 18:22:40.
