data_PCOD9361110
_publ_section_title
;
Structure prediction by ZEFSAII (Michael W. Deem and Ramdas Pophale) SiO2 
 PCOD9361110
Probable space group: A B M 2
;
_chemical_formula_sum "Si O2"
_cell_formula_units_Z 56
_cell_length_a 5.455558
_cell_length_b 31.002448
_cell_length_c 15.565652
_cell_angle_alpha 90.000000
_cell_angle_beta 90.000000
_cell_angle_gamma 90.000000
_cell_volume 2632.706719
_symmetry_space_group_name_H-M "A B M 2"
_symmetry_group_IT_number 39
_symmetry_cell_setting 'orthorhombic'
loop_
_space_group_symop_operation_xyz
x,y,z
-x,-y,z
-x,1/2+y,z
x,1/2-y,z
x,1/2+y,1/2+z
-x,1/2-y,1/2+z
-x,y,1/2+z
x,-y,1/2+z
loop_
_atom_site_type_symbol
_atom_site_label
_atom_site_fract_x
_atom_site_fract_y
_atom_site_fract_z
Si Si1 0.006333 0.159602 0.167060
Si Si2 0.252776 0.108418 0.530549
Si Si3 0.484901 0.371467 0.868807
Si Si4 0.487076 0.800502 0.225911
Si Si5 0.876076 0.575938 0.261975
Si Si6 0.109463 0.560478 0.425762
Si Si7 0.370197 0.956076 0.595951
O O1 0.269622 0.182140 0.176665
O O2 0.995142 0.121410 0.238141
O O3 0.957341 0.133899 0.079656
O O4 0.770195 0.190037 0.178317
O O5 0.365002 0.137408 0.455783
O O6 0.453408 0.086275 0.592177
O O7 0.136199 0.068694 0.479069
O O8 0.467752 0.329101 0.811973
O O9 0.628528 0.407563 0.810666
O O10 0.243011 0.394237 0.905176
O O11 0.514893 0.750000 0.242078
O O12 0.823728 0.553638 0.171131
O O13 0.029776 0.547779 0.329943
O O14 0.274151 0.537846 0.497857
O O15 0.500000 0.000000 0.621390
#
# Coordination Sequence:
#
# PCOD9361110 Si02
#       7
#     8   8   8   8   8   8   8
#     4  11  21  40  70  92 129 179 238 274 335 440
#     4  10  21  39  67  91 123 182 234 280 341 428
#     4   9  20  37  65  93 125 175 230 274 341 429
#     4  11  23  40  64 100 139 174 226 300 357 402
#     4  10  20  39  67  93 124 183 236 270 339 433
#     4  10  20  40  66  93 124 175 238 287 340 421
#     4  11  24  41  64  99 142 177 231 306 361 400
#
# _framework density 21.270883000000001
#
# number of rings (size 3 to 8) (size 9 to 14) (size 15 to 20)
#    0.000    1.714    2.857    2.143    2.000    0.571 
#    0.000    9.286    6.286    0.000    0.000    0.000 
#    0.000    0.000    0.000    0.000    0.000    0.000 
#
# Total GULP energy -156114.015617 kJ/mol
# GULP energy per Si atom -5575.500558 kJ/mol
# Density = 2.122247 g / cm^3
# Si number density = 21.270883 Si / 1000 Ang^3
#
#
#
# Elastic Constant Matrix: (Units=GPa)
#
#
# Indices 1 2 3 4 5 6 
#
# 1 90.4761 30.9674 41.7573 0.0000 0.0000 0.0000
# 2 30.9674 99.8088 36.2684 0.0000 0.0000 0.0000
# 3 41.7573 36.2684 106.8207 0.0000 0.0000 0.0000
# 4 0.0000 0.0000 0.0000 -4.1464 0.0000 0.0000
# 5 0.0000 0.0000 0.0000 0.0000 41.2371 0.0000
# 6 0.0000 0.0000 0.0000 0.0000 0.0000 18.4737
#
#
#
# Elastic Compliance Matrix: (Units=1/GPa)
#
#
# Indices 1 2 3 4 5 6 
#
# 1 0.014098 -0.002705 -0.004593 0.000000 0.000000 0.000000
# 2 -0.002705 0.011948 -0.002999 0.000000 0.000000 0.000000
# 3 -0.004593 -0.002999 0.012175 0.000000 0.000000 0.000000
# 4 0.000000 0.000000 0.000000 -0.241175 0.000000 0.000000
# 5 0.000000 0.000000 0.000000 0.000000 0.024250 0.000000
# 6 0.000000 0.000000 0.000000 0.000000 0.000000 0.054131
#
#
# Mechanical properties :
#
#
# Convention : Reuss Voigt Hill
#
# Bulk Modulus (GPa) = 56.73011 57.23241 56.98126
# Shear Modulus (GPa) = -50.96748 23.65371 -13.65688
#
# Velocity S-wave (km/s) = -4.90032 3.33832 -2.53661
# Velocity P-wave (km/s) = 2.29986 6.46715 4.27403
#
# Compressibility (1/GPa) = 0.01762732
#
# Stress axis : x y z
#
# Youngs Moduli (GPa) = 70.93094 83.69318 82.13491
#
# Poissons Ratio (x) = 0.22642 0.37721
# Poissons Ratio (y) = 0.19189 0.24634
# Poissons Ratio (z) = 0.32576 0.25102
#
# Static dielectric constant tensor:
#      x y z
#    x 1.847100 0.000000 0.000000 
#    y 0.000000 1.837690 0.000000 
#    z 0.000000 0.000000 1.800640 
# 
# From -- ./inp_files/7654.got.cif
#   From: 2010.05.17/outbox.cif.g08.bks.cpg/sg39_4_cif.got.tgz:7654.got - 2010.06.03 18:22:40.
