data_PCOD9361285
_publ_section_title
;
Structure prediction by ZEFSAII (Michael W. Deem and Ramdas Pophale) SiO2 
 PCOD9361285
Probable space group: A B M 2
;
_chemical_formula_sum "Si O2"
_cell_formula_units_Z 48
_cell_length_a 20.625328
_cell_length_b 18.990968
_cell_length_c 5.332853
_cell_angle_alpha 90.000000
_cell_angle_beta 90.000000
_cell_angle_gamma 90.000000
_cell_volume 2088.851557
_symmetry_space_group_name_H-M "A B M 2"
_symmetry_group_IT_number 39
_symmetry_cell_setting 'orthorhombic'
loop_
_space_group_symop_operation_xyz
x,y,z
-x,-y,z
-x,1/2+y,z
x,1/2-y,z
x,1/2+y,1/2+z
-x,1/2-y,1/2+z
-x,y,1/2+z
x,-y,1/2+z
loop_
_atom_site_type_symbol
_atom_site_label
_atom_site_fract_x
_atom_site_fract_y
_atom_site_fract_z
Si Si1 0.385325 0.036314 0.586250
Si Si2 0.226991 0.173482 0.138506
Si Si3 0.858971 0.828557 0.638468
Si Si4 0.024562 0.581350 0.991077
Si Si5 0.756978 0.979712 0.095171
Si Si6 0.541119 0.830362 0.450115
O O1 0.403673 0.114341 0.511722
O O2 0.410418 0.987235 0.358479
O O3 0.307894 0.026484 0.596222
O O4 0.260206 0.250000 0.120267
O O5 0.191986 0.169473 0.408152
O O6 0.265316 0.101053 0.105941
O O7 0.176198 0.169559 0.907506
O O8 0.890795 0.750000 0.620659
O O9 0.906867 0.894105 0.601063
O O10 0.000000 0.500000 0.961845
O O11 0.978028 0.611244 0.209483
O O12 0.794377 0.001228 0.344171
O O13 0.563637 0.750000 0.468915
O O14 0.511599 0.840756 0.173052
#
# Coordination Sequence:
#
# PCOD9361285 Si02
#       6
#     8   8   8   8   8   8
#     4  10  21  37  58  84 123 155 201 239 299 356
#     4  10  21  40  62  87 117 150 194 245 298 350
#     4  10  21  38  61  86 113 152 194 236 290 350
#     4  10  21  38  53  80 121 149 191 228 281 353
#     4  10  21  40  57  88 120 152 197 247 295 359
#     4  10  21  37  58  87 122 160 203 248 296 348
#
# _framework density 22.979133999999998
#
# number of rings (size 3 to 8) (size 9 to 14) (size 15 to 20)
#    0.000    2.000    0.000    3.000    0.000    2.667 
#   18.000    6.667    0.000    0.000    0.000    0.000 
#    0.000    0.000    0.000    0.000    0.000    0.000 
#
# Total GULP energy -133856.749334 kJ/mol
# GULP energy per Si atom -5577.364556 kJ/mol
# Density = 2.292683 g / cm^3
# Si number density = 22.979134 Si / 1000 Ang^3
#
#
#
# Elastic Constant Matrix: (Units=GPa)
#
#
# Indices 1 2 3 4 5 6 
#
# 1 25.4152 36.4484 -9.7372 0.0000 0.0000 0.0000
# 2 36.4484 103.7098 4.3618 0.0000 0.0000 0.0000
# 3 -9.7372 4.3618 142.9132 0.0000 0.0000 0.0000
# 4 0.0000 0.0000 0.0000 81.2630 0.0000 0.0000
# 5 0.0000 0.0000 0.0000 0.0000 15.6248 0.0000
# 6 0.0000 0.0000 0.0000 0.0000 0.0000 55.4033
#
#
#
# Elastic Compliance Matrix: (Units=1/GPa)
#
#
# Indices 1 2 3 4 5 6 
#
# 1 0.085356 -0.030281 0.006740 0.000000 0.000000 0.000000
# 2 -0.030281 0.020398 -0.002686 0.000000 0.000000 0.000000
# 3 0.006740 -0.002686 0.007538 0.000000 0.000000 0.000000
# 4 0.000000 0.000000 0.000000 0.012306 0.000000 0.000000
# 5 0.000000 0.000000 0.000000 0.000000 0.064001 0.000000
# 6 0.000000 0.000000 0.000000 0.000000 0.000000 0.018049
#
#
# Mechanical properties :
#
#
# Convention : Reuss Voigt Hill
#
# Bulk Modulus (GPa) = 16.43733 37.13157 26.78445
# Shear Modulus (GPa) = 17.83285 46.52257 32.17771
#
# Velocity S-wave (km/s) = 2.78878 4.50439 3.74612
# Velocity P-wave (km/s) = 4.18789 6.57621 5.51294
#
# Compressibility (1/GPa) = 0.06083713
#
# Stress axis : x y z
#
# Youngs Moduli (GPa) = 11.71566 49.02549 132.65349
#
# Poissons Ratio (x) = 1.48456 -0.89406
# Poissons Ratio (y) = 0.35477 0.35627
# Poissons Ratio (z) = -0.07896 0.13167
#
# Static dielectric constant tensor:
#      x y z
#    x 1.845570 0.000000 0.000000 
#    y 0.000000 1.660610 0.000000 
#    z 0.000000 0.000000 2.000450 
# 
# From -- ./inp_files/1261.got.cif
#   From: 2010.05.17/outbox.cif.g08.bks.cpg/sg39_1_cif.got.tgz:1261.got - 2010.06.03 18:22:40.
