data_PCOD9361660
_publ_section_title
;
Structure prediction by ZEFSAII (Michael W. Deem and Ramdas Pophale) SiO2 
 PCOD9361660
Probable space group: A B M 2
;
_chemical_formula_sum "Si O2"
_cell_formula_units_Z 48
_cell_length_a 25.075891
_cell_length_b 8.174329
_cell_length_c 9.980028
_cell_angle_alpha 90.000000
_cell_angle_beta 90.000000
_cell_angle_gamma 90.000000
_cell_volume 2045.691998
_symmetry_space_group_name_H-M "A B M 2"
_symmetry_group_IT_number 39
_symmetry_cell_setting 'orthorhombic'
loop_
_space_group_symop_operation_xyz
x,y,z
-x,-y,z
-x,1/2+y,z
x,1/2-y,z
x,1/2+y,1/2+z
-x,1/2-y,1/2+z
-x,y,1/2+z
x,-y,1/2+z
loop_
_atom_site_type_symbol
_atom_site_label
_atom_site_fract_x
_atom_site_fract_y
_atom_site_fract_z
Si Si1 0.209199 0.946543 0.566110
Si Si2 0.935196 0.250000 0.341544
Si Si3 0.269089 0.444487 0.319750
Si Si4 0.108887 0.566224 0.749677
Si Si5 0.378784 0.447888 0.447871
Si Si6 0.982920 0.750000 0.116995
Si Si7 0.441340 0.943779 0.697155
O O1 0.213008 0.750000 0.551691
O O2 0.253838 0.007665 0.672926
O O3 0.153944 0.979173 0.641939
O O4 0.220949 0.022621 0.422643
O O5 0.900956 0.415866 0.349333
O O6 0.980313 0.250000 0.456642
O O7 0.962332 0.250000 0.195792
O O8 0.275549 0.250000 0.305109
O O9 0.322580 0.509561 0.389345
O O10 0.121825 0.750000 0.804862
O O11 0.053628 0.600524 0.670471
O O12 0.377203 0.250000 0.449506
O O13 0.395818 0.505384 0.593299
O O14 0.424277 0.504640 0.343743
O O15 0.442269 0.750000 0.702330
O O16 0.500000 0.000000 0.656718
#
# Coordination Sequence:
#
# PCOD9361660 Si02
#       7
#     8   4   8   8   8   4   8
#     4  10  22  41  61  93 128 159 209 264 313 377
#     4  12  24  48  70  94 138 174 216 274 329 386
#     4  10  22  39  63  91 123 166 207 255 318 376
#     4   9  24  43  65 101 129 171 217 271 321 396
#     4  10  22  40  60  89 125 159 210 259 308 377
#     4  10  26  46  66 104 130 172 226 264 327 400
#     4  11  23  39  62  89 123 164 207 258 313 369
#
# _framework density 23.463944000000001
#
# number of rings (size 3 to 8) (size 9 to 14) (size 15 to 20)
#    0.500    1.333    0.000    2.500    3.500    8.000 
#    1.500    0.000    0.000    0.000    0.000    0.000 
#    0.000    0.000    0.000    0.000    0.000    0.000 
#
# Total GULP energy -134146.190667 kJ/mol
# GULP energy per Si atom -5589.424611 kJ/mol
# Density = 2.341054 g / cm^3
# Si number density = 23.463944 Si / 1000 Ang^3
#
#
#
# Elastic Constant Matrix: (Units=GPa)
#
#
# Indices 1 2 3 4 5 6 
#
# 1 71.2512 9.4768 -13.9110 0.0000 0.0000 0.0000
# 2 9.4768 52.3460 13.8541 0.0000 0.0000 0.0000
# 3 -13.9110 13.8541 82.9926 0.0000 0.0000 0.0000
# 4 0.0000 0.0000 0.0000 15.0804 0.0000 0.0000
# 5 0.0000 0.0000 0.0000 0.0000 33.7143 0.0000
# 6 0.0000 0.0000 0.0000 0.0000 0.0000 22.3831
#
#
#
# Elastic Compliance Matrix: (Units=1/GPa)
#
#
# Indices 1 2 3 4 5 6 
#
# 1 0.015120 -0.003566 0.003130 0.000000 0.000000 0.000000
# 2 -0.003566 0.020828 -0.004074 0.000000 0.000000 0.000000
# 3 0.003130 -0.004074 0.013254 0.000000 0.000000 0.000000
# 4 0.000000 0.000000 0.000000 0.066311 0.000000 0.000000
# 5 0.000000 0.000000 0.000000 0.000000 0.029661 0.000000
# 6 0.000000 0.000000 0.000000 0.000000 0.000000 0.044677
#
#
# Mechanical properties :
#
#
# Convention : Reuss Voigt Hill
#
# Bulk Modulus (GPa) = 24.88759 25.04774 24.96766
# Shear Modulus (GPa) = 23.55546 27.38022 25.46784
#
# Velocity S-wave (km/s) = 3.17188 3.41971 3.29812
# Velocity P-wave (km/s) = 4.90348 5.12744 5.01671
#
# Compressibility (1/GPa) = 0.04018067
#
# Stress axis : x y z
#
# Youngs Moduli (GPa) = 66.13706 48.01331 75.44890
#
# Poissons Ratio (x) = 0.17120 -0.23613
# Poissons Ratio (y) = 0.23582 0.30741
# Poissons Ratio (z) = -0.20698 0.19563
#
# Static dielectric constant tensor:
#      x y z
#    x 1.918970 0.000000 0.000000 
#    y 0.000000 1.864630 0.000000 
#    z 0.000000 0.000000 1.836090 
# 
# From -- ./inp_files/4146.got.cif
#   From: 2010.05.17/outbox.cif.g08.bks.cpg/sg39_3_cif.got.tgz:4146.got - 2010.06.03 18:22:40.
