data_PCOD9361435
_publ_section_title
;
Structure prediction by ZEFSAII (Michael W. Deem and Ramdas Pophale) SiO2 
 PCOD9361435
Probable space group: A B M 2
;
_chemical_formula_sum "Si O2"
_cell_formula_units_Z 52
_cell_length_a 9.355647
_cell_length_b 23.102271
_cell_length_c 13.706428
_cell_angle_alpha 90.000000
_cell_angle_beta 90.000000
_cell_angle_gamma 90.000000
_cell_volume 2962.462012
_symmetry_space_group_name_H-M "A B M 2"
_symmetry_group_IT_number 39
_symmetry_cell_setting 'orthorhombic'
loop_
_space_group_symop_operation_xyz
x,y,z
-x,-y,z
-x,1/2+y,z
x,1/2-y,z
x,1/2+y,1/2+z
-x,1/2-y,1/2+z
-x,y,1/2+z
x,-y,1/2+z
loop_
_atom_site_type_symbol
_atom_site_label
_atom_site_fract_x
_atom_site_fract_y
_atom_site_fract_z
Si Si1 0.864870 0.250000 0.270140
Si Si2 0.978226 0.750000 0.074900
Si Si3 0.303260 0.250000 0.578889
Si Si4 0.183297 0.838448 0.441724
Si Si5 0.501833 0.854476 0.508726
Si Si6 0.150050 0.970776 0.491113
Si Si7 0.615438 0.948512 0.150727
Si Si8 0.370453 0.953940 0.875861
O O1 0.730124 0.250000 0.195284
O O2 0.859648 0.194896 0.342446
O O3 0.996329 0.250000 0.192129
O O4 0.141999 0.750000 0.035979
O O5 0.895406 0.694962 0.030619
O O6 0.393276 0.195286 0.544058
O O7 0.354492 0.833530 0.458068
O O8 0.143326 0.906206 0.445490
O O9 0.451624 0.892152 0.601185
O O10 0.583835 0.898158 0.436969
O O11 0.246658 0.964798 0.587543
O O12 0.234602 0.013520 0.419286
O O13 0.000000 0.000000 0.512818
O O14 0.649614 0.939362 0.263160
O O15 0.500000 0.000000 0.142414
O O16 0.500000 0.000000 0.884380
#
# Coordination Sequence:
#
# PCOD9361435 Si02
#       8
#     4   4   4   8   8   8   8   8
#     4   9  22  41  67  84 119 164 207 245 321 361
#     4   9  22  41  59  87 119 165 202 245 312 358
#     4  10  24  36  66  91 114 161 205 262 297 367
#     4  10  21  43  64  86 126 165 196 260 308 365
#     4  11  21  41  64  92 125 156 208 259 305 364
#     4  11  23  40  62  93 130 163 205 254 312 373
#     4  10  21  39  64  89 125 161 202 252 309 372
#     4  11  21  40  63  93 123 166 202 253 314 370
#
# _framework density 17.552969000000001
#
# number of rings (size 3 to 8) (size 9 to 14) (size 15 to 20)
#    0.462    1.231    4.615    0.923    4.308    0.615 
#    8.308    0.000    0.000    0.000    0.000    0.000 
#    0.000    0.000    0.000    0.000    0.000    0.000 
#
# Total GULP energy -145014.225095 kJ/mol
# GULP energy per Si atom -5577.470196 kJ/mol
# Density = 1.751302 g / cm^3
# Si number density = 17.552969 Si / 1000 Ang^3
#
#
#
# Elastic Constant Matrix: (Units=GPa)
#
#
# Indices 1 2 3 4 5 6 
#
# 1 94.7773 79.4210 46.1063 0.0000 0.0000 0.0000
# 2 79.4210 115.2477 87.1368 0.0000 0.0000 0.0000
# 3 46.1063 87.1368 153.6348 0.0000 0.0000 0.0000
# 4 0.0000 0.0000 0.0000 13.3266 0.0000 0.0000
# 5 0.0000 0.0000 0.0000 0.0000 1.0774 0.0000
# 6 0.0000 0.0000 0.0000 0.0000 0.0000 24.2020
#
#
#
# Elastic Compliance Matrix: (Units=1/GPa)
#
#
# Indices 1 2 3 4 5 6 
#
# 1 0.026434 -0.021392 0.004200 0.000000 0.000000 0.000000
# 2 -0.021392 0.032503 -0.012015 0.000000 0.000000 0.000000
# 3 0.004200 -0.012015 0.012063 0.000000 0.000000 0.000000
# 4 0.000000 0.000000 0.000000 0.075038 0.000000 0.000000
# 5 0.000000 0.000000 0.000000 0.000000 0.928202 0.000000
# 6 0.000000 0.000000 0.000000 0.000000 0.000000 0.041319
#
#
# Mechanical properties :
#
#
# Convention : Reuss Voigt Hill
#
# Bulk Modulus (GPa) = 79.45272 87.66534 83.55903
# Shear Modulus (GPa) = 4.24388 17.78755 11.01571
#
# Velocity S-wave (km/s) = 1.55660 3.18679 2.50785
# Velocity P-wave (km/s) = 6.97090 7.97450 7.48953
#
# Compressibility (1/GPa) = 0.01258610
#
# Stress axis : x y z
#
# Youngs Moduli (GPa) = 37.83038 30.76622 82.89775
#
# Poissons Ratio (x) = 0.65815 -0.34817
# Poissons Ratio (y) = 0.80926 0.99602
# Poissons Ratio (z) = -0.15889 0.36966
#
# Static dielectric constant tensor:
#      x y z
#    x 1.661180 0.000000 0.000000 
#    y 0.000000 1.588760 0.000000 
#    z 0.000000 0.000000 1.585040 
# 
# From -- ./inp_files/8598.got.cif
#   From: 2010.05.17/outbox.cif.g08.bks.cpg/sg39_5_cif.got.tgz:8598.got - 2010.06.03 18:22:40.
