data_PCOD9361896
_publ_section_title
;
Structure prediction by ZEFSAII (Michael W. Deem and Ramdas Pophale) SiO2 
 PCOD9361896
Probable space group: A B M 2
;
_chemical_formula_sum "Si O2"
_cell_formula_units_Z 40
_cell_length_a 9.272529
_cell_length_b 17.783416
_cell_length_c 11.067884
_cell_angle_alpha 90.000000
_cell_angle_beta 90.000000
_cell_angle_gamma 90.000000
_cell_volume 1825.063531
_symmetry_space_group_name_H-M "A B M 2"
_symmetry_group_IT_number 39
_symmetry_cell_setting 'orthorhombic'
loop_
_space_group_symop_operation_xyz
x,y,z
-x,-y,z
-x,1/2+y,z
x,1/2-y,z
x,1/2+y,1/2+z
-x,1/2-y,1/2+z
-x,y,1/2+z
x,-y,1/2+z
loop_
_atom_site_type_symbol
_atom_site_label
_atom_site_fract_x
_atom_site_fract_y
_atom_site_fract_z
Si Si1 0.786896 0.931615 0.282570
Si Si2 0.116194 0.439723 0.626978
Si Si3 0.418918 0.074994 0.496645
Si Si4 0.993476 0.662197 0.949915
Si Si5 0.302854 0.837632 0.547850
O O1 0.644421 0.933995 0.362981
O O2 0.909455 0.886145 0.357506
O O3 0.742312 0.889475 0.160230
O O4 0.846395 0.014001 0.248070
O O5 0.274228 0.423572 0.574683
O O6 0.038726 0.362544 0.587113
O O7 0.000000 0.500000 0.568589
O O8 0.536223 0.140400 0.507797
O O9 0.500000 0.000000 0.533430
O O10 0.023260 0.750000 0.931116
O O11 0.821004 0.650008 0.946399
O O12 0.295741 0.750000 0.581452
#
# Coordination Sequence:
#
# PCOD9361896 Si02
#       5
#     8   8   8   8   8
#     4  11  24  42  73  98 139 184 233 285 356 418
#     4  11  22  43  71 104 135 180 240 289 348 417
#     4  11  24  41  68  98 140 179 229 282 349 417
#     4  10  23  46  72 102 139 183 233 292 353 417
#     4  11  24  47  70 101 144 182 232 294 353 420
#
# _framework density 21.917045000000002
#
# number of rings (size 3 to 8) (size 9 to 14) (size 15 to 20)
#    0.000    1.200    4.000    0.600    2.800    8.800 
#    0.000    0.000    0.000    0.000    0.000    0.000 
#    0.000    0.000    0.000    0.000    0.000    0.000 
#
# Total GULP energy -111438.569985 kJ/mol
# GULP energy per Si atom -5571.928499 kJ/mol
# Density = 2.186716 g / cm^3
# Si number density = 21.917045 Si / 1000 Ang^3
#
#
#
# Elastic Constant Matrix: (Units=GPa)
#
#
# Indices 1 2 3 4 5 6 
#
# 1 167.6423 23.8650 26.6387 0.0000 0.0000 0.0000
# 2 23.8650 78.3135 25.0453 0.0000 0.0000 0.0000
# 3 26.6387 25.0453 62.3889 0.0000 0.0000 0.0000
# 4 0.0000 0.0000 0.0000 32.2130 0.0000 0.0000
# 5 0.0000 0.0000 0.0000 0.0000 35.4004 0.0000
# 6 0.0000 0.0000 0.0000 0.0000 0.0000 39.6233
#
#
#
# Elastic Compliance Matrix: (Units=1/GPa)
#
#
# Indices 1 2 3 4 5 6 
#
# 1 0.006505 -0.001255 -0.002274 0.000000 0.000000 0.000000
# 2 -0.001255 0.014892 -0.005442 0.000000 0.000000 0.000000
# 3 -0.002274 -0.005442 0.019184 0.000000 0.000000 0.000000
# 4 0.000000 0.000000 0.000000 0.031043 0.000000 0.000000
# 5 0.000000 0.000000 0.000000 0.000000 0.028248 0.000000
# 6 0.000000 0.000000 0.000000 0.000000 0.000000 0.025238
#
#
# Mechanical properties :
#
#
# Convention : Reuss Voigt Hill
#
# Bulk Modulus (GPa) = 44.17170 51.04919 47.61044
# Shear Modulus (GPa) = 33.20067 36.96704 35.08385
#
# Velocity S-wave (km/s) = 3.89631 4.11138 4.00529
# Velocity P-wave (km/s) = 6.35920 6.77351 6.56962
#
# Compressibility (1/GPa) = 0.02263893
#
# Stress axis : x y z
#
# Youngs Moduli (GPa) = 153.72665 67.14919 52.12661
#
# Poissons Ratio (x) = 0.08429 0.11852
# Poissons Ratio (y) = 0.19296 0.28369
# Poissons Ratio (z) = 0.34952 0.36545
#
# Static dielectric constant tensor:
#      x y z
#    x 1.839200 0.000000 0.000000 
#    y 0.000000 1.781910 0.000000 
#    z 0.000000 0.000000 1.902700 
# 
# From -- ./inp_files/4925.got.cif
#   From: 2010.05.17/outbox.cif.g08.bks.cpg/sg39_3_cif.got.tgz:4925.got - 2010.06.03 18:22:40.
