data_PCOD9361444
_publ_section_title
;
Structure prediction by ZEFSAII (Michael W. Deem and Ramdas Pophale) SiO2 
 PCOD9361444
Probable space group: A B M 2
;
_chemical_formula_sum "Si O2"
_cell_formula_units_Z 64
_cell_length_a 21.130071
_cell_length_b 16.298963
_cell_length_c 9.431245
_cell_angle_alpha 90.000000
_cell_angle_beta 90.000000
_cell_angle_gamma 90.000000
_cell_volume 3248.104230
_symmetry_space_group_name_H-M "A B M 2"
_symmetry_group_IT_number 39
_symmetry_cell_setting 'orthorhombic'
loop_
_space_group_symop_operation_xyz
x,y,z
-x,-y,z
-x,1/2+y,z
x,1/2-y,z
x,1/2+y,1/2+z
-x,1/2-y,1/2+z
-x,y,1/2+z
x,-y,1/2+z
loop_
_atom_site_type_symbol
_atom_site_label
_atom_site_fract_x
_atom_site_fract_y
_atom_site_fract_z
Si Si1 0.547702 0.346261 0.133540
Si Si2 0.643914 0.067619 0.325101
Si Si3 0.969067 0.587594 0.624078
Si Si4 0.922655 0.155339 0.424258
Si Si5 0.147670 0.488645 0.461510
Si Si6 0.568102 0.600887 0.314845
Si Si7 0.232600 0.481151 0.206244
Si Si8 0.324577 0.657128 0.614037
O O1 0.537268 0.250000 0.158998
O O2 0.613094 0.375360 0.205049
O O3 0.491772 0.395399 0.211202
O O4 0.548965 0.364139 0.967015
O O5 0.647564 0.113659 0.474266
O O6 0.598459 0.988592 0.336549
O O7 0.713330 0.035672 0.280830
O O8 0.946076 0.633864 0.764740
O O9 0.911212 0.562765 0.520459
O O10 0.000000 0.500000 0.668348
O O11 0.020008 0.638346 0.533721
O O12 0.902020 0.250000 0.432646
O O13 0.871400 0.084910 0.460107
O O14 0.172039 0.467735 0.305821
O O15 0.206526 0.475868 0.565953
O O16 0.622806 0.652238 0.236689
O O17 0.265703 0.396556 0.165084
O O18 0.307771 0.750000 0.582008
#
# Coordination Sequence:
#
# PCOD9361444 Si02
#       8
#     8   8   8   8   8   8   8   8
#     4  12  24  40  62  91 124 157 201 256 315 366
#     4  11  24  42  65  90 120 164 208 255 306 376
#     4  10  21  39  65  92 124 170 207 252 311 379
#     4  11  23  39  63  97 130 159 206 266 319 361
#     4  11  22  42  67  89 122 172 214 250 302 379
#     4  11  24  42  63  90 123 164 205 254 310 384
#     4  11  23  42  65  90 123 166 217 252 298 379
#     4  11  23  42  66  93 125 160 206 267 323 363
#
# _framework density 19.703800999999999
#
# number of rings (size 3 to 8) (size 9 to 14) (size 15 to 20)
#    0.000    1.000    2.500    5.625    3.500    1.500 
#    0.000    1.250    0.000    0.000    0.000    0.000 
#    0.000    0.000    0.000    0.000    0.000    0.000 
#
# Total GULP energy -178935.144790 kJ/mol
# GULP energy per Si atom -5591.723275 kJ/mol
# Density = 1.965895 g / cm^3
# Si number density = 19.703801 Si / 1000 Ang^3
#
#
#
# Elastic Constant Matrix: (Units=GPa)
#
#
# Indices 1 2 3 4 5 6 
#
# 1 59.4106 4.2701 11.7005 0.0000 0.0000 0.0000
# 2 4.2701 60.8508 16.4049 0.0000 0.0000 0.0000
# 3 11.7005 16.4049 91.6184 0.0000 0.0000 0.0000
# 4 0.0000 0.0000 0.0000 52.8292 0.0000 0.0000
# 5 0.0000 0.0000 0.0000 0.0000 36.6956 0.0000
# 6 0.0000 0.0000 0.0000 0.0000 0.0000 7.6905
#
#
#
# Elastic Compliance Matrix: (Units=1/GPa)
#
#
# Indices 1 2 3 4 5 6 
#
# 1 0.017291 -0.000649 -0.002092 0.000000 0.000000 0.000000
# 2 -0.000649 0.017292 -0.003013 0.000000 0.000000 0.000000
# 3 -0.002092 -0.003013 0.011722 0.000000 0.000000 0.000000
# 4 0.000000 0.000000 0.000000 0.018929 0.000000 0.000000
# 5 0.000000 0.000000 0.000000 0.000000 0.027251 0.000000
# 6 0.000000 0.000000 0.000000 0.000000 0.000000 0.130030
#
#
# Mechanical properties :
#
#
# Convention : Reuss Voigt Hill
#
# Bulk Modulus (GPa) = 28.74000 30.73676 29.73838
# Shear Modulus (GPa) = 20.35652 31.41003 25.88328
#
# Velocity S-wave (km/s) = 3.21772 3.99696 3.62832
# Velocity P-wave (km/s) = 5.33129 6.07735 5.71650
#
# Compressibility (1/GPa) = 0.03479471
#
# Stress axis : x y z
#
# Youngs Moduli (GPa) = 57.83469 57.83169 85.31305
#
# Poissons Ratio (x) = 0.03756 0.17847
# Poissons Ratio (y) = 0.03756 0.25707
# Poissons Ratio (z) = 0.12098 0.17426
#
# Static dielectric constant tensor:
#      x y z
#    x 1.693340 0.000000 0.000000 
#    y 0.000000 1.669910 0.000000 
#    z 0.000000 0.000000 1.704480 
# 
# From -- ./inp_files/4008.got.cif
#   From: 2010.05.17/outbox.cif.g08.bks.cpg/sg39_3_cif.got.tgz:4008.got - 2010.06.03 18:22:40.
