data_PCOD9361475
_publ_section_title
;
Structure prediction by ZEFSAII (Michael W. Deem and Ramdas Pophale) SiO2 
 PCOD9361475
Probable space group: A B M 2
;
_chemical_formula_sum "Si O2"
_cell_formula_units_Z 56
_cell_length_a 13.714958
_cell_length_b 22.668691
_cell_length_c 9.863887
_cell_angle_alpha 90.000000
_cell_angle_beta 90.000000
_cell_angle_gamma 90.000000
_cell_volume 3066.683898
_symmetry_space_group_name_H-M "A B M 2"
_symmetry_group_IT_number 39
_symmetry_cell_setting 'orthorhombic'
loop_
_space_group_symop_operation_xyz
x,y,z
-x,-y,z
-x,1/2+y,z
x,1/2-y,z
x,1/2+y,1/2+z
-x,1/2-y,1/2+z
-x,y,1/2+z
x,-y,1/2+z
loop_
_atom_site_type_symbol
_atom_site_label
_atom_site_fract_x
_atom_site_fract_y
_atom_site_fract_z
Si Si1 0.619803 0.443078 0.531610
Si Si2 0.303878 0.866630 0.295815
Si Si3 0.907870 0.179262 0.724307
Si Si4 0.396537 0.915992 0.029328
Si Si5 0.423802 0.250000 0.872880
Si Si6 0.294886 0.630210 0.761095
Si Si7 0.604989 0.250000 0.678987
Si Si8 0.899506 0.679412 0.901213
O O1 0.656948 0.419221 0.389113
O O2 0.513148 0.413028 0.554427
O O3 0.617932 0.513444 0.529405
O O4 0.689594 0.419822 0.649238
O O5 0.332817 0.884460 0.144346
O O6 0.362501 0.807647 0.334627
O O7 0.192452 0.853813 0.335617
O O8 0.889817 0.250000 0.735713
O O9 0.818333 0.142827 0.788090
O O10 0.913485 0.165921 0.562079
O O11 0.005516 0.167223 0.809709
O O12 0.361195 0.887715 0.888493
O O13 0.523493 0.250000 0.792564
O O14 0.442827 0.250000 0.032162
O O15 0.331799 0.691348 0.695742
O O16 0.880399 0.750000 0.894051
#
# Coordination Sequence:
#
# PCOD9361475 Si02
#       8
#     8   8   8   8   4   8   4   8
#     4  11  22  45  64  87 126 173 215 258 296 362
#     4  12  23  40  64  91 129 163 202 262 316 368
#     4  10  21  40  63  90 122 161 205 253 315 380
#     4  11  26  39  64  95 122 169 225 250 292 368
#     4  12  24  38  59  90 130 167 196 249 325 381
#     4  12  23  40  64  91 129 163 202 262 316 368
#     4  12  24  38  59  90 130 167 196 249 325 381
#     4  10  21  40  63  90 122 161 205 253 315 380
#
# _framework density 18.260767999999999
#
# number of rings (size 3 to 8) (size 9 to 14) (size 15 to 20)
#    0.000    0.857    4.286    3.429    4.000    2.286 
#    0.000    0.000    0.000    5.143    0.000    0.000 
#    0.000    0.000    0.000    0.000    0.000    0.000 
#
# Total GULP energy -156437.741928 kJ/mol
# GULP energy per Si atom -5587.062212 kJ/mol
# Density = 1.821921 g / cm^3
# Si number density = 18.260768 Si / 1000 Ang^3
#
#
#
# Elastic Constant Matrix: (Units=GPa)
#
#
# Indices 1 2 3 4 5 6 
#
# 1 69.7093 8.8685 -20.2296 0.0000 0.0000 0.0000
# 2 8.8685 45.5420 2.6175 0.0000 0.0000 0.0000
# 3 -20.2296 2.6175 55.7296 0.0000 0.0000 0.0000
# 4 0.0000 0.0000 0.0000 37.8671 0.0000 0.0000
# 5 0.0000 0.0000 0.0000 0.0000 27.1484 0.0000
# 6 0.0000 0.0000 0.0000 0.0000 0.0000 13.7341
#
#
#
# Elastic Compliance Matrix: (Units=1/GPa)
#
#
# Indices 1 2 3 4 5 6 
#
# 1 0.016599 -0.003588 0.006194 0.000000 0.000000 0.000000
# 2 -0.003588 0.022793 -0.002373 0.000000 0.000000 0.000000
# 3 0.006194 -0.002373 0.020304 0.000000 0.000000 0.000000
# 4 0.000000 0.000000 0.000000 0.026408 0.000000 0.000000
# 5 0.000000 0.000000 0.000000 0.000000 0.036835 0.000000
# 6 0.000000 0.000000 0.000000 0.000000 0.000000 0.072812
#
#
# Mechanical properties :
#
#
# Convention : Reuss Voigt Hill
#
# Bulk Modulus (GPa) = 16.62213 17.05488 16.83850
# Shear Modulus (GPa) = 23.21921 27.73154 25.47538
#
# Velocity S-wave (km/s) = 3.56973 3.90120 3.73914
# Velocity P-wave (km/s) = 5.11009 5.44540 5.28041
#
# Compressibility (1/GPa) = 0.06016076
#
# Stress axis : x y z
#
# Youngs Moduli (GPa) = 60.24347 43.87324 49.25226
#
# Poissons Ratio (x) = 0.15744 -0.30507
# Poissons Ratio (y) = 0.21618 0.11688
# Poissons Ratio (z) = -0.37315 0.10412
#
# Static dielectric constant tensor:
#      x y z
#    x 1.624750 0.000000 0.000000 
#    y 0.000000 1.610960 0.000000 
#    z 0.000000 0.000000 1.631060 
# 
# From -- ./inp_files/3439.got.cif
#   From: 2010.05.17/outbox.cif.g08.bks.cpg/sg39_2_cif.got.tgz:3439.got - 2010.06.03 18:22:40.
