data_PCOD9361064
_publ_section_title
;
Structure prediction by ZEFSAII (Michael W. Deem and Ramdas Pophale) SiO2 
 PCOD9361064
Probable space group: A B M 2
;
_chemical_formula_sum "Si O2"
_cell_formula_units_Z 56
_cell_length_a 5.348394
_cell_length_b 29.333486
_cell_length_c 15.205887
_cell_angle_alpha 90.000000
_cell_angle_beta 90.000000
_cell_angle_gamma 90.000000
_cell_volume 2385.606610
_symmetry_space_group_name_H-M "A B M 2"
_symmetry_group_IT_number 39
_symmetry_cell_setting 'orthorhombic'
loop_
_space_group_symop_operation_xyz
x,y,z
-x,-y,z
-x,1/2+y,z
x,1/2-y,z
x,1/2+y,1/2+z
-x,1/2-y,1/2+z
-x,y,1/2+z
x,-y,1/2+z
loop_
_atom_site_type_symbol
_atom_site_label
_atom_site_fract_x
_atom_site_fract_y
_atom_site_fract_z
Si Si1 0.762482 0.028261 0.958890
Si Si2 0.556394 0.890295 0.203146
Si Si3 0.435531 0.397487 0.890747
Si Si4 0.888627 0.584565 0.061037
Si Si5 0.814726 0.331056 0.106757
Si Si6 0.131331 0.699571 0.756915
Si Si7 0.629920 0.798661 0.429088
O O1 0.689883 0.073367 0.904184
O O2 0.500000 0.000000 0.967280
O O3 0.000000 0.000000 0.921175
O O4 0.882200 0.049653 0.047752
O O5 0.388674 0.904750 0.286829
O O6 0.732600 0.925151 0.150051
O O7 0.386404 0.869303 0.127922
O O8 0.711663 0.845916 0.235851
O O9 0.474814 0.344020 0.909123
O O10 0.257578 0.415630 0.968040
O O11 0.961825 0.637602 0.071400
O O12 0.887001 0.306569 0.197350
O O13 0.718609 0.300370 0.028824
O O14 0.236169 0.750000 0.731704
O O15 0.133028 0.699464 0.862363
O O16 0.501150 0.750000 0.411735
#
# Coordination Sequence:
#
# PCOD9361064 Si02
#       7
#     8   8   8   8   8   8   8
#     4  12  25  46  81 110 142 194 242 301 377 443
#     4  10  23  40  68 100 140 192 239 297 378 432
#     4  11  23  45  72 101 145 193 238 310 364 446
#     4  11  22  43  72 104 145 183 244 293 375 435
#     4  11  21  37  64  97 135 188 238 301 364 432
#     4   9  21  37  55  91 137 185 244 302 360 428
#     4  10  20  38  63  95 138 188 242 294 363 443
#
# _framework density 23.474115999999999
#
# number of rings (size 3 to 8) (size 9 to 14) (size 15 to 20)
#    0.000    1.429    4.286    0.429    2.000    2.286 
#    0.000    1.429    3.143    0.000    0.000    0.000 
#    0.000    0.000    0.000    0.000    0.000    0.000 
#
# Total GULP energy -155908.203172 kJ/mol
# GULP energy per Si atom -5568.150113 kJ/mol
# Density = 2.342069 g / cm^3
# Si number density = 23.474116 Si / 1000 Ang^3
#
#
#
# Elastic Constant Matrix: (Units=GPa)
#
#
# Indices 1 2 3 4 5 6 
#
# 1 63.0933 18.2029 23.4503 0.0000 0.0000 0.0000
# 2 18.2029 96.9216 5.1270 0.0000 0.0000 0.0000
# 3 23.4503 5.1270 97.2325 0.0000 0.0000 0.0000
# 4 0.0000 0.0000 0.0000 -2.0888 0.0000 0.0000
# 5 0.0000 0.0000 0.0000 0.0000 22.2765 0.0000
# 6 0.0000 0.0000 0.0000 0.0000 0.0000 0.7712
#
#
#
# Elastic Compliance Matrix: (Units=1/GPa)
#
#
# Indices 1 2 3 4 5 6 
#
# 1 0.018362 -0.003223 -0.004259 0.000000 0.000000 0.000000
# 2 -0.003223 0.010912 0.000202 0.000000 0.000000 0.000000
# 3 -0.004259 0.000202 0.011301 0.000000 0.000000 0.000000
# 4 0.000000 0.000000 0.000000 -0.478754 0.000000 0.000000
# 5 0.000000 0.000000 0.000000 0.000000 0.044890 0.000000
# 6 0.000000 0.000000 0.000000 0.000000 0.000000 1.296621
#
#
# Mechanical properties :
#
#
# Convention : Reuss Voigt Hill
#
# Bulk Modulus (GPa) = 38.43825 38.97864 38.70844
# Shear Modulus (GPa) = 5.39628 18.22293 11.80960
#
# Velocity S-wave (km/s) = 1.51783 2.78924 2.24540
# Velocity P-wave (km/s) = 4.41385 5.19751 4.82163
#
# Compressibility (1/GPa) = 0.02601575
#
# Stress axis : x y z
#
# Youngs Moduli (GPa) = 54.45932 91.63954 88.48730
#
# Poissons Ratio (x) = 0.29539 0.37683
# Poissons Ratio (y) = 0.17554 -0.01787
# Poissons Ratio (z) = 0.23192 -0.01851
#
# Static dielectric constant tensor:
#      x y z
#    x 2.006260 0.000000 0.000000 
#    y 0.000000 2.008680 0.000000 
#    z 0.000000 0.000000 1.929830 
# 
# From -- ./inp_files/7689.got.cif
#   From: 2010.05.17/outbox.cif.g08.bks.cpg/sg39_4_cif.got.tgz:7689.got - 2010.06.03 18:22:40.
