data_PCOD9361438
_publ_section_title
;
Structure prediction by ZEFSAII (Michael W. Deem and Ramdas Pophale) SiO2 
 PCOD9361438
Probable space group: A B M 2
;
_chemical_formula_sum "Si O2"
_cell_formula_units_Z 56
_cell_length_a 5.052541
_cell_length_b 16.562766
_cell_length_c 31.525820
_cell_angle_alpha 90.000000
_cell_angle_beta 90.000000
_cell_angle_gamma 90.000000
_cell_volume 2638.208432
_symmetry_space_group_name_H-M "A B M 2"
_symmetry_group_IT_number 39
_symmetry_cell_setting 'orthorhombic'
loop_
_space_group_symop_operation_xyz
x,y,z
-x,-y,z
-x,1/2+y,z
x,1/2-y,z
x,1/2+y,1/2+z
-x,1/2-y,1/2+z
-x,y,1/2+z
x,-y,1/2+z
loop_
_atom_site_type_symbol
_atom_site_label
_atom_site_fract_x
_atom_site_fract_y
_atom_site_fract_z
Si Si1 0.064408 0.654148 0.977940
Si Si2 0.570557 0.153962 0.422555
Si Si3 0.422338 0.344483 0.640547
Si Si4 0.886288 0.656535 0.283874
Si Si5 0.393099 0.089578 0.829622
Si Si6 0.925615 0.406102 0.689601
Si Si7 0.245927 0.554951 0.059598
O O1 0.067096 0.750000 0.988151
O O2 0.278009 0.640923 0.940684
O O3 0.778626 0.632225 0.959334
O O4 0.146112 0.603204 0.018574
O O5 0.604995 0.250000 0.414122
O O6 0.624810 0.106686 0.379594
O O7 0.480138 0.250000 0.635635
O O8 0.679809 0.389013 0.658783
O O9 0.332710 0.384263 0.596555
O O10 0.180846 0.357747 0.673044
O O11 0.966406 0.750000 0.282343
O O12 0.614113 0.647605 0.309418
O O13 0.851411 0.623144 0.236545
O O14 0.114348 0.606454 0.307518
O O15 0.500000 0.000000 0.821738
O O16 0.000000 0.500000 0.690085
O O17 0.500000 0.500000 0.049452
O O18 0.000000 0.500000 0.074574
#
# Coordination Sequence:
#
# PCOD9361438 Si02
#       7
#     8   8   8   8   8   8   8
#     4  10  22  41  64  91 125 166 211 259 315 380
#     4  10  21  39  64  92 125 167 212 259 316 381
#     4  12  25  44  68  96 130 172 218 261 316 386
#     4  12  25  44  67  94 130 174 219 262 318 386
#     4  12  25  42  65  97 132 169 216 271 325 375
#     4  12  25  44  68  97 132 168 213 269 325 377
#     4  12  25  42  65  95 130 166 210 263 322 377
#
# _framework density 21.226524000000001
#
# number of rings (size 3 to 8) (size 9 to 14) (size 15 to 20)
#    0.000    0.571    0.000    9.429    0.000    2.857 
#    0.000    4.286    0.000    0.000    0.000    0.000 
#    0.000    0.000    0.000    0.000    0.000    0.000 
#
# Total GULP energy -156918.698410 kJ/mol
# GULP energy per Si atom -5604.239229 kJ/mol
# Density = 2.117821 g / cm^3
# Si number density = 21.226524 Si / 1000 Ang^3
#
#
#
# Elastic Constant Matrix: (Units=GPa)
#
#
# Indices 1 2 3 4 5 6 
#
# 1 79.8760 0.7270 -8.9933 0.0000 0.0000 0.0000
# 2 0.7270 76.9455 36.2487 0.0000 0.0000 0.0000
# 3 -8.9933 36.2487 74.8905 0.0000 0.0000 0.0000
# 4 0.0000 0.0000 0.0000 12.0203 0.0000 0.0000
# 5 0.0000 0.0000 0.0000 0.0000 34.3560 0.0000
# 6 0.0000 0.0000 0.0000 0.0000 0.0000 -29.1485
#
#
#
# Elastic Compliance Matrix: (Units=1/GPa)
#
#
# Indices 1 2 3 4 5 6 
#
# 1 0.012761 -0.001091 0.002061 0.000000 0.000000 0.000000
# 2 -0.001091 0.016928 -0.008325 0.000000 0.000000 0.000000
# 3 0.002061 -0.008325 0.017630 0.000000 0.000000 0.000000
# 4 0.000000 0.000000 0.000000 0.083192 0.000000 0.000000
# 5 0.000000 0.000000 0.000000 0.000000 0.029107 0.000000
# 6 0.000000 0.000000 0.000000 0.000000 0.000000 -0.034307
#
#
# Mechanical properties :
#
#
# Convention : Reuss Voigt Hill
#
# Bulk Modulus (GPa) = 30.66685 31.96409 31.31547
# Shear Modulus (GPa) = 33.13636 17.02755 25.08196
#
# Velocity S-wave (km/s) = 3.95534 2.83536 3.44122
# Velocity P-wave (km/s) = 5.94461 5.08038 5.52941
#
# Compressibility (1/GPa) = 0.03260851
#
# Stress axis : x y z
#
# Youngs Moduli (GPa) = 78.36157 59.07286 56.72269
#
# Poissons Ratio (x) = 0.06447 -0.11689
# Poissons Ratio (y) = 0.08552 0.47220
# Poissons Ratio (z) = -0.16148 0.49176
#
# Static dielectric constant tensor:
#      x y z
#    x 1.726610 0.000000 0.000000 
#    y 0.000000 1.770280 0.000000 
#    z 0.000000 0.000000 1.716640 
# 
# From -- ./inp_files/17270.got.cif
#   From: 2010.05.17/outbox.cif.g08.bks.cpg/sg39_9_cif.got.tgz:17270.got - 2010.06.03 18:22:40.
