data_PCOD9361869
_publ_section_title
;
Structure prediction by ZEFSAII (Michael W. Deem and Ramdas Pophale) SiO2 
 PCOD9361869
Probable space group: A B M 2
;
_chemical_formula_sum "Si O2"
_cell_formula_units_Z 48
_cell_length_a 5.509727
_cell_length_b 25.186656
_cell_length_c 14.872390
_cell_angle_alpha 90.000000
_cell_angle_beta 90.000000
_cell_angle_gamma 90.000000
_cell_volume 2063.865335
_symmetry_space_group_name_H-M "A B M 2"
_symmetry_group_IT_number 39
_symmetry_cell_setting 'orthorhombic'
loop_
_space_group_symop_operation_xyz
x,y,z
-x,-y,z
-x,1/2+y,z
x,1/2-y,z
x,1/2+y,1/2+z
-x,1/2-y,1/2+z
-x,y,1/2+z
x,-y,1/2+z
loop_
_atom_site_type_symbol
_atom_site_label
_atom_site_fract_x
_atom_site_fract_y
_atom_site_fract_z
Si Si1 0.201042 0.047342 0.807070
Si Si2 0.565661 0.413214 0.941690
Si Si3 0.624366 0.250000 0.651847
Si Si4 0.954139 0.154391 0.881497
Si Si5 0.797201 0.852478 0.062596
Si Si6 0.879966 0.250000 0.257852
Si Si7 0.126547 0.557054 0.110598
O O1 0.439507 0.050179 0.868743
O O2 0.280161 0.053627 0.702718
O O3 0.062842 0.099533 0.843729
O O4 0.000000 0.000000 0.814660
O O5 0.671697 0.361016 0.891500
O O6 0.365840 0.395253 0.012270
O O7 0.762863 0.436886 0.010582
O O8 0.626397 0.306340 0.600540
O O9 0.393461 0.250000 0.718978
O O10 0.905499 0.250000 0.684596
O O11 0.053785 0.199230 0.817333
O O12 0.035777 0.169722 0.982372
O O13 0.962661 0.889785 0.125519
O O14 0.000000 0.500000 0.108597
#
# Coordination Sequence:
#
# PCOD9361869 Si02
#       7
#     8   8   4   8   8   4   8
#     4  10  23  43  71 109 148 194 254 324 397 479
#     4  10  24  43  76  99 148 195 254 326 392 488
#     4  12  29  45  74 108 146 206 255 328 385 471
#     4  10  24  44  69 105 145 194 255 322 392 471
#     4  10  24  44  70 104 143 194 252 322 388 476
#     4  12  29  45  74 108 152 202 259 328 385 473
#     4  10  23  44  72 107 148 195 256 322 398 479
#
# _framework density 23.257331000000001
#
# number of rings (size 3 to 8) (size 9 to 14) (size 15 to 20)
#    0.000    1.667    0.000    1.500   11.667   10.667 
#    0.000    3.333    3.667    1.000    0.000    0.000 
#    0.000    0.000    0.000    0.000    0.000    0.000 
#
# Total GULP energy -133845.994075 kJ/mol
# GULP energy per Si atom -5576.916420 kJ/mol
# Density = 2.320440 g / cm^3
# Si number density = 23.257331 Si / 1000 Ang^3
#
#
#
# Elastic Constant Matrix: (Units=GPa)
#
#
# Indices 1 2 3 4 5 6 
#
# 1 64.6229 19.7238 39.7809 0.0000 0.0000 0.0000
# 2 19.7238 116.1342 63.9936 0.0000 0.0000 0.0000
# 3 39.7809 63.9936 128.6050 0.0000 0.0000 0.0000
# 4 0.0000 0.0000 0.0000 26.1170 0.0000 0.0000
# 5 0.0000 0.0000 0.0000 0.0000 29.0182 0.0000
# 6 0.0000 0.0000 0.0000 0.0000 0.0000 7.8383
#
#
#
# Elastic Compliance Matrix: (Units=1/GPa)
#
#
# Indices 1 2 3 4 5 6 
#
# 1 0.019114 0.000016 -0.005920 0.000000 0.000000 0.000000
# 2 0.000016 0.011864 -0.005908 0.000000 0.000000 0.000000
# 3 -0.005920 -0.005908 0.012547 0.000000 0.000000 0.000000
# 4 0.000000 0.000000 0.000000 0.038289 0.000000 0.000000
# 5 0.000000 0.000000 0.000000 0.000000 0.034461 0.000000
# 6 0.000000 0.000000 0.000000 0.000000 0.000000 0.127578
#
#
# Mechanical properties :
#
#
# Convention : Reuss Voigt Hill
#
# Bulk Modulus (GPa) = 50.25281 61.81764 56.03523
# Shear Modulus (GPa) = 18.24074 24.98562 21.61318
#
# Velocity S-wave (km/s) = 2.80358 3.28123 3.05176
# Velocity P-wave (km/s) = 5.66871 6.40256 6.04678
#
# Compressibility (1/GPa) = 0.01989938
#
# Stress axis : x y z
#
# Youngs Moduli (GPa) = 52.31761 84.29092 79.69976
#
# Poissons Ratio (x) = -0.00136 0.47186
# Poissons Ratio (y) = -0.00084 0.47089
# Poissons Ratio (z) = 0.30975 0.49802
#
# Static dielectric constant tensor:
#      x y z
#    x 1.991150 0.000000 0.000000 
#    y 0.000000 1.927510 0.000000 
#    z 0.000000 0.000000 1.911670 
# 
# From -- ./inp_files/7574.got.cif
#   From: 2010.05.17/outbox.cif.g08.bks.cpg/sg39_4_cif.got.tgz:7574.got - 2010.06.03 18:22:40.
