data_PCOD9361208
_publ_section_title
;
Structure prediction by ZEFSAII (Michael W. Deem and Ramdas Pophale) SiO2 
 PCOD9361208
Probable space group: A B M 2
;
_chemical_formula_sum "Si O2"
_cell_formula_units_Z 48
_cell_length_a 11.951139
_cell_length_b 14.742430
_cell_length_c 12.489728
_cell_angle_alpha 90.000000
_cell_angle_beta 90.000000
_cell_angle_gamma 90.000000
_cell_volume 2200.550565
_symmetry_space_group_name_H-M "A B M 2"
_symmetry_group_IT_number 39
_symmetry_cell_setting 'orthorhombic'
loop_
_space_group_symop_operation_xyz
x,y,z
-x,-y,z
-x,1/2+y,z
x,1/2-y,z
x,1/2+y,1/2+z
-x,1/2-y,1/2+z
-x,y,1/2+z
x,-y,1/2+z
loop_
_atom_site_type_symbol
_atom_site_label
_atom_site_fract_x
_atom_site_fract_y
_atom_site_fract_z
Si Si1 0.723693 0.139722 0.493240
Si Si2 0.822815 0.648395 0.565021
Si Si3 0.579955 0.639424 0.191766
Si Si4 0.057806 0.096291 0.127109
Si Si5 0.331146 0.638499 0.253799
Si Si6 0.205391 0.139739 0.326998
O O1 0.725209 0.250000 0.493513
O O2 0.625049 0.111482 0.574957
O O3 0.840653 0.109940 0.545039
O O4 0.704030 0.108848 0.372289
O O5 0.774372 0.750000 0.553363
O O6 0.753789 0.605025 0.662174
O O7 0.811133 0.605760 0.447726
O O8 0.951477 0.656809 0.598022
O O9 0.577377 0.750000 0.191809
O O10 0.456232 0.609570 0.222966
O O11 0.675260 0.612645 0.276910
O O12 0.109176 0.110806 0.244473
O O13 0.000000 0.000000 0.118486
O O14 0.328222 0.750000 0.256249
O O15 0.201400 0.250000 0.327096
#
# Coordination Sequence:
#
# PCOD9361208 Si02
#       6
#     8   8   8   8   8   8
#     4   9  18  34  56  84 118 151 187 235 291 339
#     4  10  21  35  55  84 113 143 186 235 286 340
#     4   8  15  29  52  83 113 141 179 230 287 338
#     4  11  23  38  56  79 109 152 194 235 280 340
#     4   9  18  30  53  87 115 143 183 233 285 341
#     4   9  19  36  58  82 112 146 184 237 292 336
#
# _framework density 21.812722000000001
#
# number of rings (size 3 to 8) (size 9 to 14) (size 15 to 20)
#    0.000    2.667    0.000    2.500    4.667    0.667 
#    0.000    0.000    0.000    4.000    0.000    0.000 
#    0.000    0.000    0.000    0.000    0.000    0.000 
#
# Total GULP energy -134050.571877 kJ/mol
# GULP energy per Si atom -5585.440495 kJ/mol
# Density = 2.176308 g / cm^3
# Si number density = 21.812722 Si / 1000 Ang^3
#
#
#
# Elastic Constant Matrix: (Units=GPa)
#
#
# Indices 1 2 3 4 5 6 
#
# 1 168.3881 4.2358 134.4627 0.0000 0.0000 0.0000
# 2 4.2358 47.6452 17.2879 0.0000 0.0000 0.0000
# 3 134.4627 17.2879 253.7725 0.0000 0.0000 0.0000
# 4 0.0000 0.0000 0.0000 7.5098 0.0000 0.0000
# 5 0.0000 0.0000 0.0000 0.0000 18.0373 0.0000
# 6 0.0000 0.0000 0.0000 0.0000 0.0000 19.6560
#
#
#
# Elastic Compliance Matrix: (Units=1/GPa)
#
#
# Indices 1 2 3 4 5 6 
#
# 1 0.010350 0.001097 -0.005559 0.000000 0.000000 0.000000
# 2 0.001097 0.021637 -0.002055 0.000000 0.000000 0.000000
# 3 -0.005559 -0.002055 0.007026 0.000000 0.000000 0.000000
# 4 0.000000 0.000000 0.000000 0.133159 0.000000 0.000000
# 5 0.000000 0.000000 0.000000 0.000000 0.055441 0.000000
# 6 0.000000 0.000000 0.000000 0.000000 0.000000 0.050875
#
#
# Mechanical properties :
#
#
# Convention : Reuss Voigt Hill
#
# Bulk Modulus (GPa) = 38.49350 86.86426 62.67888
# Shear Modulus (GPa) = 16.65666 29.96192 23.30929
#
# Velocity S-wave (km/s) = 2.76637 3.71023 3.27251
# Velocity P-wave (km/s) = 5.28103 7.63306 6.56327
#
# Compressibility (1/GPa) = 0.02597841
#
# Stress axis : x y z
#
# Youngs Moduli (GPa) = 96.62047 46.21784 142.33270
#
# Poissons Ratio (x) = -0.05069 0.79117
# Poissons Ratio (y) = -0.10597 0.29251
# Poissons Ratio (z) = 0.53707 0.09498
#
# Static dielectric constant tensor:
#      x y z
#    x 1.741430 0.000000 0.000000 
#    y 0.000000 2.209930 0.000000 
#    z 0.000000 0.000000 1.772820 
# 
# From -- ./inp_files/5802.got.cif
#   From: 2010.05.17/outbox.cif.g08.bks.cpg/sg39_3_cif.got.tgz:5802.got - 2010.06.03 18:22:40.
