data_PCOD9361602
_publ_section_title
;
Structure prediction by ZEFSAII (Michael W. Deem and Ramdas Pophale) SiO2 
 PCOD9361602
Probable space group: A B M 2
;
_chemical_formula_sum "Si O2"
_cell_formula_units_Z 60
_cell_length_a 5.360019
_cell_length_b 20.150411
_cell_length_c 28.400671
_cell_angle_alpha 90.000000
_cell_angle_beta 90.000000
_cell_angle_gamma 90.000000
_cell_volume 3067.459510
_symmetry_space_group_name_H-M "A B M 2"
_symmetry_group_IT_number 39
_symmetry_cell_setting 'orthorhombic'
loop_
_space_group_symop_operation_xyz
x,y,z
-x,-y,z
-x,1/2+y,z
x,1/2-y,z
x,1/2+y,1/2+z
-x,1/2-y,1/2+z
-x,y,1/2+z
x,-y,1/2+z
loop_
_atom_site_type_symbol
_atom_site_label
_atom_site_fract_x
_atom_site_fract_y
_atom_site_fract_z
Si Si1 0.389952 0.825633 0.452400
Si Si2 0.087866 0.329075 0.186443
Si Si3 0.500000 0.500000 0.084873
Si Si4 0.118542 0.432205 0.012995
Si Si5 0.981075 0.668989 0.793873
Si Si6 0.753883 0.678545 0.540304
Si Si7 0.414998 0.869626 0.133119
Si Si8 0.478490 0.330175 0.345309
O O1 0.281217 0.750000 0.450555
O O2 0.215727 0.883306 0.472565
O O3 0.610259 0.823065 0.490863
O O4 0.481127 0.843360 0.400390
O O5 0.132586 0.250000 0.186388
O O6 0.332955 0.361063 0.163009
O O7 0.039403 0.350439 0.240315
O O8 0.832508 0.343620 0.158733
O O9 0.320975 0.458939 0.050039
O O10 0.623995 0.445818 0.118423
O O11 0.000000 0.500000 0.993639
O O12 0.929985 0.384976 0.041211
O O13 0.974304 0.750000 0.794666
O O14 0.715307 0.646365 0.814609
O O15 0.212495 0.646491 0.826046
O O16 0.885300 0.750000 0.544549
O O17 0.566622 0.670957 0.584029
O O18 0.474586 0.250000 0.340943
#
# Coordination Sequence:
#
# PCOD9361602 Si02
#       8
#     8   8   4   8   8   8   8   8
#     4  10  22  37  58  94 129 166 210 260 319 376
#     4  11  23  39  63  96 128 160 206 260 328 383
#     4  12  26  42  58  86 118 174 226 256 302 378
#     4  12  22  41  60  83 125 172 219 256 302 374
#     4   9  18  35  58  89 126 159 196 255 318 382
#     4  11  23  37  59  90 127 164 204 265 323 373
#     4  12  24  40  61  89 124 169 212 261 310 381
#     4   9  18  33  58  89 126 162 199 249 318 383
#
# _framework density 19.560161000000001
#
# number of rings (size 3 to 8) (size 9 to 14) (size 15 to 20)
#    0.000    1.333    2.667    3.200    1.867    2.133 
#    0.000    0.000    0.000    0.000    6.933    0.000 
#    0.000    0.000    0.000    0.000    0.000    0.000 
#
# Total GULP energy -167459.781447 kJ/mol
# GULP energy per Si atom -5581.992715 kJ/mol
# Density = 1.951564 g / cm^3
# Si number density = 19.560161 Si / 1000 Ang^3
#
#
#
# Elastic Constant Matrix: (Units=GPa)
#
#
# Indices 1 2 3 4 5 6 
#
# 1 59.3908 4.8095 10.0198 0.0000 0.0000 0.0000
# 2 4.8095 91.7932 8.9366 0.0000 0.0000 0.0000
# 3 10.0198 8.9366 91.0769 0.0000 0.0000 0.0000
# 4 0.0000 0.0000 0.0000 -92.1829 0.0000 0.0000
# 5 0.0000 0.0000 0.0000 0.0000 30.5165 0.0000
# 6 0.0000 0.0000 0.0000 0.0000 0.0000 436.6627
#
#
#
# Elastic Compliance Matrix: (Units=1/GPa)
#
#
# Indices 1 2 3 4 5 6 
#
# 1 0.017204 -0.000724 -0.001822 0.000000 0.000000 0.000000
# 2 -0.000724 0.011030 -0.001003 0.000000 0.000000 0.000000
# 3 -0.001822 -0.001003 0.011279 0.000000 0.000000 0.000000
# 4 0.000000 0.000000 0.000000 -0.010848 0.000000 0.000000
# 5 0.000000 0.000000 0.000000 0.000000 0.032769 0.000000
# 6 0.000000 0.000000 0.000000 0.000000 0.000000 0.002290
#
#
# Mechanical properties :
#
#
# Convention : Reuss Voigt Hill
#
# Bulk Modulus (GPa) = 30.84970 32.19919 31.52444
# Shear Modulus (GPa) = 61.25614 89.56560 75.41087
#
# Velocity S-wave (km/s) = 5.60221 6.77416 6.21587
# Velocity P-wave (km/s) = 7.59291 8.81379 8.22603
#
# Compressibility (1/GPa) = 0.03241523
#
# Stress axis : x y z
#
# Youngs Moduli (GPa) = 58.12748 90.66513 88.66419
#
# Poissons Ratio (x) = 0.06564 0.16151
# Poissons Ratio (y) = 0.04209 0.08889
# Poissons Ratio (z) = 0.10589 0.09090
#
# Static dielectric constant tensor:
#      x y z
#    x 1.738580 0.000000 0.000000 
#    y 0.000000 1.692440 0.000000 
#    z 0.000000 0.000000 1.687270 
# 
# From -- ./inp_files/15344.got.cif
#   From: 2010.05.17/outbox.cif.g08.bks.cpg/sg39_8_cif.got.tgz:15344.got - 2010.06.03 18:22:40.
