data_PCOD9361454
_publ_section_title
;
Structure prediction by ZEFSAII (Michael W. Deem and Ramdas Pophale) SiO2 
 PCOD9361454
Probable space group: A B M 2
;
_chemical_formula_sum "Si O2"
_cell_formula_units_Z 48
_cell_length_a 5.602321
_cell_length_b 27.898103
_cell_length_c 14.360444
_cell_angle_alpha 90.000000
_cell_angle_beta 90.000000
_cell_angle_gamma 90.000000
_cell_volume 2244.453077
_symmetry_space_group_name_H-M "A B M 2"
_symmetry_group_IT_number 39
_symmetry_cell_setting 'orthorhombic'
loop_
_space_group_symop_operation_xyz
x,y,z
-x,-y,z
-x,1/2+y,z
x,1/2-y,z
x,1/2+y,1/2+z
-x,1/2-y,1/2+z
-x,y,1/2+z
x,-y,1/2+z
loop_
_atom_site_type_symbol
_atom_site_label
_atom_site_fract_x
_atom_site_fract_y
_atom_site_fract_z
Si Si1 0.505294 0.446745 0.730790
Si Si2 0.718192 0.874383 0.605580
Si Si3 0.331130 0.693819 0.622267
Si Si4 0.745792 0.028508 0.417899
Si Si5 0.102881 0.873499 0.765189
Si Si6 0.084889 0.371638 0.965055
O O1 0.500000 0.500000 0.690664
O O2 0.470084 0.411599 0.644623
O O3 0.306395 0.453961 0.811397
O O4 0.732204 0.420830 0.780357
O O5 0.606769 0.821764 0.612128
O O6 0.926322 0.883128 0.679844
O O7 0.821034 0.882017 0.504592
O O8 0.291317 0.750000 0.619966
O O9 0.253145 0.670533 0.721226
O O10 0.200207 0.667560 0.534342
O O11 0.775418 0.078444 0.471403
O O12 0.500000 0.000000 0.441781
O O13 0.000000 0.000000 0.425116
O O14 0.956727 0.859162 0.857187
#
# Coordination Sequence:
#
# PCOD9361454 Si02
#       6
#     8   8   8   8   8   8
#     4  10  21  39  66  95 138 187 232 276 342 417
#     4  10  23  41  63  94 134 176 229 297 346 423
#     4  10  25  45  67 101 133 177 238 302 369 433
#     4  11  24  41  70 104 146 192 239 287 342 423
#     4  10  22  44  68  94 136 183 227 294 355 423
#     4  11  23  43  70  98 140 182 234 291 359 418
#
# _framework density 21.386057000000001
#
# number of rings (size 3 to 8) (size 9 to 14) (size 15 to 20)
#    0.000    1.667    1.667    2.000    4.667    3.333 
#    9.000    2.500    0.000    0.000    0.000    0.000 
#    0.000    0.000    0.000    0.000    0.000    0.000 
#
# Total GULP energy -133701.176412 kJ/mol
# GULP energy per Si atom -5570.882351 kJ/mol
# Density = 2.133738 g / cm^3
# Si number density = 21.386057 Si / 1000 Ang^3
#
#
#
# Elastic Constant Matrix: (Units=GPa)
#
#
# Indices 1 2 3 4 5 6 
#
# 1 84.2000 45.4081 14.2286 0.0000 0.0000 0.0000
# 2 45.4081 165.1459 32.4509 0.0000 0.0000 0.0000
# 3 14.2286 32.4509 59.6446 0.0000 0.0000 0.0000
# 4 0.0000 0.0000 0.0000 24.8359 0.0000 0.0000
# 5 0.0000 0.0000 0.0000 0.0000 22.2851 0.0000
# 6 0.0000 0.0000 0.0000 0.0000 0.0000 27.4139
#
#
#
# Elastic Compliance Matrix: (Units=1/GPa)
#
#
# Indices 1 2 3 4 5 6 
#
# 1 0.014048 -0.003588 -0.001399 0.000000 0.000000 0.000000
# 2 -0.003588 0.007696 -0.003332 0.000000 0.000000 0.000000
# 3 -0.001399 -0.003332 0.018912 0.000000 0.000000 0.000000
# 4 0.000000 0.000000 0.000000 0.040264 0.000000 0.000000
# 5 0.000000 0.000000 0.000000 0.000000 0.044873 0.000000
# 6 0.000000 0.000000 0.000000 0.000000 0.000000 0.036478
#
#
# Mechanical properties :
#
#
# Convention : Reuss Voigt Hill
#
# Bulk Modulus (GPa) = 41.63255 54.79620 48.21438
# Shear Modulus (GPa) = 26.75016 29.36717 28.05867
#
# Velocity S-wave (km/s) = 3.54053 3.70968 3.62609
# Velocity P-wave (km/s) = 6.01858 6.63528 6.33444
#
# Compressibility (1/GPa) = 0.02401966
#
# Stress axis : x y z
#
# Youngs Moduli (GPa) = 71.18612 129.93225 52.87548
#
# Poissons Ratio (x) = 0.46614 0.07399
# Poissons Ratio (y) = 0.25538 0.17616
# Poissons Ratio (z) = 0.09961 0.43287
#
# Static dielectric constant tensor:
#      x y z
#    x 1.947220 0.000000 0.000000 
#    y 0.000000 1.824700 0.000000 
#    z 0.000000 0.000000 1.763340 
# 
# From -- ./inp_files/7561.got.cif
#   From: 2010.05.17/outbox.cif.g08.bks.cpg/sg39_4_cif.got.tgz:7561.got - 2010.06.03 18:22:40.
