data_PCOD9361705
_publ_section_title
;
Structure prediction by ZEFSAII (Michael W. Deem and Ramdas Pophale) SiO2 
 PCOD9361705
Probable space group: A B M 2
;
_chemical_formula_sum "Si O2"
_cell_formula_units_Z 40
_cell_length_a 8.590773
_cell_length_b 22.017749
_cell_length_c 7.789643
_cell_angle_alpha 90.000000
_cell_angle_beta 90.000000
_cell_angle_gamma 90.000000
_cell_volume 1473.406951
_symmetry_space_group_name_H-M "A B M 2"
_symmetry_group_IT_number 39
_symmetry_cell_setting 'orthorhombic'
loop_
_space_group_symop_operation_xyz
x,y,z
-x,-y,z
-x,1/2+y,z
x,1/2-y,z
x,1/2+y,1/2+z
-x,1/2-y,1/2+z
-x,y,1/2+z
x,-y,1/2+z
loop_
_atom_site_type_symbol
_atom_site_label
_atom_site_fract_x
_atom_site_fract_y
_atom_site_fract_z
Si Si1 0.199072 0.365829 0.255290
Si Si2 0.612214 0.942701 0.694972
Si Si3 0.877371 0.681654 0.886058
Si Si4 0.620697 0.817878 0.583638
Si Si5 0.181258 0.488047 0.402246
O O1 0.309476 0.332470 0.395554
O O2 0.212615 0.438859 0.251310
O O3 0.024739 0.357733 0.333090
O O4 0.196395 0.337008 0.067131
O O5 0.532123 0.878983 0.647717
O O6 0.750208 0.950208 0.558847
O O7 0.500000 0.000000 0.683135
O O8 0.708994 0.953725 0.868657
O O9 0.938839 0.750000 0.907940
O O10 0.755745 0.682492 0.729013
O O11 0.549063 0.750000 0.581928
O O12 0.000000 0.500000 0.417795
#
# Coordination Sequence:
#
# PCOD9361705 Si02
#       5
#     8   8   8   8   8
#     4  11  22  34  57  98 139 187 231 291 353 425
#     4  11  25  46  72 102 143 190 235 295 365 435
#     4  11  20  33  58  95 141 185 230 289 361 425
#     4  10  22  40  65  97 134 183 237 293 353 427
#     4  11  25  41  68 104 141 182 239 301 353 426
#
# _framework density 27.147967000000001
#
# number of rings (size 3 to 8) (size 9 to 14) (size 15 to 20)
#    0.000    1.200    2.000    4.200    8.400    0.000 
#    0.000    0.000    0.000   13.200    0.000    0.000 
#    0.000    0.000    0.000    0.000    0.000    0.000 
#
# Total GULP energy -112054.998112 kJ/mol
# GULP energy per Si atom -5602.749906 kJ/mol
# Density = 2.708618 g / cm^3
# Si number density = 27.147967 Si / 1000 Ang^3
#
#
#
# Elastic Constant Matrix: (Units=GPa)
#
#
# Indices 1 2 3 4 5 6 
#
# 1 96.4441 60.8051 37.2411 0.0000 0.0000 0.0000
# 2 60.8051 195.5046 28.5913 0.0000 0.0000 0.0000
# 3 37.2411 28.5913 177.0728 0.0000 0.0000 0.0000
# 4 0.0000 0.0000 0.0000 35.0166 0.0000 0.0000
# 5 0.0000 0.0000 0.0000 0.0000 33.6959 0.0000
# 6 0.0000 0.0000 0.0000 0.0000 0.0000 43.9563
#
#
#
# Elastic Compliance Matrix: (Units=1/GPa)
#
#
# Indices 1 2 3 4 5 6 
#
# 1 0.013720 -0.003938 -0.002250 0.000000 0.000000 0.000000
# 2 -0.003938 0.006369 -0.000200 0.000000 0.000000 0.000000
# 3 -0.002250 -0.000200 0.006153 0.000000 0.000000 0.000000
# 4 0.000000 0.000000 0.000000 0.028558 0.000000 0.000000
# 5 0.000000 0.000000 0.000000 0.000000 0.029677 0.000000
# 6 0.000000 0.000000 0.000000 0.000000 0.000000 0.022750
#
#
# Mechanical properties :
#
#
# Convention : Reuss Voigt Hill
#
# Bulk Modulus (GPa) = 74.26024 80.25516 77.25770
# Shear Modulus (GPa) = 40.16319 45.35936 42.76127
#
# Velocity S-wave (km/s) = 3.85049 4.09200 3.97308
# Velocity P-wave (km/s) = 6.86889 7.20779 7.04038
#
# Compressibility (1/GPa) = 0.01346616
#
# Stress axis : x y z
#
# Youngs Moduli (GPa) = 72.88445 157.00821 162.52620
#
# Poissons Ratio (x) = 0.61834 0.36564
# Poissons Ratio (y) = 0.28704 0.03253
# Poissons Ratio (z) = 0.16397 0.03142
#
# Static dielectric constant tensor:
#      x y z
#    x 2.071660 0.000000 0.000000 
#    y 0.000000 2.196710 0.000000 
#    z 0.000000 0.000000 2.138950 
# 
# From -- ./inp_files/2115.got.cif
#   From: 2010.05.17/outbox.cif.g08.bks.cpg/sg39_2_cif.got.tgz:2115.got - 2010.06.03 18:22:40.
