data_PCOD9361591
_publ_section_title
;
Structure prediction by ZEFSAII (Michael W. Deem and Ramdas Pophale) SiO2 
 PCOD9361591
Probable space group: A B M 2
;
_chemical_formula_sum "Si O2"
_cell_formula_units_Z 60
_cell_length_a 18.941028
_cell_length_b 18.206440
_cell_length_c 8.989806
_cell_angle_alpha 90.000000
_cell_angle_beta 90.000000
_cell_angle_gamma 90.000000
_cell_volume 3100.122821
_symmetry_space_group_name_H-M "A B M 2"
_symmetry_group_IT_number 39
_symmetry_cell_setting 'orthorhombic'
loop_
_space_group_symop_operation_xyz
x,y,z
-x,-y,z
-x,1/2+y,z
x,1/2-y,z
x,1/2+y,1/2+z
-x,1/2-y,1/2+z
-x,y,1/2+z
x,-y,1/2+z
loop_
_atom_site_type_symbol
_atom_site_label
_atom_site_fract_x
_atom_site_fract_y
_atom_site_fract_z
Si Si1 0.704962 0.336299 0.557650
Si Si2 0.402932 0.446039 0.918572
Si Si3 0.500000 0.000000 0.180304
Si Si4 0.289101 0.062947 0.322909
Si Si5 0.053618 0.434836 0.503677
Si Si6 0.203043 0.550602 0.117604
Si Si7 0.838414 0.164755 0.369304
Si Si8 0.006448 0.336873 0.782869
O O1 0.692308 0.250000 0.547471
O O2 0.652301 0.381003 0.449094
O O3 0.694672 0.366470 0.723748
O O4 0.785881 0.351100 0.505296
O O5 0.460546 0.441646 0.787371
O O6 0.357251 0.516854 0.871700
O O7 0.443905 0.462160 0.071067
O O8 0.247625 0.076019 0.475475
O O9 0.243816 0.011128 0.210968
O O10 0.127141 0.471249 0.550900
O O11 0.026388 0.383676 0.638176
O O12 0.000000 0.500000 0.467176
O O13 0.056818 0.378741 0.365450
O O14 0.186843 0.615052 0.233431
O O15 0.828332 0.250000 0.330060
O O16 0.922724 0.155860 0.386032
O O17 0.994525 0.250000 0.755600
#
# Coordination Sequence:
#
# PCOD9361591 Si02
#       8
#     8   8   4   8   8   8   8   8
#     4  11  23  40  64  96 130 162 203 258 312 360
#     4  11  20  40  64  96 124 165 205 247 288 362
#     4  10  22  36  70  98 122 162 216 236 284 362
#     4  12  22  39  65  91 123 164 210 256 307 362
#     4  11  25  36  58  86 118 152 204 263 317 368
#     4  11  23  36  62  87 121 158 214 259 313 372
#     4   9  20  39  60  85 120 162 206 258 318 371
#     4  10  22  41  58  79 115 161 203 251 319 384
#
# _framework density 19.354073
#
# number of rings (size 3 to 8) (size 9 to 14) (size 15 to 20)
#    0.000    1.333    4.000    0.800    7.467    1.067 
#    0.000    2.000    0.000    0.000    0.000    0.000 
#    0.000    0.000    0.000    0.000    0.000    0.000 
#
# Total GULP energy -167486.134009 kJ/mol
# GULP energy per Si atom -5582.871134 kJ/mol
# Density = 1.931002 g / cm^3
# Si number density = 19.354073 Si / 1000 Ang^3
#
#
#
# Elastic Constant Matrix: (Units=GPa)
#
#
# Indices 1 2 3 4 5 6 
#
# 1 40.4798 7.1827 7.1924 0.0000 0.0000 0.0000
# 2 7.1827 61.7295 7.4123 0.0000 0.0000 0.0000
# 3 7.1924 7.4123 58.1035 0.0000 0.0000 0.0000
# 4 0.0000 0.0000 0.0000 23.4235 0.0000 0.0000
# 5 0.0000 0.0000 0.0000 0.0000 43.3087 0.0000
# 6 0.0000 0.0000 0.0000 0.0000 0.0000 -0.2606
#
#
#
# Elastic Compliance Matrix: (Units=1/GPa)
#
#
# Indices 1 2 3 4 5 6 
#
# 1 0.025678 -0.002647 -0.002841 0.000000 0.000000 0.000000
# 2 -0.002647 0.016725 -0.001806 0.000000 0.000000 0.000000
# 3 -0.002841 -0.001806 0.017793 0.000000 0.000000 0.000000
# 4 0.000000 0.000000 0.000000 0.042692 0.000000 0.000000
# 5 0.000000 0.000000 0.000000 0.000000 0.023090 0.000000
# 6 0.000000 0.000000 0.000000 0.000000 0.000000 -3.837101
#
#
# Mechanical properties :
#
#
# Convention : Reuss Voigt Hill
#
# Bulk Modulus (GPa) = 21.92589 22.65417 22.29003
# Shear Modulus (GPa) = -1.35820 22.52934 10.58557
#
# Velocity S-wave (km/s) = -0.83862 3.41554 2.34122
# Velocity P-wave (km/s) = 3.22734 5.22351 4.34170
#
# Compressibility (1/GPa) = 0.04560819
#
# Stress axis : x y z
#
# Youngs Moduli (GPa) = 38.94368 59.79248 56.20278
#
# Poissons Ratio (x) = 0.15825 0.15967
# Poissons Ratio (y) = 0.10307 0.10150
# Poissons Ratio (z) = 0.11064 0.10798
#
# Static dielectric constant tensor:
#      x y z
#    x 1.741580 0.000000 0.000000 
#    y 0.000000 1.652800 0.000000 
#    z 0.000000 0.000000 1.687390 
# 
# From -- ./inp_files/3796.got.cif
#   From: 2010.05.17/outbox.cif.g08.bks.cpg/sg39_2_cif.got.tgz:3796.got - 2010.06.03 18:22:40.
