data_PCOD9361594
_publ_section_title
;
Structure prediction by ZEFSAII (Michael W. Deem and Ramdas Pophale) SiO2 
 PCOD9361594
Probable space group: A B M 2
;
_chemical_formula_sum "Si O2"
_cell_formula_units_Z 56
_cell_length_a 14.110281
_cell_length_b 22.116852
_cell_length_c 7.238521
_cell_angle_alpha 90.000000
_cell_angle_beta 90.000000
_cell_angle_gamma 90.000000
_cell_volume 2258.961416
_symmetry_space_group_name_H-M "A B M 2"
_symmetry_group_IT_number 39
_symmetry_cell_setting 'orthorhombic'
loop_
_space_group_symop_operation_xyz
x,y,z
-x,-y,z
-x,1/2+y,z
x,1/2-y,z
x,1/2+y,1/2+z
-x,1/2-y,1/2+z
-x,y,1/2+z
x,-y,1/2+z
loop_
_atom_site_type_symbol
_atom_site_label
_atom_site_fract_x
_atom_site_fract_y
_atom_site_fract_z
Si Si1 0.586239 0.384110 0.695270
Si Si2 0.368327 0.382872 0.760504
Si Si3 0.188640 0.563913 0.353172
Si Si4 0.414152 0.750000 0.684799
Si Si5 0.864905 0.185105 0.834398
Si Si6 0.364822 0.250000 0.754255
Si Si7 0.770009 0.565257 0.286626
Si Si8 0.085421 0.316373 0.901590
O O1 0.473850 0.395791 0.690542
O O2 0.614674 0.381159 0.481269
O O3 0.606177 0.315765 0.771360
O O4 0.654947 0.430914 0.800213
O O5 0.284564 0.430002 0.732001
O O6 0.329116 0.316527 0.706289
O O7 0.168140 0.492979 0.339911
O O8 0.211536 0.571565 0.568536
O O9 0.121748 0.621219 0.310583
O O10 0.528208 0.750000 0.674046
O O11 0.371441 0.750000 0.478909
O O12 0.821456 0.250000 0.885427
O O13 0.808955 0.125286 0.882008
O O14 0.876252 0.185419 0.610947
O O15 0.971811 0.181924 0.909275
O O16 0.111648 0.250000 0.817800
#
# Coordination Sequence:
#
# PCOD9361594 Si02
#       8
#     8   8   8   4   8   4   8   8
#     4   9  18  32  51  75 104 140 180 221 265 312
#     4   9  18  32  51  75 104 140 180 221 265 312
#     4  10  22  37  54  79 110 146 182 219 266 320
#     4   8  14  26  46  70  95 124 166 216 261 304
#     4   9  19  37  61  85 108 137 176 221 270 322
#     4   8  14  26  46  70  95 124 166 216 261 304
#     4  10  22  37  54  79 110 146 182 219 266 320
#     4   9  19  37  61  85 108 137 176 221 270 322
#
# _framework density 24.790153
#
# number of rings (size 3 to 8) (size 9 to 14) (size 15 to 20)
#    0.000    2.857    0.000    0.000    2.000    3.429 
#    0.000    5.714    0.000    0.000    0.000    0.000 
#    0.000    0.000    0.000    0.000    0.000    0.000 
#
# Total GULP energy -156216.434907 kJ/mol
# GULP energy per Si atom -5579.158390 kJ/mol
# Density = 2.473373 g / cm^3
# Si number density = 24.790153 Si / 1000 Ang^3
#
#
#
# Elastic Constant Matrix: (Units=GPa)
#
#
# Indices 1 2 3 4 5 6 
#
# 1 52.2377 51.8889 0.7469 0.0000 0.0000 0.0000
# 2 51.8889 158.0841 1.2343 0.0000 0.0000 0.0000
# 3 0.7469 1.2343 63.3109 0.0000 0.0000 0.0000
# 4 0.0000 0.0000 0.0000 22.5020 0.0000 0.0000
# 5 0.0000 0.0000 0.0000 0.0000 22.0141 0.0000
# 6 0.0000 0.0000 0.0000 0.0000 0.0000 34.0755
#
#
#
# Elastic Compliance Matrix: (Units=1/GPa)
#
#
# Indices 1 2 3 4 5 6 
#
# 1 0.028406 -0.009323 -0.000153 0.000000 0.000000 0.000000
# 2 -0.009323 0.009386 -0.000073 0.000000 0.000000 0.000000
# 3 -0.000153 -0.000073 0.015798 0.000000 0.000000 0.000000
# 4 0.000000 0.000000 0.000000 0.044440 0.000000 0.000000
# 5 0.000000 0.000000 0.000000 0.000000 0.045425 0.000000
# 6 0.000000 0.000000 0.000000 0.000000 0.000000 0.029347
#
#
# Mechanical properties :
#
#
# Convention : Reuss Voigt Hill
#
# Bulk Modulus (GPa) = 28.99184 42.37477 35.68330
# Shear Modulus (GPa) = 24.58233 30.36919 27.47576
#
# Velocity S-wave (km/s) = 3.15241 3.50387 3.33278
# Velocity P-wave (km/s) = 4.99705 5.78792 5.40696
#
# Compressibility (1/GPa) = 0.03449247
#
# Stress axis : x y z
#
# Youngs Moduli (GPa) = 35.20411 106.53799 63.29798
#
# Poissons Ratio (x) = 0.99321 0.00971
# Poissons Ratio (y) = 0.32819 0.00462
# Poissons Ratio (z) = 0.00540 0.00778
#
# Static dielectric constant tensor:
#      x y z
#    x 1.959550 0.000000 0.000000 
#    y 0.000000 2.018520 0.000000 
#    z 0.000000 0.000000 2.024550 
# 
# From -- ./inp_files/3431.got.cif
#   From: 2010.05.17/outbox.cif.g08.bks.cpg/sg39_2_cif.got.tgz:3431.got - 2010.06.03 18:22:40.
