data_PCOD9361671
_publ_section_title
;
Structure prediction by ZEFSAII (Michael W. Deem and Ramdas Pophale) SiO2 
 PCOD9361671
Probable space group: A B M 2
;
_chemical_formula_sum "Si O2"
_cell_formula_units_Z 64
_cell_length_a 19.356932
_cell_length_b 8.842226
_cell_length_c 20.215671
_cell_angle_alpha 90.000000
_cell_angle_beta 90.000000
_cell_angle_gamma 90.000000
_cell_volume 3460.081244
_symmetry_space_group_name_H-M "A B M 2"
_symmetry_group_IT_number 39
_symmetry_cell_setting 'orthorhombic'
loop_
_space_group_symop_operation_xyz
x,y,z
-x,-y,z
-x,1/2+y,z
x,1/2-y,z
x,1/2+y,1/2+z
-x,1/2-y,1/2+z
-x,y,1/2+z
x,-y,1/2+z
loop_
_atom_site_type_symbol
_atom_site_label
_atom_site_fract_x
_atom_site_fract_y
_atom_site_fract_z
Si Si1 0.924499 0.567770 0.311830
Si Si2 0.806949 0.930754 0.565941
Si Si3 0.341408 0.069441 0.762633
Si Si4 0.428123 0.425309 0.147093
Si Si5 0.667873 0.073979 0.518940
Si Si6 0.576564 0.432278 0.394583
Si Si7 0.924731 0.932307 0.463182
Si Si8 0.198203 0.568123 0.712896
O O1 0.929428 0.750000 0.309959
O O2 0.905205 0.524137 0.387548
O O3 0.866583 0.522008 0.258893
O O4 0.000000 0.500000 0.297630
O O5 0.809352 0.750000 0.573764
O O6 0.869871 0.979803 0.518515
O O7 0.736489 0.978230 0.529508
O O8 0.808454 0.005137 0.638496
O O9 0.332424 0.250000 0.760865
O O10 0.375389 0.026176 0.832450
O O11 0.395348 0.017076 0.707146
O O12 0.268665 0.992072 0.745772
O O13 0.500000 0.500000 0.127076
O O14 0.438418 0.250000 0.165796
O O15 0.375035 0.430784 0.086651
O O16 0.686548 0.250000 0.505946
O O17 0.617559 0.021128 0.460522
O O18 0.500000 0.500000 0.390354
O O19 0.569772 0.250000 0.395507
O O20 0.928612 0.750000 0.464664
O O21 0.000000 0.000000 0.476458
O O22 0.201090 0.750000 0.709989
#
# Coordination Sequence:
#
# PCOD9361671 Si02
#       8
#     8   8   8   8   8   8   8   8
#     4   9  20  39  62  88 119 154 196 239 287 345
#     4  11  23  38  60  88 120 155 197 243 289 347
#     4  11  23  39  59  86 119 153 198 245 291 349
#     4  11  22  37  60  85 114 153 196 241 291 348
#     4  10  22  40  59  84 118 154 196 239 290 348
#     4  10  23  41  60  86 117 152 194 242 293 350
#     4   9  20  39  61  89 119 153 196 239 286 344
#     4  11  23  39  60  86 120 158 196 242 295 350
#
# _framework density 18.496675
#
# number of rings (size 3 to 8) (size 9 to 14) (size 15 to 20)
#    0.000    1.750    1.250    2.250    1.750    5.500 
#    0.000    2.500    0.000    0.000    0.000    0.000 
#    0.000    0.000    0.000    0.000    0.000    0.000 
#
# Total GULP energy -178740.566082 kJ/mol
# GULP energy per Si atom -5585.642690 kJ/mol
# Density = 1.845458 g / cm^3
# Si number density = 18.496675 Si / 1000 Ang^3
#
#
#
# Elastic Constant Matrix: (Units=GPa)
#
#
# Indices 1 2 3 4 5 6 
#
# 1 106.4124 30.2136 44.1899 0.0000 0.0000 0.0000
# 2 30.2136 36.3841 28.6359 0.0000 0.0000 0.0000
# 3 44.1899 28.6359 93.7251 0.0000 0.0000 0.0000
# 4 0.0000 0.0000 0.0000 20.5433 0.0000 0.0000
# 5 0.0000 0.0000 0.0000 0.0000 31.9167 0.0000
# 6 0.0000 0.0000 0.0000 0.0000 0.0000 35.5447
#
#
#
# Elastic Compliance Matrix: (Units=1/GPa)
#
#
# Indices 1 2 3 4 5 6 
#
# 1 0.013250 -0.008013 -0.003799 0.000000 0.000000 0.000000
# 2 -0.008013 0.041032 -0.008759 0.000000 0.000000 0.000000
# 3 -0.003799 -0.008759 0.015137 0.000000 0.000000 0.000000
# 4 0.000000 0.000000 0.000000 0.048678 0.000000 0.000000
# 5 0.000000 0.000000 0.000000 0.000000 0.031332 0.000000
# 6 0.000000 0.000000 0.000000 0.000000 0.000000 0.028134
#
#
# Mechanical properties :
#
#
# Convention : Reuss Voigt Hill
#
# Bulk Modulus (GPa) = 35.36358 49.17781 42.27069
# Shear Modulus (GPa) = 21.91747 26.49975 24.20861
#
# Velocity S-wave (km/s) = 3.44603 3.78918 3.62167
# Velocity P-wave (km/s) = 5.91556 6.76675 6.35542
#
# Compressibility (1/GPa) = 0.02827768
#
# Stress axis : x y z
#
# Youngs Moduli (GPa) = 75.47083 24.37126 66.06470
#
# Poissons Ratio (x) = 0.19529 0.25098
# Poissons Ratio (y) = 0.60475 0.57863
# Poissons Ratio (z) = 0.28671 0.21346
#
# Static dielectric constant tensor:
#      x y z
#    x 1.593290 0.000000 0.000000 
#    y 0.000000 1.631060 0.000000 
#    z 0.000000 0.000000 1.630760 
# 
# From -- ./inp_files/13153.got.cif
#   From: 2010.05.17/outbox.cif.g08.bks.cpg/sg39_7_cif.got.tgz:13153.got - 2010.06.03 18:22:40.
