data_PCOD9361172
_publ_section_title
;
Structure prediction by ZEFSAII (Michael W. Deem and Ramdas Pophale) SiO2 
 PCOD9361172
Probable space group: A B M 2
;
_chemical_formula_sum "Si O2"
_cell_formula_units_Z 48
_cell_length_a 11.390765
_cell_length_b 21.919126
_cell_length_c 8.367453
_cell_angle_alpha 90.000000
_cell_angle_beta 90.000000
_cell_angle_gamma 90.000000
_cell_volume 2089.148959
_symmetry_space_group_name_H-M "A B M 2"
_symmetry_group_IT_number 39
_symmetry_cell_setting 'orthorhombic'
loop_
_space_group_symop_operation_xyz
x,y,z
-x,-y,z
-x,1/2+y,z
x,1/2-y,z
x,1/2+y,1/2+z
-x,1/2-y,1/2+z
-x,y,1/2+z
x,-y,1/2+z
loop_
_atom_site_type_symbol
_atom_site_label
_atom_site_fract_x
_atom_site_fract_y
_atom_site_fract_z
Si Si1 0.500000 0.000000 0.233110
Si Si2 0.018413 0.750000 0.599881
Si Si3 0.411112 0.092346 0.976896
Si Si4 0.141915 0.633401 0.142909
Si Si5 0.640149 0.177241 0.977220
Si Si6 0.036796 0.569124 0.843364
Si Si7 0.788431 0.145623 0.657882
O O1 0.415018 0.957303 0.336981
O O2 0.571124 0.951762 0.129238
O O3 0.119022 0.802479 0.618470
O O4 0.917302 0.802879 0.593550
O O5 0.519991 0.139106 0.964891
O O6 0.295805 0.130405 0.011931
O O7 0.077257 0.611229 0.304084
O O8 0.279481 0.646540 0.116626
O O9 0.097100 0.585183 0.011177
O O10 0.622616 0.250000 0.002695
O O11 0.711193 0.166873 0.811298
O O12 0.135084 0.587702 0.713762
O O13 0.000000 0.500000 0.835266
#
# Coordination Sequence:
#
# PCOD9361172 Si02
#       7
#     4   4   8   8   8   8   8
#     4  10  24  44  68  88 142 164 228 278 320 416
#     4  10  20  42  66  94 130 166 218 262 340 390
#     4  11  23  46  66 102 126 184 221 277 348 388
#     4  10  22  41  65  96 129 180 212 276 336 392
#     4  11  22  41  69  95 138 173 223 278 336 402
#     4  10  22  41  64  97 132 170 227 269 327 394
#     4  10  22  41  69  95 136 177 213 280 339 395
#
# _framework density 22.975861999999999
#
# number of rings (size 3 to 8) (size 9 to 14) (size 15 to 20)
#    0.000    1.667    3.333    0.500    1.167    3.333 
#   12.000    0.000    0.000    0.000    0.000    0.000 
#    0.000    0.000    0.000    0.000    0.000    0.000 
#
# Total GULP energy -133726.655634 kJ/mol
# GULP energy per Si atom -5571.943985 kJ/mol
# Density = 2.292357 g / cm^3
# Si number density = 22.975862 Si / 1000 Ang^3
#
#
#
# Elastic Constant Matrix: (Units=GPa)
#
#
# Indices 1 2 3 4 5 6 
#
# 1 110.9443 44.0271 4.5789 0.0000 0.0000 0.0000
# 2 44.0271 168.8446 18.1872 0.0000 0.0000 0.0000
# 3 4.5789 18.1872 45.1933 0.0000 0.0000 0.0000
# 4 0.0000 0.0000 0.0000 -20.2253 0.0000 0.0000
# 5 0.0000 0.0000 0.0000 0.0000 10.9814 0.0000
# 6 0.0000 0.0000 0.0000 0.0000 0.0000 5.9968
#
#
#
# Elastic Compliance Matrix: (Units=1/GPa)
#
#
# Indices 1 2 3 4 5 6 
#
# 1 0.010054 -0.002626 0.000038 0.000000 0.000000 0.000000
# 2 -0.002626 0.006877 -0.002501 0.000000 0.000000 0.000000
# 3 0.000038 -0.002501 0.023130 0.000000 0.000000 0.000000
# 4 0.000000 0.000000 0.000000 -0.049443 0.000000 0.000000
# 5 0.000000 0.000000 0.000000 0.000000 0.091063 0.000000
# 6 0.000000 0.000000 0.000000 0.000000 0.000000 0.166754
#
#
# Mechanical properties :
#
#
# Convention : Reuss Voigt Hill
#
# Bulk Modulus (GPa) = 33.46442 50.95208 42.20825
# Shear Modulus (GPa) = 18.61684 16.56318 17.59001
#
# Velocity S-wave (km/s) = 2.84963 2.68786 2.76992
# Velocity P-wave (km/s) = 5.04220 5.64423 5.35169
#
# Compressibility (1/GPa) = 0.02988248
#
# Stress axis : x y z
#
# Youngs Moduli (GPa) = 99.46335 145.41828 43.23394
#
# Poissons Ratio (x) = 0.38183 -0.00164
# Poissons Ratio (y) = 0.26116 0.10814
# Poissons Ratio (z) = -0.00378 0.36375
#
# Static dielectric constant tensor:
#      x y z
#    x 1.878910 0.000000 0.000000 
#    y 0.000000 1.766630 0.000000 
#    z 0.000000 0.000000 1.979640 
# 
# From -- ./inp_files/2741.got.cif
#   From: 2010.05.17/outbox.cif.g08.bks.cpg/sg39_2_cif.got.tgz:2741.got - 2010.06.03 18:22:40.
