data_PCOD9361499
_publ_section_title
;
Structure prediction by ZEFSAII (Michael W. Deem and Ramdas Pophale) SiO2 
 PCOD9361499
Probable space group: A B M 2
;
_chemical_formula_sum "Si O2"
_cell_formula_units_Z 48
_cell_length_a 8.524338
_cell_length_b 10.237420
_cell_length_c 28.620508
_cell_angle_alpha 90.000000
_cell_angle_beta 90.000000
_cell_angle_gamma 90.000000
_cell_volume 2497.632406
_symmetry_space_group_name_H-M "A B M 2"
_symmetry_group_IT_number 39
_symmetry_cell_setting 'orthorhombic'
loop_
_space_group_symop_operation_xyz
x,y,z
-x,-y,z
-x,1/2+y,z
x,1/2-y,z
x,1/2+y,1/2+z
-x,1/2-y,1/2+z
-x,y,1/2+z
x,-y,1/2+z
loop_
_atom_site_type_symbol
_atom_site_label
_atom_site_fract_x
_atom_site_fract_y
_atom_site_fract_z
Si Si1 0.354255 0.598880 0.458480
Si Si2 0.318997 0.750000 0.200792
Si Si3 0.686256 0.250000 0.723458
Si Si4 0.814001 0.250000 0.098013
Si Si5 0.817854 0.250000 0.619981
Si Si6 0.310760 0.983977 0.557989
Si Si7 0.185433 0.983309 0.262205
Si Si8 0.353060 0.098611 0.854884
O O1 0.500000 0.500000 0.457493
O O2 0.406156 0.750000 0.463031
O O3 0.264457 0.563759 0.505924
O O4 0.280093 0.585571 0.406987
O O5 0.503116 0.750000 0.211379
O O6 0.284456 0.750000 0.146010
O O7 0.243660 0.622808 0.224709
O O8 0.781021 0.250000 0.674769
O O9 0.731416 0.379481 0.751594
O O10 0.768007 0.378897 0.069730
O O11 0.996746 0.250000 0.110945
O O12 0.742354 0.123393 0.595448
O O13 0.500000 0.000000 0.559728
O O14 0.235609 0.933373 0.313194
O O15 0.000000 0.000000 0.258655
O O16 0.405437 0.250000 0.850130
O O17 0.500000 0.000000 0.851329
#
# Coordination Sequence:
#
# PCOD9361499 Si02
#       8
#     8   4   4   4   4   8   8   8
#     4   9  19  36  64  95 126 162 212 267 309 359
#     4  12  24  46  65  92 121 166 217 258 304 374
#     4  12  26  42  69  90 123 164 217 258 306 374
#     4  12  26  40  63  92 131 166 205 256 322 376
#     4  12  24  44  61  92 129 168 201 260 320 376
#     4  11  22  40  65  94 123 164 215 259 307 368
#     4  12  25  42  63  95 130 165 202 259 323 374
#     4  10  21  40  66  96 127 166 213 260 309 374
#
# _framework density 19.218201000000001
#
# number of rings (size 3 to 8) (size 9 to 14) (size 15 to 20)
#    0.000    1.000    1.667    6.000    4.667    0.000 
#    0.000    1.667    0.000    0.000    0.000    0.000 
#    0.000    0.000    0.000    0.000    0.000    0.000 
#
# Total GULP energy -134151.674147 kJ/mol
# GULP energy per Si atom -5589.653089 kJ/mol
# Density = 1.917446 g / cm^3
# Si number density = 19.218201 Si / 1000 Ang^3
#
#
#
# Elastic Constant Matrix: (Units=GPa)
#
#
# Indices 1 2 3 4 5 6 
#
# 1 104.9648 30.7166 11.7291 0.0000 0.0000 0.0000
# 2 30.7166 163.9000 53.8701 0.0000 0.0000 0.0000
# 3 11.7291 53.8701 114.6269 0.0000 0.0000 0.0000
# 4 0.0000 0.0000 0.0000 37.6507 0.0000 0.0000
# 5 0.0000 0.0000 0.0000 0.0000 -33.8010 0.0000
# 6 0.0000 0.0000 0.0000 0.0000 0.0000 89.4690
#
#
#
# Elastic Compliance Matrix: (Units=1/GPa)
#
#
# Indices 1 2 3 4 5 6 
#
# 1 0.010083 -0.001834 -0.000170 0.000000 0.000000 0.000000
# 2 -0.001834 0.007549 -0.003360 0.000000 0.000000 0.000000
# 3 -0.000170 -0.003360 0.010321 0.000000 0.000000 0.000000
# 4 0.000000 0.000000 0.000000 0.026560 0.000000 0.000000
# 5 0.000000 0.000000 0.000000 0.000000 -0.029585 0.000000
# 6 0.000000 0.000000 0.000000 0.000000 0.000000 0.011177
#
#
# Mechanical properties :
#
#
# Convention : Reuss Voigt Hill
#
# Bulk Modulus (GPa) = 58.05620 64.01368 61.03494
# Shear Modulus (GPa) = 95.10409 37.80881 66.45645
#
# Velocity S-wave (km/s) = 7.04229 4.44029 5.88685
# Velocity P-wave (km/s) = 9.81834 7.72460 8.83372
#
# Compressibility (1/GPa) = 0.01722469
#
# Stress axis : x y z
#
# Youngs Moduli (GPa) = 99.18065 132.46112 96.89415
#
# Poissons Ratio (x) = 0.24290 0.01646
# Poissons Ratio (y) = 0.18187 0.32559
# Poissons Ratio (z) = 0.01685 0.44511
#
# Static dielectric constant tensor:
#      x y z
#    x 1.629900 0.000000 0.000000 
#    y 0.000000 1.654720 0.000000 
#    z 0.000000 0.000000 1.689510 
# 
# From -- ./inp_files/17715.got.cif
#   From: 2010.05.17/outbox.cif.g08.bks.cpg/sg39_9_cif.got.tgz:17715.got - 2010.06.03 18:22:40.
