data_PCOD9361569
_publ_section_title
;
Structure prediction by ZEFSAII (Michael W. Deem and Ramdas Pophale) SiO2 
 PCOD9361569
Probable space group: A B M 2
;
_chemical_formula_sum "Si O2"
_cell_formula_units_Z 48
_cell_length_a 8.156049
_cell_length_b 9.692719
_cell_length_c 30.622363
_cell_angle_alpha 90.000000
_cell_angle_beta 90.000000
_cell_angle_gamma 90.000000
_cell_volume 2420.829199
_symmetry_space_group_name_H-M "A B M 2"
_symmetry_group_IT_number 39
_symmetry_cell_setting 'orthorhombic'
loop_
_space_group_symop_operation_xyz
x,y,z
-x,-y,z
-x,1/2+y,z
x,1/2-y,z
x,1/2+y,1/2+z
-x,1/2-y,1/2+z
-x,y,1/2+z
x,-y,1/2+z
loop_
_atom_site_type_symbol
_atom_site_label
_atom_site_fract_x
_atom_site_fract_y
_atom_site_fract_z
Si Si1 0.449326 0.750000 0.204310
Si Si2 0.189726 0.023735 0.075309
Si Si3 0.648331 0.750000 0.608354
Si Si4 0.341776 0.414638 0.404549
Si Si5 0.500000 0.500000 0.766622
Si Si6 0.170150 0.087310 0.979119
Si Si7 0.292428 0.250000 0.134892
Si Si8 0.162882 0.089107 0.315567
O O1 0.333513 0.750000 0.161406
O O2 0.435630 0.619238 0.234739
O O3 0.632481 0.750000 0.182727
O O4 0.280774 0.883891 0.086158
O O5 0.201131 0.116809 0.118472
O O6 0.000000 0.000000 0.069021
O O7 0.241554 0.084238 0.028516
O O8 0.453879 0.750000 0.604345
O O9 0.500000 0.500000 0.388127
O O10 0.374290 0.250000 0.412159
O O11 0.285157 0.500509 0.446774
O O12 0.202611 0.422805 0.367260
O O13 0.337449 0.547376 0.793170
O O14 0.147773 0.250000 0.967049
O O15 0.000000 0.000000 0.977811
O O16 0.132106 0.250000 0.305237
O O17 0.000000 0.000000 0.304652
#
# Coordination Sequence:
#
# PCOD9361569 Si02
#       8
#     4   8   4   8   4   8   4   8
#     4  10  24  42  74  92 132 176 218 282 352 412
#     4  11  22  39  64  95 132 175 224 277 333 393
#     4  10  23  39  66  91 122 175 219 269 341 405
#     4  11  24  43  67 101 139 184 231 281 338 402
#     4  12  22  48  74 100 138 182 224 288 348 426
#     4  11  24  41  63  93 136 182 227 283 337 399
#     4  10  21  43  62  91 126 169 219 267 339 407
#     4  11  26  45  73 108 141 184 230 282 346 415
#
# _framework density 19.827916999999999
#
# number of rings (size 3 to 8) (size 9 to 14) (size 15 to 20)
#    0.500    0.667    2.500    3.500    5.833    4.000 
#    0.000    5.000    0.000    0.000    0.000    0.000 
#    0.000    0.000    0.000    0.000    0.000    0.000 
#
# Total GULP energy -133725.267980 kJ/mol
# GULP energy per Si atom -5571.886166 kJ/mol
# Density = 1.978279 g / cm^3
# Si number density = 19.827917 Si / 1000 Ang^3
#
#
#
# Elastic Constant Matrix: (Units=GPa)
#
#
# Indices 1 2 3 4 5 6 
#
# 1 82.2101 36.1288 19.9133 0.0000 0.0000 0.0000
# 2 36.1288 162.7967 37.1052 0.0000 0.0000 0.0000
# 3 19.9133 37.1052 76.9964 0.0000 0.0000 0.0000
# 4 0.0000 0.0000 0.0000 34.4821 0.0000 0.0000
# 5 0.0000 0.0000 0.0000 0.0000 26.3311 0.0000
# 6 0.0000 0.0000 0.0000 0.0000 0.0000 9.5403
#
#
#
# Elastic Compliance Matrix: (Units=1/GPa)
#
#
# Indices 1 2 3 4 5 6 
#
# 1 0.013850 -0.002536 -0.002360 0.000000 0.000000 0.000000
# 2 -0.002536 0.007365 -0.002893 0.000000 0.000000 0.000000
# 3 -0.002360 -0.002893 0.014992 0.000000 0.000000 0.000000
# 4 0.000000 0.000000 0.000000 0.029001 0.000000 0.000000
# 5 0.000000 0.000000 0.000000 0.000000 0.037978 0.000000
# 6 0.000000 0.000000 0.000000 0.000000 0.000000 0.104819
#
#
# Mechanical properties :
#
#
# Convention : Reuss Voigt Hill
#
# Bulk Modulus (GPa) = 48.47560 56.47754 52.47657
# Shear Modulus (GPa) = 21.69586 29.32776 25.51181
#
# Velocity S-wave (km/s) = 3.31147 3.85010 3.59090
# Velocity P-wave (km/s) = 6.25478 6.95054 6.61182
#
# Compressibility (1/GPa) = 0.02062894
#
# Stress axis : x y z
#
# Youngs Moduli (GPa) = 72.20219 135.78009 66.70090
#
# Poissons Ratio (x) = 0.34431 0.15741
# Poissons Ratio (y) = 0.18309 0.19299
# Poissons Ratio (z) = 0.17039 0.39286
#
# Static dielectric constant tensor:
#      x y z
#    x 1.704640 0.000000 0.000000 
#    y 0.000000 1.637790 0.000000 
#    z 0.000000 0.000000 1.691780 
# 
# From -- ./inp_files/17694.got.cif
#   From: 2010.05.17/outbox.cif.g08.bks.cpg/sg39_9_cif.got.tgz:17694.got - 2010.06.03 18:22:40.
