data_PCOD9361841
_publ_section_title
;
Structure prediction by ZEFSAII (Michael W. Deem and Ramdas Pophale) SiO2 
 PCOD9361841
Probable space group: A B M 2
;
_chemical_formula_sum "Si O2"
_cell_formula_units_Z 48
_cell_length_a 11.213083
_cell_length_b 15.155467
_cell_length_c 13.471061
_cell_angle_alpha 90.000000
_cell_angle_beta 90.000000
_cell_angle_gamma 90.000000
_cell_volume 2289.265497
_symmetry_space_group_name_H-M "A B M 2"
_symmetry_group_IT_number 39
_symmetry_cell_setting 'orthorhombic'
loop_
_space_group_symop_operation_xyz
x,y,z
-x,-y,z
-x,1/2+y,z
x,1/2-y,z
x,1/2+y,1/2+z
-x,1/2-y,1/2+z
-x,y,1/2+z
x,-y,1/2+z
loop_
_atom_site_type_symbol
_atom_site_label
_atom_site_fract_x
_atom_site_fract_y
_atom_site_fract_z
Si Si1 0.868794 0.544845 0.350420
Si Si2 0.311492 0.351682 0.668026
Si Si3 0.384078 0.058908 0.856650
Si Si4 0.219513 0.147864 0.162626
Si Si5 0.546821 0.645939 0.062178
Si Si6 0.130768 0.021517 0.574526
O O1 0.744366 0.489493 0.350567
O O2 0.840849 0.617255 0.265616
O O3 0.875016 0.568349 0.467619
O O4 0.000000 0.500000 0.332992
O O5 0.280955 0.250000 0.650438
O O6 0.367369 0.364034 0.776320
O O7 0.414596 0.382100 0.592284
O O8 0.201865 0.416205 0.648755
O O9 0.500000 0.000000 0.829550
O O10 0.409607 0.094369 0.966285
O O11 0.190555 0.250000 0.141461
O O12 0.363098 0.138268 0.155661
O O13 0.183414 0.077422 0.078121
O O14 0.543047 0.750000 0.038318
O O15 0.000000 0.000000 0.610403
#
# Coordination Sequence:
#
# PCOD9361841 Si02
#       6
#     8   8   8   8   8   8
#     4  11  24  43  66  98 136 179 225 284 337 411
#     4  11  25  42  67 100 136 177 228 288 349 412
#     4  12  23  39  69  96 131 181 231 282 347 403
#     4  11  23  42  68  98 134 179 225 277 342 410
#     4  10  23  42  64  98 134 173 230 284 342 414
#     4  11  24  44  68  96 135 178 232 280 343 407
#
# _framework density 20.967421999999999
#
# number of rings (size 3 to 8) (size 9 to 14) (size 15 to 20)
#    0.000    1.000    3.333    3.000    0.000    1.333 
#    0.000    7.500    0.000    0.000    0.000    0.000 
#    0.000    0.000    0.000    0.000    0.000    0.000 
#
# Total GULP energy -133787.664477 kJ/mol
# GULP energy per Si atom -5574.486020 kJ/mol
# Density = 2.091970 g / cm^3
# Si number density = 20.967422 Si / 1000 Ang^3
#
#
#
# Elastic Constant Matrix: (Units=GPa)
#
#
# Indices 1 2 3 4 5 6 
#
# 1 151.2216 53.8443 22.2795 0.0000 0.0000 0.0000
# 2 53.8443 75.0856 32.2145 0.0000 0.0000 0.0000
# 3 22.2795 32.2145 108.5744 0.0000 0.0000 0.0000
# 4 0.0000 0.0000 0.0000 22.3889 0.0000 0.0000
# 5 0.0000 0.0000 0.0000 0.0000 30.8076 0.0000
# 6 0.0000 0.0000 0.0000 0.0000 0.0000 18.6001
#
#
#
# Elastic Compliance Matrix: (Units=1/GPa)
#
#
# Indices 1 2 3 4 5 6 
#
# 1 0.008881 -0.006402 0.000077 0.000000 0.000000 0.000000
# 2 -0.006402 0.019875 -0.004583 0.000000 0.000000 0.000000
# 3 0.000077 -0.004583 0.010554 0.000000 0.000000 0.000000
# 4 0.000000 0.000000 0.000000 0.044665 0.000000 0.000000
# 5 0.000000 0.000000 0.000000 0.000000 0.032459 0.000000
# 6 0.000000 0.000000 0.000000 0.000000 0.000000 0.053763
#
#
# Mechanical properties :
#
#
# Convention : Reuss Voigt Hill
#
# Bulk Modulus (GPa) = 57.16094 61.28423 59.22258
# Shear Modulus (GPa) = 25.27227 29.46222 27.36725
#
# Velocity S-wave (km/s) = 3.47553 3.75259 3.61671
# Velocity P-wave (km/s) = 6.58989 6.93309 6.76367
#
# Compressibility (1/GPa) = 0.01749446
#
# Stress axis : x y z
#
# Youngs Moduli (GPa) = 112.60247 50.31407 94.74722
#
# Poissons Ratio (x) = 0.32209 -0.00730
# Poissons Ratio (y) = 0.72083 0.43427
# Poissons Ratio (z) = -0.00867 0.23061
#
# Static dielectric constant tensor:
#      x y z
#    x 1.831090 0.000000 0.000000 
#    y 0.000000 1.760230 0.000000 
#    z 0.000000 0.000000 1.772200 
# 
# From -- ./inp_files/9224.got.cif
#   From: 2010.05.17/outbox.cif.g08.bks.cpg/sg39_5_cif.got.tgz:9224.got - 2010.06.03 18:22:40.
