data_PCOD9361858
_publ_section_title
;
Structure prediction by ZEFSAII (Michael W. Deem and Ramdas Pophale) SiO2 
 PCOD9361858
Probable space group: A B M 2
;
_chemical_formula_sum "Si O2"
_cell_formula_units_Z 48
_cell_length_a 7.438194
_cell_length_b 26.067261
_cell_length_c 11.938459
_cell_angle_alpha 90.000000
_cell_angle_beta 90.000000
_cell_angle_gamma 90.000000
_cell_volume 2314.787742
_symmetry_space_group_name_H-M "A B M 2"
_symmetry_group_IT_number 39
_symmetry_cell_setting 'orthorhombic'
loop_
_space_group_symop_operation_xyz
x,y,z
-x,-y,z
-x,1/2+y,z
x,1/2-y,z
x,1/2+y,1/2+z
-x,1/2-y,1/2+z
-x,y,1/2+z
x,-y,1/2+z
loop_
_atom_site_type_symbol
_atom_site_label
_atom_site_fract_x
_atom_site_fract_y
_atom_site_fract_z
Si Si1 0.806537 0.431178 0.610700
Si Si2 0.701552 0.636904 0.905290
Si Si3 0.297420 0.111999 0.342848
Si Si4 0.675977 0.033322 0.026798
Si Si5 0.185381 0.620393 0.152389
Si Si6 0.951608 0.309353 0.962317
O O1 0.745650 0.408911 0.490713
O O2 0.701733 0.405204 0.714273
O O3 0.786545 0.491794 0.597698
O O4 0.008682 0.413569 0.632754
O O5 0.486034 0.636330 0.886509
O O6 0.774995 0.630155 0.780247
O O7 0.832247 0.680954 0.957417
O O8 0.254623 0.059736 0.412879
O O9 0.144262 0.153577 0.371449
O O10 0.657794 0.084521 0.101732
O O11 0.500000 0.000000 0.000880
O O12 0.139091 0.670459 0.078133
O O13 0.913824 0.250000 0.943442
#
# Coordination Sequence:
#
# PCOD9361858 Si02
#       6
#     8   8   8   8   8   8
#     4  11  23  42  65  98 137 185 224 273 339 404
#     4  11  23  43  70  96 136 178 221 281 343 401
#     4  11  24  43  69 101 141 174 236 283 330 413
#     4  11  22  39  62  96 136 187 223 275 334 400
#     4  10  23  43  66  98 135 175 233 283 332 411
#     4  10  24  47  71  97 131 177 230 289 347 398
#
# _framework density 20.736243999999999
#
# number of rings (size 3 to 8) (size 9 to 14) (size 15 to 20)
#    0.000    1.333    3.333    1.500    4.667    2.000 
#    0.000    0.000    0.000    0.000    0.000    0.000 
#    0.000    0.000    0.000    0.000    0.000    0.000 
#
# Total GULP energy -133718.875913 kJ/mol
# GULP energy per Si atom -5571.619830 kJ/mol
# Density = 2.068905 g / cm^3
# Si number density = 20.736244 Si / 1000 Ang^3
#
#
#
# Elastic Constant Matrix: (Units=GPa)
#
#
# Indices 1 2 3 4 5 6 
#
# 1 87.2573 43.5317 8.5769 0.0000 0.0000 0.0000
# 2 43.5317 116.9111 27.1109 0.0000 0.0000 0.0000
# 3 8.5769 27.1109 118.6765 0.0000 0.0000 0.0000
# 4 0.0000 0.0000 0.0000 -1.9640 0.0000 0.0000
# 5 0.0000 0.0000 0.0000 0.0000 12.0385 0.0000
# 6 0.0000 0.0000 0.0000 0.0000 0.0000 23.2529
#
#
#
# Elastic Compliance Matrix: (Units=1/GPa)
#
#
# Indices 1 2 3 4 5 6 
#
# 1 0.014079 -0.005286 0.000190 0.000000 0.000000 0.000000
# 2 -0.005286 0.011017 -0.002135 0.000000 0.000000 0.000000
# 3 0.000190 -0.002135 0.008900 0.000000 0.000000 0.000000
# 4 0.000000 0.000000 0.000000 -0.509158 0.000000 0.000000
# 5 0.000000 0.000000 0.000000 0.000000 0.083067 0.000000
# 6 0.000000 0.000000 0.000000 0.000000 0.000000 0.043005
#
#
# Mechanical properties :
#
#
# Convention : Reuss Voigt Hill
#
# Bulk Modulus (GPa) = 51.19228 53.47600 52.33414
# Shear Modulus (GPa) = -15.23850 22.90717 3.83434
#
# Velocity S-wave (km/s) = -2.71379 3.32730 1.36129
# Velocity P-wave (km/s) = 3.86282 6.37227 5.26912
#
# Compressibility (1/GPa) = 0.01953420
#
# Stress axis : x y z
#
# Youngs Moduli (GPa) = 71.02787 90.76967 112.35725
#
# Poissons Ratio (x) = 0.47984 -0.02136
# Poissons Ratio (y) = 0.37548 0.23985
# Poissons Ratio (z) = -0.01350 0.19376
#
# Static dielectric constant tensor:
#      x y z
#    x 1.928310 0.000000 0.000000 
#    y 0.000000 1.710030 0.000000 
#    z 0.000000 0.000000 1.759680 
# 
# From -- ./inp_files/5183.got.cif
#   From: 2010.05.17/outbox.cif.g08.bks.cpg/sg39_3_cif.got.tgz:5183.got - 2010.06.03 18:22:40.
