data_PCOD9361629
_publ_section_title
;
Structure prediction by ZEFSAII (Michael W. Deem and Ramdas Pophale) SiO2 
 PCOD9361629
Probable space group: A B M 2
;
_chemical_formula_sum "Si O2"
_cell_formula_units_Z 40
_cell_length_a 14.980537
_cell_length_b 13.881784
_cell_length_c 8.550382
_cell_angle_alpha 90.000000
_cell_angle_beta 90.000000
_cell_angle_gamma 90.000000
_cell_volume 1778.108188
_symmetry_space_group_name_H-M "A B M 2"
_symmetry_group_IT_number 39
_symmetry_cell_setting 'orthorhombic'
loop_
_space_group_symop_operation_xyz
x,y,z
-x,-y,z
-x,1/2+y,z
x,1/2-y,z
x,1/2+y,1/2+z
-x,1/2-y,1/2+z
-x,y,1/2+z
x,-y,1/2+z
loop_
_atom_site_type_symbol
_atom_site_label
_atom_site_fract_x
_atom_site_fract_y
_atom_site_fract_z
Si Si1 0.704041 0.548828 0.990100
Si Si2 0.413885 0.448757 0.712512
Si Si3 0.518990 0.250000 0.273771
Si Si4 0.890027 0.042545 0.002007
Si Si5 0.646712 0.750000 0.084942
Si Si6 0.967065 0.865245 0.822919
O O1 0.677354 0.556316 0.810213
O O2 0.613879 0.507132 0.062761
O O3 0.785192 0.475921 0.010295
O O4 0.707773 0.655458 0.063249
O O5 0.500000 0.500000 0.785225
O O6 0.445493 0.342314 0.684177
O O7 0.411790 0.250000 0.245030
O O8 0.572059 0.250000 0.441558
O O9 0.927343 0.091073 0.161572
O O10 0.929224 0.108109 0.859937
O O11 0.922956 0.933558 0.957090
O O12 0.952962 0.750000 0.832434
#
# Coordination Sequence:
#
# PCOD9361629 Si02
#       6
#     8   8   4   8   4   8
#     4  11  24  41  67 100 134 174 226 286 339 399
#     4  11  22  40  64  92 135 181 223 282 332 400
#     4  10  22  38  62  90 128 182 234 264 348 400
#     4  11  24  45  73 106 138 178 235 288 352 434
#     4  10  22  40  66  94 134 180 224 284 330 408
#     4  11  24  46  77 100 140 183 226 288 362 430
#
# _framework density 22.495818
#
# number of rings (size 3 to 8) (size 9 to 14) (size 15 to 20)
#    0.000    1.200    2.000    4.800    4.200    0.000 
#    7.200    1.000   13.200    0.000    0.000    0.000 
#    0.000    0.000    0.000    0.000    0.000    0.000 
#
# Total GULP energy -111412.362179 kJ/mol
# GULP energy per Si atom -5570.618109 kJ/mol
# Density = 2.244462 g / cm^3
# Si number density = 22.495818 Si / 1000 Ang^3
#
#
#
# Elastic Constant Matrix: (Units=GPa)
#
#
# Indices 1 2 3 4 5 6 
#
# 1 100.0411 35.4694 41.2737 0.0000 0.0000 0.0000
# 2 35.4694 181.3630 41.0370 0.0000 0.0000 0.0000
# 3 41.2737 41.0370 60.7177 0.0000 0.0000 0.0000
# 4 0.0000 0.0000 0.0000 15.0122 0.0000 0.0000
# 5 0.0000 0.0000 0.0000 0.0000 27.6144 0.0000
# 6 0.0000 0.0000 0.0000 0.0000 0.0000 19.5088
#
#
#
# Elastic Compliance Matrix: (Units=1/GPa)
#
#
# Indices 1 2 3 4 5 6 
#
# 1 0.013964 -0.000688 -0.009027 0.000000 0.000000 0.000000
# 2 -0.000688 0.006543 -0.003954 0.000000 0.000000 0.000000
# 3 -0.009027 -0.003954 0.025279 0.000000 0.000000 0.000000
# 4 0.000000 0.000000 0.000000 0.066613 0.000000 0.000000
# 5 0.000000 0.000000 0.000000 0.000000 0.036213 0.000000
# 6 0.000000 0.000000 0.000000 0.000000 0.000000 0.051259
#
#
# Mechanical properties :
#
#
# Convention : Reuss Voigt Hill
#
# Bulk Modulus (GPa) = 54.21157 64.18689 59.19923
# Shear Modulus (GPa) = 21.42621 27.38319 24.40470
#
# Velocity S-wave (km/s) = 3.08953 3.49271 3.29729
# Velocity P-wave (km/s) = 6.07271 6.69777 6.39288
#
# Compressibility (1/GPa) = 0.01844625
#
# Stress axis : x y z
#
# Youngs Moduli (GPa) = 71.61133 152.83061 39.55918
#
# Poissons Ratio (x) = 0.10522 0.35711
# Poissons Ratio (y) = 0.04930 0.15643
# Poissons Ratio (z) = 0.64644 0.60434
#
# Static dielectric constant tensor:
#      x y z
#    x 1.907820 0.000000 0.000000 
#    y 0.000000 1.802690 0.000000 
#    z 0.000000 0.000000 1.862460 
# 
# From -- ./inp_files/3103.got.cif
#   From: 2010.05.17/outbox.cif.g08.bks.cpg/sg39_2_cif.got.tgz:3103.got - 2010.06.03 18:22:40.
