data_PCOD9361941
_publ_section_title
;
Structure prediction by ZEFSAII (Michael W. Deem and Ramdas Pophale) SiO2 
 PCOD9361941
Probable space group: A B M 2
;
_chemical_formula_sum "Si O2"
_cell_formula_units_Z 36
_cell_length_a 18.051592
_cell_length_b 10.041355
_cell_length_c 9.408036
_cell_angle_alpha 90.000000
_cell_angle_beta 90.000000
_cell_angle_gamma 90.000000
_cell_volume 1705.323595
_symmetry_space_group_name_H-M "A B M 2"
_symmetry_group_IT_number 39
_symmetry_cell_setting 'orthorhombic'
loop_
_space_group_symop_operation_xyz
x,y,z
-x,-y,z
-x,1/2+y,z
x,1/2-y,z
x,1/2+y,1/2+z
-x,1/2-y,1/2+z
-x,y,1/2+z
x,-y,1/2+z
loop_
_atom_site_type_symbol
_atom_site_label
_atom_site_fract_x
_atom_site_fract_y
_atom_site_fract_z
Si Si1 0.728315 0.093925 0.142290
Si Si2 0.174286 0.513800 0.884266
Si Si3 0.078854 0.750000 0.437604
Si Si4 0.500000 0.000000 0.802594
Si Si5 0.400226 0.602584 0.556343
Si Si6 0.073843 0.750000 0.768313
O O1 0.712657 0.250000 0.161309
O O2 0.755883 0.025366 0.286636
O O3 0.658888 0.013587 0.080912
O O4 0.795128 0.074027 0.030543
O O5 0.127636 0.380071 0.906694
O O6 0.122582 0.622006 0.809307
O O7 0.058567 0.750000 0.602232
O O8 0.003734 0.750000 0.349018
O O9 0.545466 0.092345 0.693050
O O10 0.445222 0.076445 0.910848
O O11 0.365919 0.750000 0.551995
#
# Coordination Sequence:
#
# PCOD9361941 Si02
#       6
#     8   8   4   4   8   4
#     4  12  27  45  69 103 139 186 234 285 343 410
#     4  12  26  46  70 100 144 180 232 290 346 408
#     4  12  28  46  74 104 138 181 232 288 350 413
#     4  10  24  46  68 106 146 178 226 288 346 408
#     4  11  25  43  74 103 141 184 233 282 346 408
#     4  12  28  46  74 104 138 181 232 288 350 413
#
# _framework density 21.110363
#
# number of rings (size 3 to 8) (size 9 to 14) (size 15 to 20)
#    0.000    0.444    4.444    2.667    6.222   10.667 
#    0.000    0.000    0.000    0.000    0.000    0.000 
#    0.000    0.000    0.000    0.000    0.000    0.000 
#
# Total GULP energy -100780.240458 kJ/mol
# GULP energy per Si atom -5598.902248 kJ/mol
# Density = 2.106231 g / cm^3
# Si number density = 21.110363 Si / 1000 Ang^3
#
#
#
# Elastic Constant Matrix: (Units=GPa)
#
#
# Indices 1 2 3 4 5 6 
#
# 1 66.0786 13.8918 9.8652 0.0000 0.0000 0.0000
# 2 13.8918 80.6249 6.2894 0.0000 0.0000 0.0000
# 3 9.8652 6.2894 112.2273 0.0000 0.0000 0.0000
# 4 0.0000 0.0000 0.0000 20.5692 0.0000 0.0000
# 5 0.0000 0.0000 0.0000 0.0000 38.1391 0.0000
# 6 0.0000 0.0000 0.0000 0.0000 0.0000 31.8927
#
#
#
# Elastic Compliance Matrix: (Units=1/GPa)
#
#
# Indices 1 2 3 4 5 6 
#
# 1 0.015874 -0.002638 -0.001248 0.000000 0.000000 0.000000
# 2 -0.002638 0.012896 -0.000491 0.000000 0.000000 0.000000
# 3 -0.001248 -0.000491 0.009048 0.000000 0.000000 0.000000
# 4 0.000000 0.000000 0.000000 0.048616 0.000000 0.000000
# 5 0.000000 0.000000 0.000000 0.000000 0.026220 0.000000
# 6 0.000000 0.000000 0.000000 0.000000 0.000000 0.031355
#
#
# Mechanical properties :
#
#
# Convention : Reuss Voigt Hill
#
# Bulk Modulus (GPa) = 34.40521 35.44707 34.92614
# Shear Modulus (GPa) = 30.77866 33.37915 32.07891
#
# Velocity S-wave (km/s) = 3.82250 3.98071 3.90241
# Velocity P-wave (km/s) = 5.98458 6.16083 6.07335
#
# Compressibility (1/GPa) = 0.02906536
#
# Stress axis : x y z
#
# Youngs Moduli (GPa) = 62.99483 77.54391 110.52576
#
# Poissons Ratio (x) = 0.20455 0.13789
# Poissons Ratio (y) = 0.16617 0.05425
# Poissons Ratio (z) = 0.07859 0.03806
#
# Static dielectric constant tensor:
#      x y z
#    x 1.745410 0.000000 0.000000 
#    y 0.000000 1.698580 0.000000 
#    z 0.000000 0.000000 1.749410 
# 
# From -- ./inp_files/3911.got.cif
#   From: 2010.05.17/outbox.cif.g08.bks.cpg/sg39_2_cif.got.tgz:3911.got - 2010.06.03 18:22:40.
