data_PCOD9361283
_publ_section_title
;
Structure prediction by ZEFSAII (Michael W. Deem and Ramdas Pophale) SiO2 
 PCOD9361283
Probable space group: A B M 2
;
_chemical_formula_sum "Si O2"
_cell_formula_units_Z 48
_cell_length_a 7.446194
_cell_length_b 15.794255
_cell_length_c 19.547535
_cell_angle_alpha 90.000000
_cell_angle_beta 90.000000
_cell_angle_gamma 90.000000
_cell_volume 2298.928646
_symmetry_space_group_name_H-M "A B M 2"
_symmetry_group_IT_number 39
_symmetry_cell_setting 'orthorhombic'
loop_
_space_group_symop_operation_xyz
x,y,z
-x,-y,z
-x,1/2+y,z
x,1/2-y,z
x,1/2+y,1/2+z
-x,1/2-y,1/2+z
-x,y,1/2+z
x,-y,1/2+z
loop_
_atom_site_type_symbol
_atom_site_label
_atom_site_fract_x
_atom_site_fract_y
_atom_site_fract_z
Si Si1 0.947148 0.353615 0.767980
Si Si2 0.378301 0.084675 0.520303
Si Si3 0.621700 0.584675 0.359943
Si Si4 0.746151 0.152956 0.365830
Si Si5 0.746152 0.652956 0.014415
Si Si6 0.052852 0.646385 0.112266
O O1 0.921436 0.250000 0.770844
O O2 0.777967 0.397400 0.805648
O O3 0.121031 0.383621 0.810670
O O4 0.999999 0.373777 0.690123
O O5 0.317194 0.089239 0.440123
O O6 0.536608 0.152524 0.530636
O O7 0.222034 0.102601 0.574598
O O8 0.500000 0.000000 0.529321
O O9 0.500000 0.500000 0.350925
O O10 0.463393 0.652524 0.349609
O O11 0.802840 0.250000 0.371405
O O12 0.768437 0.111150 0.440123
O O13 0.802841 0.750000 0.008840
O O14 0.878970 0.616379 0.069575
O O15 0.078564 0.750000 0.109401
#
# Coordination Sequence:
#
# PCOD9361283 Si02
#       6
#     8   8   8   8   8   8
#     4  10  21  37  58  84 115 152 193 240 294 351
#     4  10  21  37  58  84 115 152 193 240 294 351
#     4  10  21  37  58  84 115 152 193 240 294 351
#     4   9  18  34  57  82 108 146 197 244 286 343
#     4   9  18  34  57  82 108 146 197 244 286 343
#     4  10  21  37  58  84 115 152 193 240 294 351
#
# _framework density 20.879290999999998
#
# number of rings (size 3 to 8) (size 9 to 14) (size 15 to 20)
#    0.000    2.333    0.000    2.000    0.000    6.000 
#    0.000   15.000    0.000    0.000    0.000    0.000 
#    0.000    0.000    0.000    0.000    0.000    0.000 
#
# Total GULP energy -133613.970928 kJ/mol
# GULP energy per Si atom -5567.248789 kJ/mol
# Density = 2.083177 g / cm^3
# Si number density = 20.879291 Si / 1000 Ang^3
#
#
#
# Elastic Constant Matrix: (Units=GPa)
#
#
# Indices 1 2 3 4 5 6 
#
# 1 138.4455 22.3159 142.8848 0.0000 0.0000 0.0000
# 2 22.3159 55.9519 39.7655 0.0000 0.0000 0.0000
# 3 142.8848 39.7655 194.4482 0.0000 0.0000 0.0000
# 4 0.0000 0.0000 0.0000 125.2056 0.0000 0.0000
# 5 0.0000 0.0000 0.0000 0.0000 19.5431 0.0000
# 6 0.0000 0.0000 0.0000 0.0000 0.0000 28.0989
#
#
#
# Elastic Compliance Matrix: (Units=1/GPa)
#
#
# Indices 1 2 3 4 5 6 
#
# 1 0.030813 0.004449 -0.023552 0.000000 0.000000 0.000000
# 2 0.004449 0.021554 -0.007677 0.000000 0.000000 0.000000
# 3 -0.023552 -0.007677 0.024019 0.000000 0.000000 0.000000
# 4 0.000000 0.000000 0.000000 0.007987 0.000000 0.000000
# 5 0.000000 0.000000 0.000000 0.000000 0.051169 0.000000
# 6 0.000000 0.000000 0.000000 0.000000 0.000000 0.035589
#
#
# Mechanical properties :
#
#
# Convention : Reuss Voigt Hill
#
# Bulk Modulus (GPa) = 43.80892 88.75310 66.28101
# Shear Modulus (GPa) = 21.52386 46.82813 34.17600
#
# Velocity S-wave (km/s) = 3.21420 4.74096 4.05017
# Velocity P-wave (km/s) = 5.89935 8.51874 7.32705
#
# Compressibility (1/GPa) = 0.02282640
#
# Stress axis : x y z
#
# Youngs Moduli (GPa) = 32.45372 46.39451 41.63318
#
# Poissons Ratio (x) = -0.20641 0.98054
# Poissons Ratio (y) = -0.14439 0.31963
# Poissons Ratio (z) = 0.76435 0.35618
#
# Static dielectric constant tensor:
#      x y z
#    x 1.727250 0.000000 0.000000 
#    y 0.000000 1.929140 0.000000 
#    z 0.000000 0.000000 1.819770 
# 
# From -- ./inp_files/13486.got.cif
#   From: 2010.05.17/outbox.cif.g08.bks.cpg/sg39_7_cif.got.tgz:13486.got - 2010.06.03 18:22:40.
