data_PCOD9361315
_publ_section_title
;
Structure prediction by ZEFSAII (Michael W. Deem and Ramdas Pophale) SiO2 
 PCOD9361315
Probable space group: A B M 2
;
_chemical_formula_sum "Si O2"
_cell_formula_units_Z 60
_cell_length_a 10.827146
_cell_length_b 25.107169
_cell_length_c 8.937197
_cell_angle_alpha 90.000000
_cell_angle_beta 90.000000
_cell_angle_gamma 90.000000
_cell_volume 2429.478556
_symmetry_space_group_name_H-M "A B M 2"
_symmetry_group_IT_number 39
_symmetry_cell_setting 'orthorhombic'
loop_
_space_group_symop_operation_xyz
x,y,z
-x,-y,z
-x,1/2+y,z
x,1/2-y,z
x,1/2+y,1/2+z
-x,1/2-y,1/2+z
-x,y,1/2+z
x,-y,1/2+z
loop_
_atom_site_type_symbol
_atom_site_label
_atom_site_fract_x
_atom_site_fract_y
_atom_site_fract_z
Si Si1 0.091957 0.331961 0.202580
Si Si2 0.669700 0.401862 0.350527
Si Si3 0.651961 0.687540 0.338634
Si Si4 0.382270 0.812713 0.189868
Si Si5 0.958434 0.250000 0.434540
Si Si6 0.540113 0.555744 0.563746
Si Si7 0.909478 0.452172 0.722748
Si Si8 0.225178 0.999540 0.963767
O O1 0.233268 0.340586 0.260430
O O2 0.046977 0.393038 0.185013
O O3 0.018029 0.297013 0.323773
O O4 0.086754 0.296972 0.053524
O O5 0.702893 0.341242 0.316707
O O6 0.570492 0.414812 0.479251
O O7 0.771772 0.446913 0.362958
O O8 0.598675 0.411150 0.195162
O O9 0.683688 0.750000 0.335776
O O10 0.523419 0.681824 0.249882
O O11 0.635810 0.673163 0.513935
O O12 0.351976 0.750000 0.196678
O O13 0.500000 0.500000 0.636340
O O14 0.648474 0.534176 0.455940
O O15 0.875673 0.459868 0.896925
O O16 0.792911 0.472175 0.623614
O O17 0.000000 0.500000 0.685192
#
# Coordination Sequence:
#
# PCOD9361315 Si02
#       8
#     8   8   8   8   4   8   8   8
#     4  11  26  49  86 106 154 193 261 327 387 460
#     4  11  22  39  66  99 140 196 240 300 350 446
#     4  10  21  45  68 105 148 196 241 304 379 451
#     4  10  23  39  67 104 151 192 243 295 368 460
#     4  10  24  54  78 114 134 200 262 322 376 440
#     4  10  21  37  62  95 135 180 240 291 347 441
#     4  12  29  48  75 109 147 196 247 322 395 453
#     4  11  25  46  67 104 141 188 246 293 384 453
#
# _framework density 24.696656000000001
#
# number of rings (size 3 to 8) (size 9 to 14) (size 15 to 20)
#    0.000    1.333    2.667    2.400    9.333    1.067 
#    0.000    2.667    2.933    0.000    0.000    0.000 
#    0.000    0.000    0.000    0.000    0.000    0.000 
#
# Total GULP energy -167024.924839 kJ/mol
# GULP energy per Si atom -5567.497495 kJ/mol
# Density = 2.464045 g / cm^3
# Si number density = 24.696656 Si / 1000 Ang^3
#
#
#
# Elastic Constant Matrix: (Units=GPa)
#
#
# Indices 1 2 3 4 5 6 
#
# 1 33.1304 30.8186 22.3178 0.0000 0.0000 0.0000
# 2 30.8186 128.9168 33.4606 0.0000 0.0000 0.0000
# 3 22.3178 33.4606 96.1566 0.0000 0.0000 0.0000
# 4 0.0000 0.0000 0.0000 31.0983 0.0000 0.0000
# 5 0.0000 0.0000 0.0000 0.0000 26.4662 0.0000
# 6 0.0000 0.0000 0.0000 0.0000 0.0000 29.2466
#
#
#
# Elastic Compliance Matrix: (Units=1/GPa)
#
#
# Indices 1 2 3 4 5 6 
#
# 1 0.042700 -0.008394 -0.006990 0.000000 0.000000 0.000000
# 2 -0.008394 0.010177 -0.001593 0.000000 0.000000 0.000000
# 3 -0.006990 -0.001593 0.012576 0.000000 0.000000 0.000000
# 4 0.000000 0.000000 0.000000 0.032156 0.000000 0.000000
# 5 0.000000 0.000000 0.000000 0.000000 0.037784 0.000000
# 6 0.000000 0.000000 0.000000 0.000000 0.000000 0.034192
#
#
# Mechanical properties :
#
#
# Convention : Reuss Voigt Hill
#
# Bulk Modulus (GPa) = 31.74570 47.93310 39.83940
# Shear Modulus (GPa) = 23.36016 28.80268 26.08142
#
# Velocity S-wave (km/s) = 3.07886 3.41876 3.25325
# Velocity P-wave (km/s) = 5.05186 5.91902 5.50255
#
# Compressibility (1/GPa) = 0.03150033
#
# Stress axis : x y z
#
# Youngs Moduli (GPa) = 23.41900 98.26035 79.51358
#
# Poissons Ratio (x) = 0.82476 0.55579
# Poissons Ratio (y) = 0.19657 0.12669
# Poissons Ratio (z) = 0.16370 0.15655
#
# Static dielectric constant tensor:
#      x y z
#    x 2.030590 0.000000 0.000000 
#    y 0.000000 1.756050 0.000000 
#    z 0.000000 0.000000 1.948100 
# 
# From -- ./inp_files/2825.got.cif
#   From: 2010.05.17/outbox.cif.g08.bks.cpg/sg39_2_cif.got.tgz:2825.got - 2010.06.03 18:22:40.
