data_PCOD9361028
_publ_section_title
;
Structure prediction by ZEFSAII (Michael W. Deem and Ramdas Pophale) SiO2 
 PCOD9361028
Probable space group: A B M 2
;
_chemical_formula_sum "Si O2"
_cell_formula_units_Z 36
_cell_length_a 18.568673
_cell_length_b 10.340227
_cell_length_c 9.350696
_cell_angle_alpha 90.000000
_cell_angle_beta 90.000000
_cell_angle_gamma 90.000000
_cell_volume 1795.373783
_symmetry_space_group_name_H-M "A B M 2"
_symmetry_group_IT_number 39
_symmetry_cell_setting 'orthorhombic'
loop_
_space_group_symop_operation_xyz
x,y,z
-x,-y,z
-x,1/2+y,z
x,1/2-y,z
x,1/2+y,1/2+z
-x,1/2-y,1/2+z
-x,y,1/2+z
x,-y,1/2+z
loop_
_atom_site_type_symbol
_atom_site_label
_atom_site_fract_x
_atom_site_fract_y
_atom_site_fract_z
Si Si1 0.258092 0.595679 0.081110
Si Si2 0.920350 0.250000 0.797769
Si Si3 0.500000 0.500000 0.472162
Si Si4 0.594038 0.897031 0.716373
Si Si5 0.070873 0.250000 0.961404
Si Si6 0.833669 0.515598 0.844444
O O1 0.264125 0.750000 0.051187
O O2 0.332392 0.547044 0.151577
O O3 0.194478 0.570440 0.194421
O O4 0.235497 0.515869 0.942281
O O5 0.938487 0.250000 0.630710
O O6 0.875257 0.379808 0.829578
O O7 0.993585 0.250000 0.886849
O O8 0.463830 0.402480 0.586196
O O9 0.561721 0.458019 0.360176
O O10 0.610054 0.750000 0.753391
O O11 0.115772 0.376536 0.915140
#
# Coordination Sequence:
#
# PCOD9361028 Si02
#       6
#     8   4   4   8   4   8
#     4  11  23  40  65  94 127 170 209 263 316 371
#     4  12  28  44  68  96 126 165 210 258 318 379
#     4  10  20  38  60  90 124 166 208 254 300 370
#     4  10  21  37  61  91 126 163 208 254 312 363
#     4  12  28  44  68  96 126 165 210 258 318 379
#     4  12  24  44  66  94 130 164 212 262 312 376
#
# _framework density 20.051535000000001
#
# number of rings (size 3 to 8) (size 9 to 14) (size 15 to 20)
#    0.000    0.889    4.444    2.667    3.111    1.778 
#    0.000    0.000    4.889    0.000    0.000    0.000 
#    0.000    0.000    0.000    0.000    0.000    0.000 
#
# Total GULP energy -100505.018869 kJ/mol
# GULP energy per Si atom -5583.612159 kJ/mol
# Density = 2.000590 g / cm^3
# Si number density = 20.051535 Si / 1000 Ang^3
#
#
#
# Elastic Constant Matrix: (Units=GPa)
#
#
# Indices 1 2 3 4 5 6 
#
# 1 66.0367 8.7130 -0.6968 0.0000 0.0000 0.0000
# 2 8.7130 59.0629 4.3068 0.0000 0.0000 0.0000
# 3 -0.6968 4.3068 90.0973 0.0000 0.0000 0.0000
# 4 0.0000 0.0000 0.0000 18.6519 0.0000 0.0000
# 5 0.0000 0.0000 0.0000 0.0000 44.9195 0.0000
# 6 0.0000 0.0000 0.0000 0.0000 0.0000 36.5614
#
#
#
# Elastic Compliance Matrix: (Units=1/GPa)
#
#
# Indices 1 2 3 4 5 6 
#
# 1 0.015448 -0.002296 0.000229 0.000000 0.000000 0.000000
# 2 -0.002296 0.017331 -0.000846 0.000000 0.000000 0.000000
# 3 0.000229 -0.000846 0.011141 0.000000 0.000000 0.000000
# 4 0.000000 0.000000 0.000000 0.053614 0.000000 0.000000
# 5 0.000000 0.000000 0.000000 0.000000 0.022262 0.000000
# 6 0.000000 0.000000 0.000000 0.000000 0.000000 0.027351
#
#
# Mechanical properties :
#
#
# Convention : Reuss Voigt Hill
#
# Bulk Modulus (GPa) = 26.24959 26.64921 26.44940
# Shear Modulus (GPa) = 30.18004 33.55149 31.86576
#
# Velocity S-wave (km/s) = 3.88380 4.09499 3.99079
# Velocity P-wave (km/s) = 5.76466 5.97309 5.86980
#
# Compressibility (1/GPa) = 0.03809583
#
# Stress axis : x y z
#
# Youngs Moduli (GPa) = 64.73162 57.69849 89.75586
#
# Poissons Ratio (x) = 0.13246 -0.02057
# Poissons Ratio (y) = 0.14860 0.07595
# Poissons Ratio (z) = -0.01484 0.04883
#
# Static dielectric constant tensor:
#      x y z
#    x 1.732550 0.000000 0.000000 
#    y 0.000000 1.686200 0.000000 
#    z 0.000000 0.000000 1.703260 
# 
# From -- ./inp_files/3906.got.cif
#   From: 2010.05.17/outbox.cif.g08.bks.cpg/sg39_2_cif.got.tgz:3906.got - 2010.06.03 18:22:40.
