data_PCOD9361534
_publ_section_title
;
Structure prediction by ZEFSAII (Michael W. Deem and Ramdas Pophale) SiO2 
 PCOD9361534
Probable space group: A B M 2
;
_chemical_formula_sum "Si O2"
_cell_formula_units_Z 36
_cell_length_a 19.483620
_cell_length_b 13.751512
_cell_length_c 5.378267
_cell_angle_alpha 90.000000
_cell_angle_beta 90.000000
_cell_angle_gamma 90.000000
_cell_volume 1440.994959
_symmetry_space_group_name_H-M "A B M 2"
_symmetry_group_IT_number 39
_symmetry_cell_setting 'orthorhombic'
loop_
_space_group_symop_operation_xyz
x,y,z
-x,-y,z
-x,1/2+y,z
x,1/2-y,z
x,1/2+y,1/2+z
-x,1/2-y,1/2+z
-x,y,1/2+z
x,-y,1/2+z
loop_
_atom_site_type_symbol
_atom_site_label
_atom_site_fract_x
_atom_site_fract_y
_atom_site_fract_z
Si Si1 0.895266 0.452815 0.903940
Si Si2 0.256819 0.468461 0.916517
Si Si3 0.642717 0.750000 0.462768
Si Si4 0.727114 0.750000 0.963644
Si Si5 0.042774 0.250000 0.269838
Si Si6 0.473487 0.111064 0.308803
O O1 0.921394 0.522339 0.680474
O O2 0.813463 0.469549 0.916499
O O3 0.913189 0.345586 0.820753
O O4 0.294964 0.498870 0.665801
O O5 0.237503 0.354729 0.924677
O O6 0.671570 0.750000 0.740699
O O7 0.597284 0.846734 0.416192
O O8 0.699364 0.750000 0.245051
O O9 0.985376 0.250000 0.488641
O O10 0.476209 0.147924 0.026457
O O11 0.500000 0.000000 0.279054
#
# Coordination Sequence:
#
# PCOD9361534 Si02
#       6
#     8   8   4   4   4   8
#     4  10  23  42  70  99 131 191 227 276 340 416
#     4  10  23  45  69  98 136 179 237 275 337 416
#     4  12  24  43  67 100 138 168 222 282 352 386
#     4  12  26  45  67 106 138 172 218 304 344 390
#     4  12  26  42  66 106 146 176 230 296 344 390
#     4  10  21  41  65  95 127 179 221 265 319 427
#
# _framework density 24.98274
#
# number of rings (size 3 to 8) (size 9 to 14) (size 15 to 20)
#    0.000    1.333    0.000    4.667    0.000    9.778 
#   24.000    0.000    0.000    0.000    0.000    0.000 
#    0.000    0.000    0.000    0.000    0.000    0.000 
#
# Total GULP energy -100523.621976 kJ/mol
# GULP energy per Si atom -5584.645665 kJ/mol
# Density = 2.492588 g / cm^3
# Si number density = 24.982740 Si / 1000 Ang^3
#
#
#
# Elastic Constant Matrix: (Units=GPa)
#
#
# Indices 1 2 3 4 5 6 
#
# 1 43.3134 23.2041 -7.4235 0.0000 0.0000 0.0000
# 2 23.2041 181.5155 -1.9381 0.0000 0.0000 0.0000
# 3 -7.4235 -1.9381 170.5352 0.0000 0.0000 0.0000
# 4 0.0000 0.0000 0.0000 38.7303 0.0000 0.0000
# 5 0.0000 0.0000 0.0000 0.0000 28.2496 0.0000
# 6 0.0000 0.0000 0.0000 0.0000 0.0000 54.8505
#
#
#
# Elastic Compliance Matrix: (Units=1/GPa)
#
#
# Indices 1 2 3 4 5 6 
#
# 1 0.024972 -0.003181 0.001051 0.000000 0.000000 0.000000
# 2 -0.003181 0.005915 -0.000071 0.000000 0.000000 0.000000
# 3 0.001051 -0.000071 0.005909 0.000000 0.000000 0.000000
# 4 0.000000 0.000000 0.000000 0.025820 0.000000 0.000000
# 5 0.000000 0.000000 0.000000 0.000000 0.035399 0.000000
# 6 0.000000 0.000000 0.000000 0.000000 0.000000 0.018231
#
#
# Mechanical properties :
#
#
# Convention : Reuss Voigt Hill
#
# Bulk Modulus (GPa) = 30.87099 47.00547 38.93823
# Shear Modulus (GPa) = 38.03848 49.80086 43.91967
#
# Velocity S-wave (km/s) = 3.90627 4.46961 4.19740
# Velocity P-wave (km/s) = 5.72093 6.74482 6.25386
#
# Compressibility (1/GPa) = 0.03239287
#
# Stress axis : x y z
#
# Youngs Moduli (GPa) = 40.04512 169.05991 169.23827
#
# Poissons Ratio (x) = 0.53779 -0.17785
# Poissons Ratio (y) = 0.12739 0.01206
# Poissons Ratio (z) = -0.04208 0.01205
#
# Static dielectric constant tensor:
#      x y z
#    x 1.987860 0.000000 0.000000 
#    y 0.000000 1.918570 0.000000 
#    z 0.000000 0.000000 2.118740 
# 
# From -- ./inp_files/988.got.cif
#   From: 2010.05.17/outbox.cif.g08.bks.cpg/sg39_1_cif.got.tgz:988.got - 2010.06.03 18:22:40.
