data_PCOD9361114
_publ_section_title
;
Structure prediction by ZEFSAII (Michael W. Deem and Ramdas Pophale) SiO2 
 PCOD9361114
Probable space group: A B M 2
;
_chemical_formula_sum "Si O2"
_cell_formula_units_Z 64
_cell_length_a 9.508839
_cell_length_b 18.789618
_cell_length_c 19.048990
_cell_angle_alpha 90.000000
_cell_angle_beta 90.000000
_cell_angle_gamma 90.000000
_cell_volume 3403.434515
_symmetry_space_group_name_H-M "A B M 2"
_symmetry_group_IT_number 39
_symmetry_cell_setting 'orthorhombic'
loop_
_space_group_symop_operation_xyz
x,y,z
-x,-y,z
-x,1/2+y,z
x,1/2-y,z
x,1/2+y,1/2+z
-x,1/2-y,1/2+z
-x,y,1/2+z
x,-y,1/2+z
loop_
_atom_site_type_symbol
_atom_site_label
_atom_site_fract_x
_atom_site_fract_y
_atom_site_fract_z
Si Si1 0.911274 0.571942 0.354630
Si Si2 0.618607 0.665346 0.832795
Si Si3 0.743239 0.334820 0.585190
Si Si4 0.730862 0.165367 0.178414
Si Si5 0.877189 0.164733 0.436273
Si Si6 0.942303 0.165795 0.716002
Si Si7 0.545900 0.418628 0.070308
Si Si8 0.597568 0.431321 0.906340
O O1 0.914489 0.617090 0.283009
O O2 0.753916 0.555843 0.379263
O O3 0.000000 0.500000 0.346078
O O4 0.988291 0.621067 0.412241
O O5 0.604761 0.750000 0.836946
O O6 0.657355 0.647682 0.752842
O O7 0.749565 0.645913 0.883287
O O8 0.478509 0.629651 0.861525
O O9 0.721085 0.250000 0.583905
O O10 0.828760 0.353232 0.514701
O O11 0.833996 0.351620 0.653878
O O12 0.594204 0.372742 0.582548
O O13 0.706267 0.250000 0.163275
O O14 0.665590 0.114458 0.119781
O O15 0.897785 0.156120 0.189256
O O16 0.900547 0.250000 0.431328
O O17 0.928104 0.250000 0.734098
O O18 0.500000 0.500000 0.085043
O O19 0.592798 0.413821 0.989091
O O20 0.500000 0.500000 0.896536
#
# Coordination Sequence:
#
# PCOD9361114 Si02
#       8
#     8   8   8   8   8   8   8   8
#     4  12  26  41  66  95 128 172 216 268 321 385
#     4  10  20  39  68  92 122 167 212 263 319 374
#     4  10  22  42  68  94 127 168 214 265 321 378
#     4  10  22  41  65  94 129 168 212 264 321 379
#     4  10  20  41  68  93 124 169 216 263 322 379
#     4  10  23  44  66  95 130 164 210 268 319 379
#     4  11  25  42  63  92 131 173 212 260 316 383
#     4  11  26  44  62  91 131 169 214 269 317 381
#
# _framework density 18.804535000000001
#
# number of rings (size 3 to 8) (size 9 to 14) (size 15 to 20)
#    0.000    1.500    2.500    1.500    5.250    3.000 
#    0.000    0.625    0.000    0.000    0.000    0.000 
#    0.000    0.000    0.000    0.000    0.000    0.000 
#
# Total GULP energy -178871.788686 kJ/mol
# GULP energy per Si atom -5589.743396 kJ/mol
# Density = 1.876173 g / cm^3
# Si number density = 18.804535 Si / 1000 Ang^3
#
#
#
# Elastic Constant Matrix: (Units=GPa)
#
#
# Indices 1 2 3 4 5 6 
#
# 1 146.5314 58.4377 79.5384 0.0000 0.0000 0.0000
# 2 58.4377 37.3788 48.2715 0.0000 0.0000 0.0000
# 3 79.5384 48.2715 83.9921 0.0000 0.0000 0.0000
# 4 0.0000 0.0000 0.0000 -10.2358 0.0000 0.0000
# 5 0.0000 0.0000 0.0000 0.0000 29.3259 0.0000
# 6 0.0000 0.0000 0.0000 0.0000 0.0000 29.9644
#
#
#
# Elastic Compliance Matrix: (Units=1/GPa)
#
#
# Indices 1 2 3 4 5 6 
#
# 1 0.018381 -0.024273 -0.003456 0.000000 0.000000 0.000000
# 2 -0.024273 0.135827 -0.055076 0.000000 0.000000 0.000000
# 3 -0.003456 -0.055076 0.046831 0.000000 0.000000 0.000000
# 4 0.000000 0.000000 0.000000 -0.097696 0.000000 0.000000
# 5 0.000000 0.000000 0.000000 0.000000 0.034100 0.000000
# 6 0.000000 0.000000 0.000000 0.000000 0.000000 0.033373
#
#
# Mechanical properties :
#
#
# Convention : Reuss Voigt Hill
#
# Bulk Modulus (GPa) = 28.22500 71.15527 49.69013
# Shear Modulus (GPa) = 14.35813 15.25456 14.80635
#
# Velocity S-wave (km/s) = 2.76623 2.85128 2.80908
# Velocity P-wave (km/s) = 5.02444 6.98293 6.08302
#
# Compressibility (1/GPa) = 0.03542959
#
# Stress axis : x y z
#
# Youngs Moduli (GPa) = 54.40492 7.36229 21.35329
#
# Poissons Ratio (x) = 0.17871 0.07379
# Poissons Ratio (y) = 1.32059 1.17605
# Poissons Ratio (z) = 0.18801 0.40548
#
# Static dielectric constant tensor:
#      x y z
#    x 1.632960 0.000000 0.000000 
#    y 0.000000 1.651300 0.000000 
#    z 0.000000 0.000000 1.638220 
# 
# From -- ./inp_files/11926.got.cif
#   From: 2010.05.17/outbox.cif.g08.bks.cpg/sg39_6_cif.got.tgz:11926.got - 2010.06.03 18:22:40.
