data_PCOD9361078
_publ_section_title
;
Structure prediction by ZEFSAII (Michael W. Deem and Ramdas Pophale) SiO2 
 PCOD9361078
Probable space group: A B M 2
;
_chemical_formula_sum "Si O2"
_cell_formula_units_Z 64
_cell_length_a 5.283097
_cell_length_b 17.797297
_cell_length_c 29.291226
_cell_angle_alpha 90.000000
_cell_angle_beta 90.000000
_cell_angle_gamma 90.000000
_cell_volume 2754.103025
_symmetry_space_group_name_H-M "A B M 2"
_symmetry_group_IT_number 39
_symmetry_cell_setting 'orthorhombic'
loop_
_space_group_symop_operation_xyz
x,y,z
-x,-y,z
-x,1/2+y,z
x,1/2-y,z
x,1/2+y,1/2+z
-x,1/2-y,1/2+z
-x,y,1/2+z
x,-y,1/2+z
loop_
_atom_site_type_symbol
_atom_site_label
_atom_site_fract_x
_atom_site_fract_y
_atom_site_fract_z
Si Si1 0.079283 0.838759 0.401130
Si Si2 0.682089 0.670385 0.264317
Si Si3 0.001800 0.166100 0.173519
Si Si4 0.693152 0.660662 0.085240
Si Si5 0.977744 0.076971 0.317414
Si Si6 0.420898 0.911393 0.942588
Si Si7 0.687277 0.931200 0.723155
Si Si8 0.800451 0.158043 0.035357
O O1 0.041021 0.750000 0.407821
O O2 0.815773 0.883407 0.411029
O O3 0.143785 0.859284 0.348496
O O4 0.318818 0.867270 0.430506
O O5 0.657429 0.750000 0.287252
O O6 0.447363 0.647341 0.234413
O O7 0.896085 0.672681 0.225311
O O8 0.754361 0.607945 0.300393
O O9 0.896598 0.250000 0.161011
O O10 0.842164 0.090076 0.178470
O O11 0.220440 0.150003 0.137125
O O12 0.695164 0.750000 0.077764
O O13 0.408209 0.638388 0.073846
O O14 0.920375 0.633179 0.051988
O O15 0.827877 0.056247 0.271279
O O16 0.000000 0.000000 0.344571
O O17 0.500000 0.000000 0.940459
O O18 0.309054 0.884278 0.991290
O O19 0.500000 0.000000 0.715930
O O20 0.804046 0.250000 0.028140
#
# Coordination Sequence:
#
# PCOD9361078 Si02
#       8
#     8   8   8   8   8   8   8   8
#     4  12  27  46  73 104 136 174 230 284 337 409
#     4  10  21  37  60  86 120 164 215 265 312 374
#     4   9  20  36  57  89 124 163 219 272 322 381
#     4   9  19  35  62  95 126 167 217 276 327 385
#     4  11  23  41  61  90 128 168 211 264 331 394
#     4  12  26  47  72 102 140 180 218 277 350 422
#     4  11  22  37  61  85 124 175 216 267 328 392
#     4  10  20  38  66  95 129 169 218 268 329 400
#
# _framework density 23.238056
#
# number of rings (size 3 to 8) (size 9 to 14) (size 15 to 20)
#    0.000    1.500    1.250    3.750    3.500    3.000 
#    0.000    0.625    2.750    0.000    0.000    0.000 
#    0.000    0.000    0.000    0.000    0.000    0.000 
#
# Total GULP energy -178456.265241 kJ/mol
# GULP energy per Si atom -5576.758289 kJ/mol
# Density = 2.318517 g / cm^3
# Si number density = 23.238056 Si / 1000 Ang^3
#
#
#
# Elastic Constant Matrix: (Units=GPa)
#
#
# Indices 1 2 3 4 5 6 
#
# 1 77.2838 26.5307 -4.2024 0.0000 0.0000 0.0000
# 2 26.5307 121.1884 15.9101 0.0000 0.0000 0.0000
# 3 -4.2024 15.9101 56.9355 0.0000 0.0000 0.0000
# 4 0.0000 0.0000 0.0000 86.0715 0.0000 0.0000
# 5 0.0000 0.0000 0.0000 0.0000 43.1686 0.0000
# 6 0.0000 0.0000 0.0000 0.0000 0.0000 13.4733
#
#
#
# Elastic Compliance Matrix: (Units=1/GPa)
#
#
# Indices 1 2 3 4 5 6 
#
# 1 0.014205 -0.003371 0.001990 0.000000 0.000000 0.000000
# 2 -0.003371 0.009366 -0.002866 0.000000 0.000000 0.000000
# 3 0.001990 -0.002866 0.018512 0.000000 0.000000 0.000000
# 4 0.000000 0.000000 0.000000 0.011618 0.000000 0.000000
# 5 0.000000 0.000000 0.000000 0.000000 0.023165 0.000000
# 6 0.000000 0.000000 0.000000 0.000000 0.000000 0.074221
#
#
# Mechanical properties :
#
#
# Convention : Reuss Voigt Hill
#
# Bulk Modulus (GPa) = 29.77167 36.87607 33.32387
# Shear Modulus (GPa) = 29.27814 43.02063 36.14939
#
# Velocity S-wave (km/s) = 3.55339 4.30734 3.94840
# Velocity P-wave (km/s) = 5.44746 6.37502 5.92941
#
# Compressibility (1/GPa) = 0.03358898
#
# Stress axis : x y z
#
# Youngs Moduli (GPa) = 70.39876 106.77062 54.02039
#
# Poissons Ratio (x) = 0.35993 -0.10753
# Poissons Ratio (y) = 0.23732 0.15482
# Poissons Ratio (z) = -0.14013 0.30601
#
# Static dielectric constant tensor:
#      x y z
#    x 1.995720 0.000000 0.000000 
#    y 0.000000 1.846330 0.000000 
#    z 0.000000 0.000000 1.933350 
# 
# From -- ./inp_files/17382.got.cif
#   From: 2010.05.17/outbox.cif.g08.bks.cpg/sg39_9_cif.got.tgz:17382.got - 2010.06.03 18:22:40.
