data_PCOD9361153
_publ_section_title
;
Structure prediction by ZEFSAII (Michael W. Deem and Ramdas Pophale) SiO2 
 PCOD9361153
Probable space group: A B M 2
;
_chemical_formula_sum "Si O2"
_cell_formula_units_Z 64
_cell_length_a 11.976656
_cell_length_b 15.861872
_cell_length_c 15.106235
_cell_angle_alpha 90.000000
_cell_angle_beta 90.000000
_cell_angle_gamma 90.000000
_cell_volume 2869.764462
_symmetry_space_group_name_H-M "A B M 2"
_symmetry_group_IT_number 39
_symmetry_cell_setting 'orthorhombic'
loop_
_space_group_symop_operation_xyz
x,y,z
-x,-y,z
-x,1/2+y,z
x,1/2-y,z
x,1/2+y,1/2+z
-x,1/2-y,1/2+z
-x,y,1/2+z
x,-y,1/2+z
loop_
_atom_site_type_symbol
_atom_site_label
_atom_site_fract_x
_atom_site_fract_y
_atom_site_fract_z
Si Si1 0.052666 0.350241 0.193890
Si Si2 0.799738 0.153231 0.169683
Si Si3 0.759795 0.395939 0.367039
Si Si4 0.350724 0.655819 0.929084
Si Si5 0.583112 0.578707 0.606605
Si Si6 0.120016 0.421019 0.384367
Si Si7 0.518831 0.400142 0.293053
Si Si8 0.075123 0.847338 0.506402
O O1 0.065272 0.250000 0.212535
O O2 0.077947 0.397625 0.285150
O O3 0.928793 0.364464 0.154065
O O4 0.116712 0.375023 0.104322
O O5 0.772614 0.250000 0.142128
O O6 0.795558 0.146387 0.275396
O O7 0.716088 0.083481 0.130281
O O8 0.816530 0.488784 0.375551
O O9 0.626554 0.392814 0.356733
O O10 0.814295 0.347482 0.447163
O O11 0.366564 0.750000 0.958485
O O12 0.220660 0.637538 0.917458
O O13 0.411680 0.640699 0.836465
O O14 0.412051 0.603350 0.004637
O O15 0.500000 0.500000 0.608872
O O16 0.541947 0.631949 0.693112
O O17 0.017593 0.403108 0.452769
O O18 0.500000 0.500000 0.287058
O O19 0.033518 0.750000 0.512126
#
# Coordination Sequence:
#
# PCOD9361153 Si02
#       8
#     8   8   8   8   8   8   8   8
#     4  10  22  42  68  99 141 181 226 288 352 420
#     4  10  20  40  71 100 132 183 234 281 345 419
#     4  11  23  41  67  93 135 178 224 281 343 410
#     4  12  25  43  72 102 136 182 233 290 350 421
#     4  10  23  42  72 101 138 181 234 286 343 412
#     4  12  24  44  67 103 142 179 232 285 358 423
#     4  10  22  47  67  93 132 181 226 287 349 406
#     4  11  23  42  65  99 138 177 226 281 350 421
#
# _framework density 22.301482
#
# number of rings (size 3 to 8) (size 9 to 14) (size 15 to 20)
#    0.000    1.250    2.500    3.375    0.000    4.000 
#   11.250    0.000    0.000    0.000    0.000    0.000 
#    0.000    0.000    0.000    0.000    0.000    0.000 
#
# Total GULP energy -178358.069607 kJ/mol
# GULP energy per Si atom -5573.689675 kJ/mol
# Density = 2.225072 g / cm^3
# Si number density = 22.301482 Si / 1000 Ang^3
#
#
#
# Elastic Constant Matrix: (Units=GPa)
#
#
# Indices 1 2 3 4 5 6 
#
# 1 53.7169 2.0752 2.8757 0.0000 0.0000 0.0000
# 2 2.0752 46.2516 0.4311 0.0000 0.0000 0.0000
# 3 2.8757 0.4311 104.9003 0.0000 0.0000 0.0000
# 4 0.0000 0.0000 0.0000 22.9978 0.0000 0.0000
# 5 0.0000 0.0000 0.0000 0.0000 149.4427 0.0000
# 6 0.0000 0.0000 0.0000 0.0000 0.0000 5.8324
#
#
#
# Elastic Compliance Matrix: (Units=1/GPa)
#
#
# Indices 1 2 3 4 5 6 
#
# 1 0.018676 -0.000833 -0.000509 0.000000 0.000000 0.000000
# 2 -0.000833 0.021659 -0.000066 0.000000 0.000000 0.000000
# 3 -0.000509 -0.000066 0.009547 0.000000 0.000000 0.000000
# 4 0.000000 0.000000 0.000000 0.043482 0.000000 0.000000
# 5 0.000000 0.000000 0.000000 0.000000 0.006692 0.000000
# 6 0.000000 0.000000 0.000000 0.000000 0.000000 0.171455
#
#
# Mechanical properties :
#
#
# Convention : Reuss Voigt Hill
#
# Bulk Modulus (GPa) = 21.24692 23.95922 22.60307
# Shear Modulus (GPa) = 17.24053 48.95372 33.09712
#
# Velocity S-wave (km/s) = 2.78342 4.69026 3.85655
# Velocity P-wave (km/s) = 4.45845 6.33230 5.47612
#
# Compressibility (1/GPa) = 0.04706564
#
# Stress axis : x y z
#
# Youngs Moduli (GPa) = 53.54601 46.17049 104.74415
#
# Poissons Ratio (x) = 0.03847 0.05327
# Poissons Ratio (y) = 0.04461 0.00693
# Poissons Ratio (z) = 0.02723 0.00306
#
# Static dielectric constant tensor:
#      x y z
#    x 1.529440 0.000000 0.000000 
#    y 0.000000 1.878290 0.000000 
#    z 0.000000 0.000000 1.841460 
# 
# From -- ./inp_files/9484.got.cif
#   From: 2010.05.17/outbox.cif.g08.bks.cpg/sg39_5_cif.got.tgz:9484.got - 2010.06.03 18:22:40.
