data_PCOD9361255
_publ_section_title
;
Structure prediction by ZEFSAII (Michael W. Deem and Ramdas Pophale) SiO2 
 PCOD9361255
Probable space group: A B M 2
;
_chemical_formula_sum "Si O2"
_cell_formula_units_Z 48
_cell_length_a 11.808558
_cell_length_b 16.949358
_cell_length_c 10.910260
_cell_angle_alpha 90.000000
_cell_angle_beta 90.000000
_cell_angle_gamma 90.000000
_cell_volume 2183.661012
_symmetry_space_group_name_H-M "A B M 2"
_symmetry_group_IT_number 39
_symmetry_cell_setting 'orthorhombic'
loop_
_space_group_symop_operation_xyz
x,y,z
-x,-y,z
-x,1/2+y,z
x,1/2-y,z
x,1/2+y,1/2+z
-x,1/2-y,1/2+z
-x,y,1/2+z
x,-y,1/2+z
loop_
_atom_site_type_symbol
_atom_site_label
_atom_site_fract_x
_atom_site_fract_y
_atom_site_fract_z
Si Si1 0.329763 0.056947 0.923550
Si Si2 0.125487 0.921618 0.277003
Si Si3 0.327116 0.336618 0.138774
Si Si4 0.434010 0.662953 0.230800
Si Si5 0.877183 0.887565 0.302236
Si Si6 0.732069 0.889666 0.530421
O O1 0.208829 0.096865 0.889407
O O2 0.401058 0.085505 0.807834
O O3 0.316989 0.966155 0.958918
O O4 0.370385 0.099694 0.043696
O O5 0.010354 0.871970 0.285508
O O6 0.117781 0.016593 0.294755
O O7 0.187383 0.910478 0.146668
O O8 0.319575 0.250000 0.082708
O O9 0.430501 0.334402 0.233523
O O10 0.207884 0.359426 0.197241
O O11 0.395357 0.750000 0.277893
O O12 0.372089 0.654566 0.097574
O O13 0.818158 0.856484 0.427093
#
# Coordination Sequence:
#
# PCOD9361255 Si02
#       6
#     8   8   8   8   8   8
#     4  10  21  42  65  94 124 167 218 264 321 384
#     4   9  20  38  64  90 124 159 206 268 324 375
#     4  11  24  41  62  91 129 169 215 264 324 393
#     4  10  24  44  65  91 134 180 212 265 335 390
#     4  10  21  36  62  93 123 160 208 261 322 384
#     4  10  21  40  64  98 123 163 216 268 315 382
#
# _framework density 21.981434
#
# number of rings (size 3 to 8) (size 9 to 14) (size 15 to 20)
#    0.000    2.000    1.667    0.500    4.667    2.667 
#    3.000    4.167    0.000    0.000    0.000    0.000 
#    0.000    0.000    0.000    0.000    0.000    0.000 
#
# Total GULP energy -133603.115460 kJ/mol
# GULP energy per Si atom -5566.796477 kJ/mol
# Density = 2.193140 g / cm^3
# Si number density = 21.981434 Si / 1000 Ang^3
#
#
#
# Elastic Constant Matrix: (Units=GPa)
#
#
# Indices 1 2 3 4 5 6 
#
# 1 93.9647 25.2356 -9.7389 0.0000 0.0000 0.0000
# 2 25.2356 54.1480 10.4147 0.0000 0.0000 0.0000
# 3 -9.7389 10.4147 54.2833 0.0000 0.0000 0.0000
# 4 0.0000 0.0000 0.0000 -163.5127 0.0000 0.0000
# 5 0.0000 0.0000 0.0000 0.0000 41.4182 0.0000
# 6 0.0000 0.0000 0.0000 0.0000 0.0000 -37.8979
#
#
#
# Elastic Compliance Matrix: (Units=1/GPa)
#
#
# Indices 1 2 3 4 5 6 
#
# 1 0.012799 -0.006652 0.003573 0.000000 0.000000 0.000000
# 2 -0.006652 0.022633 -0.005536 0.000000 0.000000 0.000000
# 3 0.003573 -0.005536 0.020125 0.000000 0.000000 0.000000
# 4 0.000000 0.000000 0.000000 -0.006116 0.000000 0.000000
# 5 0.000000 0.000000 0.000000 0.000000 0.024144 0.000000
# 6 0.000000 0.000000 0.000000 0.000000 0.000000 -0.026387
#
#
# Mechanical properties :
#
#
# Convention : Reuss Voigt Hill
#
# Bulk Modulus (GPa) = 26.09184 28.24652 27.16918
# Shear Modulus (GPa) = 64.76309 -20.23285 22.26512
#
# Velocity S-wave (km/s) = 5.43384 -3.03719 3.18607
# Velocity P-wave (km/s) = 7.15992 0.76074 5.09133
#
# Compressibility (1/GPa) = 0.03832617
#
# Stress axis : x y z
#
# Youngs Moduli (GPa) = 78.13056 44.18355 49.68971
#
# Poissons Ratio (x) = 0.29391 -0.17752
# Poissons Ratio (y) = 0.51973 0.27507
# Poissons Ratio (z) = -0.27912 0.24459
#
# Static dielectric constant tensor:
#      x y z
#    x 1.851090 0.000000 0.000000 
#    y 0.000000 1.848740 0.000000 
#    z 0.000000 0.000000 1.834230 
# 
# From -- ./inp_files/5834.got.cif
#   From: 2010.05.17/outbox.cif.g08.bks.cpg/sg39_3_cif.got.tgz:5834.got - 2010.06.03 18:22:40.
