data_PCOD9361977
_publ_section_title
;
Structure prediction by ZEFSAII (Michael W. Deem and Ramdas Pophale) SiO2 
 PCOD9361977
Probable space group: A B M 2
;
_chemical_formula_sum "Si O2"
_cell_formula_units_Z 48
_cell_length_a 9.691459
_cell_length_b 15.169523
_cell_length_c 15.958212
_cell_angle_alpha 90.000000
_cell_angle_beta 90.000000
_cell_angle_gamma 90.000000
_cell_volume 2346.093508
_symmetry_space_group_name_H-M "A B M 2"
_symmetry_group_IT_number 39
_symmetry_cell_setting 'orthorhombic'
loop_
_space_group_symop_operation_xyz
x,y,z
-x,-y,z
-x,1/2+y,z
x,1/2-y,z
x,1/2+y,1/2+z
-x,1/2-y,1/2+z
-x,y,1/2+z
x,-y,1/2+z
loop_
_atom_site_type_symbol
_atom_site_label
_atom_site_fract_x
_atom_site_fract_y
_atom_site_fract_z
Si Si1 0.164329 0.980832 0.676380
Si Si2 0.970771 0.603752 0.901995
Si Si3 0.767460 0.345512 0.825059
Si Si4 0.737485 0.849985 0.033844
Si Si5 0.238613 0.851720 0.256705
Si Si6 0.473396 0.395803 0.891205
O O1 0.197559 0.925281 0.761332
O O2 0.232225 0.922177 0.604146
O O3 0.235489 0.076171 0.684115
O O4 0.000000 0.000000 0.665470
O O5 0.118227 0.648583 0.897207
O O6 0.000000 0.500000 0.912306
O O7 0.894396 0.625273 0.814240
O O8 0.867528 0.639974 0.971231
O O9 0.779103 0.250000 0.782300
O O10 0.619096 0.354482 0.867108
O O11 0.731489 0.750000 0.066200
O O12 0.602169 0.867874 0.977051
O O13 0.234422 0.750000 0.231197
O O14 0.367873 0.869291 0.317350
O O15 0.500000 0.500000 0.892751
#
# Coordination Sequence:
#
# PCOD9361977 Si02
#       6
#     8   8   8   8   8   8
#     4  12  24  42  66 104 136 176 224 286 349 402
#     4  11  19  39  67  99 131 169 224 279 333 400
#     4  12  21  37  69 103 131 169 226 281 330 402
#     4  11  25  44  66  97 140 185 220 274 344 407
#     4  11  21  40  68  97 129 174 227 276 335 404
#     4  11  22  43  69  97 132 176 227 273 330 406
#
# _framework density 20.459544000000001
#
# number of rings (size 3 to 8) (size 9 to 14) (size 15 to 20)
#    0.000    0.667    5.000    6.000    0.000    0.667 
#    3.000    0.000    0.000    2.000    0.000    0.000 
#    0.000    0.000    0.000    0.000    0.000    0.000 
#
# Total GULP energy -134115.266588 kJ/mol
# GULP energy per Si atom -5588.136108 kJ/mol
# Density = 2.041298 g / cm^3
# Si number density = 20.459544 Si / 1000 Ang^3
#
#
#
# Elastic Constant Matrix: (Units=GPa)
#
#
# Indices 1 2 3 4 5 6 
#
# 1 146.3362 32.2166 26.2223 0.0000 0.0000 0.0000
# 2 32.2166 200.1406 39.4593 0.0000 0.0000 0.0000
# 3 26.2223 39.4593 69.1197 0.0000 0.0000 0.0000
# 4 0.0000 0.0000 0.0000 25.3165 0.0000 0.0000
# 5 0.0000 0.0000 0.0000 0.0000 16.0829 0.0000
# 6 0.0000 0.0000 0.0000 0.0000 0.0000 25.3619
#
#
#
# Elastic Compliance Matrix: (Units=1/GPa)
#
#
# Indices 1 2 3 4 5 6 
#
# 1 0.007423 -0.000721 -0.002405 0.000000 0.000000 0.000000
# 2 -0.000721 0.005700 -0.002981 0.000000 0.000000 0.000000
# 3 -0.002405 -0.002981 0.017082 0.000000 0.000000 0.000000
# 4 0.000000 0.000000 0.000000 0.039500 0.000000 0.000000
# 5 0.000000 0.000000 0.000000 0.000000 0.062178 0.000000
# 6 0.000000 0.000000 0.000000 0.000000 0.000000 0.039429
#
#
# Mechanical properties :
#
#
# Convention : Reuss Voigt Hill
#
# Bulk Modulus (GPa) = 55.57845 67.93253 61.75549
# Shear Modulus (GPa) = 26.38219 34.53215 30.45717
#
# Velocity S-wave (km/s) = 3.59483 4.11277 3.86249
# Velocity P-wave (km/s) = 6.66742 7.47186 7.08107
#
# Compressibility (1/GPa) = 0.01799258
#
# Stress axis : x y z
#
# Youngs Moduli (GPa) = 134.71344 175.43302 58.54273
#
# Poissons Ratio (x) = 0.12645 0.14078
# Poissons Ratio (y) = 0.09710 0.17450
# Poissons Ratio (z) = 0.32394 0.52291
#
# Static dielectric constant tensor:
#      x y z
#    x 1.717100 0.000000 0.000000 
#    y 0.000000 1.752410 0.000000 
#    z 0.000000 0.000000 1.738630 
# 
# From -- ./inp_files/11606.got.cif
#   From: 2010.05.17/outbox.cif.g08.bks.cpg/sg39_6_cif.got.tgz:11606.got - 2010.06.03 18:22:40.
