data_PCOD9361861
_publ_section_title
;
Structure prediction by ZEFSAII (Michael W. Deem and Ramdas Pophale) SiO2 
 PCOD9361861
Probable space group: A B M 2
;
_chemical_formula_sum "Si O2"
_cell_formula_units_Z 64
_cell_length_a 22.083222
_cell_length_b 15.083144
_cell_length_c 9.311545
_cell_angle_alpha 90.000000
_cell_angle_beta 90.000000
_cell_angle_gamma 90.000000
_cell_volume 3101.530542
_symmetry_space_group_name_H-M "A B M 2"
_symmetry_group_IT_number 39
_symmetry_cell_setting 'orthorhombic'
loop_
_space_group_symop_operation_xyz
x,y,z
-x,-y,z
-x,1/2+y,z
x,1/2-y,z
x,1/2+y,1/2+z
-x,1/2-y,1/2+z
-x,y,1/2+z
x,-y,1/2+z
loop_
_atom_site_type_symbol
_atom_site_label
_atom_site_fract_x
_atom_site_fract_y
_atom_site_fract_z
Si Si1 0.178190 0.354967 0.979680
Si Si2 0.736944 0.979649 0.516011
Si Si3 0.035792 0.410003 0.487951
Si Si4 0.841421 0.644154 0.641917
Si Si5 0.573072 0.147025 0.371969
Si Si6 0.549693 0.646733 0.208154
Si Si7 0.653557 0.009798 0.771841
Si Si8 0.065365 0.348552 0.176936
O O1 0.193269 0.250000 0.996950
O O2 0.156734 0.366854 0.814644
O O3 0.231565 0.424147 0.007203
O O4 0.124491 0.378501 0.090200
O O5 0.783849 0.908542 0.579223
O O6 0.678035 0.986083 0.615461
O O7 0.711882 0.956647 0.359265
O O8 0.099198 0.396703 0.567931
O O9 0.046602 0.401992 0.318001
O O10 0.000000 0.500000 0.517479
O O11 0.988546 0.343465 0.561530
O O12 0.838388 0.750000 0.612736
O O13 0.590172 0.250000 0.347466
O O14 0.516251 0.124515 0.270188
O O15 0.551571 0.138712 0.536216
O O16 0.626919 0.079694 0.340524
O O17 0.561530 0.750000 0.245425
O O18 0.601005 0.582529 0.269135
O O19 0.078550 0.250000 0.233123
#
# Coordination Sequence:
#
# PCOD9361861 Si02
#       8
#     8   8   8   8   8   8   8   8
#     4  10  24  46  70  93 131 176 219 272 330 390
#     4  12  26  43  65  98 132 174 228 267 323 390
#     4  12  25  41  65  95 127 162 206 264 324 386
#     4  11  25  47  69  94 132 175 220 273 330 390
#     4  10  23  43  68  97 133 174 218 270 333 393
#     4  10  23  43  67  98 133 173 218 272 333 392
#     4  12  25  42  67  97 134 175 222 273 322 389
#     4  11  23  41  65  94 123 161 209 259 321 386
#
# _framework density 20.634972999999999
#
# number of rings (size 3 to 8) (size 9 to 14) (size 15 to 20)
#    0.000    1.000    2.500    3.375    3.500    6.000 
#    0.000    0.625    0.000    0.000    0.000    0.000 
#    0.000    0.000    0.000    0.000    0.000    0.000 
#
# Total GULP energy -178898.052898 kJ/mol
# GULP energy per Si atom -5590.564153 kJ/mol
# Density = 2.058801 g / cm^3
# Si number density = 20.634973 Si / 1000 Ang^3
#
#
#
# Elastic Constant Matrix: (Units=GPa)
#
#
# Indices 1 2 3 4 5 6 
#
# 1 85.0580 47.5249 23.7176 0.0000 0.0000 0.0000
# 2 47.5249 101.6596 44.4021 0.0000 0.0000 0.0000
# 3 23.7176 44.4021 74.1731 0.0000 0.0000 0.0000
# 4 0.0000 0.0000 0.0000 87.6958 0.0000 0.0000
# 5 0.0000 0.0000 0.0000 0.0000 50.4706 0.0000
# 6 0.0000 0.0000 0.0000 0.0000 0.0000 16.3813
#
#
#
# Elastic Compliance Matrix: (Units=1/GPa)
#
#
# Indices 1 2 3 4 5 6 
#
# 1 0.015954 -0.007082 -0.000862 0.000000 0.000000 0.000000
# 2 -0.007082 0.016463 -0.007591 0.000000 0.000000 0.000000
# 3 -0.000862 -0.007591 0.018302 0.000000 0.000000 0.000000
# 4 0.000000 0.000000 0.000000 0.011403 0.000000 0.000000
# 5 0.000000 0.000000 0.000000 0.000000 0.019814 0.000000
# 6 0.000000 0.000000 0.000000 0.000000 0.000000 0.061045
#
#
# Mechanical properties :
#
#
# Convention : Reuss Voigt Hill
#
# Bulk Modulus (GPa) = 50.89226 54.68666 52.78946
# Shear Modulus (GPa) = 27.68572 40.59264 34.13918
#
# Velocity S-wave (km/s) = 3.66688 4.44010 4.07188
# Velocity P-wave (km/s) = 6.53029 7.26949 6.90978
#
# Compressibility (1/GPa) = 0.01964935
#
# Stress axis : x y z
#
# Youngs Moduli (GPa) = 62.68056 60.74314 54.64016
#
# Poissons Ratio (x) = 0.43017 0.04710
# Poissons Ratio (y) = 0.44389 0.41475
# Poissons Ratio (z) = 0.05404 0.46108
#
# Static dielectric constant tensor:
#      x y z
#    x 1.700210 0.000000 0.000000 
#    y 0.000000 1.420530 0.000000 
#    z 0.000000 0.000000 1.718120 
# 
# From -- ./inp_files/4089.got.cif
#   From: 2010.05.17/outbox.cif.g08.bks.cpg/sg39_3_cif.got.tgz:4089.got - 2010.06.03 18:22:40.
