data_PCOD9361542
_publ_section_title
;
Structure prediction by ZEFSAII (Michael W. Deem and Ramdas Pophale) SiO2 
 PCOD9361542
Probable space group: A B M 2
;
_chemical_formula_sum "Si O2"
_cell_formula_units_Z 64
_cell_length_a 12.060026
_cell_length_b 19.005459
_cell_length_c 13.922177
_cell_angle_alpha 90.000000
_cell_angle_beta 90.000000
_cell_angle_gamma 90.000000
_cell_volume 3191.051091
_symmetry_space_group_name_H-M "A B M 2"
_symmetry_group_IT_number 39
_symmetry_cell_setting 'orthorhombic'
loop_
_space_group_symop_operation_xyz
x,y,z
-x,-y,z
-x,1/2+y,z
x,1/2-y,z
x,1/2+y,1/2+z
-x,1/2-y,1/2+z
-x,y,1/2+z
x,-y,1/2+z
loop_
_atom_site_type_symbol
_atom_site_label
_atom_site_fract_x
_atom_site_fract_y
_atom_site_fract_z
Si Si1 0.665002 0.534790 0.879320
Si Si2 0.893486 0.666715 0.096389
Si Si3 0.648436 0.117641 0.653819
Si Si4 0.305565 0.041048 0.651177
Si Si5 0.908887 0.938766 0.924438
Si Si6 0.434877 0.826599 0.066191
Si Si7 0.064916 0.926890 0.198122
Si Si8 0.444924 0.387434 0.371684
O O1 0.689048 0.531719 0.765973
O O2 0.780902 0.537775 0.933696
O O3 0.607932 0.461422 0.904355
O O4 0.576540 0.598074 0.882732
O O5 0.894590 0.750000 0.085160
O O6 0.774630 0.643226 0.141055
O O7 0.990775 0.637466 0.163677
O O8 0.917261 0.625991 0.996865
O O9 0.564607 0.162205 0.589087
O O10 0.599721 0.124208 0.763244
O O11 0.649281 0.035587 0.620001
O O12 0.377303 0.106609 0.616133
O O13 0.177223 0.061593 0.637468
O O14 0.918622 0.918518 0.812400
O O15 0.000000 0.000000 0.943360
O O16 0.399152 0.750000 0.102939
O O17 0.413308 0.831761 0.952379
O O18 0.000000 0.000000 0.185462
#
# Coordination Sequence:
#
# PCOD9361542 Si02
#       8
#     8   8   8   8   8   8   8   8
#     4   9  19  40  64  98 119 162 224 271 318 372
#     4  12  26  42  65  99 135 174 216 269 337 398
#     4  11  23  44  69  93 128 174 225 273 321 392
#     4  10  21  41  68  91 122 165 221 269 317 382
#     4  10  23  40  70  98 129 172 221 272 322 396
#     4  12  26  39  59  98 137 172 209 264 340 401
#     4  10  21  44  69  94 125 168 221 274 323 383
#     4  10  22  38  65  92 131 166 216 277 321 387
#
# _framework density 20.056087999999999
#
# number of rings (size 3 to 8) (size 9 to 14) (size 15 to 20)
#    0.000    1.500    2.500    1.875    7.000    2.000 
#    0.000    1.875    0.000    0.000    0.000    0.000 
#    0.000    0.000    0.000    0.000    0.000    0.000 
#
# Total GULP energy -178551.778339 kJ/mol
# GULP energy per Si atom -5579.743073 kJ/mol
# Density = 2.001044 g / cm^3
# Si number density = 20.056088 Si / 1000 Ang^3
#
#
#
# Elastic Constant Matrix: (Units=GPa)
#
#
# Indices 1 2 3 4 5 6 
#
# 1 109.7947 41.0105 17.9756 0.0000 0.0000 0.0000
# 2 41.0105 133.2958 36.6955 0.0000 0.0000 0.0000
# 3 17.9756 36.6955 74.2263 0.0000 0.0000 0.0000
# 4 0.0000 0.0000 0.0000 3.6637 0.0000 0.0000
# 5 0.0000 0.0000 0.0000 0.0000 -541.7571 0.0000
# 6 0.0000 0.0000 0.0000 0.0000 0.0000 18.8858
#
#
#
# Elastic Compliance Matrix: (Units=1/GPa)
#
#
# Indices 1 2 3 4 5 6 
#
# 1 0.010365 -0.002891 -0.001081 0.000000 0.000000 0.000000
# 2 -0.002891 0.009491 -0.003992 0.000000 0.000000 0.000000
# 3 -0.001081 -0.003992 0.015707 0.000000 0.000000 0.000000
# 4 0.000000 0.000000 0.000000 0.272945 0.000000 0.000000
# 5 0.000000 0.000000 0.000000 0.000000 -0.001846 0.000000
# 6 0.000000 0.000000 0.000000 0.000000 0.000000 0.052950
#
#
# Mechanical properties :
#
#
# Convention : Reuss Voigt Hill
#
# Bulk Modulus (GPa) = 50.92854 56.52000 53.72427
# Shear Modulus (GPa) = 13.08611 -89.06583 -37.98986
#
# Velocity S-wave (km/s) = 2.55713 -6.67119 -4.35694
# Velocity P-wave (km/s) = 5.84523 5.57652 1.23879
#
# Compressibility (1/GPa) = 0.01963536
#
# Stress axis : x y z
#
# Youngs Moduli (GPa) = 96.48014 105.36769 63.66432
#
# Poissons Ratio (x) = 0.30466 0.06880
# Poissons Ratio (y) = 0.27896 0.25413
# Poissons Ratio (z) = 0.10426 0.42059
#
# Static dielectric constant tensor:
#      x y z
#    x 7.743480 0.000000 0.000000 
#    y 0.000000 1.685540 0.000000 
#    z 0.000000 0.000000 1.751220 
# 
# From -- ./inp_files/9422.got.cif
#   From: 2010.05.17/outbox.cif.g08.bks.cpg/sg39_5_cif.got.tgz:9422.got - 2010.06.03 18:22:40.
