data_PCOD9361457
_publ_section_title
;
Structure prediction by ZEFSAII (Michael W. Deem and Ramdas Pophale) SiO2 
 PCOD9361457
Probable space group: A B M 2
;
_chemical_formula_sum "Si O2"
_cell_formula_units_Z 64
_cell_length_a 19.203171
_cell_length_b 16.640581
_cell_length_c 9.131972
_cell_angle_alpha 90.000000
_cell_angle_beta 90.000000
_cell_angle_gamma 90.000000
_cell_volume 2918.139209
_symmetry_space_group_name_H-M "A B M 2"
_symmetry_group_IT_number 39
_symmetry_cell_setting 'orthorhombic'
loop_
_space_group_symop_operation_xyz
x,y,z
-x,-y,z
-x,1/2+y,z
x,1/2-y,z
x,1/2+y,1/2+z
-x,1/2-y,1/2+z
-x,y,1/2+z
x,-y,1/2+z
loop_
_atom_site_type_symbol
_atom_site_label
_atom_site_fract_x
_atom_site_fract_y
_atom_site_fract_z
Si Si1 0.475187 0.090762 0.636000
Si Si2 0.648085 0.368508 0.315322
Si Si3 0.755571 0.940220 0.638213
Si Si4 0.088989 0.656341 0.423258
Si Si5 0.026877 0.913915 0.708292
Si Si6 0.363124 0.548376 0.902803
Si Si7 0.842777 0.985927 0.380751
Si Si8 0.372902 0.338638 0.141903
O O1 0.423461 0.150007 0.729221
O O2 0.432818 0.076280 0.485430
O O3 0.548122 0.134061 0.613949
O O4 0.500000 0.000000 0.685885
O O5 0.719409 0.365164 0.221867
O O6 0.631157 0.462570 0.330907
O O7 0.659673 0.339688 0.479666
O O8 0.692917 0.964130 0.530830
O O9 0.783051 0.003555 0.757782
O O10 0.818844 0.936116 0.522995
O O11 0.111264 0.750000 0.405504
O O12 0.053260 0.643580 0.580711
O O13 0.142458 0.580309 0.418039
O O14 0.032586 0.630742 0.300384
O O15 0.090170 0.943098 0.811949
O O16 0.000000 0.000000 0.644193
O O17 0.343746 0.607296 0.771907
O O18 0.370762 0.250000 0.201081
#
# Coordination Sequence:
#
# PCOD9361457 Si02
#       8
#     8   8   8   8   8   8   8   8
#     4  11  21  36  62  96 125 162 216 267 320 402
#     4  11  22  39  65  93 125 168 218 262 328 387
#     4  11  23  39  67  94 124 166 229 274 307 371
#     4  11  23  40  64 101 141 171 205 271 334 373
#     4  10  21  39  66  99 132 175 218 264 312 381
#     4  11  22  39  64  94 125 168 216 265 325 390
#     4  11  22  40  69 101 125 172 234 271 304 385
#     4  12  26  42  66 100 133 162 206 280 350 400
#
# _framework density 21.931784
#
# number of rings (size 3 to 8) (size 9 to 14) (size 15 to 20)
#    0.000    1.000    5.000    3.000    1.750    2.000 
#    0.000    3.125    0.000    2.250    0.000    0.000 
#    0.000    0.000    0.000    0.000    0.000    0.000 
#
# Total GULP energy -178403.483128 kJ/mol
# GULP energy per Si atom -5575.108848 kJ/mol
# Density = 2.188187 g / cm^3
# Si number density = 21.931784 Si / 1000 Ang^3
#
#
#
# Elastic Constant Matrix: (Units=GPa)
#
#
# Indices 1 2 3 4 5 6 
#
# 1 60.0507 6.0302 20.3247 0.0000 0.0000 0.0000
# 2 6.0302 101.7951 17.7670 0.0000 0.0000 0.0000
# 3 20.3247 17.7670 100.4332 0.0000 0.0000 0.0000
# 4 0.0000 0.0000 0.0000 10.2006 0.0000 0.0000
# 5 0.0000 0.0000 0.0000 0.0000 27.0231 0.0000
# 6 0.0000 0.0000 0.0000 0.0000 0.0000 -26.4937
#
#
#
# Elastic Compliance Matrix: (Units=1/GPa)
#
#
# Indices 1 2 3 4 5 6 
#
# 1 0.017896 -0.000442 -0.003544 0.000000 0.000000 0.000000
# 2 -0.000442 0.010148 -0.001706 0.000000 0.000000 0.000000
# 3 -0.003544 -0.001706 0.010976 0.000000 0.000000 0.000000
# 4 0.000000 0.000000 0.000000 0.098033 0.000000 0.000000
# 5 0.000000 0.000000 0.000000 0.000000 0.037005 0.000000
# 6 0.000000 0.000000 0.000000 0.000000 0.000000 -0.037745
#
#
# Mechanical properties :
#
#
# Convention : Reuss Voigt Hill
#
# Bulk Modulus (GPa) = 36.18257 38.94698 37.56478
# Shear Modulus (GPa) = 31.86582 16.68981 24.27781
#
# Velocity S-wave (km/s) = 3.81590 2.76159 3.33072
# Velocity P-wave (km/s) = 5.99569 5.28822 5.65304
#
# Compressibility (1/GPa) = 0.02763761
#
# Stress axis : x y z
#
# Youngs Moduli (GPa) = 55.87744 98.54605 91.11006
#
# Poissons Ratio (x) = 0.04353 0.32285
# Poissons Ratio (y) = 0.02468 0.15541
# Poissons Ratio (z) = 0.19800 0.16810
#
# Static dielectric constant tensor:
#      x y z
#    x 1.894190 0.000000 0.000000 
#    y 0.000000 1.799390 0.000000 
#    z 0.000000 0.000000 1.869310 
# 
# From -- ./inp_files/4009.got.cif
#   From: 2010.05.17/outbox.cif.g08.bks.cpg/sg39_3_cif.got.tgz:4009.got - 2010.06.03 18:22:40.
