data_PCOD9361421
_publ_section_title
;
Structure prediction by ZEFSAII (Michael W. Deem and Ramdas Pophale) SiO2 
 PCOD9361421
Probable space group: A B M 2
;
_chemical_formula_sum "Si O2"
_cell_formula_units_Z 64
_cell_length_a 12.070697
_cell_length_b 17.311078
_cell_length_c 14.659880
_cell_angle_alpha 90.000000
_cell_angle_beta 90.000000
_cell_angle_gamma 90.000000
_cell_volume 3063.281280
_symmetry_space_group_name_H-M "A B M 2"
_symmetry_group_IT_number 39
_symmetry_cell_setting 'orthorhombic'
loop_
_space_group_symop_operation_xyz
x,y,z
-x,-y,z
-x,1/2+y,z
x,1/2-y,z
x,1/2+y,1/2+z
-x,1/2-y,1/2+z
-x,y,1/2+z
x,-y,1/2+z
loop_
_atom_site_type_symbol
_atom_site_label
_atom_site_fract_x
_atom_site_fract_y
_atom_site_fract_z
Si Si1 0.987560 0.837681 0.626940
Si Si2 0.138231 0.842019 0.312671
Si Si3 0.593481 0.837710 0.434912
Si Si4 0.631205 0.660047 0.032903
Si Si5 0.207171 0.583293 0.031707
Si Si6 0.859780 0.079447 0.494979
Si Si7 0.576644 0.112179 0.733842
Si Si8 0.326065 0.054161 0.722136
O O1 0.027463 0.750000 0.617375
O O2 0.949633 0.851350 0.730588
O O3 0.877733 0.851915 0.566391
O O4 0.077708 0.895240 0.586626
O O5 0.164378 0.750000 0.318554
O O6 0.093273 0.875166 0.407721
O O7 0.245143 0.894001 0.284921
O O8 0.607680 0.750000 0.467822
O O9 0.480673 0.867006 0.482269
O O10 0.698885 0.885577 0.466040
O O11 0.582857 0.840262 0.326483
O O12 0.650017 0.750000 0.008847
O O13 0.733859 0.608900 0.002306
O O14 0.617459 0.652007 0.141513
O O15 0.141080 0.512367 0.987762
O O16 0.268946 0.553408 0.123004
O O17 0.447595 0.091862 0.717679
O O18 0.647691 0.033807 0.749929
#
# Coordination Sequence:
#
# PCOD9361421 Si02
#       8
#     8   8   8   8   8   8   8   8
#     4  10  23  44  67  93 125 166 214 269 324 384
#     4  10  22  41  68  95 122 170 220 263 317 384
#     4  11  24  40  63  96 132 174 220 263 320 387
#     4  11  23  38  62  94 133 174 211 265 322 380
#     4  11  22  42  67  92 128 170 214 268 323 382
#     4  12  23  42  67  97 132 164 218 267 325 392
#     4  11  21  39  59  93 132 170 210 267 322 378
#     4  10  21  39  62  90 128 170 215 263 318 381
#
# _framework density 20.892628999999999
#
# number of rings (size 3 to 8) (size 9 to 14) (size 15 to 20)
#    0.000    1.250    2.500    3.750    0.000    4.000 
#    2.250    2.500    0.000    0.000    0.000    0.000 
#    0.000    0.000    0.000    0.000    0.000    0.000 
#
# Total GULP energy -178899.630570 kJ/mol
# GULP energy per Si atom -5590.613455 kJ/mol
# Density = 2.084508 g / cm^3
# Si number density = 20.892629 Si / 1000 Ang^3
#
#
#
# Elastic Constant Matrix: (Units=GPa)
#
#
# Indices 1 2 3 4 5 6 
#
# 1 49.3542 18.4973 16.9790 0.0000 0.0000 0.0000
# 2 18.4973 64.5276 12.1564 0.0000 0.0000 0.0000
# 3 16.9790 12.1564 102.6569 0.0000 0.0000 0.0000
# 4 0.0000 0.0000 0.0000 12.5930 0.0000 0.0000
# 5 0.0000 0.0000 0.0000 0.0000 22.8239 0.0000
# 6 0.0000 0.0000 0.0000 0.0000 0.0000 22.2464
#
#
#
# Elastic Compliance Matrix: (Units=1/GPa)
#
#
# Indices 1 2 3 4 5 6 
#
# 1 0.023676 -0.006187 -0.003183 0.000000 0.000000 0.000000
# 2 -0.006187 0.017468 -0.001045 0.000000 0.000000 0.000000
# 3 -0.003183 -0.001045 0.010391 0.000000 0.000000 0.000000
# 4 0.000000 0.000000 0.000000 0.079409 0.000000 0.000000
# 5 0.000000 0.000000 0.000000 0.000000 0.043814 0.000000
# 6 0.000000 0.000000 0.000000 0.000000 0.000000 0.044951
#
#
# Mechanical properties :
#
#
# Convention : Reuss Voigt Hill
#
# Bulk Modulus (GPa) = 32.56917 34.64489 33.60703
# Shear Modulus (GPa) = 19.93827 22.79308 21.36568
#
# Velocity S-wave (km/s) = 3.09256 3.30656 3.20135
# Velocity P-wave (km/s) = 5.32678 5.58535 5.45759
#
# Compressibility (1/GPa) = 0.03070388
#
# Stress axis : x y z
#
# Youngs Moduli (GPa) = 42.23756 57.24850 96.23305
#
# Poissons Ratio (x) = 0.35420 0.30633
# Poissons Ratio (y) = 0.26133 0.10058
# Poissons Ratio (z) = 0.13445 0.05983
#
# Static dielectric constant tensor:
#      x y z
#    x 1.725440 0.000000 0.000000 
#    y 0.000000 1.732610 0.000000 
#    z 0.000000 0.000000 1.733060 
# 
# From -- ./inp_files/9462.got.cif
#   From: 2010.05.17/outbox.cif.g08.bks.cpg/sg39_5_cif.got.tgz:9462.got - 2010.06.03 18:22:40.
