data_PCOD9361381
_publ_section_title
;
Structure prediction by ZEFSAII (Michael W. Deem and Ramdas Pophale) SiO2 
 PCOD9361381
Probable space group: A B M 2
;
_chemical_formula_sum "Si O2"
_cell_formula_units_Z 64
_cell_length_a 7.485584
_cell_length_b 29.300717
_cell_length_c 12.680476
_cell_angle_alpha 90.000000
_cell_angle_beta 90.000000
_cell_angle_gamma 90.000000
_cell_volume 2781.246568
_symmetry_space_group_name_H-M "A B M 2"
_symmetry_group_IT_number 39
_symmetry_cell_setting 'orthorhombic'
loop_
_space_group_symop_operation_xyz
x,y,z
-x,-y,z
-x,1/2+y,z
x,1/2-y,z
x,1/2+y,1/2+z
-x,1/2-y,1/2+z
-x,y,1/2+z
x,-y,1/2+z
loop_
_atom_site_type_symbol
_atom_site_label
_atom_site_fract_x
_atom_site_fract_y
_atom_site_fract_z
Si Si1 0.753663 0.836467 0.896060
Si Si2 0.451274 0.381929 0.531423
Si Si3 0.849272 0.698805 0.120241
Si Si4 0.561558 0.197607 0.181891
Si Si5 0.034202 0.384083 0.731966
Si Si6 0.372284 0.462265 0.409884
Si Si7 0.828674 0.525628 0.224455
Si Si8 0.603579 0.556323 0.702684
O O1 0.607895 0.868726 0.952102
O O2 0.652258 0.814540 0.794187
O O3 0.922583 0.862799 0.846729
O O4 0.813069 0.805194 0.994408
O O5 0.380709 0.336675 0.588241
O O6 0.320644 0.417524 0.473956
O O7 0.519780 0.415451 0.623256
O O8 0.914733 0.750000 0.144924
O O9 0.655625 0.692822 0.178475
O O10 0.978449 0.658617 0.159219
O O11 0.601611 0.250000 0.156417
O O12 0.218592 0.411832 0.709766
O O13 0.878211 0.421400 0.722046
O O14 0.500000 0.500000 0.462085
O O15 0.205863 0.484019 0.349506
O O16 0.497242 0.445951 0.311898
O O17 0.674849 0.494085 0.174673
O O18 0.000000 0.500000 0.182555
#
# Coordination Sequence:
#
# PCOD9361381 Si02
#       8
#     8   8   8   8   8   8   8   8
#     4  11  23  43  72  98 138 180 236 289 349 412
#     4  11  21  38  69 100 127 169 241 281 335 403
#     4  10  25  44  67 104 138 179 229 284 362 430
#     4  10  22  44  70  95 132 178 232 291 341 407
#     4  11  22  42  68  98 141 180 220 285 353 422
#     4  10  21  38  65  95 132 181 230 283 330 410
#     4   9  22  40  65  91 139 181 220 280 344 408
#     4  10  21  43  63 100 132 181 231 279 339 408
#
# _framework density 23.011264000000001
#
# number of rings (size 3 to 8) (size 9 to 14) (size 15 to 20)
#    0.000    1.750    2.500    0.375    5.250    4.000 
#    0.000    1.875    0.000    0.000    0.000    0.000 
#    0.000    0.000    0.000    0.000    0.000    0.000 
#
# Total GULP energy -178262.300852 kJ/mol
# GULP energy per Si atom -5570.696902 kJ/mol
# Density = 2.295889 g / cm^3
# Si number density = 23.011264 Si / 1000 Ang^3
#
#
#
# Elastic Constant Matrix: (Units=GPa)
#
#
# Indices 1 2 3 4 5 6 
#
# 1 90.1035 25.9931 19.7858 0.0000 0.0000 0.0000
# 2 25.9931 169.8630 50.4109 0.0000 0.0000 0.0000
# 3 19.7858 50.4109 98.8055 0.0000 0.0000 0.0000
# 4 0.0000 0.0000 0.0000 39.6249 0.0000 0.0000
# 5 0.0000 0.0000 0.0000 0.0000 30.9530 0.0000
# 6 0.0000 0.0000 0.0000 0.0000 0.0000 20.0829
#
#
#
# Elastic Compliance Matrix: (Units=1/GPa)
#
#
# Indices 1 2 3 4 5 6 
#
# 1 0.011850 -0.001307 -0.001706 0.000000 0.000000 0.000000
# 2 -0.001307 0.007082 -0.003351 0.000000 0.000000 0.000000
# 3 -0.001706 -0.003351 0.012172 0.000000 0.000000 0.000000
# 4 0.000000 0.000000 0.000000 0.025237 0.000000 0.000000
# 5 0.000000 0.000000 0.000000 0.000000 0.032307 0.000000
# 6 0.000000 0.000000 0.000000 0.000000 0.000000 0.049794
#
#
# Mechanical properties :
#
#
# Convention : Reuss Voigt Hill
#
# Bulk Modulus (GPa) = 54.42134 61.23907 57.83020
# Shear Modulus (GPa) = 31.78728 35.63764 33.71246
#
# Velocity S-wave (km/s) = 3.72072 3.93963 3.83174
# Velocity P-wave (km/s) = 6.49304 6.88220 6.69045
#
# Compressibility (1/GPa) = 0.01837514
#
# Stress axis : x y z
#
# Youngs Moduli (GPa) = 84.38786 141.20896 82.15278
#
# Poissons Ratio (x) = 0.18456 0.14016
# Poissons Ratio (y) = 0.11030 0.27533
# Poissons Ratio (z) = 0.14398 0.47325
#
# Static dielectric constant tensor:
#      x y z
#    x 1.995070 0.000000 0.000000 
#    y 0.000000 1.901380 0.000000 
#    z 0.000000 0.000000 1.920830 
# 
# From -- ./inp_files/5388.got.cif
#   From: 2010.05.17/outbox.cif.g08.bks.cpg/sg39_3_cif.got.tgz:5388.got - 2010.06.03 18:22:40.
