data_PCOD9361075
_publ_section_title
;
Structure prediction by ZEFSAII (Michael W. Deem and Ramdas Pophale) SiO2 
 PCOD9361075
Probable space group: A B M 2
;
_chemical_formula_sum "Si O2"
_cell_formula_units_Z 40
_cell_length_a 8.262377
_cell_length_b 22.783140
_cell_length_c 9.463347
_cell_angle_alpha 90.000000
_cell_angle_beta 90.000000
_cell_angle_gamma 90.000000
_cell_volume 1781.407807
_symmetry_space_group_name_H-M "A B M 2"
_symmetry_group_IT_number 39
_symmetry_cell_setting 'orthorhombic'
loop_
_space_group_symop_operation_xyz
x,y,z
-x,-y,z
-x,1/2+y,z
x,1/2-y,z
x,1/2+y,1/2+z
-x,1/2-y,1/2+z
-x,y,1/2+z
x,-y,1/2+z
loop_
_atom_site_type_symbol
_atom_site_label
_atom_site_fract_x
_atom_site_fract_y
_atom_site_fract_z
Si Si1 0.013673 0.881502 0.410110
Si Si2 0.111008 0.445484 0.179522
Si Si3 0.773175 0.250000 0.155474
Si Si4 0.454883 0.437672 0.025825
Si Si5 0.024258 0.250000 0.400556
Si Si6 0.657235 0.375116 0.261908
O O1 0.010008 0.918175 0.550494
O O2 0.167061 0.896080 0.313041
O O3 0.868529 0.899146 0.307522
O O4 0.035303 0.813677 0.449336
O O5 0.287297 0.451882 0.109167
O O6 0.000000 0.500000 0.229438
O O7 0.681290 0.308486 0.207807
O O8 0.950764 0.250000 0.238613
O O9 0.803471 0.250000 0.985804
O O10 0.500000 0.500000 0.957083
O O11 0.581881 0.414503 0.139928
O O12 0.439357 0.387547 0.906781
#
# Coordination Sequence:
#
# PCOD9361075 Si02
#       6
#     8   8   4   8   4   8
#     4  10  21  39  62  92 121 157 208 260 314 369
#     4  11  23  38  61  90 122 160 210 263 311 370
#     4  10  22  42  66  96 128 162 210 262 314 374
#     4  11  24  41  61  88 125 168 209 256 315 376
#     4  10  20  38  66  92 124 160 200 256 308 364
#     4  10  23  41  62  91 128 165 207 256 312 379
#
# _framework density 22.454153000000002
#
# number of rings (size 3 to 8) (size 9 to 14) (size 15 to 20)
#    0.000    1.600    0.000    4.800    0.000    8.800 
#    0.000    2.000    0.000    0.000    0.000    0.000 
#    0.000    0.000    0.000    0.000    0.000    0.000 
#
# Total GULP energy -111410.981627 kJ/mol
# GULP energy per Si atom -5570.549081 kJ/mol
# Density = 2.240305 g / cm^3
# Si number density = 22.454153 Si / 1000 Ang^3
#
#
#
# Elastic Constant Matrix: (Units=GPa)
#
#
# Indices 1 2 3 4 5 6 
#
# 1 35.5793 32.7403 35.2712 0.0000 0.0000 0.0000
# 2 32.7403 109.6937 56.9262 0.0000 0.0000 0.0000
# 3 35.2712 56.9262 80.4001 0.0000 0.0000 0.0000
# 4 0.0000 0.0000 0.0000 17.7239 0.0000 0.0000
# 5 0.0000 0.0000 0.0000 0.0000 34.5343 0.0000
# 6 0.0000 0.0000 0.0000 0.0000 0.0000 20.4287
#
#
#
# Elastic Compliance Matrix: (Units=1/GPa)
#
#
# Indices 1 2 3 4 5 6 
#
# 1 0.051984 -0.005819 -0.018685 0.000000 0.000000 0.000000
# 2 -0.005819 0.015063 -0.008112 0.000000 0.000000 0.000000
# 3 -0.018685 -0.008112 0.026379 0.000000 0.000000 0.000000
# 4 0.000000 0.000000 0.000000 0.056421 0.000000 0.000000
# 5 0.000000 0.000000 0.000000 0.000000 0.028957 0.000000
# 6 0.000000 0.000000 0.000000 0.000000 0.000000 0.048951
#
#
# Mechanical properties :
#
#
# Convention : Reuss Voigt Hill
#
# Bulk Modulus (GPa) = 35.46993 52.83873 44.15433
# Shear Modulus (GPa) = 16.53517 21.25307 18.89412
#
# Velocity S-wave (km/s) = 2.71661 3.07988 2.90393
# Velocity P-wave (km/s) = 5.06664 6.01917 5.56333
#
# Compressibility (1/GPa) = 0.02819289
#
# Stress axis : x y z
#
# Youngs Moduli (GPa) = 19.23657 66.38736 37.90909
#
# Poissons Ratio (x) = 0.38630 0.70834
# Poissons Ratio (y) = 0.11194 0.30754
# Poissons Ratio (z) = 0.35944 0.53857
#
# Static dielectric constant tensor:
#      x y z
#    x 1.898990 0.000000 0.000000 
#    y 0.000000 1.819290 0.000000 
#    z 0.000000 0.000000 1.858460 
# 
# From -- ./inp_files/2128.got.cif
#   From: 2010.05.17/outbox.cif.g08.bks.cpg/sg39_2_cif.got.tgz:2128.got - 2010.06.03 18:22:40.
