data_PCOD9361403
_publ_section_title
;
Structure prediction by ZEFSAII (Michael W. Deem and Ramdas Pophale) SiO2 
 PCOD9361403
Probable space group: A B M 2
;
_chemical_formula_sum "Si O2"
_cell_formula_units_Z 64
_cell_length_a 22.722559
_cell_length_b 10.239846
_cell_length_c 13.989243
_cell_angle_alpha 90.000000
_cell_angle_beta 90.000000
_cell_angle_gamma 90.000000
_cell_volume 3254.954178
_symmetry_space_group_name_H-M "A B M 2"
_symmetry_group_IT_number 39
_symmetry_cell_setting 'orthorhombic'
loop_
_space_group_symop_operation_xyz
x,y,z
-x,-y,z
-x,1/2+y,z
x,1/2-y,z
x,1/2+y,1/2+z
-x,1/2-y,1/2+z
-x,y,1/2+z
x,-y,1/2+z
loop_
_atom_site_type_symbol
_atom_site_label
_atom_site_fract_x
_atom_site_fract_y
_atom_site_fract_z
Si Si1 0.740799 0.399761 0.006530
Si Si2 0.549035 0.893046 0.024144
Si Si3 0.050443 0.899160 0.880698
Si Si4 0.644808 0.470360 0.374762
Si Si5 0.157090 0.905093 0.731876
Si Si6 0.447473 0.602097 0.745028
Si Si7 0.740039 0.104758 0.232039
Si Si8 0.870908 0.405555 0.057589
O O1 0.733372 0.250000 0.978153
O O2 0.727439 0.412202 0.119475
O O3 0.696278 0.479807 0.943565
O O4 0.810059 0.430003 0.999821
O O5 0.520939 0.750000 0.022158
O O6 0.571261 0.913798 0.133365
O O7 0.500000 0.000000 0.004029
O O8 0.599596 0.899358 0.945315
O O9 0.028697 0.750000 0.874908
O O10 0.074355 0.923899 0.987643
O O11 0.107204 0.909154 0.812592
O O12 0.000000 0.000000 0.854234
O O13 0.605564 0.575328 0.317444
O O14 0.680420 0.397024 0.292126
O O15 0.168801 0.750000 0.711300
O O16 0.215957 0.986514 0.759399
O O17 0.500000 0.500000 0.762053
O O18 0.469231 0.750000 0.756864
O O19 0.767531 0.250000 0.244042
O O20 0.868075 0.990741 0.143186
O O21 0.869291 0.250000 0.085715
#
# Coordination Sequence:
#
# PCOD9361403 Si02
#       8
#     8   8   8   8   8   8   8   8
#     4   9  19  36  57  82 114 149 184 222 276 341
#     4  10  23  42  59  80 111 146 185 231 280 334
#     4  10  22  38  58  86 120 155 195 242 290 339
#     4  12  21  34  60  89 113 142 185 236 282 334
#     4  10  21  39  61  85 115 154 196 238 283 336
#     4  10  23  41  60  82 112 149 189 234 285 340
#     4  10  22  39  58  84 117 152 186 228 284 344
#     4   9  19  39  61  82 114 155 193 233 283 340
#
# _framework density 19.662336
#
# number of rings (size 3 to 8) (size 9 to 14) (size 15 to 20)
#    0.000    2.000    0.000    3.750    0.000    7.000 
#    0.000   13.750    0.000    0.000    0.000    0.000 
#    0.000    0.000    0.000    0.000    0.000    0.000 
#
# Total GULP energy -178494.744959 kJ/mol
# GULP energy per Si atom -5577.960780 kJ/mol
# Density = 1.961758 g / cm^3
# Si number density = 19.662336 Si / 1000 Ang^3
#
#
#
# Elastic Constant Matrix: (Units=GPa)
#
#
# Indices 1 2 3 4 5 6 
#
# 1 54.4875 47.4189 27.0419 0.0000 0.0000 0.0000
# 2 47.4189 128.4454 42.6221 0.0000 0.0000 0.0000
# 3 27.0419 42.6221 56.1965 0.0000 0.0000 0.0000
# 4 0.0000 0.0000 0.0000 78.5627 0.0000 0.0000
# 5 0.0000 0.0000 0.0000 0.0000 19.7659 0.0000
# 6 0.0000 0.0000 0.0000 0.0000 0.0000 29.8773
#
#
#
# Elastic Compliance Matrix: (Units=1/GPa)
#
#
# Indices 1 2 3 4 5 6 
#
# 1 0.029462 -0.008248 -0.007922 0.000000 0.000000 0.000000
# 2 -0.008248 0.012713 -0.005673 0.000000 0.000000 0.000000
# 3 -0.007922 -0.005673 0.025909 0.000000 0.000000 0.000000
# 4 0.000000 0.000000 0.000000 0.012729 0.000000 0.000000
# 5 0.000000 0.000000 0.000000 0.000000 0.050592 0.000000
# 6 0.000000 0.000000 0.000000 0.000000 0.000000 0.033470
#
#
# Mechanical properties :
#
#
# Convention : Reuss Voigt Hill
#
# Bulk Modulus (GPa) = 40.98521 52.58834 46.78678
# Shear Modulus (GPa) = 23.07397 33.77761 28.42579
#
# Velocity S-wave (km/s) = 3.42937 4.14923 3.80636
# Velocity P-wave (km/s) = 6.04736 7.05398 6.56998
#
# Compressibility (1/GPa) = 0.02439904
#
# Stress axis : x y z
#
# Youngs Moduli (GPa) = 33.94154 78.66007 38.59617
#
# Poissons Ratio (x) = 0.64880 0.30574
# Poissons Ratio (y) = 0.27996 0.21896
# Poissons Ratio (z) = 0.26887 0.44624
#
# Static dielectric constant tensor:
#      x y z
#    x 1.666710 0.000000 0.000000 
#    y 0.000000 1.682290 0.000000 
#    z 0.000000 0.000000 1.725610 
# 
# From -- ./inp_files/10181.got.cif
#   From: 2010.05.17/outbox.cif.g08.bks.cpg/sg39_6_cif.got.tgz:10181.got - 2010.06.03 18:22:40.
