data_PCOD9361681
_publ_section_title
;
Structure prediction by ZEFSAII (Michael W. Deem and Ramdas Pophale) SiO2 
 PCOD9361681
Probable space group: A B M 2
;
_chemical_formula_sum "Si O2"
_cell_formula_units_Z 48
_cell_length_a 12.293323
_cell_length_b 7.491977
_cell_length_c 20.436797
_cell_angle_alpha 90.000000
_cell_angle_beta 90.000000
_cell_angle_gamma 90.000000
_cell_volume 1882.255432
_symmetry_space_group_name_H-M "A B M 2"
_symmetry_group_IT_number 39
_symmetry_cell_setting 'orthorhombic'
loop_
_space_group_symop_operation_xyz
x,y,z
-x,-y,z
-x,1/2+y,z
x,1/2-y,z
x,1/2+y,1/2+z
-x,1/2-y,1/2+z
-x,y,1/2+z
x,-y,1/2+z
loop_
_atom_site_type_symbol
_atom_site_label
_atom_site_fract_x
_atom_site_fract_y
_atom_site_fract_z
Si Si1 0.159014 0.532981 0.662250
Si Si2 0.114455 0.960704 0.808518
Si Si3 0.875872 0.946419 0.519359
Si Si4 0.340678 0.967438 0.855019
Si Si5 0.385416 0.038795 0.210102
Si Si6 0.622723 0.463984 0.997818
O O1 0.148601 0.750000 0.657043
O O2 0.116572 0.471866 0.733515
O O3 0.285330 0.477236 0.667419
O O4 0.888638 0.552477 0.598066
O O5 0.129377 0.750000 0.801740
O O6 0.214735 0.023492 0.850847
O O7 0.000000 0.000000 0.839147
O O8 0.862556 0.750000 0.490099
O O9 0.749951 0.027836 0.514137
O O10 0.000000 0.000000 0.496831
O O11 0.349619 0.750000 0.855879
O O12 0.384062 0.032367 0.784662
O O13 0.387771 0.031404 0.922717
O O14 0.370105 0.250000 0.216251
O O15 0.500000 0.000000 0.179622
O O16 0.500000 0.500000 0.027203
O O17 0.630949 0.250000 0.002042
#
# Coordination Sequence:
#
# PCOD9361681 Si02
#       6
#     8   8   8   8   8   8
#     4   9  19  35  53  75 106 143 180 221 272 327
#     4   9  17  30  50  76 105 137 173 216 268 324
#     4  11  24  40  59  83 111 147 190 234 280 330
#     4   8  16  33  53  74 105 141 175 216 269 326
#     4   9  17  30  51  78 107 140 176 218 271 327
#     4  10  22  40  61  84 111 146 188 233 280 330
#
# _framework density 25.501321000000001
#
# number of rings (size 3 to 8) (size 9 to 14) (size 15 to 20)
#    0.000    2.667    0.000    3.500    0.000    5.333 
#    0.000    6.667    0.000    0.000    0.000    0.000 
#    0.000    0.000    0.000    0.000    0.000    0.000 
#
# Total GULP energy -133644.322263 kJ/mol
# GULP energy per Si atom -5568.513428 kJ/mol
# Density = 2.544328 g / cm^3
# Si number density = 25.501321 Si / 1000 Ang^3
#
#
#
# Elastic Constant Matrix: (Units=GPa)
#
#
# Indices 1 2 3 4 5 6 
#
# 1 265.0315 4.4981 29.0547 0.0000 0.0000 0.0000
# 2 4.4981 71.1647 -5.5675 0.0000 0.0000 0.0000
# 3 29.0547 -5.5675 94.9502 0.0000 0.0000 0.0000
# 4 0.0000 0.0000 0.0000 -16.4204 0.0000 0.0000
# 5 0.0000 0.0000 0.0000 0.0000 -7.4647 0.0000
# 6 0.0000 0.0000 0.0000 0.0000 0.0000 29.0316
#
#
#
# Elastic Compliance Matrix: (Units=1/GPa)
#
#
# Indices 1 2 3 4 5 6 
#
# 1 0.003912 -0.000343 -0.001217 0.000000 0.000000 0.000000
# 2 -0.000343 0.014147 0.000934 0.000000 0.000000 0.000000
# 3 -0.001217 0.000934 0.010959 0.000000 0.000000 0.000000
# 4 0.000000 0.000000 0.000000 -0.060900 0.000000 0.000000
# 5 0.000000 0.000000 0.000000 0.000000 -0.133965 0.000000
# 6 0.000000 0.000000 0.000000 0.000000 0.000000 0.034445
#
#
# Mechanical properties :
#
#
# Convention : Reuss Voigt Hill
#
# Bulk Modulus (GPa) = 36.01372 54.12411 45.06891
# Shear Modulus (GPa) = -41.35848 27.90671 -6.72588
#
# Velocity S-wave (km/s) = -4.03155 3.31165 -1.62579
# Velocity P-wave (km/s) = 2.74194 5.99106 3.76660
#
# Compressibility (1/GPa) = 0.02776720
#
# Stress axis : x y z
#
# Youngs Moduli (GPa) = 255.59780 70.68809 91.24833
#
# Poissons Ratio (x) = 0.02421 0.11107
# Poissons Ratio (y) = 0.08755 -0.08525
# Poissons Ratio (z) = 0.31113 -0.06605
#
# Static dielectric constant tensor:
#      x y z
#    x 2.142120 0.000000 0.000000 
#    y 0.000000 2.154700 0.000000 
#    z 0.000000 0.000000 1.976380 
# 
# From -- ./inp_files/15571.got.cif
#   From: 2010.05.17/outbox.cif.g08.bks.cpg/sg39_8_cif.got.tgz:15571.got - 2010.06.03 18:22:40.
