data_PCOD9361782
_publ_section_title
;
Structure prediction by ZEFSAII (Michael W. Deem and Ramdas Pophale) SiO2 
 PCOD9361782
Probable space group: A B M 2
;
_chemical_formula_sum "Si O2"
_cell_formula_units_Z 60
_cell_length_a 5.656011
_cell_length_b 24.339938
_cell_length_c 19.226572
_cell_angle_alpha 90.000000
_cell_angle_beta 90.000000
_cell_angle_gamma 90.000000
_cell_volume 2646.863662
_symmetry_space_group_name_H-M "A B M 2"
_symmetry_group_IT_number 39
_symmetry_cell_setting 'orthorhombic'
loop_
_space_group_symop_operation_xyz
x,y,z
-x,-y,z
-x,1/2+y,z
x,1/2-y,z
x,1/2+y,1/2+z
-x,1/2-y,1/2+z
-x,y,1/2+z
x,-y,1/2+z
loop_
_atom_site_type_symbol
_atom_site_label
_atom_site_fract_x
_atom_site_fract_y
_atom_site_fract_z
Si Si1 0.730548 0.811596 0.644580
Si Si2 0.422015 0.882684 0.551837
Si Si3 0.226022 0.603743 0.407082
Si Si4 0.244467 0.528758 0.036916
Si Si5 0.164564 0.090775 0.300659
Si Si6 0.517751 0.685889 0.799361
Si Si7 0.500000 0.000000 0.852695
Si Si8 0.025217 0.416616 0.150309
O O1 0.803108 0.750000 0.629203
O O2 0.517908 0.830931 0.594305
O O3 0.649780 0.815206 0.725134
O O4 0.937380 0.855078 0.635069
O O5 0.247409 0.877705 0.486509
O O6 0.276809 0.918561 0.609939
O O7 0.658254 0.910418 0.516851
O O8 0.346337 0.650275 0.357995
O O9 0.350481 0.544088 0.396968
O O10 0.972593 0.594487 0.372856
O O11 0.500000 0.500000 0.031564
O O12 0.161398 0.542696 0.115172
O O13 0.000000 0.500000 0.007718
O O14 0.282529 0.149947 0.288166
O O15 0.344538 0.040688 0.307091
O O16 0.016976 0.076909 0.232460
O O17 0.482099 0.750000 0.818139
#
# Coordination Sequence:
#
# PCOD9361782 Si02
#       8
#     8   8   8   8   8   8   4   8
#     4  10  22  43  71 101 140 188 242 307 376 445
#     4  11  25  44  69 104 142 189 244 310 362 445
#     4  11  25  46  67  98 144 188 244 297 373 444
#     4  11  24  44  67 103 141 189 237 298 360 426
#     4  11  23  44  67 103 138 191 245 301 369 455
#     4  10  22  43  72 101 137 183 241 302 371 448
#     4  10  26  44  66  96 146 194 244 298 368 444
#     4  11  23  41  69 104 141 182 250 296 369 439
#
# _framework density 22.668337000000001
#
# number of rings (size 3 to 8) (size 9 to 14) (size 15 to 20)
#    0.000    1.333    4.000    0.400    0.933    8.533 
#    3.600    0.000    0.000    0.000    0.000    0.000 
#    0.000    0.000    0.000    0.000    0.000    0.000 
#
# Total GULP energy -167317.478070 kJ/mol
# GULP energy per Si atom -5577.249269 kJ/mol
# Density = 2.261674 g / cm^3
# Si number density = 22.668337 Si / 1000 Ang^3
#
#
#
# Elastic Constant Matrix: (Units=GPa)
#
#
# Indices 1 2 3 4 5 6 
#
# 1 83.5351 38.5410 20.7555 0.0000 0.0000 0.0000
# 2 38.5410 147.9874 31.7156 0.0000 0.0000 0.0000
# 3 20.7555 31.7156 92.9450 0.0000 0.0000 0.0000
# 4 0.0000 0.0000 0.0000 15.5865 0.0000 0.0000
# 5 0.0000 0.0000 0.0000 0.0000 37.2346 0.0000
# 6 0.0000 0.0000 0.0000 0.0000 0.0000 27.6328
#
#
#
# Elastic Compliance Matrix: (Units=1/GPa)
#
#
# Indices 1 2 3 4 5 6 
#
# 1 0.013950 -0.003199 -0.002023 0.000000 0.000000 0.000000
# 2 -0.003199 0.008024 -0.002024 0.000000 0.000000 0.000000
# 3 -0.002023 -0.002024 0.011901 0.000000 0.000000 0.000000
# 4 0.000000 0.000000 0.000000 0.064158 0.000000 0.000000
# 5 0.000000 0.000000 0.000000 0.000000 0.026857 0.000000
# 6 0.000000 0.000000 0.000000 0.000000 0.000000 0.036189
#
#
# Mechanical properties :
#
#
# Convention : Reuss Voigt Hill
#
# Bulk Modulus (GPa) = 51.59254 56.27685 53.93469
# Shear Modulus (GPa) = 27.46751 31.65447 29.56099
#
# Velocity S-wave (km/s) = 3.48474 3.74092 3.61510
# Velocity P-wave (km/s) = 6.24503 6.59844 6.42417
#
# Compressibility (1/GPa) = 0.01938265
#
# Stress axis : x y z
#
# Youngs Moduli (GPa) = 71.68525 124.62216 84.02349
#
# Poissons Ratio (x) = 0.39871 0.17001
# Poissons Ratio (y) = 0.22935 0.17003
# Poissons Ratio (z) = 0.14505 0.25219
#
# Static dielectric constant tensor:
#      x y z
#    x 1.922440 0.000000 0.000000 
#    y 0.000000 1.897270 0.000000 
#    z 0.000000 0.000000 1.838770 
# 
# From -- ./inp_files/13609.got.cif
#   From: 2010.05.17/outbox.cif.g08.bks.cpg/sg39_7_cif.got.tgz:13609.got - 2010.06.03 18:22:40.
