data_PCOD9361852
_publ_section_title
;
Structure prediction by ZEFSAII (Michael W. Deem and Ramdas Pophale) SiO2 
 PCOD9361852
Probable space group: A B M 2
;
_chemical_formula_sum "Si O2"
_cell_formula_units_Z 64
_cell_length_a 14.802336
_cell_length_b 9.224401
_cell_length_c 24.557365
_cell_angle_alpha 90.000000
_cell_angle_beta 90.000000
_cell_angle_gamma 90.000000
_cell_volume 3353.128505
_symmetry_space_group_name_H-M "A B M 2"
_symmetry_group_IT_number 39
_symmetry_cell_setting 'orthorhombic'
loop_
_space_group_symop_operation_xyz
x,y,z
-x,-y,z
-x,1/2+y,z
x,1/2-y,z
x,1/2+y,1/2+z
-x,1/2-y,1/2+z
-x,y,1/2+z
x,-y,1/2+z
loop_
_atom_site_type_symbol
_atom_site_label
_atom_site_fract_x
_atom_site_fract_y
_atom_site_fract_z
Si Si1 0.219196 0.080996 0.511340
Si Si2 0.206368 0.576032 0.826576
Si Si3 0.098348 0.424161 0.922787
Si Si4 0.156898 0.913774 0.702684
Si Si5 0.409746 0.924215 0.795231
Si Si6 0.918236 0.914832 0.606682
Si Si7 0.409663 0.923329 0.059583
Si Si8 0.366245 0.416655 0.171133
O O1 0.214050 0.250000 0.492743
O O2 0.170108 0.073920 0.569741
O O3 0.322980 0.041576 0.522204
O O4 0.163123 0.979172 0.471428
O O5 0.199806 0.750000 0.837607
O O6 0.149634 0.483845 0.869231
O O7 0.166731 0.551198 0.766119
O O8 0.313637 0.538984 0.823358
O O9 0.088951 0.250000 0.922582
O O10 0.000000 0.500000 0.926973
O O11 0.121629 0.750000 0.697628
O O12 0.258305 0.914743 0.678562
O O13 0.100676 0.020895 0.665774
O O14 0.418260 0.750000 0.797930
O O15 0.400884 0.962590 0.730846
O O16 0.500000 0.000000 0.817057
O O17 0.945096 0.750000 0.610387
O O18 0.000000 0.000000 0.579358
O O19 0.418528 0.750000 0.061310
O O20 0.500000 0.000000 0.039013
O O21 0.393046 0.983672 0.120744
O O22 0.395998 0.250000 0.160783
#
# Coordination Sequence:
#
# PCOD9361852 Si02
#       8
#     8   8   8   8   8   8   8   8
#     4  10  23  43  63  86 119 155 197 248 298 349
#     4   9  20  40  62  86 120 157 198 247 297 348
#     4  12  26  44  69  94 114 147 196 248 304 360
#     4   9  18  34  57  84 118 159 196 238 293 348
#     4   9  18  32  53  84 121 162 202 242 289 343
#     4  11  22  36  56  85 118 154 194 237 295 358
#     4  11  22  36  56  86 121 159 200 242 292 347
#     4   9  17  31  52  81 118 160 202 241 285 340
#
# _framework density 19.086653999999999
#
# number of rings (size 3 to 8) (size 9 to 14) (size 15 to 20)
#    0.000    2.000    1.250    4.125    0.000    6.000 
#    0.000    3.125    0.000    0.000    0.000    0.000 
#    0.000    0.000    0.000    0.000    0.000    0.000 
#
# Total GULP energy -178621.739373 kJ/mol
# GULP energy per Si atom -5581.929355 kJ/mol
# Density = 1.904321 g / cm^3
# Si number density = 19.086654 Si / 1000 Ang^3
#
#
#
# Elastic Constant Matrix: (Units=GPa)
#
#
# Indices 1 2 3 4 5 6 
#
# 1 143.7170 72.0592 50.4868 0.0000 0.0000 0.0000
# 2 72.0592 108.8032 59.6477 0.0000 0.0000 0.0000
# 3 50.4868 59.6477 71.3442 0.0000 0.0000 0.0000
# 4 0.0000 0.0000 0.0000 28.1527 0.0000 0.0000
# 5 0.0000 0.0000 0.0000 0.0000 16.8198 0.0000
# 6 0.0000 0.0000 0.0000 0.0000 0.0000 35.0034
#
#
#
# Elastic Compliance Matrix: (Units=1/GPa)
#
#
# Indices 1 2 3 4 5 6 
#
# 1 0.010768 -0.005454 -0.003060 0.000000 0.000000 0.000000
# 2 -0.005454 0.019730 -0.012636 0.000000 0.000000 0.000000
# 3 -0.003060 -0.012636 0.026747 0.000000 0.000000 0.000000
# 4 0.000000 0.000000 0.000000 0.035521 0.000000 0.000000
# 5 0.000000 0.000000 0.000000 0.000000 0.059454 0.000000
# 6 0.000000 0.000000 0.000000 0.000000 0.000000 0.028569
#
#
# Mechanical properties :
#
#
# Convention : Reuss Voigt Hill
#
# Bulk Modulus (GPa) = 66.91485 76.47245 71.69365
# Shear Modulus (GPa) = 21.92318 25.43988 23.68153
#
# Velocity S-wave (km/s) = 3.39280 3.65480 3.52623
# Velocity P-wave (km/s) = 7.10511 7.61334 7.36361
#
# Compressibility (1/GPa) = 0.01494437
#
# Stress axis : x y z
#
# Youngs Moduli (GPa) = 92.87162 50.68370 37.38774
#
# Poissons Ratio (x) = 0.27641 0.11441
# Poissons Ratio (y) = 0.50649 0.47244
# Poissons Ratio (z) = 0.28420 0.64045
#
# Static dielectric constant tensor:
#      x y z
#    x 1.694240 0.000000 0.000000 
#    y 0.000000 1.646880 0.000000 
#    z 0.000000 0.000000 1.656690 
# 
# From -- ./inp_files/16241.got.cif
#   From: 2010.05.17/outbox.cif.g08.bks.cpg/sg39_9_cif.got.tgz:16241.got - 2010.06.03 18:22:40.
