data_PCOD9361839
_publ_section_title
;
Structure prediction by ZEFSAII (Michael W. Deem and Ramdas Pophale) SiO2 
 PCOD9361839
Probable space group: A B M 2
;
_chemical_formula_sum "Si O2"
_cell_formula_units_Z 60
_cell_length_a 7.994847
_cell_length_b 15.822207
_cell_length_c 21.444216
_cell_angle_alpha 90.000000
_cell_angle_beta 90.000000
_cell_angle_gamma 90.000000
_cell_volume 2712.610210
_symmetry_space_group_name_H-M "A B M 2"
_symmetry_group_IT_number 39
_symmetry_cell_setting 'orthorhombic'
loop_
_space_group_symop_operation_xyz
x,y,z
-x,-y,z
-x,1/2+y,z
x,1/2-y,z
x,1/2+y,1/2+z
-x,1/2-y,1/2+z
-x,y,1/2+z
x,-y,1/2+z
loop_
_atom_site_type_symbol
_atom_site_label
_atom_site_fract_x
_atom_site_fract_y
_atom_site_fract_z
Si Si1 0.167456 0.627497 0.064650
Si Si2 0.195069 0.519755 0.287647
Si Si3 0.307038 0.655177 0.754474
Si Si4 0.107197 0.911886 0.413451
Si Si5 0.324874 0.342861 0.695145
Si Si6 0.803087 0.653879 0.123632
Si Si7 0.900254 0.250000 0.952461
Si Si8 0.323983 0.041655 0.026602
O O1 0.290112 0.650889 0.121482
O O2 0.199569 0.532061 0.046767
O O3 0.981091 0.641865 0.090716
O O4 0.180215 0.678633 0.000838
O O5 0.289543 0.429559 0.294769
O O6 0.209909 0.576231 0.349586
O O7 0.249054 0.575243 0.228749
O O8 0.000000 0.500000 0.281710
O O9 0.282049 0.750000 0.782207
O O10 0.484274 0.656561 0.718843
O O11 0.179133 0.640422 0.697213
O O12 0.236440 0.907778 0.470947
O O13 0.995489 0.827446 0.414223
O O14 0.000000 0.000000 0.419113
O O15 0.254630 0.250000 0.714377
O O16 0.751178 0.750000 0.115060
O O17 0.667749 0.597473 0.088686
O O18 0.500000 0.000000 0.009392
#
# Coordination Sequence:
#
# PCOD9361839 Si02
#       8
#     8   8   8   8   8   8   4   8
#     4  12  21  39  68  96 133 172 220 284 353 408
#     4  11  25  43  67  94 130 180 229 281 336 413
#     4  10  23  42  64  96 139 174 221 280 347 417
#     4  11  24  47  69  96 125 178 233 285 339 401
#     4  11  23  40  64 100 134 177 222 276 354 424
#     4  11  20  38  64  93 131 174 219 279 340 412
#     4  12  22  44  74  98 130 172 232 294 336 408
#     4  12  24  39  59  94 133 173 220 274 344 418
#
# _framework density 22.118918000000001
#
# number of rings (size 3 to 8) (size 9 to 14) (size 15 to 20)
#    0.000    0.800    4.000    3.200    0.933    2.667 
#    4.800    0.000    0.000    0.000    0.000    0.000 
#    0.000    0.000    0.000    0.000    0.000    0.000 
#
# Total GULP energy -167047.257677 kJ/mol
# GULP energy per Si atom -5568.241923 kJ/mol
# Density = 2.206857 g / cm^3
# Si number density = 22.118918 Si / 1000 Ang^3
#
#
#
# Elastic Constant Matrix: (Units=GPa)
#
#
# Indices 1 2 3 4 5 6 
#
# 1 41.1306 7.3785 -1.4466 0.0000 0.0000 0.0000
# 2 7.3785 143.7401 50.7674 0.0000 0.0000 0.0000
# 3 -1.4466 50.7674 54.1772 0.0000 0.0000 0.0000
# 4 0.0000 0.0000 0.0000 15.4710 0.0000 0.0000
# 5 0.0000 0.0000 0.0000 0.0000 -6.4950 0.0000
# 6 0.0000 0.0000 0.0000 0.0000 0.0000-1645.3401
#
#
#
# Elastic Compliance Matrix: (Units=1/GPa)
#
#
# Indices 1 2 3 4 5 6 
#
# 1 0.024815 -0.002254 0.002774 0.000000 0.000000 0.000000
# 2 -0.002254 0.010603 -0.009996 0.000000 0.000000 0.000000
# 3 0.002774 -0.009996 0.027899 0.000000 0.000000 0.000000
# 4 0.000000 0.000000 0.000000 0.064637 0.000000 0.000000
# 5 0.000000 0.000000 0.000000 0.000000 -0.153964 0.000000
# 6 0.000000 0.000000 0.000000 0.000000 0.000000 -0.000608
#
#
# Mechanical properties :
#
#
# Convention : Reuss Voigt Hill
#
# Bulk Modulus (GPa) = 22.53966 39.16073 30.85019
# Shear Modulus (GPa) = 702.12613 -315.11625 193.50494
#
# Velocity S-wave (km/s) = 17.83596 -11.94880 9.36343
# Velocity P-wave (km/s) = 20.84165 13.13857 11.44011
#
# Compressibility (1/GPa) = 0.04436624
#
# Stress axis : x y z
#
# Youngs Moduli (GPa) = 40.29874 94.31154 35.84373
#
# Poissons Ratio (x) = 0.21255 -0.09945
# Poissons Ratio (y) = 0.09082 0.35829
# Poissons Ratio (z) = -0.11181 0.94274
#
# Static dielectric constant tensor:
#      x y z
#    x 1.856200 0.000000 0.000000 
#    y 0.000000 2.114470 0.000000 
#    z 0.000000 0.000000 1.882250 
# 
# From -- ./inp_files/15652.got.cif
#   From: 2010.05.17/outbox.cif.g08.bks.cpg/sg39_8_cif.got.tgz:15652.got - 2010.06.03 18:22:40.
