data_PCOD9361741
_publ_section_title
;
Structure prediction by ZEFSAII (Michael W. Deem and Ramdas Pophale) SiO2 
 PCOD9361741
Probable space group: A B M 2
;
_chemical_formula_sum "Si O2"
_cell_formula_units_Z 64
_cell_length_a 11.897270
_cell_length_b 16.220200
_cell_length_c 15.597860
_cell_angle_alpha 90.000000
_cell_angle_beta 90.000000
_cell_angle_gamma 90.000000
_cell_volume 3010.014173
_symmetry_space_group_name_H-M "A B M 2"
_symmetry_group_IT_number 39
_symmetry_cell_setting 'orthorhombic'
loop_
_space_group_symop_operation_xyz
x,y,z
-x,-y,z
-x,1/2+y,z
x,1/2-y,z
x,1/2+y,1/2+z
-x,1/2-y,1/2+z
-x,y,1/2+z
x,-y,1/2+z
loop_
_atom_site_type_symbol
_atom_site_label
_atom_site_fract_x
_atom_site_fract_y
_atom_site_fract_z
Si Si1 0.503507 0.901777 0.695490
Si Si2 0.740219 0.344236 0.740833
Si Si3 0.081381 0.918324 0.349329
Si Si4 0.968034 0.844799 0.187700
Si Si5 0.327231 0.651395 0.347981
Si Si6 0.502368 0.099716 0.994434
Si Si7 0.039266 0.592706 0.012761
Si Si8 0.746419 0.344144 0.940498
O O1 0.382108 0.879675 0.732021
O O2 0.598939 0.869230 0.761809
O O3 0.505595 0.874100 0.595217
O O4 0.500000 0.000000 0.694049
O O5 0.727787 0.250000 0.712157
O O6 0.843388 0.384635 0.690184
O O7 0.774377 0.347518 0.840062
O O8 0.216702 0.908039 0.352573
O O9 0.047455 0.882810 0.258354
O O10 0.033113 0.872614 0.433274
O O11 0.000000 0.000000 0.354681
O O12 0.953209 0.750000 0.211821
O O13 0.019285 0.853472 0.095364
O O14 0.298417 0.750000 0.345894
O O15 0.403100 0.633498 0.432879
O O16 0.618466 0.131486 0.954387
O O17 0.500000 0.000000 0.991458
O O18 0.169371 0.595021 0.987937
O O19 0.000000 0.500000 0.032800
O O20 0.764759 0.250000 0.969683
#
# Coordination Sequence:
#
# PCOD9361741 Si02
#       8
#     8   8   8   8   8   8   8   8
#     4  11  26  44  70 102 141 185 231 286 352 421
#     4  10  22  41  67  95 133 179 229 281 343 415
#     4  11  27  46  70 100 140 186 230 295 357 420
#     4  11  24  43  68  99 136 180 231 289 348 421
#     4  12  27  46  73 107 146 186 238 299 356 426
#     4  11  27  45  71 105 143 186 235 289 355 425
#     4  11  26  43  69 100 139 182 235 289 352 423
#     4  11  23  44  71  99 137 186 237 287 348 423
#
# _framework density 21.262359
#
# number of rings (size 3 to 8) (size 9 to 14) (size 15 to 20)
#    0.000    1.000    2.500    2.250    8.750    4.500 
#    0.000    0.000    0.000    0.000    0.000    0.000 
#    0.000    0.000    0.000    0.000    0.000    0.000 
#
# Total GULP energy -178601.734890 kJ/mol
# GULP energy per Si atom -5581.304215 kJ/mol
# Density = 2.121397 g / cm^3
# Si number density = 21.262359 Si / 1000 Ang^3
#
#
#
# Elastic Constant Matrix: (Units=GPa)
#
#
# Indices 1 2 3 4 5 6 
#
# 1 147.4008 16.1240 35.8779 0.0000 0.0000 0.0000
# 2 16.1240 53.2709 5.9311 0.0000 0.0000 0.0000
# 3 35.8779 5.9311 123.2850 0.0000 0.0000 0.0000
# 4 0.0000 0.0000 0.0000 -22.7490 0.0000 0.0000
# 5 0.0000 0.0000 0.0000 0.0000 22.3380 0.0000
# 6 0.0000 0.0000 0.0000 0.0000 0.0000 21.3170
#
#
#
# Elastic Compliance Matrix: (Units=1/GPa)
#
#
# Indices 1 2 3 4 5 6 
#
# 1 0.007516 -0.002042 -0.002089 0.000000 0.000000 0.000000
# 2 -0.002042 0.019428 -0.000340 0.000000 0.000000 0.000000
# 3 -0.002089 -0.000340 0.008736 0.000000 0.000000 0.000000
# 4 0.000000 0.000000 0.000000 -0.043958 0.000000 0.000000
# 5 0.000000 0.000000 0.000000 0.000000 0.044767 0.000000
# 6 0.000000 0.000000 0.000000 0.000000 0.000000 0.046911
#
#
# Mechanical properties :
#
#
# Convention : Reuss Voigt Hill
#
# Bulk Modulus (GPa) = 37.40230 48.86918 43.13574
# Shear Modulus (GPa) = 49.38031 21.91613 35.64822
#
# Velocity S-wave (km/s) = 4.82439 3.21401 4.09906
# Velocity P-wave (km/s) = 6.97581 6.06687 6.53716
#
# Compressibility (1/GPa) = 0.02673632
#
# Stress axis : x y z
#
# Youngs Moduli (GPa) = 133.04736 51.47197 114.47407
#
# Poissons Ratio (x) = 0.10513 0.23914
# Poissons Ratio (y) = 0.27173 0.03895
# Poissons Ratio (z) = 0.27794 0.01752
#
# Static dielectric constant tensor:
#      x y z
#    x 1.807180 0.000000 0.000000 
#    y 0.000000 1.849350 0.000000 
#    z 0.000000 0.000000 1.779660 
# 
# From -- ./inp_files/9456.got.cif
#   From: 2010.05.17/outbox.cif.g08.bks.cpg/sg39_5_cif.got.tgz:9456.got - 2010.06.03 18:22:40.
