data_PCOD9361005
_publ_section_title
;
Structure prediction by ZEFSAII (Michael W. Deem and Ramdas Pophale) SiO2 
 PCOD9361005
Probable space group: A B M 2
;
_chemical_formula_sum "Si O2"
_cell_formula_units_Z 56
_cell_length_a 9.710051
_cell_length_b 13.835239
_cell_length_c 20.905750
_cell_angle_alpha 90.000000
_cell_angle_beta 90.000000
_cell_angle_gamma 90.000000
_cell_volume 2808.496774
_symmetry_space_group_name_H-M "A B M 2"
_symmetry_group_IT_number 39
_symmetry_cell_setting 'orthorhombic'
loop_
_space_group_symop_operation_xyz
x,y,z
-x,-y,z
-x,1/2+y,z
x,1/2-y,z
x,1/2+y,1/2+z
-x,1/2-y,1/2+z
-x,y,1/2+z
x,-y,1/2+z
loop_
_atom_site_type_symbol
_atom_site_label
_atom_site_fract_x
_atom_site_fract_y
_atom_site_fract_z
Si Si1 0.411278 0.637614 0.754460
Si Si2 0.877311 0.866141 0.029780
Si Si3 0.122116 0.865090 0.930268
Si Si4 0.346681 0.473430 0.950140
Si Si5 0.164855 0.134375 0.171171
Si Si6 0.985157 0.633801 0.793320
Si Si7 0.320163 0.058997 0.807222
O O1 0.386375 0.750000 0.772010
O O2 0.325963 0.618922 0.689160
O O3 0.572681 0.613497 0.760193
O O4 0.347485 0.555508 0.799920
O O5 0.868416 0.750000 0.031191
O O6 0.008268 0.887829 0.984754
O O7 0.740367 0.907811 0.997796
O O8 0.882561 0.903666 0.102662
O O9 0.150429 0.750000 0.931713
O O10 0.255243 0.930053 0.941523
O O11 0.056717 0.889086 0.861073
O O12 0.500000 0.500000 0.970738
O O13 0.353217 0.419922 0.881226
O O14 0.147725 0.250000 0.168568
O O15 0.074268 0.103113 0.231930
O O16 0.972970 0.750000 0.791506
O O17 0.833751 0.589666 0.792571
#
# Coordination Sequence:
#
# PCOD9361005 Si02
#       7
#     8   8   8   8   8   8   8
#     4  10  21  39  59  86 128 165 199 252 315 373
#     4  10  22  43  67  90 124 169 212 258 316 376
#     4  10  22  41  67  92 122 164 211 265 319 374
#     4  12  24  40  59  91 130 165 207 262 313 381
#     4   9  20  40  64  91 123 163 206 253 314 375
#     4  10  20  37  64  96 124 156 203 261 316 369
#     4  11  22  37  60  96 125 158 207 260 314 373
#
# _framework density 19.939492999999999
#
# number of rings (size 3 to 8) (size 9 to 14) (size 15 to 20)
#    0.000    1.714    2.857    1.714    0.000    4.571 
#    7.714    0.000    0.000    5.143    0.000    0.000 
#    0.000    0.000    0.000    0.000    0.000    0.000 
#
# Total GULP energy -156339.101146 kJ/mol
# GULP energy per Si atom -5583.539327 kJ/mol
# Density = 1.989411 g / cm^3
# Si number density = 19.939493 Si / 1000 Ang^3
#
#
#
# Elastic Constant Matrix: (Units=GPa)
#
#
# Indices 1 2 3 4 5 6 
#
# 1 167.9189 44.4702 59.3628 0.0000 0.0000 0.0000
# 2 44.4702 86.5831 30.1113 0.0000 0.0000 0.0000
# 3 59.3628 30.1113 134.6807 0.0000 0.0000 0.0000
# 4 0.0000 0.0000 0.0000 12.8214 0.0000 0.0000
# 5 0.0000 0.0000 0.0000 0.0000 21.8993 0.0000
# 6 0.0000 0.0000 0.0000 0.0000 0.0000 24.8433
#
#
#
# Elastic Compliance Matrix: (Units=1/GPa)
#
#
# Indices 1 2 3 4 5 6 
#
# 1 0.007718 -0.003016 -0.002728 0.000000 0.000000 0.000000
# 2 -0.003016 0.013702 -0.001734 0.000000 0.000000 0.000000
# 3 -0.002728 -0.001734 0.009015 0.000000 0.000000 0.000000
# 4 0.000000 0.000000 0.000000 0.077995 0.000000 0.000000
# 5 0.000000 0.000000 0.000000 0.000000 0.045664 0.000000
# 6 0.000000 0.000000 0.000000 0.000000 0.000000 0.040252
#
#
# Mechanical properties :
#
#
# Convention : Reuss Voigt Hill
#
# Bulk Modulus (GPa) = 64.60025 73.00792 68.80408
# Shear Modulus (GPa) = 23.31439 28.92870 26.12154
#
# Velocity S-wave (km/s) = 3.42315 3.81310 3.62337
# Velocity P-wave (km/s) = 6.93487 7.48869 7.21710
#
# Compressibility (1/GPa) = 0.01547982
#
# Stress axis : x y z
#
# Youngs Moduli (GPa) = 129.56456 72.98469 110.92654
#
# Poissons Ratio (x) = 0.22009 0.30258
# Poissons Ratio (y) = 0.39070 0.19237
# Poissons Ratio (z) = 0.35342 0.12657
#
# Static dielectric constant tensor:
#      x y z
#    x 1.705420 0.000000 0.000000 
#    y 0.000000 1.728180 0.000000 
#    z 0.000000 0.000000 1.716890 
# 
# From -- ./inp_files/14059.got.cif
#   From: 2010.05.17/outbox.cif.g08.bks.cpg/sg39_8_cif.got.tgz:14059.got - 2010.06.03 18:22:40.
