data_PCOD9361024
_publ_section_title
;
Structure prediction by ZEFSAII (Michael W. Deem and Ramdas Pophale) SiO2 
 PCOD9361024
Probable space group: A B M 2
;
_chemical_formula_sum "Si O2"
_cell_formula_units_Z 52
_cell_length_a 16.260766
_cell_length_b 15.397277
_cell_length_c 11.031822
_cell_angle_alpha 90.000000
_cell_angle_beta 90.000000
_cell_angle_gamma 90.000000
_cell_volume 2762.054024
_symmetry_space_group_name_H-M "A B M 2"
_symmetry_group_IT_number 39
_symmetry_cell_setting 'orthorhombic'
loop_
_space_group_symop_operation_xyz
x,y,z
-x,-y,z
-x,1/2+y,z
x,1/2-y,z
x,1/2+y,1/2+z
-x,1/2-y,1/2+z
-x,y,1/2+z
x,-y,1/2+z
loop_
_atom_site_type_symbol
_atom_site_label
_atom_site_fract_x
_atom_site_fract_y
_atom_site_fract_z
Si Si1 0.894768 0.343803 0.291210
Si Si2 0.273808 0.053363 0.529578
Si Si3 0.533153 0.901628 0.791654
Si Si4 0.889251 0.846353 0.508766
Si Si5 0.000000 0.000000 0.899005
Si Si6 0.557069 0.652925 0.531573
Si Si7 0.273844 0.071659 0.801793
O O1 0.918801 0.250000 0.346825
O O2 0.912271 0.339243 0.149172
O O3 0.939247 0.431557 0.333846
O O4 0.796919 0.356347 0.306232
O O5 0.206971 0.128296 0.504601
O O6 0.366845 0.087366 0.522519
O O7 0.260624 0.024569 0.670232
O O8 0.263053 0.984905 0.422326
O O9 0.510238 0.865670 0.658210
O O10 0.632094 0.896784 0.798850
O O11 0.500000 0.000000 0.796025
O O12 0.496312 0.856343 0.910305
O O13 0.901970 0.750000 0.452769
O O14 0.940055 0.929757 0.462923
O O15 0.590637 0.750000 0.539648
#
# Coordination Sequence:
#
# PCOD9361024 Si02
#       7
#     8   8   8   8   4   8   8
#     4  10  22  39  59  86 119 155 196 240 293 359
#     4  10  20  38  60  84 113 156 197 241 288 354
#     4  11  22  37  60  84 116 157 199 242 295 350
#     4  10  21  37  59  85 115 155 196 237 290 355
#     4  12  20  36  62  88 118 146 192 246 298 344
#     4  11  23  37  58  87 118 152 196 247 295 345
#     4  10  21  37  62  83 115 156 202 237 292 350
#
# _framework density 18.826568000000002
#
# number of rings (size 3 to 8) (size 9 to 14) (size 15 to 20)
#    0.000    1.538    3.077    2.308    2.154    4.308 
#    0.000    0.000    0.000    3.692    0.000    0.000 
#    0.000    0.000    0.000    0.000    0.000    0.000 
#
# Total GULP energy -144758.453912 kJ/mol
# GULP energy per Si atom -5567.632843 kJ/mol
# Density = 1.878372 g / cm^3
# Si number density = 18.826568 Si / 1000 Ang^3
#
#
#
# Elastic Constant Matrix: (Units=GPa)
#
#
# Indices 1 2 3 4 5 6 
#
# 1 82.0158 15.1105 26.4616 0.0000 0.0000 0.0000
# 2 15.1105 101.8211 43.7389 0.0000 0.0000 0.0000
# 3 26.4616 43.7389 116.3909 0.0000 0.0000 0.0000
# 4 0.0000 0.0000 0.0000 5.3129 0.0000 0.0000
# 5 0.0000 0.0000 0.0000 0.0000 31.6113 0.0000
# 6 0.0000 0.0000 0.0000 0.0000 0.0000 -21.6546
#
#
#
# Elastic Compliance Matrix: (Units=1/GPa)
#
#
# Indices 1 2 3 4 5 6 
#
# 1 0.013212 -0.000799 -0.002703 0.000000 0.000000 0.000000
# 2 -0.000799 0.011760 -0.004238 0.000000 0.000000 0.000000
# 3 -0.002703 -0.004238 0.010799 0.000000 0.000000 0.000000
# 4 0.000000 0.000000 0.000000 0.188220 0.000000 0.000000
# 5 0.000000 0.000000 0.000000 0.000000 0.031634 0.000000
# 6 0.000000 0.000000 0.000000 0.000000 0.000000 -0.046180
#
#
# Mechanical properties :
#
#
# Convention : Reuss Voigt Hill
#
# Bulk Modulus (GPa) = 49.28462 52.31664 50.80063
# Shear Modulus (GPa) = 21.58051 17.38172 19.48111
#
# Velocity S-wave (km/s) = 3.38935 3.04181 3.22027
# Velocity P-wave (km/s) = 6.44608 6.33923 6.39288
#
# Compressibility (1/GPa) = 0.02029031
#
# Stress axis : x y z
#
# Youngs Moduli (GPa) = 75.68715 85.03306 92.60265
#
# Poissons Ratio (x) = 0.06798 0.25034
# Poissons Ratio (y) = 0.06051 0.39242
# Poissons Ratio (z) = 0.20461 0.36034
#
# Static dielectric constant tensor:
#      x y z
#    x 1.654150 0.000000 0.000000 
#    y 0.000000 1.672470 0.000000 
#    z 0.000000 0.000000 1.672760 
# 
# From -- ./inp_files/6488.got.cif
#   From: 2010.05.17/outbox.cif.g08.bks.cpg/sg39_4_cif.got.tgz:6488.got - 2010.06.03 18:22:40.
