data_PCOD9361293
_publ_section_title
;
Structure prediction by ZEFSAII (Michael W. Deem and Ramdas Pophale) SiO2 
 PCOD9361293
Probable space group: A B M 2
;
_chemical_formula_sum "Si O2"
_cell_formula_units_Z 40
_cell_length_a 15.188745
_cell_length_b 16.287468
_cell_length_c 5.880908
_cell_angle_alpha 90.000000
_cell_angle_beta 90.000000
_cell_angle_gamma 90.000000
_cell_volume 1454.855472
_symmetry_space_group_name_H-M "A B M 2"
_symmetry_group_IT_number 39
_symmetry_cell_setting 'orthorhombic'
loop_
_space_group_symop_operation_xyz
x,y,z
-x,-y,z
-x,1/2+y,z
x,1/2-y,z
x,1/2+y,1/2+z
-x,1/2-y,1/2+z
-x,y,1/2+z
x,-y,1/2+z
loop_
_atom_site_type_symbol
_atom_site_label
_atom_site_fract_x
_atom_site_fract_y
_atom_site_fract_z
Si Si1 0.531886 0.593294 0.095810
Si Si2 0.660663 0.750000 0.837254
Si Si3 0.346129 0.750000 0.858989
Si Si4 0.790261 0.900352 0.387073
Si Si5 0.735489 0.584609 0.963008
Si Si6 0.972287 0.903537 0.602659
O O1 0.500000 0.500000 0.109427
O O2 0.506739 0.626959 0.350906
O O3 0.635710 0.582088 0.062364
O O4 0.618695 0.750000 0.095481
O O5 0.720148 0.668347 0.826011
O O6 0.605349 0.750000 0.603825
O O7 0.280928 0.671839 0.877088
O O8 0.819616 0.897306 0.123656
O O9 0.866643 0.897717 0.567624
O O10 0.749197 0.991871 0.383415
O O11 0.995927 0.869616 0.854084
O O12 0.000000 0.000000 0.608439
#
# Coordination Sequence:
#
# PCOD9361293 Si02
#       6
#     8   4   4   8   8   8
#     4  10  21  37  58  90 125 163 209 259 315 380
#     4  10  24  40  60  96 130 158 211 268 315 372
#     4  10  24  40  60  96 130 158 211 268 315 372
#     4  11  22  40  68  96 127 172 217 266 320 381
#     4  11  22  40  68  96 127 172 217 266 320 381
#     4  10  21  37  58  90 125 163 209 259 315 380
#
# _framework density 27.494143000000001
#
# number of rings (size 3 to 8) (size 9 to 14) (size 15 to 20)
#    0.000    1.600    0.000    6.000    0.000    6.400 
#    0.000    2.000    0.000    2.400    0.000    2.800 
#    0.000    0.000    0.000    0.000    0.000    0.000 
#
# Total GULP energy -111350.090320 kJ/mol
# GULP energy per Si atom -5567.504516 kJ/mol
# Density = 2.743156 g / cm^3
# Si number density = 27.494143 Si / 1000 Ang^3
#
#
#
# Elastic Constant Matrix: (Units=GPa)
#
#
# Indices 1 2 3 4 5 6 
#
# 1 88.3438 33.9517 68.1341 0.0000 0.0000 0.0000
# 2 33.9517 139.5744 39.9612 0.0000 0.0000 0.0000
# 3 68.1341 39.9612 284.5601 0.0000 0.0000 0.0000
# 4 0.0000 0.0000 0.0000 35.4702 0.0000 0.0000
# 5 0.0000 0.0000 0.0000 0.0000 66.4300 0.0000
# 6 0.0000 0.0000 0.0000 0.0000 0.0000 24.3868
#
#
#
# Elastic Compliance Matrix: (Units=1/GPa)
#
#
# Indices 1 2 3 4 5 6 
#
# 1 0.014795 -0.002693 -0.003164 0.000000 0.000000 0.000000
# 2 -0.002693 0.007955 -0.000472 0.000000 0.000000 0.000000
# 3 -0.003164 -0.000472 0.004338 0.000000 0.000000 0.000000
# 4 0.000000 0.000000 0.000000 0.028193 0.000000 0.000000
# 5 0.000000 0.000000 0.000000 0.000000 0.015053 0.000000
# 6 0.000000 0.000000 0.000000 0.000000 0.000000 0.041006
#
#
# Mechanical properties :
#
#
# Convention : Reuss Voigt Hill
#
# Bulk Modulus (GPa) = 69.30554 88.50804 78.90679
# Shear Modulus (GPa) = 38.81735 49.95279 44.38507
#
# Velocity S-wave (km/s) = 3.76152 4.26708 4.02225
# Velocity P-wave (km/s) = 6.64285 7.51923 7.09459
#
# Compressibility (1/GPa) = 0.01442886
#
# Stress axis : x y z
#
# Youngs Moduli (GPa) = 67.59176 125.70833 230.51249
#
# Poissons Ratio (x) = 0.33852 0.72939
# Poissons Ratio (y) = 0.18202 0.10888
# Poissons Ratio (z) = 0.21388 0.05938
#
# Static dielectric constant tensor:
#      x y z
#    x 2.104880 0.000000 0.000000 
#    y 0.000000 2.078920 0.000000 
#    z 0.000000 0.000000 2.430980 
# 
# From -- ./inp_files/758.got.cif
#   From: 2010.05.17/outbox.cif.g08.bks.cpg/sg39_1_cif.got.tgz:758.got - 2010.06.03 18:22:40.
