data_PCOD9361249
_publ_section_title
;
Structure prediction by ZEFSAII (Michael W. Deem and Ramdas Pophale) SiO2 
 PCOD9361249
Probable space group: A B M 2
;
_chemical_formula_sum "Si O2"
_cell_formula_units_Z 64
_cell_length_a 11.017408
_cell_length_b 29.235117
_cell_length_c 9.794873
_cell_angle_alpha 90.000000
_cell_angle_beta 90.000000
_cell_angle_gamma 90.000000
_cell_volume 3154.881695
_symmetry_space_group_name_H-M "A B M 2"
_symmetry_group_IT_number 39
_symmetry_cell_setting 'orthorhombic'
loop_
_space_group_symop_operation_xyz
x,y,z
-x,-y,z
-x,1/2+y,z
x,1/2-y,z
x,1/2+y,1/2+z
-x,1/2-y,1/2+z
-x,y,1/2+z
x,-y,1/2+z
loop_
_atom_site_type_symbol
_atom_site_label
_atom_site_fract_x
_atom_site_fract_y
_atom_site_fract_z
Si Si1 0.135872 0.022217 0.655070
Si Si2 0.774871 0.948473 0.950526
Si Si3 0.005496 0.606831 0.057883
Si Si4 0.746952 0.801899 0.748124
Si Si5 0.370018 0.361935 0.974718
Si Si6 0.982720 0.332853 0.809522
Si Si7 0.601122 0.802398 0.482039
Si Si8 0.262724 0.300059 0.199528
O O1 0.199118 0.032604 0.799142
O O2 0.109961 0.069005 0.572372
O O3 0.214668 0.988492 0.561707
O O4 0.000000 0.000000 0.676860
O O5 0.657978 0.915645 0.963834
O O6 0.889810 0.916243 0.987082
O O7 0.978516 0.622720 0.211340
O O8 0.033924 0.650356 0.963959
O O9 0.713977 0.750000 0.787332
O O10 0.710081 0.807166 0.590336
O O11 0.887289 0.810277 0.782861
O O12 0.671059 0.838312 0.834116
O O13 0.502240 0.341631 0.006846
O O14 0.285109 0.339518 0.090921
O O15 0.871961 0.302557 0.759516
O O16 0.553295 0.750000 0.500699
O O17 0.648353 0.805729 0.327908
O O18 0.282505 0.250000 0.136953
#
# Coordination Sequence:
#
# PCOD9361249 Si02
#       8
#     8   8   8   8   8   8   8   8
#     4  10  21  36  60  88 128 160 195 257 325 389
#     4  11  22  37  58  91 121 154 205 256 316 375
#     4  11  20  35  56  87 130 158 197 250 309 383
#     4  11  22  38  60  88 129 172 209 257 310 366
#     4  12  22  39  61  89 120 158 217 270 305 366
#     4  12  21  36  58  94 131 164 204 252 317 375
#     4  10  23  41  62  90 124 170 221 259 300 360
#     4  11  23  38  59  89 127 169 211 256 308 367
#
# _framework density 20.286021000000002
#
# number of rings (size 3 to 8) (size 9 to 14) (size 15 to 20)
#    0.000    1.000    3.750    4.125    1.750    2.000 
#    0.000    3.750    0.000    0.000    0.000   28.000 
#    0.000    0.000    0.000    0.000    0.000    0.000 
#
# Total GULP energy -178806.489648 kJ/mol
# GULP energy per Si atom -5587.702801 kJ/mol
# Density = 2.023985 g / cm^3
# Si number density = 20.286021 Si / 1000 Ang^3
#
#
#
# Elastic Constant Matrix: (Units=GPa)
#
#
# Indices 1 2 3 4 5 6 
#
# 1 71.0345 34.5043 14.8312 0.0000 0.0000 0.0000
# 2 34.5043 93.0096 31.8574 0.0000 0.0000 0.0000
# 3 14.8312 31.8574 85.5597 0.0000 0.0000 0.0000
# 4 0.0000 0.0000 0.0000 29.6840 0.0000 0.0000
# 5 0.0000 0.0000 0.0000 0.0000 18.4145 0.0000
# 6 0.0000 0.0000 0.0000 0.0000 0.0000 31.7728
#
#
#
# Elastic Compliance Matrix: (Units=1/GPa)
#
#
# Indices 1 2 3 4 5 6 
#
# 1 0.017208 -0.006146 -0.000695 0.000000 0.000000 0.000000
# 2 -0.006146 0.014518 -0.004340 0.000000 0.000000 0.000000
# 3 -0.000695 -0.004340 0.013424 0.000000 0.000000 0.000000
# 4 0.000000 0.000000 0.000000 0.033688 0.000000 0.000000
# 5 0.000000 0.000000 0.000000 0.000000 0.054305 0.000000
# 6 0.000000 0.000000 0.000000 0.000000 0.000000 0.031474
#
#
# Mechanical properties :
#
#
# Convention : Reuss Voigt Hill
#
# Bulk Modulus (GPa) = 43.88107 45.77663 44.82885
# Shear Modulus (GPa) = 25.69702 27.20163 26.44932
#
# Velocity S-wave (km/s) = 3.56298 3.66581 3.61476
# Velocity P-wave (km/s) = 6.21326 6.36649 6.29034
#
# Compressibility (1/GPa) = 0.02278887
#
# Stress axis : x y z
#
# Youngs Moduli (GPa) = 58.11268 68.87907 74.49203
#
# Poissons Ratio (x) = 0.42332 0.05174
# Poissons Ratio (y) = 0.35715 0.32332
# Poissons Ratio (z) = 0.04036 0.29896
#
# Static dielectric constant tensor:
#      x y z
#    x 1.724020 0.000000 0.000000 
#    y 0.000000 1.734450 0.000000 
#    z 0.000000 0.000000 1.699370 
# 
# From -- ./inp_files/2916.got.cif
#   From: 2010.05.17/outbox.cif.g08.bks.cpg/sg39_2_cif.got.tgz:2916.got - 2010.06.03 18:22:40.
