data_PCOD9361070
_publ_section_title
;
Structure prediction by ZEFSAII (Michael W. Deem and Ramdas Pophale) SiO2 
 PCOD9361070
Probable space group: A B M 2
;
_chemical_formula_sum "Si O2"
_cell_formula_units_Z 48
_cell_length_a 5.467123
_cell_length_b 25.052305
_cell_length_c 15.576424
_cell_angle_alpha 90.000000
_cell_angle_beta 90.000000
_cell_angle_gamma 90.000000
_cell_volume 2133.409849
_symmetry_space_group_name_H-M "A B M 2"
_symmetry_group_IT_number 39
_symmetry_cell_setting 'orthorhombic'
loop_
_space_group_symop_operation_xyz
x,y,z
-x,-y,z
-x,1/2+y,z
x,1/2-y,z
x,1/2+y,1/2+z
-x,1/2-y,1/2+z
-x,y,1/2+z
x,-y,1/2+z
loop_
_atom_site_type_symbol
_atom_site_label
_atom_site_fract_x
_atom_site_fract_y
_atom_site_fract_z
Si Si1 0.944731 0.353239 0.922760
Si Si2 0.805219 0.353753 0.106246
Si Si3 0.209786 0.456745 0.951868
Si Si4 0.731746 0.807394 0.781937
Si Si5 0.439362 0.082798 0.314420
Si Si6 0.304745 0.077991 0.126807
O O1 0.772867 0.396480 0.876562
O O2 0.153055 0.393209 0.956451
O O3 0.050229 0.314349 0.850908
O O4 0.831437 0.330555 0.009949
O O5 0.812108 0.311497 0.183174
O O6 0.546239 0.385480 0.108295
O O7 0.039741 0.391922 0.126809
O O8 0.383913 0.454116 0.869864
O O9 0.000000 0.500000 0.936770
O O10 0.294132 0.464974 0.050138
O O11 0.609695 0.750000 0.797392
O O12 0.572565 0.860686 0.793326
O O13 0.345095 0.059194 0.224850
#
# Coordination Sequence:
#
# PCOD9361070 Si02
#       6
#     8   8   8   8   8   8
#     4  10  20  39  66  87 132 175 215 275 346 401
#     4  10  20  38  65  90 128 177 219 269 340 404
#     4  10  22  40  68  99 134 176 231 284 341 419
#     4  10  22  38  61  95 130 172 229 282 335 409
#     4  10  20  40  66  91 134 185 218 285 346 413
#     4  10  20  39  67  94 128 176 220 271 345 401
#
# _framework density 22.499195
#
# number of rings (size 3 to 8) (size 9 to 14) (size 15 to 20)
#    0.000    2.000    3.333    0.000    0.000    2.000 
#    0.000    0.833   14.667    0.000    0.000    0.000 
#    0.000    0.000    0.000    0.000    0.000    0.000 
#
# Total GULP energy -133670.978967 kJ/mol
# GULP energy per Si atom -5569.624124 kJ/mol
# Density = 2.244799 g / cm^3
# Si number density = 22.499195 Si / 1000 Ang^3
#
#
#
# Elastic Constant Matrix: (Units=GPa)
#
#
# Indices 1 2 3 4 5 6 
#
# 1 82.6530 18.1424 13.6931 0.0000 0.0000 0.0000
# 2 18.1424 81.6646 13.3252 0.0000 0.0000 0.0000
# 3 13.6931 13.3252 171.0446 0.0000 0.0000 0.0000
# 4 0.0000 0.0000 0.0000 -7.4661 0.0000 0.0000
# 5 0.0000 0.0000 0.0000 0.0000 35.7197 0.0000
# 6 0.0000 0.0000 0.0000 0.0000 0.0000 -20.1576
#
#
#
# Elastic Compliance Matrix: (Units=1/GPa)
#
#
# Indices 1 2 3 4 5 6 
#
# 1 0.012830 -0.002717 -0.000815 0.000000 0.000000 0.000000
# 2 -0.002717 0.012978 -0.000794 0.000000 0.000000 0.000000
# 3 -0.000815 -0.000794 0.005974 0.000000 0.000000 0.000000
# 4 0.000000 0.000000 0.000000 -0.133939 0.000000 0.000000
# 5 0.000000 0.000000 0.000000 0.000000 0.027996 0.000000
# 6 0.000000 0.000000 0.000000 0.000000 0.000000 -0.049609
#
#
# Mechanical properties :
#
#
# Convention : Reuss Voigt Hill
#
# Bulk Modulus (GPa) = 43.23458 47.29818 45.26638
# Shear Modulus (GPa) = -46.55153 20.96597 -12.79278
#
# Velocity S-wave (km/s) = -4.55359 3.05594 -2.38710
# Velocity P-wave (km/s) = 2.89641 5.78960 3.54474
#
# Compressibility (1/GPa) = 0.02312963
#
# Stress axis : x y z
#
# Youngs Moduli (GPa) = 77.94045 77.05141 167.40520
#
# Poissons Ratio (x) = 0.20937 0.13651
# Poissons Ratio (y) = 0.21179 0.13284
# Poissons Ratio (z) = 0.06356 0.06114
#
# Static dielectric constant tensor:
#      x y z
#    x 1.954580 0.000000 0.000000 
#    y 0.000000 1.827850 0.000000 
#    z 0.000000 0.000000 1.922950 
# 
# From -- ./inp_files/7565.got.cif
#   From: 2010.05.17/outbox.cif.g08.bks.cpg/sg39_4_cif.got.tgz:7565.got - 2010.06.03 18:22:40.
