data_PCOD9361297
_publ_section_title
;
Structure prediction by ZEFSAII (Michael W. Deem and Ramdas Pophale) SiO2 
 PCOD9361297
Probable space group: A B M 2
;
_chemical_formula_sum "Si O2"
_cell_formula_units_Z 64
_cell_length_a 20.327219
_cell_length_b 18.626687
_cell_length_c 8.431487
_cell_angle_alpha 90.000000
_cell_angle_beta 90.000000
_cell_angle_gamma 90.000000
_cell_volume 3192.403349
_symmetry_space_group_name_H-M "A B M 2"
_symmetry_group_IT_number 39
_symmetry_cell_setting 'orthorhombic'
loop_
_space_group_symop_operation_xyz
x,y,z
-x,-y,z
-x,1/2+y,z
x,1/2-y,z
x,1/2+y,1/2+z
-x,1/2-y,1/2+z
-x,y,1/2+z
x,-y,1/2+z
loop_
_atom_site_type_symbol
_atom_site_label
_atom_site_fract_x
_atom_site_fract_y
_atom_site_fract_z
Si Si1 0.067945 0.167142 0.535530
Si Si2 0.963826 0.075449 0.340890
Si Si3 0.545745 0.666282 0.440199
Si Si4 0.809096 0.103912 0.893681
Si Si5 0.588864 0.832439 0.803823
Si Si6 0.697818 0.572019 0.931635
Si Si7 0.669759 0.586940 0.302064
Si Si8 0.165459 0.954609 0.539857
O O1 0.051760 0.250000 0.570487
O O2 0.065392 0.116374 0.689747
O O3 0.138763 0.161573 0.451533
O O4 0.015816 0.129743 0.418518
O O5 0.905494 0.058622 0.464658
O O6 0.000000 0.000000 0.300717
O O7 0.547136 0.750000 0.387133
O O8 0.563475 0.664162 0.624541
O O9 0.471939 0.638943 0.408857
O O10 0.601485 0.621988 0.350571
O O11 0.733911 0.128214 0.871125
O O12 0.830094 0.070985 0.721634
O O13 0.815499 0.038095 0.018133
O O14 0.600245 0.750000 0.849549
O O15 0.655937 0.874725 0.825305
O O16 0.675521 0.581936 0.113222
O O17 0.776328 0.583227 0.938687
O O18 0.679871 0.492616 0.872152
#
# Coordination Sequence:
#
# PCOD9361297 Si02
#       8
#     8   8   8   8   8   8   8   8
#     4  12  26  42  61  92 130 161 201 263 319 369
#     4  12  24  41  67  93 118 166 214 252 307 381
#     4  10  21  37  59  85 118 159 207 254 303 374
#     4  10  21  39  62  90 121 159 202 253 311 368
#     4  10  21  38  59  86 119 160 206 254 310 368
#     4  10  21  38  60  89 122 154 199 256 304 359
#     4  10  21  37  60  88 121 158 199 251 306 360
#     4  10  21  39  65  92 116 154 212 256 294 372
#
# _framework density 20.047591000000001
#
# number of rings (size 3 to 8) (size 9 to 14) (size 15 to 20)
#    0.000    1.500    1.250    3.750    0.000    5.500 
#    0.000    7.500    0.000    0.000    0.000    0.000 
#    0.000    0.000    0.000    0.000    0.000    0.000 
#
# Total GULP energy -178818.147865 kJ/mol
# GULP energy per Si atom -5588.067121 kJ/mol
# Density = 2.000196 g / cm^3
# Si number density = 20.047591 Si / 1000 Ang^3
#
#
#
# Elastic Constant Matrix: (Units=GPa)
#
#
# Indices 1 2 3 4 5 6 
#
# 1 77.5834 25.2807 -7.2220 0.0000 0.0000 0.0000
# 2 25.2807 64.9990 8.2682 0.0000 0.0000 0.0000
# 3 -7.2220 8.2682 39.6133 0.0000 0.0000 0.0000
# 4 0.0000 0.0000 0.0000 19.9336 0.0000 0.0000
# 5 0.0000 0.0000 0.0000 0.0000 30.8400 0.0000
# 6 0.0000 0.0000 0.0000 0.0000 0.0000 68.7516
#
#
#
# Elastic Compliance Matrix: (Units=1/GPa)
#
#
# Indices 1 2 3 4 5 6 
#
# 1 0.015402 -0.006521 0.004169 0.000000 0.000000 0.000000
# 2 -0.006521 0.018565 -0.005064 0.000000 0.000000 0.000000
# 3 0.004169 -0.005064 0.027061 0.000000 0.000000 0.000000
# 4 0.000000 0.000000 0.000000 0.050167 0.000000 0.000000
# 5 0.000000 0.000000 0.000000 0.000000 0.032425 0.000000
# 6 0.000000 0.000000 0.000000 0.000000 0.000000 0.014545
#
#
# Mechanical properties :
#
#
# Convention : Reuss Voigt Hill
#
# Bulk Modulus (GPa) = 21.64627 26.09439 23.87033
# Shear Modulus (GPa) = 26.53982 34.29629 30.41806
#
# Velocity S-wave (km/s) = 3.64241 4.14060 3.89947
# Velocity P-wave (km/s) = 5.33951 5.99199 5.67514
#
# Compressibility (1/GPa) = 0.04619734
#
# Stress axis : x y z
#
# Youngs Moduli (GPa) = 64.92542 53.86416 36.95343
#
# Poissons Ratio (x) = 0.35124 -0.15406
# Poissons Ratio (y) = 0.42337 0.18713
# Poissons Ratio (z) = -0.27068 0.27276
#
# Static dielectric constant tensor:
#      x y z
#    x 1.721580 0.000000 0.000000 
#    y 0.000000 1.689230 0.000000 
#    z 0.000000 0.000000 1.717250 
# 
# From -- ./inp_files/4015.got.cif
#   From: 2010.05.17/outbox.cif.g08.bks.cpg/sg39_3_cif.got.tgz:4015.got - 2010.06.03 18:22:40.
