data_PCOD9361269
_publ_section_title
;
Structure prediction by ZEFSAII (Michael W. Deem and Ramdas Pophale) SiO2 
 PCOD9361269
Probable space group: A B M 2
;
_chemical_formula_sum "Si O2"
_cell_formula_units_Z 56
_cell_length_a 29.504858
_cell_length_b 17.610528
_cell_length_c 5.307843
_cell_angle_alpha 90.000000
_cell_angle_beta 90.000000
_cell_angle_gamma 90.000000
_cell_volume 2757.934671
_symmetry_space_group_name_H-M "A B M 2"
_symmetry_group_IT_number 39
_symmetry_cell_setting 'orthorhombic'
loop_
_space_group_symop_operation_xyz
x,y,z
-x,-y,z
-x,1/2+y,z
x,1/2-y,z
x,1/2+y,1/2+z
-x,1/2-y,1/2+z
-x,y,1/2+z
x,-y,1/2+z
loop_
_atom_site_type_symbol
_atom_site_label
_atom_site_fract_x
_atom_site_fract_y
_atom_site_fract_z
Si Si1 0.981742 0.412901 0.285840
Si Si2 0.657586 0.660447 0.411876
Si Si3 0.551179 0.028154 0.244857
Si Si4 0.743892 0.448536 0.873363
Si Si5 0.170074 0.661596 0.902438
Si Si6 0.889638 0.161086 0.404083
Si Si7 0.400808 0.163044 0.914776
O O1 0.930659 0.398151 0.372114
O O2 0.000000 0.500000 0.258261
O O3 0.011643 0.377950 0.510039
O O4 0.670578 0.750000 0.393752
O O5 0.700169 0.605675 0.386303
O O6 0.633895 0.650275 0.683507
O O7 0.623529 0.646192 0.178453
O O8 0.500000 0.000000 0.207275
O O9 0.573030 0.979962 0.471065
O O10 0.556058 0.111686 0.353470
O O11 0.743634 0.495971 0.614515
O O12 0.788171 0.395415 0.884973
O O13 0.185109 0.750000 0.888681
O O14 0.136556 0.648878 0.666005
O O15 0.143744 0.651719 0.166157
O O16 0.905506 0.250000 0.400540
O O17 0.414218 0.250000 0.916030
#
# Coordination Sequence:
#
# PCOD9361269 Si02
#       7
#     8   8   8   8   8   8   8
#     4  10  21  38  54  85 118 150 190 241 304 358
#     4  10  22  40  63  88 121 164 201 249 308 358
#     4  10  21  37  56  83 119 158 201 248 309 368
#     4  12  25  41  59  96 127 156 199 247 302 360
#     4  10  22  43  64  86 120 162 202 243 293 357
#     4  10  21  39  64  87 112 157 207 243 288 353
#     4  10  21  38  61  89 117 157 212 255 297 360
#
# _framework density 20.305047999999999
#
# number of rings (size 3 to 8) (size 9 to 14) (size 15 to 20)
#    0.000    1.714    0.000    3.857    0.000    4.000 
#   15.429    8.571    0.000    0.000    0.000    0.000 
#    0.000    0.000    0.000    0.000    0.000    0.000 
#
# Total GULP energy -156270.843486 kJ/mol
# GULP energy per Si atom -5581.101553 kJ/mol
# Density = 2.025883 g / cm^3
# Si number density = 20.305048 Si / 1000 Ang^3
#
#
#
# Elastic Constant Matrix: (Units=GPa)
#
#
# Indices 1 2 3 4 5 6 
#
# 1 54.9390 58.1597 -3.8440 0.0000 0.0000 0.0000
# 2 58.1597 79.2064 12.6561 0.0000 0.0000 0.0000
# 3 -3.8440 12.6561 123.5458 0.0000 0.0000 0.0000
# 4 0.0000 0.0000 0.0000 28.3460 0.0000 0.0000
# 5 0.0000 0.0000 0.0000 0.0000 19.8769 0.0000
# 6 0.0000 0.0000 0.0000 0.0000 0.0000 49.1766
#
#
#
# Elastic Compliance Matrix: (Units=1/GPa)
#
#
# Indices 1 2 3 4 5 6 
#
# 1 0.092478 -0.069503 0.009997 0.000000 0.000000 0.000000
# 2 -0.069503 0.065070 -0.008828 0.000000 0.000000 0.000000
# 3 0.009997 -0.008828 0.009310 0.000000 0.000000 0.000000
# 4 0.000000 0.000000 0.000000 0.035278 0.000000 0.000000
# 5 0.000000 0.000000 0.000000 0.000000 0.050310 0.000000
# 6 0.000000 0.000000 0.000000 0.000000 0.000000 0.020335
#
#
# Mechanical properties :
#
#
# Convention : Reuss Voigt Hill
#
# Bulk Modulus (GPa) = 33.12237 43.51499 38.31868
# Shear Modulus (GPa) = 11.91861 32.19454 22.05657
#
# Velocity S-wave (km/s) = 2.42539 3.98621 3.29942
# Velocity P-wave (km/s) = 4.91845 6.53174 5.78164
#
# Compressibility (1/GPa) = 0.03019108
#
# Stress axis : x y z
#
# Youngs Moduli (GPa) = 10.81332 15.36801 107.41600
#
# Poissons Ratio (x) = 1.06812 -1.07387
# Poissons Ratio (y) = 0.75155 0.94831
# Poissons Ratio (z) = -0.10810 0.13567
#
# Static dielectric constant tensor:
#      x y z
#    x 1.680080 0.000000 0.000000 
#    y 0.000000 1.713610 0.000000 
#    z 0.000000 0.000000 1.763870 
# 
# From -- ./inp_files/1497.got.cif
#   From: 2010.05.17/outbox.cif.g08.bks.cpg/sg39_1_cif.got.tgz:1497.got - 2010.06.03 18:22:40.
