data_PCOD9361146
_publ_section_title
;
Structure prediction by ZEFSAII (Michael W. Deem and Ramdas Pophale) SiO2 
 PCOD9361146
Probable space group: A B M 2
;
_chemical_formula_sum "Si O2"
_cell_formula_units_Z 44
_cell_length_a 15.072085
_cell_length_b 16.693210
_cell_length_c 9.015645
_cell_angle_alpha 90.000000
_cell_angle_beta 90.000000
_cell_angle_gamma 90.000000
_cell_volume 2268.349626
_symmetry_space_group_name_H-M "A B M 2"
_symmetry_group_IT_number 39
_symmetry_cell_setting 'orthorhombic'
loop_
_space_group_symop_operation_xyz
x,y,z
-x,-y,z
-x,1/2+y,z
x,1/2-y,z
x,1/2+y,1/2+z
-x,1/2-y,1/2+z
-x,y,1/2+z
x,-y,1/2+z
loop_
_atom_site_type_symbol
_atom_site_label
_atom_site_fract_x
_atom_site_fract_y
_atom_site_fract_z
Si Si1 0.912861 0.892112 0.013120
Si Si2 0.764317 0.837773 0.796313
Si Si3 0.912354 0.156116 0.850023
Si Si4 0.500000 0.500000 0.669509
Si Si5 0.211785 0.453561 0.519335
Si Si6 0.622801 0.062748 0.427740
O O1 0.922883 0.853993 0.174604
O O2 0.863425 0.977494 0.032520
O O3 0.847676 0.843286 0.905571
O O4 0.007433 0.889291 0.932959
O O5 0.759391 0.750000 0.727361
O O6 0.774986 0.906923 0.673554
O O7 0.678086 0.857622 0.894647
O O8 0.913425 0.250000 0.890084
O O9 0.823305 0.111485 0.902138
O O10 0.447666 0.560570 0.561082
O O11 0.570712 0.540500 0.778370
O O12 0.302048 0.496521 0.467579
#
# Coordination Sequence:
#
# PCOD9361146 Si02
#       6
#     8   8   8   4   8   8
#     4  11  24  41  60  86 123 169 214 248 298 374
#     4  11  22  40  63  94 129 162 201 260 316 367
#     4  12  24  39  59  88 124 164 203 257 309 354
#     4  10  20  40  68  92 120 158 210 252 304 372
#     4  11  23  40  63  91 121 162 211 251 301 368
#     4  10  21  39  66  93 119 163 204 253 302 377
#
# _framework density 19.397362000000001
#
# number of rings (size 3 to 8) (size 9 to 14) (size 15 to 20)
#    0.000    1.091    1.818    6.000    2.545    1.455 
#    0.000    0.909    0.000    0.000    0.000    0.000 
#    0.000    0.000    0.000    0.000    0.000    0.000 
#
# Total GULP energy -122914.691972 kJ/mol
# GULP energy per Si atom -5587.031453 kJ/mol
# Density = 1.935321 g / cm^3
# Si number density = 19.397362 Si / 1000 Ang^3
#
#
#
# Elastic Constant Matrix: (Units=GPa)
#
#
# Indices 1 2 3 4 5 6 
#
# 1 88.8275 41.0184 34.1695 0.0000 0.0000 0.0000
# 2 41.0184 114.1875 23.8892 0.0000 0.0000 0.0000
# 3 34.1695 23.8892 107.6081 0.0000 0.0000 0.0000
# 4 0.0000 0.0000 0.0000 22.3545 0.0000 0.0000
# 5 0.0000 0.0000 0.0000 0.0000 41.6500 0.0000
# 6 0.0000 0.0000 0.0000 0.0000 0.0000 0.7410
#
#
#
# Elastic Compliance Matrix: (Units=1/GPa)
#
#
# Indices 1 2 3 4 5 6 
#
# 1 0.014768 -0.004535 -0.003683 0.000000 0.000000 0.000000
# 2 -0.004535 0.010576 -0.000908 0.000000 0.000000 0.000000
# 3 -0.003683 -0.000908 0.010664 0.000000 0.000000 0.000000
# 4 0.000000 0.000000 0.000000 0.044734 0.000000 0.000000
# 5 0.000000 0.000000 0.000000 0.000000 0.024010 0.000000
# 6 0.000000 0.000000 0.000000 0.000000 0.000000 1.349543
#
#
# Mechanical properties :
#
#
# Convention : Reuss Voigt Hill
#
# Bulk Modulus (GPa) = 56.31323 56.53082 56.42203
# Shear Modulus (GPa) = 3.38189 27.05219 15.21704
#
# Velocity S-wave (km/s) = 1.32184 3.73853 2.80391
# Velocity P-wave (km/s) = 5.60572 6.91681 6.29549
#
# Compressibility (1/GPa) = 0.01775782
#
# Stress axis : x y z
#
# Youngs Moduli (GPa) = 67.71204 94.54990 93.77340
#
# Poissons Ratio (x) = 0.42875 0.34535
# Poissons Ratio (y) = 0.30705 0.08515
# Poissons Ratio (z) = 0.24937 0.08586
#
# Static dielectric constant tensor:
#      x y z
#    x 1.682520 0.000000 0.000000 
#    y 0.000000 1.686330 0.000000 
#    z 0.000000 0.000000 1.674130 
# 
# From -- ./inp_files/3179.got.cif
#   From: 2010.05.17/outbox.cif.g08.bks.cpg/sg39_2_cif.got.tgz:3179.got - 2010.06.03 18:22:40.
