data_PCOD9361924
_publ_section_title
;
Structure prediction by ZEFSAII (Michael W. Deem and Ramdas Pophale) SiO2 
 PCOD9361924
Probable space group: A B M 2
;
_chemical_formula_sum "Si O2"
_cell_formula_units_Z 40
_cell_length_a 9.154781
_cell_length_b 18.214794
_cell_length_c 10.977845
_cell_angle_alpha 90.000000
_cell_angle_beta 90.000000
_cell_angle_gamma 90.000000
_cell_volume 1830.582550
_symmetry_space_group_name_H-M "A B M 2"
_symmetry_group_IT_number 39
_symmetry_cell_setting 'orthorhombic'
loop_
_space_group_symop_operation_xyz
x,y,z
-x,-y,z
-x,1/2+y,z
x,1/2-y,z
x,1/2+y,1/2+z
-x,1/2-y,1/2+z
-x,y,1/2+z
x,-y,1/2+z
loop_
_atom_site_type_symbol
_atom_site_label
_atom_site_fract_x
_atom_site_fract_y
_atom_site_fract_z
Si Si1 0.389669 0.663956 0.496490
Si Si2 0.300054 0.384442 0.524513
Si Si3 0.916019 0.068096 0.841746
Si Si4 0.175569 0.665699 0.272282
Si Si5 0.651668 0.970580 0.169085
O O1 0.376417 0.750000 0.526989
O O2 0.556548 0.646373 0.459131
O O3 0.275656 0.647114 0.389022
O O4 0.365383 0.609168 0.609038
O O5 0.159564 0.380049 0.439896
O O6 0.271891 0.344023 0.651546
O O7 0.321123 0.469741 0.562390
O O8 0.786790 0.034383 0.759919
O O9 0.035332 0.113434 0.766605
O O10 0.000000 0.000000 0.902285
O O11 0.129585 0.750000 0.283621
O O12 0.500000 0.000000 0.227455
#
# Coordination Sequence:
#
# PCOD9361924 Si02
#       5
#     8   8   8   8   8
#     4  10  24  46  71 100 138 180 230 286 344 410
#     4  11  25  44  71  97 139 181 234 282 344 412
#     4  12  26  42  71 100 139 180 229 288 350 404
#     4  11  26  45  68 103 143 181 230 286 345 415
#     4  10  24  43  72 102 135 181 233 285 338 413
#
# _framework density 21.850966
#
# number of rings (size 3 to 8) (size 9 to 14) (size 15 to 20)
#    0.000    1.200    2.000    1.800   11.200    3.200 
#    0.000    0.000    0.000    0.000    0.000    0.000 
#    0.000    0.000    0.000    0.000    0.000    0.000 
#
# Total GULP energy -111865.028822 kJ/mol
# GULP energy per Si atom -5593.251441 kJ/mol
# Density = 2.180123 g / cm^3
# Si number density = 21.850966 Si / 1000 Ang^3
#
#
#
# Elastic Constant Matrix: (Units=GPa)
#
#
# Indices 1 2 3 4 5 6 
#
# 1 126.7932 38.7015 33.8187 0.0000 0.0000 0.0000
# 2 38.7015 96.1263 24.2778 0.0000 0.0000 0.0000
# 3 33.8187 24.2778 43.4406 0.0000 0.0000 0.0000
# 4 0.0000 0.0000 0.0000 23.0915 0.0000 0.0000
# 5 0.0000 0.0000 0.0000 0.0000 31.0399 0.0000
# 6 0.0000 0.0000 0.0000 0.0000 0.0000 21.6048
#
#
#
# Elastic Compliance Matrix: (Units=1/GPa)
#
#
# Indices 1 2 3 4 5 6 
#
# 1 0.010448 -0.002506 -0.006733 0.000000 0.000000 0.000000
# 2 -0.002506 0.012714 -0.005155 0.000000 0.000000 0.000000
# 3 -0.006733 -0.005155 0.031142 0.000000 0.000000 0.000000
# 4 0.000000 0.000000 0.000000 0.043306 0.000000 0.000000
# 5 0.000000 0.000000 0.000000 0.000000 0.032217 0.000000
# 6 0.000000 0.000000 0.000000 0.000000 0.000000 0.046286
#
#
# Mechanical properties :
#
#
# Convention : Reuss Voigt Hill
#
# Bulk Modulus (GPa) = 39.18983 51.10623 45.14803
# Shear Modulus (GPa) = 23.42968 26.45140 24.94054
#
# Velocity S-wave (km/s) = 3.27807 3.48305 3.38212
# Velocity P-wave (km/s) = 5.68346 6.29403 5.99652
#
# Compressibility (1/GPa) = 0.02551682
#
# Stress axis : x y z
#
# Youngs Moduli (GPa) = 95.71608 78.65541 32.11061
#
# Poissons Ratio (x) = 0.19709 0.21620
# Poissons Ratio (y) = 0.23985 0.16552
# Poissons Ratio (z) = 0.64446 0.40543
#
# Static dielectric constant tensor:
#      x y z
#    x 1.810070 0.000000 0.000000 
#    y 0.000000 1.797720 0.000000 
#    z 0.000000 0.000000 1.750280 
# 
# From -- ./inp_files/4918.got.cif
#   From: 2010.05.17/outbox.cif.g08.bks.cpg/sg39_3_cif.got.tgz:4918.got - 2010.06.03 18:22:40.
