data_PCOD9361180
_publ_section_title
;
Structure prediction by ZEFSAII (Michael W. Deem and Ramdas Pophale) SiO2 
 PCOD9361180
Probable space group: A B M 2
;
_chemical_formula_sum "Si O2"
_cell_formula_units_Z 48
_cell_length_a 11.108885
_cell_length_b 14.080771
_cell_length_c 12.906205
_cell_angle_alpha 90.000000
_cell_angle_beta 90.000000
_cell_angle_gamma 90.000000
_cell_volume 2018.810085
_symmetry_space_group_name_H-M "A B M 2"
_symmetry_group_IT_number 39
_symmetry_cell_setting 'orthorhombic'
loop_
_space_group_symop_operation_xyz
x,y,z
-x,-y,z
-x,1/2+y,z
x,1/2-y,z
x,1/2+y,1/2+z
-x,1/2-y,1/2+z
-x,y,1/2+z
x,-y,1/2+z
loop_
_atom_site_type_symbol
_atom_site_label
_atom_site_fract_x
_atom_site_fract_y
_atom_site_fract_z
Si Si1 0.833292 0.144248 0.121730
Si Si2 0.927247 0.639427 0.827838
Si Si3 0.340503 0.099725 0.450160
Si Si4 0.487051 0.750000 0.495773
Si Si5 0.808319 0.636980 0.247503
Si Si6 0.000000 0.500000 0.999338
Si Si7 0.388797 0.937779 0.596978
O O1 0.888688 0.250000 0.112141
O O2 0.710909 0.146240 0.056851
O O3 0.822260 0.126639 0.243917
O O4 0.914668 0.066421 0.066536
O O5 0.931985 0.750000 0.860519
O O6 0.049319 0.618433 0.761730
O O7 0.925777 0.570499 0.924649
O O8 0.452617 0.165328 0.422691
O O9 0.245007 0.113049 0.360264
O O10 0.361692 0.993877 0.489690
O O11 0.433203 0.833689 0.570538
O O12 0.796110 0.750000 0.226783
O O13 0.730965 0.575891 0.166047
O O14 0.500000 0.000000 0.644388
#
# Coordination Sequence:
#
# PCOD9361180 Si02
#       7
#     8   8   8   4   8   4   8
#     4  11  23  41  63  94 128 173 209 257 315 374
#     4  10  24  39  60  93 129 167 210 259 307 377
#     4  11  22  40  71  92 126 175 212 254 324 394
#     4  10  20  44  62  94 124 164 202 274 320 378
#     4  11  21  42  67  91 125 174 213 257 322 386
#     4  12  22  36  64  90 130 162 218 248 314 370
#     4  10  24  39  64  98 129 157 218 271 325 367
#
# _framework density 23.776382999999999
#
# number of rings (size 3 to 8) (size 9 to 14) (size 15 to 20)
#    0.000    1.333    4.167    1.000    4.667    2.000 
#    0.000    0.000    1.833    0.000    0.000    0.000 
#    0.000    0.000    0.000    0.000    0.000    0.000 
#
# Total GULP energy -133670.092142 kJ/mol
# GULP energy per Si atom -5569.587173 kJ/mol
# Density = 2.372227 g / cm^3
# Si number density = 23.776383 Si / 1000 Ang^3
#
#
#
# Elastic Constant Matrix: (Units=GPa)
#
#
# Indices 1 2 3 4 5 6 
#
# 1 34.4632 21.7471 2.0153 0.0000 0.0000 0.0000
# 2 21.7471 197.5902 31.1594 0.0000 0.0000 0.0000
# 3 2.0153 31.1594 57.2549 0.0000 0.0000 0.0000
# 4 0.0000 0.0000 0.0000 29.7180 0.0000 0.0000
# 5 0.0000 0.0000 0.0000 0.0000 7.5506 0.0000
# 6 0.0000 0.0000 0.0000 0.0000 0.0000 28.9565
#
#
#
# Elastic Compliance Matrix: (Units=1/GPa)
#
#
# Indices 1 2 3 4 5 6 
#
# 1 0.031219 -0.003569 0.000843 0.000000 0.000000 0.000000
# 2 -0.003569 0.005944 -0.003109 0.000000 0.000000 0.000000
# 3 0.000843 -0.003109 0.019128 0.000000 0.000000 0.000000
# 4 0.000000 0.000000 0.000000 0.033650 0.000000 0.000000
# 5 0.000000 0.000000 0.000000 0.000000 0.132440 0.000000
# 6 0.000000 0.000000 0.000000 0.000000 0.000000 0.034535
#
#
# Mechanical properties :
#
#
# Convention : Reuss Voigt Hill
#
# Bulk Modulus (GPa) = 22.41052 44.35020 33.38036
# Shear Modulus (GPa) = 17.63919 28.87080 23.25499
#
# Velocity S-wave (km/s) = 2.72670 3.48841 3.13081
# Velocity P-wave (km/s) = 4.39991 5.90922 5.20951
#
# Compressibility (1/GPa) = 0.04462191
#
# Stress axis : x y z
#
# Youngs Moduli (GPa) = 32.03146 168.23333 52.27879
#
# Poissons Ratio (x) = 0.60044 -0.04410
# Poissons Ratio (y) = 0.11432 0.16255
# Poissons Ratio (z) = -0.02702 0.52309
#
# Static dielectric constant tensor:
#      x y z
#    x 2.081230 0.000000 0.000000 
#    y 0.000000 1.944120 0.000000 
#    z 0.000000 0.000000 1.893750 
# 
# From -- ./inp_files/9228.got.cif
#   From: 2010.05.17/outbox.cif.g08.bks.cpg/sg39_5_cif.got.tgz:9228.got - 2010.06.03 18:22:40.
