data_PCOD9361567
_publ_section_title
;
Structure prediction by ZEFSAII (Michael W. Deem and Ramdas Pophale) SiO2 
 PCOD9361567
Probable space group: A B M 2
;
_chemical_formula_sum "Si O2"
_cell_formula_units_Z 48
_cell_length_a 7.180016
_cell_length_b 26.640109
_cell_length_c 8.923905
_cell_angle_alpha 90.000000
_cell_angle_beta 90.000000
_cell_angle_gamma 90.000000
_cell_volume 1706.932501
_symmetry_space_group_name_H-M "A B M 2"
_symmetry_group_IT_number 39
_symmetry_cell_setting 'orthorhombic'
loop_
_space_group_symop_operation_xyz
x,y,z
-x,-y,z
-x,1/2+y,z
x,1/2-y,z
x,1/2+y,1/2+z
-x,1/2-y,1/2+z
-x,y,1/2+z
x,-y,1/2+z
loop_
_atom_site_type_symbol
_atom_site_label
_atom_site_fract_x
_atom_site_fract_y
_atom_site_fract_z
Si Si1 0.766183 0.692297 0.053970
Si Si2 0.293513 0.070725 0.301286
Si Si3 0.117818 0.885174 0.300315
Si Si4 0.748989 0.250000 0.013268
Si Si5 0.799018 0.479155 0.513568
Si Si6 0.018125 0.750000 0.261910
Si Si7 0.398991 0.143434 0.535217
O O1 0.695346 0.750000 0.025244
O O2 0.919101 0.702418 0.181066
O O3 0.844827 0.662474 0.910220
O O4 0.595292 0.658093 0.107934
O O5 0.329028 0.042660 0.145512
O O6 0.425340 0.107556 0.393968
O O7 0.098723 0.100596 0.273415
O O8 0.271358 0.025876 0.420048
O O9 0.174200 0.934000 0.396936
O O10 0.242649 0.877253 0.150347
O O11 0.949026 0.250000 0.929954
O O12 0.663781 0.302581 0.971627
O O13 0.777220 0.250000 0.192784
O O14 0.000000 0.500000 0.576483
#
# Coordination Sequence:
#
# PCOD9361567 Si02
#       7
#     8   8   8   4   8   4   8
#     4  10  26  47  69  97 153 202 249 300 363 438
#     4  11  23  43  76 115 143 189 243 311 370 442
#     4  11  24  42  72 104 142 185 250 304 366 437
#     4  12  27  44  72 108 144 195 254 312 352 433
#     4  10  21  42  74 108 148 178 237 313 380 428
#     4  10  27  46  70  98 144 187 248 312 356 421
#     4  12  27  42  72 106 147 203 247 294 375 434
#
# _framework density 28.120619999999999
#
# number of rings (size 3 to 8) (size 9 to 14) (size 15 to 20)
#    0.500    0.667    0.833    5.500   10.500    0.000 
#    0.000    0.833    0.000   12.000    0.000    0.000 
#    0.000    0.000    0.000    0.000    0.000    0.000 
#
# Total GULP energy -134551.498734 kJ/mol
# GULP energy per Si atom -5606.312447 kJ/mol
# Density = 2.805662 g / cm^3
# Si number density = 28.120620 Si / 1000 Ang^3
#
#
#
# Elastic Constant Matrix: (Units=GPa)
#
#
# Indices 1 2 3 4 5 6 
#
# 1 95.9081 27.2025 31.0033 0.0000 0.0000 0.0000
# 2 27.2025 197.2990 55.3275 0.0000 0.0000 0.0000
# 3 31.0033 55.3275 146.6966 0.0000 0.0000 0.0000
# 4 0.0000 0.0000 0.0000 49.3941 0.0000 0.0000
# 5 0.0000 0.0000 0.0000 0.0000 42.0160 0.0000
# 6 0.0000 0.0000 0.0000 0.0000 0.0000 42.2036
#
#
#
# Elastic Compliance Matrix: (Units=1/GPa)
#
#
# Indices 1 2 3 4 5 6 
#
# 1 0.011365 -0.000999 -0.002025 0.000000 0.000000 0.000000
# 2 -0.000999 0.005756 -0.001960 0.000000 0.000000 0.000000
# 3 -0.002025 -0.001960 0.007984 0.000000 0.000000 0.000000
# 4 0.000000 0.000000 0.000000 0.020245 0.000000 0.000000
# 5 0.000000 0.000000 0.000000 0.000000 0.023800 0.000000
# 6 0.000000 0.000000 0.000000 0.000000 0.000000 0.023695
#
#
# Mechanical properties :
#
#
# Convention : Reuss Voigt Hill
#
# Bulk Modulus (GPa) = 66.06438 74.10780 70.08609
# Shear Modulus (GPa) = 46.35738 48.48078 47.41908
#
# Velocity S-wave (km/s) = 4.06460 4.15665 4.11088
# Velocity P-wave (km/s) = 6.75072 7.03191 6.89275
#
# Compressibility (1/GPa) = 0.01513675
#
# Stress axis : x y z
#
# Youngs Moduli (GPa) = 87.99238 173.73998 125.25259
#
# Poissons Ratio (x) = 0.17357 0.25364
# Poissons Ratio (y) = 0.08791 0.24545
# Poissons Ratio (z) = 0.17819 0.34047
#
# Static dielectric constant tensor:
#      x y z
#    x 2.271410 0.000000 0.000000 
#    y 0.000000 2.215000 0.000000 
#    z 0.000000 0.000000 2.135060 
# 
# From -- ./inp_files/2348.got.cif
#   From: 2010.05.17/outbox.cif.g08.bks.cpg/sg39_2_cif.got.tgz:2348.got - 2010.06.03 18:22:40.
