data_PCOD9361752
_publ_section_title
;
Structure prediction by ZEFSAII (Michael W. Deem and Ramdas Pophale) SiO2 
 PCOD9361752
Probable space group: A B M 2
;
_chemical_formula_sum "Si O2"
_cell_formula_units_Z 60
_cell_length_a 5.577222
_cell_length_b 19.873509
_cell_length_c 24.881494
_cell_angle_alpha 90.000000
_cell_angle_beta 90.000000
_cell_angle_gamma 90.000000
_cell_volume 2757.839207
_symmetry_space_group_name_H-M "A B M 2"
_symmetry_group_IT_number 39
_symmetry_cell_setting 'orthorhombic'
loop_
_space_group_symop_operation_xyz
x,y,z
-x,-y,z
-x,1/2+y,z
x,1/2-y,z
x,1/2+y,1/2+z
-x,1/2-y,1/2+z
-x,y,1/2+z
x,-y,1/2+z
loop_
_atom_site_type_symbol
_atom_site_label
_atom_site_fract_x
_atom_site_fract_y
_atom_site_fract_z
Si Si1 0.000000 0.000000 0.884320
Si Si2 0.378325 0.562501 0.468432
Si Si3 0.463832 0.676036 0.897245
Si Si4 0.374287 0.070801 0.166686
Si Si5 0.933910 0.574290 0.060271
Si Si6 0.972762 0.644271 0.838143
Si Si7 0.755224 0.826409 0.619912
Si Si8 0.103639 0.823716 0.722960
O O1 0.024889 0.934848 0.846865
O O2 0.785529 0.975092 0.923679
O O3 0.500000 0.500000 0.498350
O O4 0.551250 0.614517 0.438857
O O5 0.232056 0.602412 0.513156
O O6 0.479175 0.750000 0.922429
O O7 0.221048 0.674953 0.861798
O O8 0.720742 0.663725 0.866982
O O9 0.190595 0.059492 0.117633
O O10 0.545348 0.128289 0.143143
O O11 0.260236 0.108845 0.217320
O O12 0.500000 0.000000 0.178799
O O13 0.000000 0.500000 0.039989
O O14 0.135466 0.629022 0.072177
O O15 0.951124 0.666919 0.776640
O O16 0.688998 0.750000 0.605584
O O17 0.947716 0.822554 0.668588
O O18 0.228394 0.750000 0.725934
#
# Coordination Sequence:
#
# PCOD9361752 Si02
#       8
#     4   8   8   8   8   8   8   8
#     4  10  22  42  64  96 130 168 220 282 328 390
#     4  11  22  40  67  93 126 171 216 271 335 398
#     4  11  24  43  67  99 136 174 225 279 332 398
#     4  11  22  39  64  94 127 168 217 273 328 390
#     4  11  22  39  67  92 125 168 218 265 330 403
#     4  11  24  43  69  96 135 178 226 274 334 397
#     4  10  23  42  62  94 131 168 215 273 328 395
#     4  10  23  41  64  92 130 176 218 266 334 399
#
# _framework density 21.756163999999998
#
# number of rings (size 3 to 8) (size 9 to 14) (size 15 to 20)
#    0.000    1.333    3.333    2.000    1.867    2.133 
#    2.400    0.000    0.000    0.000    0.000    0.000 
#    0.000    0.000    0.000    0.000    0.000    0.000 
#
# Total GULP energy -167314.330249 kJ/mol
# GULP energy per Si atom -5577.144342 kJ/mol
# Density = 2.170665 g / cm^3
# Si number density = 21.756164 Si / 1000 Ang^3
#
#
#
# Elastic Constant Matrix: (Units=GPa)
#
#
# Indices 1 2 3 4 5 6 
#
# 1 60.6327 17.8181 -4.9499 0.0000 0.0000 0.0000
# 2 17.8181 156.1075 6.5970 0.0000 0.0000 0.0000
# 3 -4.9499 6.5970 44.6481 0.0000 0.0000 0.0000
# 4 0.0000 0.0000 0.0000 -38.9551 0.0000 0.0000
# 5 0.0000 0.0000 0.0000 0.0000 26.0407 0.0000
# 6 0.0000 0.0000 0.0000 0.0000 0.0000 6.6450
#
#
#
# Elastic Compliance Matrix: (Units=1/GPa)
#
#
# Indices 1 2 3 4 5 6 
#
# 1 0.017281 -0.002066 0.002221 0.000000 0.000000 0.000000
# 2 -0.002066 0.006693 -0.001218 0.000000 0.000000 0.000000
# 3 0.002221 -0.001218 0.022824 0.000000 0.000000 0.000000
# 4 0.000000 0.000000 0.000000 -0.025671 0.000000 0.000000
# 5 0.000000 0.000000 0.000000 0.000000 0.038401 0.000000
# 6 0.000000 0.000000 0.000000 0.000000 0.000000 0.150489
#
#
# Mechanical properties :
#
#
# Convention : Reuss Voigt Hill
#
# Bulk Modulus (GPa) = 22.38551 33.36874 27.87713
# Shear Modulus (GPa) = 22.02305 14.87434 18.44870
#
# Velocity S-wave (km/s) = 3.18507 2.61757 2.91516
# Velocity P-wave (km/s) = 4.88240 4.95040 4.91652
#
# Compressibility (1/GPa) = 0.04467175
#
# Stress axis : x y z
#
# Youngs Moduli (GPa) = 57.86596 149.40606 43.81427
#
# Poissons Ratio (x) = 0.30873 -0.09732
# Poissons Ratio (y) = 0.11957 0.05337
# Poissons Ratio (z) = -0.12853 0.18198
#
# Static dielectric constant tensor:
#      x y z
#    x 1.823700 0.000000 0.000000 
#    y 0.000000 1.812760 0.000000 
#    z 0.000000 0.000000 1.747510 
# 
# From -- ./inp_files/15331.got.cif
#   From: 2010.05.17/outbox.cif.g08.bks.cpg/sg39_8_cif.got.tgz:15331.got - 2010.06.03 18:22:40.
