data_PCOD9361186
_publ_section_title
;
Structure prediction by ZEFSAII (Michael W. Deem and Ramdas Pophale) SiO2 
 PCOD9361186
Probable space group: A B M 2
;
_chemical_formula_sum "Si O2"
_cell_formula_units_Z 48
_cell_length_a 5.206044
_cell_length_b 14.265649
_cell_length_c 29.362714
_cell_angle_alpha 90.000000
_cell_angle_beta 90.000000
_cell_angle_gamma 90.000000
_cell_volume 2180.698192
_symmetry_space_group_name_H-M "A B M 2"
_symmetry_group_IT_number 39
_symmetry_cell_setting 'orthorhombic'
loop_
_space_group_symop_operation_xyz
x,y,z
-x,-y,z
-x,1/2+y,z
x,1/2-y,z
x,1/2+y,1/2+z
-x,1/2-y,1/2+z
-x,y,1/2+z
x,-y,1/2+z
loop_
_atom_site_type_symbol
_atom_site_label
_atom_site_fract_x
_atom_site_fract_y
_atom_site_fract_z
Si Si1 0.532888 0.112672 0.433780
Si Si2 0.776215 0.750000 0.569171
Si Si3 0.719248 0.250000 0.509741
Si Si4 0.866717 0.862949 0.283084
Si Si5 0.029592 0.607082 0.887258
Si Si6 0.368374 0.864039 0.227224
Si Si7 0.258819 0.561144 0.126739
O O1 0.650311 0.160294 0.478427
O O2 0.251582 0.147947 0.419161
O O3 0.739865 0.141381 0.394757
O O4 0.500000 0.000000 0.438298
O O5 0.488719 0.750000 0.549705
O O6 0.800223 0.844843 0.598419
O O7 0.994895 0.750000 0.530032
O O8 0.860113 0.750000 0.283664
O O9 0.874651 0.891641 0.335586
O O10 0.624340 0.893982 0.253586
O O11 0.126222 0.891467 0.257922
O O12 0.000000 0.500000 0.901540
O O13 0.371193 0.750000 0.223122
O O14 0.339716 0.906329 0.177330
O O15 0.500000 0.500000 0.108255
O O16 0.000000 0.500000 0.128404
#
# Coordination Sequence:
#
# PCOD9361186 Si02
#       7
#     8   4   4   8   8   8   8
#     4  10  23  41  63  95 130 170 222 271 330 402
#     4  12  28  50  70 107 140 163 228 296 340 428
#     4  12  26  44  76  95 128 183 210 284 362 404
#     4  10  21  33  60  93 130 179 224 271 321 378
#     4  10  21  38  58  89 135 175 215 278 321 377
#     4  10  21  41  60  93 138 176 222 280 322 386
#     4  12  26  46  75 103 136 185 223 275 354 415
#
# _framework density 22.011299999999999
#
# number of rings (size 3 to 8) (size 9 to 14) (size 15 to 20)
#    0.000    1.333    0.833    4.000    2.333    4.000 
#    0.000    0.000    0.000    0.000    0.000    0.000 
#    0.000    0.000    0.000    0.000    0.000    0.000 
#
# Total GULP energy -134201.749988 kJ/mol
# GULP energy per Si atom -5591.739583 kJ/mol
# Density = 2.196120 g / cm^3
# Si number density = 22.011300 Si / 1000 Ang^3
#
#
#
# Elastic Constant Matrix: (Units=GPa)
#
#
# Indices 1 2 3 4 5 6 
#
# 1 148.4454 49.7378 29.7470 0.0000 0.0000 0.0000
# 2 49.7378 124.6673 27.8021 0.0000 0.0000 0.0000
# 3 29.7470 27.8021 77.6713 0.0000 0.0000 0.0000
# 4 0.0000 0.0000 0.0000 40.0003 0.0000 0.0000
# 5 0.0000 0.0000 0.0000 0.0000 43.7004 0.0000
# 6 0.0000 0.0000 0.0000 0.0000 0.0000 15.9534
#
#
#
# Elastic Compliance Matrix: (Units=1/GPa)
#
#
# Indices 1 2 3 4 5 6 
#
# 1 0.008082 -0.002754 -0.002110 0.000000 0.000000 0.000000
# 2 -0.002754 0.009656 -0.002401 0.000000 0.000000 0.000000
# 3 -0.002110 -0.002401 0.014542 0.000000 0.000000 0.000000
# 4 0.000000 0.000000 0.000000 0.025000 0.000000 0.000000
# 5 0.000000 0.000000 0.000000 0.000000 0.022883 0.000000
# 6 0.000000 0.000000 0.000000 0.000000 0.000000 0.062683
#
#
# Mechanical properties :
#
#
# Convention : Reuss Voigt Hill
#
# Bulk Modulus (GPa) = 56.33804 62.81752 59.57778
# Shear Modulus (GPa) = 30.62002 36.16395 33.39198
#
# Velocity S-wave (km/s) = 3.73380 4.05776 3.89914
# Velocity P-wave (km/s) = 6.65124 7.11017 6.88453
#
# Compressibility (1/GPa) = 0.01775000
#
# Stress axis : x y z
#
# Youngs Moduli (GPa) = 123.73257 103.56648 68.76503
#
# Poissons Ratio (x) = 0.28522 0.14506
# Poissons Ratio (y) = 0.34076 0.16514
# Poissons Ratio (z) = 0.26101 0.24871
#
# Static dielectric constant tensor:
#      x y z
#    x 1.795420 0.000000 0.000000 
#    y 0.000000 1.843730 0.000000 
#    z 0.000000 0.000000 1.764040 
# 
# From -- ./inp_files/16511.got.cif
#   From: 2010.05.17/outbox.cif.g08.bks.cpg/sg39_9_cif.got.tgz:16511.got - 2010.06.03 18:22:40.
