data_PCOD9361221
_publ_section_title
;
Structure prediction by ZEFSAII (Michael W. Deem and Ramdas Pophale) SiO2 
 PCOD9361221
Probable space group: A B M 2
;
_chemical_formula_sum "Si O2"
_cell_formula_units_Z 48
_cell_length_a 5.401137
_cell_length_b 13.956156
_cell_length_c 29.251319
_cell_angle_alpha 90.000000
_cell_angle_beta 90.000000
_cell_angle_gamma 90.000000
_cell_volume 2204.938409
_symmetry_space_group_name_H-M "A B M 2"
_symmetry_group_IT_number 39
_symmetry_cell_setting 'orthorhombic'
loop_
_space_group_symop_operation_xyz
x,y,z
-x,-y,z
-x,1/2+y,z
x,1/2-y,z
x,1/2+y,1/2+z
-x,1/2-y,1/2+z
-x,y,1/2+z
x,-y,1/2+z
loop_
_atom_site_type_symbol
_atom_site_label
_atom_site_fract_x
_atom_site_fract_y
_atom_site_fract_z
Si Si1 0.718463 0.750000 0.896510
Si Si2 0.682887 0.634069 0.179649
Si Si3 0.254949 0.596948 0.577664
Si Si4 0.217247 0.250000 0.455720
Si Si5 0.755750 0.115539 0.039496
Si Si6 0.817293 0.634667 0.734576
Si Si7 0.753738 0.441392 0.336627
O O1 0.459341 0.750000 0.923912
O O2 0.733913 0.844144 0.865288
O O3 0.958413 0.750000 0.929175
O O4 0.688080 0.750000 0.171241
O O5 0.720673 0.581586 0.131520
O O6 0.418654 0.611599 0.202582
O O7 0.917209 0.611742 0.211998
O O8 0.499921 0.648979 0.561191
O O9 0.248930 0.498744 0.548244
O O10 0.997918 0.646979 0.566891
O O11 0.226566 0.342942 0.488865
O O12 0.812636 0.750000 0.741401
O O13 0.783521 0.585166 0.783290
O O14 0.500000 0.500000 0.342968
O O15 0.000000 0.500000 0.350491
#
# Coordination Sequence:
#
# PCOD9361221 Si02
#       7
#     4   8   8   4   8   8   8
#     4  12  28  54  78 109 148 181 244 318 366 468
#     4  10  21  35  66  99 136 193 246 280 335 413
#     4  10  21  42  59  95 137 183 225 289 337 412
#     4  12  26  48  76 105 130 187 240 304 390 432
#     4  10  23  41  64  89 134 174 230 290 363 408
#     4  10  21  43  66  99 144 188 235 298 343 416
#     4  12  26  50  77 111 147 196 237 294 389 438
#
# _framework density 21.769314999999999
#
# number of rings (size 3 to 8) (size 9 to 14) (size 15 to 20)
#    0.000    1.333    0.833    4.000    2.333    0.000 
#   36.000    0.000    0.000    0.000    0.000    0.000 
#    0.000    0.000    0.000    0.000    0.000    0.000 
#
# Total GULP energy -134226.158699 kJ/mol
# GULP energy per Si atom -5592.756612 kJ/mol
# Density = 2.171977 g / cm^3
# Si number density = 21.769315 Si / 1000 Ang^3
#
#
#
# Elastic Constant Matrix: (Units=GPa)
#
#
# Indices 1 2 3 4 5 6 
#
# 1 201.8591 24.1175 44.2446 0.0000 0.0000 0.0000
# 2 24.1175 125.7893 41.5541 0.0000 0.0000 0.0000
# 3 44.2446 41.5541 114.0557 0.0000 0.0000 0.0000
# 4 0.0000 0.0000 0.0000 -162.4943 0.0000 0.0000
# 5 0.0000 0.0000 0.0000 0.0000 32.7090 0.0000
# 6 0.0000 0.0000 0.0000 0.0000 0.0000 -5.7580
#
#
#
# Elastic Compliance Matrix: (Units=1/GPa)
#
#
# Indices 1 2 3 4 5 6 
#
# 1 0.005431 -0.000393 -0.001964 0.000000 0.000000 0.000000
# 2 -0.000393 0.009066 -0.003151 0.000000 0.000000 0.000000
# 3 -0.001964 -0.003151 0.010677 0.000000 0.000000 0.000000
# 4 0.000000 0.000000 0.000000 -0.006154 0.000000 0.000000
# 5 0.000000 0.000000 0.000000 0.000000 0.030573 0.000000
# 6 0.000000 0.000000 0.000000 0.000000 0.000000 -0.173672
#
#
# Mechanical properties :
#
#
# Convention : Reuss Voigt Hill
#
# Bulk Modulus (GPa) = 70.62028 73.50409 72.06218
# Shear Modulus (GPa) = -46.14898 -4.98948 -25.56923
#
# Velocity S-wave (km/s) = -4.60924 -1.51557 -3.43089
# Velocity P-wave (km/s) = 2.04545 5.54758 4.18088
#
# Compressibility (1/GPa) = 0.01416024
#
# Stress axis : x y z
#
# Youngs Moduli (GPa) = 184.11757 110.30347 93.65587
#
# Poissons Ratio (x) = 0.04330 0.18393
# Poissons Ratio (y) = 0.07228 0.29508
# Poissons Ratio (z) = 0.36159 0.34753
#
# Static dielectric constant tensor:
#      x y z
#    x 1.775740 0.000000 0.000000 
#    y 0.000000 2.114190 0.000000 
#    z 0.000000 0.000000 1.732660 
# 
# From -- ./inp_files/16514.got.cif
#   From: 2010.05.17/outbox.cif.g08.bks.cpg/sg39_9_cif.got.tgz:16514.got - 2010.06.03 18:22:40.
