data_PCOD9361819
_publ_section_title
;
Structure prediction by ZEFSAII (Michael W. Deem and Ramdas Pophale) SiO2 
 PCOD9361819
Probable space group: A B M 2
;
_chemical_formula_sum "Si O2"
_cell_formula_units_Z 64
_cell_length_a 14.485578
_cell_length_b 24.656310
_cell_length_c 8.454875
_cell_angle_alpha 90.000000
_cell_angle_beta 90.000000
_cell_angle_gamma 90.000000
_cell_volume 3019.750779
_symmetry_space_group_name_H-M "A B M 2"
_symmetry_group_IT_number 39
_symmetry_cell_setting 'orthorhombic'
loop_
_space_group_symop_operation_xyz
x,y,z
-x,-y,z
-x,1/2+y,z
x,1/2-y,z
x,1/2+y,1/2+z
-x,1/2-y,1/2+z
-x,y,1/2+z
x,-y,1/2+z
loop_
_atom_site_type_symbol
_atom_site_label
_atom_site_fract_x
_atom_site_fract_y
_atom_site_fract_z
Si Si1 0.705010 0.495236 0.953140
Si Si2 0.366551 0.689664 0.831868
Si Si3 0.579532 0.543045 0.211309
Si Si4 0.289249 0.886447 0.328138
Si Si5 0.219188 0.616575 0.976752
Si Si6 0.943777 0.812462 0.587413
Si Si7 0.457339 0.150778 0.028484
Si Si8 0.133490 0.188037 0.944330
O O1 0.617461 0.460173 0.888711
O O2 0.722960 0.549105 0.850675
O O3 0.668230 0.523590 0.111838
O O4 0.782338 0.448751 0.958497
O O5 0.333685 0.750000 0.874011
O O6 0.408037 0.689856 0.654863
O O7 0.283353 0.646762 0.848634
O O8 0.449166 0.672745 0.951901
O O9 0.500000 0.500000 0.201178
O O10 0.539012 0.597043 0.137222
O O11 0.269253 0.873222 0.146147
O O12 0.388597 0.866400 0.386791
O O13 0.215883 0.854429 0.436136
O O14 0.121017 0.646034 0.992483
O O15 0.930261 0.750000 0.531474
O O16 0.913591 0.814032 0.770190
O O17 0.051619 0.824786 0.565458
O O18 0.166183 0.250000 0.970400
#
# Coordination Sequence:
#
# PCOD9361819 Si02
#       8
#     8   8   8   8   8   8   8   8
#     4  11  21  37  57  86 118 153 198 249 298 353
#     4  12  25  40  57  83 120 160 205 249 297 355
#     4  11  22  35  58  83 111 153 202 251 295 346
#     4  10  23  40  62  86 121 159 196 247 303 359
#     4  11  21  40  61  86 120 158 197 247 304 354
#     4   9  19  37  62  89 114 149 194 244 296 356
#     4  11  25  39  57  85 118 158 203 247 298 355
#     4   9  19  38  63  90 117 148 194 244 298 358
#
# _framework density 21.193802999999999
#
# number of rings (size 3 to 8) (size 9 to 14) (size 15 to 20)
#    0.000    1.500    2.500    2.625    3.500    2.500 
#    0.000    1.875    0.000    3.000    0.000    0.000 
#    0.000    0.000    0.000    0.000    0.000    0.000 
#
# Total GULP energy -178700.321636 kJ/mol
# GULP energy per Si atom -5584.385051 kJ/mol
# Density = 2.114557 g / cm^3
# Si number density = 21.193803 Si / 1000 Ang^3
#
#
#
# Elastic Constant Matrix: (Units=GPa)
#
#
# Indices 1 2 3 4 5 6 
#
# 1 38.5585 17.0934 -3.5832 0.0000 0.0000 0.0000
# 2 17.0934 105.6514 -4.4562 0.0000 0.0000 0.0000
# 3 -3.5832 -4.4562 41.0390 0.0000 0.0000 0.0000
# 4 0.0000 0.0000 0.0000 17.2560 0.0000 0.0000
# 5 0.0000 0.0000 0.0000 0.0000 22.8208 0.0000
# 6 0.0000 0.0000 0.0000 0.0000 0.0000 24.7633
#
#
#
# Elastic Compliance Matrix: (Units=1/GPa)
#
#
# Indices 1 2 3 4 5 6 
#
# 1 0.028096 -0.004463 0.001969 0.000000 0.000000 0.000000
# 2 -0.004463 0.010217 0.000720 0.000000 0.000000 0.000000
# 3 0.001969 0.000720 0.024617 0.000000 0.000000 0.000000
# 4 0.000000 0.000000 0.000000 0.057951 0.000000 0.000000
# 5 0.000000 0.000000 0.000000 0.000000 0.043820 0.000000
# 6 0.000000 0.000000 0.000000 0.000000 0.000000 0.040382
#
#
# Mechanical properties :
#
#
# Convention : Reuss Voigt Hill
#
# Bulk Modulus (GPa) = 16.84014 22.59520 19.71767
# Shear Modulus (GPa) = 21.88898 24.71437 23.30167
#
# Velocity S-wave (km/s) = 3.21721 3.41854 3.31940
# Velocity P-wave (km/s) = 4.66515 5.12507 4.90051
#
# Compressibility (1/GPa) = 0.05938194
#
# Stress axis : x y z
#
# Youngs Moduli (GPa) = 35.59242 97.87166 40.62218
#
# Poissons Ratio (x) = 0.43676 -0.07997
# Poissons Ratio (y) = 0.15884 -0.02924
# Poissons Ratio (z) = -0.07007 -0.07045
#
# Static dielectric constant tensor:
#      x y z
#    x 1.734180 0.000000 0.000000 
#    y 0.000000 1.784330 0.000000 
#    z 0.000000 0.000000 1.844430 
# 
# From -- ./inp_files/3522.got.cif
#   From: 2010.05.17/outbox.cif.g08.bks.cpg/sg39_2_cif.got.tgz:3522.got - 2010.06.03 18:22:40.
