data_PCOD9361529
_publ_section_title
;
Structure prediction by ZEFSAII (Michael W. Deem and Ramdas Pophale) SiO2 
 PCOD9361529
Probable space group: A B M 2
;
_chemical_formula_sum "Si O2"
_cell_formula_units_Z 64
_cell_length_a 16.289199
_cell_length_b 16.710973
_cell_length_c 11.050525
_cell_angle_alpha 90.000000
_cell_angle_beta 90.000000
_cell_angle_gamma 90.000000
_cell_volume 3008.045339
_symmetry_space_group_name_H-M "A B M 2"
_symmetry_group_IT_number 39
_symmetry_cell_setting 'orthorhombic'
loop_
_space_group_symop_operation_xyz
x,y,z
-x,-y,z
-x,1/2+y,z
x,1/2-y,z
x,1/2+y,1/2+z
-x,1/2-y,1/2+z
-x,y,1/2+z
x,-y,1/2+z
loop_
_atom_site_type_symbol
_atom_site_label
_atom_site_fract_x
_atom_site_fract_y
_atom_site_fract_z
Si Si1 0.139930 0.112865 0.676540
Si Si2 0.559682 0.652245 0.918553
Si Si3 0.461378 0.156647 0.183397
Si Si4 0.846360 0.837928 0.412284
Si Si5 0.283342 0.602213 0.745442
Si Si6 0.276795 0.933456 0.344973
Si Si7 0.850286 0.559458 0.058319
Si Si8 0.024065 0.345861 0.894648
O O1 0.147616 0.163075 0.555952
O O2 0.224316 0.118182 0.750979
O O3 0.070658 0.140214 0.768962
O O4 0.126972 0.021326 0.630261
O O5 0.563557 0.750000 0.920465
O O6 0.508770 0.624413 0.800800
O O7 0.649908 0.615017 0.904893
O O8 0.522450 0.624924 0.047841
O O9 0.483387 0.250000 0.179391
O O10 0.364252 0.148086 0.207096
O O11 0.851864 0.750000 0.357630
O O12 0.759883 0.870311 0.368498
O O13 0.932015 0.880255 0.378264
O O14 0.306759 0.510012 0.769244
O O15 0.209280 0.608119 0.648776
O O16 0.210065 0.960473 0.445549
O O17 0.925887 0.608187 0.000496
O O18 0.021632 0.250000 0.921169
#
# Coordination Sequence:
#
# PCOD9361529 Si02
#       8
#     8   8   8   8   8   8   8   8
#     4  10  22  42  61  91 128 166 212 270 328 393
#     4  10  22  42  67  97 128 167 215 265 322 391
#     4  10  22  41  65  94 129 167 213 263 322 392
#     4  11  24  40  60  92 130 167 211 274 330 378
#     4  11  22  40  63  92 128 164 211 260 319 387
#     4  10  21  41  65  91 122 164 209 260 315 390
#     4  10  21  42  64  90 124 168 215 265 320 384
#     4  10  24  42  63  92 127 173 227 271 324 395
#
# _framework density 21.276274999999998
#
# number of rings (size 3 to 8) (size 9 to 14) (size 15 to 20)
#    0.000    1.750    2.500    0.750    1.750    5.500 
#    2.250    2.500    0.000    0.000    0.000    0.000 
#    0.000    0.000    0.000    0.000    0.000    0.000 
#
# Total GULP energy -178564.794412 kJ/mol
# GULP energy per Si atom -5580.149825 kJ/mol
# Density = 2.122785 g / cm^3
# Si number density = 21.276275 Si / 1000 Ang^3
#
#
#
# Elastic Constant Matrix: (Units=GPa)
#
#
# Indices 1 2 3 4 5 6 
#
# 1 52.1030 7.6814 34.0824 0.0000 0.0000 0.0000
# 2 7.6814 21.6405 10.5275 0.0000 0.0000 0.0000
# 3 34.0824 10.5275 109.5069 0.0000 0.0000 0.0000
# 4 0.0000 0.0000 0.0000 22.2295 0.0000 0.0000
# 5 0.0000 0.0000 0.0000 0.0000 30.3490 0.0000
# 6 0.0000 0.0000 0.0000 0.0000 0.0000 21.6971
#
#
#
# Elastic Compliance Matrix: (Units=1/GPa)
#
#
# Indices 1 2 3 4 5 6 
#
# 1 0.024658 -0.005265 -0.007168 0.000000 0.000000 0.000000
# 2 -0.005265 0.049601 -0.003130 0.000000 0.000000 0.000000
# 3 -0.007168 -0.003130 0.011664 0.000000 0.000000 0.000000
# 4 0.000000 0.000000 0.000000 0.044985 0.000000 0.000000
# 5 0.000000 0.000000 0.000000 0.000000 0.032950 0.000000
# 6 0.000000 0.000000 0.000000 0.000000 0.000000 0.046089
#
#
# Mechanical properties :
#
#
# Convention : Reuss Voigt Hill
#
# Bulk Modulus (GPa) = 18.24943 31.98146 25.11544
# Shear Modulus (GPa) = 19.27977 23.58571 21.43274
#
# Velocity S-wave (km/s) = 3.01352 3.33309 3.17733
# Velocity P-wave (km/s) = 4.55021 5.46597 5.02898
#
# Compressibility (1/GPa) = 0.05479622
#
# Stress axis : x y z
#
# Youngs Moduli (GPa) = 40.55476 20.16088 85.73590
#
# Poissons Ratio (x) = 0.10615 0.61458
# Poissons Ratio (y) = 0.21354 0.26832
# Poissons Ratio (z) = 0.29071 0.06310
#
# Static dielectric constant tensor:
#      x y z
#    x 1.744440 0.000000 0.000000 
#    y 0.000000 1.779160 0.000000 
#    z 0.000000 0.000000 1.806210 
# 
# From -- ./inp_files/6618.got.cif
#   From: 2010.05.17/outbox.cif.g08.bks.cpg/sg39_4_cif.got.tgz:6618.got - 2010.06.03 18:22:40.
