data_PCOD9361419
_publ_section_title
;
Structure prediction by ZEFSAII (Michael W. Deem and Ramdas Pophale) SiO2 
 PCOD9361419
Probable space group: A B M 2
;
_chemical_formula_sum "Si O2"
_cell_formula_units_Z 60
_cell_length_a 11.018245
_cell_length_b 15.189377
_cell_length_c 18.580033
_cell_angle_alpha 90.000000
_cell_angle_beta 90.000000
_cell_angle_gamma 90.000000
_cell_volume 3109.559473
_symmetry_space_group_name_H-M "A B M 2"
_symmetry_group_IT_number 39
_symmetry_cell_setting 'orthorhombic'
loop_
_space_group_symop_operation_xyz
x,y,z
-x,-y,z
-x,1/2+y,z
x,1/2-y,z
x,1/2+y,1/2+z
-x,1/2-y,1/2+z
-x,y,1/2+z
x,-y,1/2+z
loop_
_atom_site_type_symbol
_atom_site_label
_atom_site_fract_x
_atom_site_fract_y
_atom_site_fract_z
Si Si1 0.815503 0.152598 0.750000
Si Si2 0.219570 0.646262 0.123884
Si Si3 0.745387 0.005318 0.857477
Si Si4 0.750014 0.351806 0.585100
Si Si5 0.138692 0.483598 0.503104
Si Si6 0.073400 0.910559 0.262796
Si Si7 0.500000 0.500000 0.431475
Si Si8 0.470812 0.147378 0.552105
O O1 0.764368 0.250000 0.762516
O O2 0.804525 0.134362 0.664684
O O3 0.957598 0.151856 0.772258
O O4 0.746965 0.077989 0.794900
O O5 0.199636 0.750000 0.114548
O O6 0.151582 0.589198 0.064270
O O7 0.164097 0.618624 0.200095
O O8 0.362127 0.628129 0.108173
O O9 0.841625 0.931965 0.830910
O O10 0.612815 0.974206 0.880868
O O11 0.798524 0.046736 0.930123
O O12 0.776446 0.250000 0.563843
O O13 0.800744 0.426011 0.531879
O O14 0.604172 0.361805 0.586553
O O15 0.000000 0.500000 0.487599
O O16 0.000000 0.000000 0.242894
O O17 0.533862 0.580540 0.484965
O O18 0.457243 0.250000 0.529705
#
# Coordination Sequence:
#
# PCOD9361419 Si02
#       8
#     8   8   8   8   8   8   4   8
#     4  10  21  39  62  88 123 159 197 248 302 358
#     4  11  22  37  63  92 120 158 201 250 304 354
#     4  11  24  39  60  87 119 164 202 242 299 362
#     4  10  21  40  66  90 116 157 203 251 306 354
#     4  12  22  37  60  88 122 157 204 253 294 355
#     4  10  21  40  58  86 126 161 199 247 299 357
#     4  12  22  42  64  84 122 164 198 246 306 354
#     4  10  21  39  63  92 122 151 198 257 303 351
#
# _framework density 19.295338999999998
#
# number of rings (size 3 to 8) (size 9 to 14) (size 15 to 20)
#    0.000    1.333    2.667    4.400    0.000    3.733 
#    0.000    4.000    0.000    0.000    0.000    0.000 
#    0.000    0.000    0.000    0.000    0.000    0.000 
#
# Total GULP energy -167416.171116 kJ/mol
# GULP energy per Si atom -5580.539037 kJ/mol
# Density = 1.925142 g / cm^3
# Si number density = 19.295339 Si / 1000 Ang^3
#
#
#
# Elastic Constant Matrix: (Units=GPa)
#
#
# Indices 1 2 3 4 5 6 
#
# 1 100.9846 11.8194 8.3318 0.0000 0.0000 0.0000
# 2 11.8194 62.3019 11.3418 0.0000 0.0000 0.0000
# 3 8.3318 11.3418 52.7564 0.0000 0.0000 0.0000
# 4 0.0000 0.0000 0.0000 6.2120 0.0000 0.0000
# 5 0.0000 0.0000 0.0000 0.0000 34.3519 0.0000
# 6 0.0000 0.0000 0.0000 0.0000 0.0000 10.4467
#
#
#
# Elastic Compliance Matrix: (Units=1/GPa)
#
#
# Indices 1 2 3 4 5 6 
#
# 1 0.010205 -0.001710 -0.001244 0.000000 0.000000 0.000000
# 2 -0.001710 0.016991 -0.003383 0.000000 0.000000 0.000000
# 3 -0.001244 -0.003383 0.019879 0.000000 0.000000 0.000000
# 4 0.000000 0.000000 0.000000 0.160980 0.000000 0.000000
# 5 0.000000 0.000000 0.000000 0.000000 0.029110 0.000000
# 6 0.000000 0.000000 0.000000 0.000000 0.000000 0.095724
#
#
# Mechanical properties :
#
#
# Convention : Reuss Voigt Hill
#
# Bulk Modulus (GPa) = 29.06812 31.00322 30.03567
# Shear Modulus (GPa) = 14.00442 22.50543 18.25493
#
# Velocity S-wave (km/s) = 2.69698 3.41892 3.07918
# Velocity P-wave (km/s) = 4.97954 5.62920 5.31431
#
# Compressibility (1/GPa) = 0.03440195
#
# Stress axis : x y z
#
# Youngs Moduli (GPa) = 97.98890 58.85459 50.30482
#
# Poissons Ratio (x) = 0.10062 0.06259
# Poissons Ratio (y) = 0.16752 0.17017
# Poissons Ratio (z) = 0.12192 0.19909
#
# Static dielectric constant tensor:
#      x y z
#    x 1.701530 0.000000 0.000000 
#    y 0.000000 1.705070 0.000000 
#    z 0.000000 0.000000 1.631250 
# 
# From -- ./inp_files/12311.got.cif
#   From: 2010.05.17/outbox.cif.g08.bks.cpg/sg39_7_cif.got.tgz:12311.got - 2010.06.03 18:22:40.
