data_PCOD9361543
_publ_section_title
;
Structure prediction by ZEFSAII (Michael W. Deem and Ramdas Pophale) SiO2 
 PCOD9361543
Probable space group: A B M 2
;
_chemical_formula_sum "Si O2"
_cell_formula_units_Z 56
_cell_length_a 9.126746
_cell_length_b 19.829413
_cell_length_c 14.044266
_cell_angle_alpha 90.000000
_cell_angle_beta 90.000000
_cell_angle_gamma 90.000000
_cell_volume 2541.703394
_symmetry_space_group_name_H-M "A B M 2"
_symmetry_group_IT_number 39
_symmetry_cell_setting 'orthorhombic'
loop_
_space_group_symop_operation_xyz
x,y,z
-x,-y,z
-x,1/2+y,z
x,1/2-y,z
x,1/2+y,1/2+z
-x,1/2-y,1/2+z
-x,y,1/2+z
x,-y,1/2+z
loop_
_atom_site_type_symbol
_atom_site_label
_atom_site_fract_x
_atom_site_fract_y
_atom_site_fract_z
Si Si1 0.941517 0.428914 0.039230
Si Si2 0.027440 0.919127 0.320618
Si Si3 0.606778 0.436701 0.993863
Si Si4 0.395396 0.820938 0.529856
Si Si5 0.834538 0.868155 0.172373
Si Si6 0.425231 0.928589 0.768582
Si Si7 0.313474 0.669493 0.308058
O O1 0.000000 0.500000 0.075032
O O2 0.021933 0.377794 0.108263
O O3 0.768240 0.435302 0.035912
O O4 0.006148 0.418504 0.933821
O O5 0.182651 0.885180 0.291789
O O6 0.909033 0.866807 0.276011
O O7 0.000000 0.000000 0.294814
O O8 0.500000 0.500000 0.006286
O O9 0.625250 0.428815 0.879473
O O10 0.515058 0.377542 0.040513
O O11 0.474445 0.750000 0.532075
O O12 0.268887 0.821478 0.608743
O O13 0.330532 0.830201 0.423502
O O14 0.711138 0.924207 0.197182
O O15 0.539460 0.865548 0.765238
O O16 0.500000 0.000000 0.751927
O O17 0.294434 0.750000 0.281114
#
# Coordination Sequence:
#
# PCOD9361543 Si02
#       7
#     8   8   8   8   8   8   8
#     4  11  23  39  64 100 141 181 223 285 351 410
#     4  11  23  40  66 102 143 181 231 288 347 420
#     4  10  21  41  68  95 129 181 232 283 349 415
#     4  10  23  42  65  94 133 176 231 289 341 414
#     4  12  23  39  64 100 136 177 229 283 352 411
#     4  10  22  39  67  98 130 175 236 295 343 422
#     4  10  22  44  68  95 135 189 234 285 358 424
#
# _framework density 22.032468000000001
#
# number of rings (size 3 to 8) (size 9 to 14) (size 15 to 20)
#    0.000    1.429    2.857    2.143    8.000    4.000 
#    0.000    1.429    0.000    0.000    0.000    0.000 
#    0.000    0.000    0.000    0.000    0.000    0.000 
#
# Total GULP energy -155940.350348 kJ/mol
# GULP energy per Si atom -5569.298227 kJ/mol
# Density = 2.198232 g / cm^3
# Si number density = 22.032468 Si / 1000 Ang^3
#
#
#
# Elastic Constant Matrix: (Units=GPa)
#
#
# Indices 1 2 3 4 5 6 
#
# 1 157.1766 64.8691 11.9729 0.0000 0.0000 0.0000
# 2 64.8691 121.7053 18.8246 0.0000 0.0000 0.0000
# 3 11.9729 18.8246 80.5612 0.0000 0.0000 0.0000
# 4 0.0000 0.0000 0.0000 -8.7546 0.0000 0.0000
# 5 0.0000 0.0000 0.0000 0.0000 16.6001 0.0000
# 6 0.0000 0.0000 0.0000 0.0000 0.0000 18.9129
#
#
#
# Elastic Compliance Matrix: (Units=1/GPa)
#
#
# Indices 1 2 3 4 5 6 
#
# 1 0.008160 -0.004318 -0.000204 0.000000 0.000000 0.000000
# 2 -0.004318 0.010809 -0.001884 0.000000 0.000000 0.000000
# 3 -0.000204 -0.001884 0.012883 0.000000 0.000000 0.000000
# 4 0.000000 0.000000 0.000000 -0.114225 0.000000 0.000000
# 5 0.000000 0.000000 0.000000 0.000000 0.060241 0.000000
# 6 0.000000 0.000000 0.000000 0.000000 0.000000 0.052874
#
#
# Mechanical properties :
#
#
# Convention : Reuss Voigt Hill
#
# Bulk Modulus (GPa) = 52.51706 61.19737 56.85721
# Shear Modulus (GPa) = 100.20075 22.93677 61.56876
#
# Velocity S-wave (km/s) = 6.75110 3.23002 5.29200
# Velocity P-wave (km/s) = 9.20097 6.46119 7.95000
#
# Compressibility (1/GPa) = 0.01904143
#
# Stress axis : x y z
#
# Youngs Moduli (GPa) = 122.55280 92.51294 77.61888
#
# Poissons Ratio (x) = 0.39944 0.01582
# Poissons Ratio (y) = 0.52914 0.14624
# Poissons Ratio (z) = 0.02498 0.17430
#
# Static dielectric constant tensor:
#      x y z
#    x 2.243870 0.000000 0.000000 
#    y 0.000000 1.764440 0.000000 
#    z 0.000000 0.000000 1.861050 
# 
# From -- ./inp_files/8625.got.cif
#   From: 2010.05.17/outbox.cif.g08.bks.cpg/sg39_5_cif.got.tgz:8625.got - 2010.06.03 18:22:40.
