data_PCOD9361423
_publ_section_title
;
Structure prediction by ZEFSAII (Michael W. Deem and Ramdas Pophale) SiO2 
 PCOD9361423
Probable space group: A B M 2
;
_chemical_formula_sum "Si O2"
_cell_formula_units_Z 64
_cell_length_a 8.327907
_cell_length_b 30.431801
_cell_length_c 12.363830
_cell_angle_alpha 90.000000
_cell_angle_beta 90.000000
_cell_angle_gamma 90.000000
_cell_volume 3133.405107
_symmetry_space_group_name_H-M "A B M 2"
_symmetry_group_IT_number 39
_symmetry_cell_setting 'orthorhombic'
loop_
_space_group_symop_operation_xyz
x,y,z
-x,-y,z
-x,1/2+y,z
x,1/2-y,z
x,1/2+y,1/2+z
-x,1/2-y,1/2+z
-x,y,1/2+z
x,-y,1/2+z
loop_
_atom_site_type_symbol
_atom_site_label
_atom_site_fract_x
_atom_site_fract_y
_atom_site_fract_z
Si Si1 0.699081 0.574890 0.358300
Si Si2 0.163006 0.567828 0.627140
Si Si3 0.803470 0.103189 0.162434
Si Si4 0.316711 0.801860 0.756656
Si Si5 0.321672 0.482932 0.552417
Si Si6 0.214392 0.341284 0.030536
Si Si7 0.136296 0.846353 0.954842
Si Si8 0.412316 0.858950 0.341423
O O1 0.727030 0.568181 0.233069
O O2 0.693730 0.531196 0.427665
O O3 0.845576 0.605295 0.400999
O O4 0.537361 0.602996 0.375594
O O5 0.189285 0.519753 0.578746
O O6 0.221781 0.606034 0.547432
O O7 0.984901 0.584169 0.660042
O O8 0.701843 0.061802 0.119890
O O9 0.735796 0.120390 0.275570
O O10 0.793099 0.142771 0.074157
O O11 0.333322 0.750000 0.750827
O O12 0.230183 0.819692 0.648365
O O13 0.225076 0.815761 0.867665
O O14 0.485200 0.827322 0.763965
O O15 0.500000 0.500000 0.573043
O O16 0.353652 0.331781 0.945213
O O17 0.043723 0.331005 0.976494
#
# Coordination Sequence:
#
# PCOD9361423 Si02
#       8
#     8   8   8   8   8   8   8   8
#     4  10  21  39  62  91 130 173 222 273 335 390
#     4  11  21  41  65  93 131 175 229 277 327 399
#     4  10  23  41  67  96 127 181 229 271 335 394
#     4  11  26  45  69 102 135 170 221 282 341 412
#     4  11  23  36  58  92 133 173 228 276 326 388
#     4  11  23  41  72  97 132 176 222 267 340 409
#     4   9  21  43  70  92 129 174 217 273 331 406
#     4  11  23  40  70  96 134 180 219 277 342 414
#
# _framework density 20.425063999999999
#
# number of rings (size 3 to 8) (size 9 to 14) (size 15 to 20)
#    0.000    1.500    2.500    2.625    7.000    3.500 
#    0.000    5.000    0.000    0.000    0.000    0.000 
#    0.000    0.000    0.000    0.000    0.000    0.000 
#
# Total GULP energy -178639.298934 kJ/mol
# GULP energy per Si atom -5582.478092 kJ/mol
# Density = 2.037858 g / cm^3
# Si number density = 20.425064 Si / 1000 Ang^3
#
#
#
# Elastic Constant Matrix: (Units=GPa)
#
#
# Indices 1 2 3 4 5 6 
#
# 1 97.9246 31.7706 32.2671 0.0000 0.0000 0.0000
# 2 31.7706 67.2685 12.9372 0.0000 0.0000 0.0000
# 3 32.2671 12.9372 55.3464 0.0000 0.0000 0.0000
# 4 0.0000 0.0000 0.0000 18.0339 0.0000 0.0000
# 5 0.0000 0.0000 0.0000 0.0000 34.3260 0.0000
# 6 0.0000 0.0000 0.0000 0.0000 0.0000 2.1347
#
#
#
# Elastic Compliance Matrix: (Units=1/GPa)
#
#
# Indices 1 2 3 4 5 6 
#
# 1 0.014291 -0.005389 -0.007072 0.000000 0.000000 0.000000
# 2 -0.005389 0.017598 -0.000972 0.000000 0.000000 0.000000
# 3 -0.007072 -0.000972 0.022418 0.000000 0.000000 0.000000
# 4 0.000000 0.000000 0.000000 0.055451 0.000000 0.000000
# 5 0.000000 0.000000 0.000000 0.000000 0.029132 0.000000
# 6 0.000000 0.000000 0.000000 0.000000 0.000000 0.468452
#
#
# Mechanical properties :
#
#
# Convention : Reuss Voigt Hill
#
# Bulk Modulus (GPa) = 36.44128 41.60991 39.02560
# Shear Modulus (GPa) = 7.77177 20.46989 14.12083
#
# Velocity S-wave (km/s) = 1.95276 3.16918 2.63220
# Velocity P-wave (km/s) = 4.79213 5.81445 5.32787
#
# Compressibility (1/GPa) = 0.02744141
#
# Stress axis : x y z
#
# Youngs Moduli (GPa) = 69.97578 56.82455 44.60716
#
# Poissons Ratio (x) = 0.30625 0.31545
# Poissons Ratio (y) = 0.37713 0.04334
# Poissons Ratio (z) = 0.49485 0.05521
#
# Static dielectric constant tensor:
#      x y z
#    x 1.755670 0.000000 0.000000 
#    y 0.000000 1.702030 0.000000 
#    z 0.000000 0.000000 1.759630 
# 
# From -- ./inp_files/5401.got.cif
#   From: 2010.05.17/outbox.cif.g08.bks.cpg/sg39_3_cif.got.tgz:5401.got - 2010.06.03 18:22:40.
