data_PCOD9361041
_publ_section_title
;
Structure prediction by ZEFSAII (Michael W. Deem and Ramdas Pophale) SiO2 
 PCOD9361041
Probable space group: A B M 2
;
_chemical_formula_sum "Si O2"
_cell_formula_units_Z 40
_cell_length_a 9.379479
_cell_length_b 8.600555
_cell_length_c 25.963504
_cell_angle_alpha 90.000000
_cell_angle_beta 90.000000
_cell_angle_gamma 90.000000
_cell_volume 2094.442764
_symmetry_space_group_name_H-M "A B M 2"
_symmetry_group_IT_number 39
_symmetry_cell_setting 'orthorhombic'
loop_
_space_group_symop_operation_xyz
x,y,z
-x,-y,z
-x,1/2+y,z
x,1/2-y,z
x,1/2+y,1/2+z
-x,1/2-y,1/2+z
-x,y,1/2+z
x,-y,1/2+z
loop_
_atom_site_type_symbol
_atom_site_label
_atom_site_fract_x
_atom_site_fract_y
_atom_site_fract_z
Si Si1 0.839671 0.063961 0.712020
Si Si2 0.156780 0.436924 0.904888
Si Si3 0.659504 0.937258 0.807814
Si Si4 0.340275 0.435834 0.616081
Si Si5 0.158646 0.062665 0.023011
O O1 0.841907 0.250000 0.711785
O O2 0.756935 0.002933 0.762184
O O3 0.755753 0.002852 0.662131
O O4 0.000000 0.000000 0.711780
O O5 0.149849 0.250000 0.904094
O O6 0.270915 0.486024 0.862335
O O7 0.000000 0.500000 0.891763
O O8 0.190346 0.483229 0.963713
O O9 0.658542 0.750000 0.805046
O O10 0.500000 0.000000 0.802785
O O11 0.500000 0.500000 0.620836
O O12 0.341594 0.250000 0.618721
O O13 0.269984 0.491683 0.562766
O O14 0.159237 0.250000 0.026848
O O15 0.000000 0.000000 0.035014
#
# Coordination Sequence:
#
# PCOD9361041 Si02
#       5
#     8   8   8   8   8
#     4  12  25  43  65  90 118 154 196 243 293 351
#     4   9  20  37  60  87 119 156 199 244 292 346
#     4  11  23  40  60  88 122 159 198 243 295 351
#     4  12  25  42  62  88 120 157 196 243 297 353
#     4  10  20  38  61  89 121 158 200 245 292 347
#
# _framework density 19.098158000000002
#
# number of rings (size 3 to 8) (size 9 to 14) (size 15 to 20)
#    0.000    1.200    0.000    6.600    0.000    4.800 
#    0.000    2.000    0.000    0.000    0.000    0.000 
#    0.000    0.000    0.000    0.000    0.000    0.000 
#
# Total GULP energy -111888.028209 kJ/mol
# GULP energy per Si atom -5594.401410 kJ/mol
# Density = 1.905469 g / cm^3
# Si number density = 19.098158 Si / 1000 Ang^3
#
#
#
# Elastic Constant Matrix: (Units=GPa)
#
#
# Indices 1 2 3 4 5 6 
#
# 1 199.1898 71.4592 116.1639 0.0000 0.0000 0.0000
# 2 71.4592 129.0495 58.4499 0.0000 0.0000 0.0000
# 3 116.1639 58.4499 127.5242 0.0000 0.0000 0.0000
# 4 0.0000 0.0000 0.0000 28.2606 0.0000 0.0000
# 5 0.0000 0.0000 0.0000 0.0000 27.8519 0.0000
# 6 0.0000 0.0000 0.0000 0.0000 0.0000 39.2755
#
#
#
# Elastic Compliance Matrix: (Units=1/GPa)
#
#
# Indices 1 2 3 4 5 6 
#
# 1 0.011095 -0.001976 -0.009201 0.000000 0.000000 0.000000
# 2 -0.001976 0.010131 -0.002843 0.000000 0.000000 0.000000
# 3 -0.009201 -0.002843 0.017526 0.000000 0.000000 0.000000
# 4 0.000000 0.000000 0.000000 0.035385 0.000000 0.000000
# 5 0.000000 0.000000 0.000000 0.000000 0.035904 0.000000
# 6 0.000000 0.000000 0.000000 0.000000 0.000000 0.025461
#
#
# Mechanical properties :
#
#
# Convention : Reuss Voigt Hill
#
# Bulk Modulus (GPa) = 93.35891 105.32327 99.34109
# Shear Modulus (GPa) = 29.91969 33.05698 31.48833
#
# Velocity S-wave (km/s) = 3.96236 4.16492 4.06490
# Velocity P-wave (km/s) = 8.36203 8.85420 8.61163
#
# Compressibility (1/GPa) = 0.01071135
#
# Stress axis : x y z
#
# Youngs Moduli (GPa) = 90.12924 98.70558 57.05802
#
# Poissons Ratio (x) = 0.19509 0.52498
# Poissons Ratio (y) = 0.17814 0.16222
# Poissons Ratio (z) = 0.82927 0.28063
#
# Static dielectric constant tensor:
#      x y z
#    x 1.613980 0.000000 0.000000 
#    y 0.000000 1.641790 0.000000 
#    z 0.000000 0.000000 1.661600 
# 
# From -- ./inp_files/15453.got.cif
#   From: 2010.05.17/outbox.cif.g08.bks.cpg/sg39_8_cif.got.tgz:15453.got - 2010.06.03 18:22:40.
