data_PCOD9361210
_publ_section_title
;
Structure prediction by ZEFSAII (Michael W. Deem and Ramdas Pophale) SiO2 
 PCOD9361210
Probable space group: A B M 2
;
_chemical_formula_sum "Si O2"
_cell_formula_units_Z 64
_cell_length_a 20.172714
_cell_length_b 14.285363
_cell_length_c 11.263864
_cell_angle_alpha 90.000000
_cell_angle_beta 90.000000
_cell_angle_gamma 90.000000
_cell_volume 3245.958851
_symmetry_space_group_name_H-M "A B M 2"
_symmetry_group_IT_number 39
_symmetry_cell_setting 'orthorhombic'
loop_
_space_group_symop_operation_xyz
x,y,z
-x,-y,z
-x,1/2+y,z
x,1/2-y,z
x,1/2+y,1/2+z
-x,1/2-y,1/2+z
-x,y,1/2+z
x,-y,1/2+z
loop_
_atom_site_type_symbol
_atom_site_label
_atom_site_fract_x
_atom_site_fract_y
_atom_site_fract_z
Si Si1 0.594402 0.491553 0.034270
Si Si2 0.831032 0.642723 0.020027
Si Si3 0.615014 0.644181 0.747923
Si Si4 0.494291 0.357077 0.953717
Si Si5 0.279023 0.531771 0.390940
Si Si6 0.055431 0.636645 0.854541
Si Si7 0.207685 0.642973 0.792188
Si Si8 0.019999 0.363591 0.090506
O O1 0.594654 0.426838 0.147252
O O2 0.557488 0.424732 0.937043
O O3 0.550907 0.585312 0.047761
O O4 0.668352 0.515327 0.995937
O O5 0.831237 0.750000 0.976339
O O6 0.797805 0.642062 0.149944
O O7 0.906657 0.613841 0.041905
O O8 0.788344 0.578282 0.935527
O O9 0.625920 0.750000 0.706128
O O10 0.555362 0.645519 0.842657
O O11 0.681452 0.602742 0.806259
O O12 0.510639 0.250000 0.986072
O O13 0.260418 0.432725 0.333994
O O14 0.048963 0.750000 0.855001
O O15 0.133675 0.617566 0.838576
O O16 0.018634 0.606209 0.730456
O O17 0.028908 0.604457 0.983974
O O18 0.222217 0.750000 0.829886
O O19 0.014898 0.250000 0.095458
#
# Coordination Sequence:
#
# PCOD9361210 Si02
#       8
#     8   8   8   8   8   8   8   8
#     4  10  21  35  56  82 109 138 175 222 270 314
#     4   9  18  35  56  76 103 143 185 223 268 329
#     4  10  21  38  58  81 110 140 172 220 274 318
#     4   9  20  38  58  79 105 139 176 214 263 324
#     4  11  21  35  54  79 108 142 182 220 264 323
#     4   8  14  28  50  76 105 139 181 231 283 333
#     4   9  19  35  54  76 107 145 183 225 272 324
#     4   8  14  27  51  78 103 136 181 231 281 332
#
# _framework density 19.716823999999999
#
# number of rings (size 3 to 8) (size 9 to 14) (size 15 to 20)
#    0.000    2.750    0.000    3.000    0.000    5.500 
#    0.000    3.750    0.000    9.750    0.000    0.000 
#    0.000    0.000    0.000    0.000    0.000    0.000 
#
# Total GULP energy -178311.993341 kJ/mol
# GULP energy per Si atom -5572.249792 kJ/mol
# Density = 1.967195 g / cm^3
# Si number density = 19.716824 Si / 1000 Ang^3
#
#
#
# Elastic Constant Matrix: (Units=GPa)
#
#
# Indices 1 2 3 4 5 6 
#
# 1 15.7223 5.8451 3.5232 0.0000 0.0000 0.0000
# 2 5.8451 79.8884 5.6807 0.0000 0.0000 0.0000
# 3 3.5232 5.6807 39.8787 0.0000 0.0000 0.0000
# 4 0.0000 0.0000 0.0000 12.9669 0.0000 0.0000
# 5 0.0000 0.0000 0.0000 0.0000 15.6729 0.0000
# 6 0.0000 0.0000 0.0000 0.0000 0.0000 2.0837
#
#
#
# Elastic Compliance Matrix: (Units=1/GPa)
#
#
# Indices 1 2 3 4 5 6 
#
# 1 0.066445 -0.004490 -0.005231 0.000000 0.000000 0.000000
# 2 -0.004490 0.012949 -0.001448 0.000000 0.000000 0.000000
# 3 -0.005231 -0.001448 0.025744 0.000000 0.000000 0.000000
# 4 0.000000 0.000000 0.000000 0.077120 0.000000 0.000000
# 5 0.000000 0.000000 0.000000 0.000000 0.063804 0.000000
# 6 0.000000 0.000000 0.000000 0.000000 0.000000 0.479913
#
#
# Mechanical properties :
#
#
# Convention : Reuss Voigt Hill
#
# Bulk Modulus (GPa) = 12.07701 18.39860 15.23781
# Shear Modulus (GPa) = 6.44403 14.17406 10.30904
#
# Velocity S-wave (km/s) = 1.80980 2.68411 2.28908
# Velocity P-wave (km/s) = 3.24125 4.35403 3.83818
#
# Compressibility (1/GPa) = 0.08280193
#
# Stress axis : x y z
#
# Youngs Moduli (GPa) = 15.05004 77.22657 38.84341
#
# Poissons Ratio (x) = 0.34671 0.20318
# Poissons Ratio (y) = 0.06757 0.05624
# Poissons Ratio (z) = 0.07872 0.11182
#
# Static dielectric constant tensor:
#      x y z
#    x 1.692060 0.000000 0.000000 
#    y 0.000000 1.698260 0.000000 
#    z 0.000000 0.000000 1.722630 
# 
# From -- ./inp_files/6872.got.cif
#   From: 2010.05.17/outbox.cif.g08.bks.cpg/sg39_4_cif.got.tgz:6872.got - 2010.06.03 18:22:40.
