data_PCOD9361887
_publ_section_title
;
Structure prediction by ZEFSAII (Michael W. Deem and Ramdas Pophale) SiO2 
 PCOD9361887
Probable space group: A B M 2
;
_chemical_formula_sum "Si O2"
_cell_formula_units_Z 64
_cell_length_a 12.318306
_cell_length_b 26.506647
_cell_length_c 9.629155
_cell_angle_alpha 90.000000
_cell_angle_beta 90.000000
_cell_angle_gamma 90.000000
_cell_volume 3144.082695
_symmetry_space_group_name_H-M "A B M 2"
_symmetry_group_IT_number 39
_symmetry_cell_setting 'orthorhombic'
loop_
_space_group_symop_operation_xyz
x,y,z
-x,-y,z
-x,1/2+y,z
x,1/2-y,z
x,1/2+y,1/2+z
-x,1/2-y,1/2+z
-x,y,1/2+z
x,-y,1/2+z
loop_
_atom_site_type_symbol
_atom_site_label
_atom_site_fract_x
_atom_site_fract_y
_atom_site_fract_z
Si Si1 0.233274 0.517504 0.706370
Si Si2 0.284214 0.882876 0.882828
Si Si3 0.086040 0.192228 0.109123
Si Si4 0.483520 0.390506 0.013182
Si Si5 0.043677 0.636122 0.892798
Si Si6 0.904905 0.463958 0.439677
Si Si7 0.437220 0.953228 0.257451
Si Si8 0.671271 0.690997 0.134231
O O1 0.274234 0.566010 0.792579
O O2 0.186129 0.536347 0.559791
O O3 0.143270 0.490227 0.802277
O O4 0.328344 0.476245 0.693327
O O5 0.389176 0.884543 0.979315
O O6 0.307262 0.835615 0.781868
O O7 0.164448 0.877261 0.947428
O O8 0.076718 0.250000 0.158260
O O9 0.210988 0.185172 0.061956
O O10 0.059591 0.153819 0.234195
O O11 0.006312 0.180630 0.983657
O O12 0.423625 0.412414 0.877935
O O13 0.486151 0.430092 0.139087
O O14 0.423319 0.340147 0.060563
O O15 0.961255 0.589330 0.907155
O O16 0.000000 0.500000 0.494558
O O17 0.500000 0.000000 0.326190
O O18 0.646382 0.750000 0.146390
#
# Coordination Sequence:
#
# PCOD9361887 Si02
#       8
#     8   8   8   8   8   8   8   8
#     4  12  26  42  63  99 140 180 226 272 326 400
#     4  11  23  44  67  98 135 178 225 273 336 401
#     4  10  23  45  72  99 129 174 227 281 343 400
#     4  12  24  45  65 100 129 173 230 273 336 403
#     4  11  24  41  70  97 137 177 220 279 334 399
#     4  12  26  41  63  96 140 181 223 265 331 397
#     4  12  26  39  68  94 135 177 222 274 330 392
#     4  10  23  45  71  96 133 175 220 285 351 401
#
# _framework density 20.355699000000001
#
# number of rings (size 3 to 8) (size 9 to 14) (size 15 to 20)
#    0.000    0.750    3.750    3.375    7.000    1.000 
#    0.000    0.000    0.000    0.000    0.000    0.000 
#    0.000    0.000    0.000    0.000    0.000    0.000 
#
# Total GULP energy -178880.636305 kJ/mol
# GULP energy per Si atom -5590.019885 kJ/mol
# Density = 2.030937 g / cm^3
# Si number density = 20.355699 Si / 1000 Ang^3
#
#
#
# Elastic Constant Matrix: (Units=GPa)
#
#
# Indices 1 2 3 4 5 6 
#
# 1 112.5696 59.7336 29.6651 0.0000 0.0000 0.0000
# 2 59.7336 95.9584 27.3496 0.0000 0.0000 0.0000
# 3 29.6651 27.3496 55.2155 0.0000 0.0000 0.0000
# 4 0.0000 0.0000 0.0000 31.7040 0.0000 0.0000
# 5 0.0000 0.0000 0.0000 0.0000 44.2447 0.0000
# 6 0.0000 0.0000 0.0000 0.0000 0.0000 37.7170
#
#
#
# Elastic Compliance Matrix: (Units=1/GPa)
#
#
# Indices 1 2 3 4 5 6 
#
# 1 0.013886 -0.007589 -0.003701 0.000000 0.000000 0.000000
# 2 -0.007589 0.016282 -0.003988 0.000000 0.000000 0.000000
# 3 -0.003701 -0.003988 0.022075 0.000000 0.000000 0.000000
# 4 0.000000 0.000000 0.000000 0.031542 0.000000 0.000000
# 5 0.000000 0.000000 0.000000 0.000000 0.022602 0.000000
# 6 0.000000 0.000000 0.000000 0.000000 0.000000 0.026513
#
#
# Mechanical properties :
#
#
# Convention : Reuss Voigt Hill
#
# Bulk Modulus (GPa) = 46.11147 55.24891 50.68019
# Shear Modulus (GPa) = 29.29410 32.53282 30.91346
#
# Velocity S-wave (km/s) = 3.79768 4.00211 3.90123
# Velocity P-wave (km/s) = 6.47548 6.96825 6.72638
#
# Compressibility (1/GPa) = 0.02168658
#
# Stress axis : x y z
#
# Youngs Moduli (GPa) = 72.01647 61.41855 45.30108
#
# Poissons Ratio (x) = 0.46610 0.16767
# Poissons Ratio (y) = 0.54652 0.18064
# Poissons Ratio (z) = 0.26655 0.24491
#
# Static dielectric constant tensor:
#      x y z
#    x 1.770500 0.000000 0.000000 
#    y 0.000000 1.706040 0.000000 
#    z 0.000000 0.000000 1.723990 
# 
# From -- ./inp_files/2891.got.cif
#   From: 2010.05.17/outbox.cif.g08.bks.cpg/sg39_2_cif.got.tgz:2891.got - 2010.06.03 18:22:40.
