data_PCOD9361270
_publ_section_title
;
Structure prediction by ZEFSAII (Michael W. Deem and Ramdas Pophale) SiO2 
 PCOD9361270
Probable space group: A B M 2
;
_chemical_formula_sum "Si O2"
_cell_formula_units_Z 64
_cell_length_a 26.196411
_cell_length_b 25.723393
_cell_length_c 5.031764
_cell_angle_alpha 90.000000
_cell_angle_beta 90.000000
_cell_angle_gamma 90.000000
_cell_volume 3390.707384
_symmetry_space_group_name_H-M "A B M 2"
_symmetry_group_IT_number 39
_symmetry_cell_setting 'orthorhombic'
loop_
_space_group_symop_operation_xyz
x,y,z
-x,-y,z
-x,1/2+y,z
x,1/2-y,z
x,1/2+y,1/2+z
-x,1/2-y,1/2+z
-x,y,1/2+z
x,-y,1/2+z
loop_
_atom_site_type_symbol
_atom_site_label
_atom_site_fract_x
_atom_site_fract_y
_atom_site_fract_z
Si Si1 0.838548 0.532332 0.580230
Si Si2 0.469820 0.313168 0.708702
Si Si3 0.861613 0.852492 0.741967
Si Si4 0.694183 0.647927 0.450802
Si Si5 0.638264 0.311185 0.445466
Si Si6 0.196934 0.688452 0.744871
Si Si7 0.284357 0.532536 0.113503
Si Si8 0.031305 0.687502 0.456872
O O1 0.852291 0.513007 0.287671
O O2 0.861251 0.587156 0.664145
O O3 0.777128 0.538541 0.596866
O O4 0.468077 0.250000 0.705260
O O5 0.485935 0.329187 0.414570
O O6 0.415309 0.329941 0.821464
O O7 0.844221 0.821390 0.478847
O O8 0.916079 0.835903 0.855740
O O9 0.821363 0.839845 0.976697
O O10 0.679559 0.680213 0.713215
O O11 0.749969 0.664393 0.346546
O O12 0.693245 0.587706 0.531747
O O13 0.655447 0.660476 0.212458
O O14 0.633772 0.250000 0.508286
O O15 0.202347 0.750000 0.696316
O O16 0.298082 0.512658 0.405102
O O17 0.036853 0.750000 0.448247
O O18 0.013719 0.672940 0.751635
#
# Coordination Sequence:
#
# PCOD9361270 Si02
#       8
#     8   8   8   8   8   8   8   8
#     4  10  21  37  59  82 107 139 187 236 278 321
#     4   9  17  31  51  74 103 144 194 237 268 308
#     4  12  23  39  60  84 111 146 191 229 274 330
#     4  12  23  37  53  80 117 153 186 221 279 339
#     4  11  22  35  53  79 118 160 187 220 275 339
#     4  12  24  36  54  83 118 154 184 219 261 333
#     4  10  21  37  57  77 105 143 190 237 275 314
#     4  10  21  38  59  82 109 142 180 227 279 328
#
# _framework density 18.875118000000001
#
# number of rings (size 3 to 8) (size 9 to 14) (size 15 to 20)
#    0.000    1.250    1.250    6.000    3.500    3.000 
#    0.000    0.000    0.000    2.250    0.000    0.000 
#    0.000   35.000    0.000    0.000    0.000    0.000 
#
# Total GULP energy -178895.122766 kJ/mol
# GULP energy per Si atom -5590.472586 kJ/mol
# Density = 1.883216 g / cm^3
# Si number density = 18.875118 Si / 1000 Ang^3
#
#
#
# Elastic Constant Matrix: (Units=GPa)
#
#
# Indices 1 2 3 4 5 6 
#
# 1 37.6364 11.7176 -7.4556 0.0000 0.0000 0.0000
# 2 11.7176 53.8678 -5.8594 0.0000 0.0000 0.0000
# 3 -7.4556 -5.8594 59.8788 0.0000 0.0000 0.0000
# 4 0.0000 0.0000 0.0000 25.0889 0.0000 0.0000
# 5 0.0000 0.0000 0.0000 0.0000 28.0230 0.0000
# 6 0.0000 0.0000 0.0000 0.0000 0.0000 0.2527
#
#
#
# Elastic Compliance Matrix: (Units=1/GPa)
#
#
# Indices 1 2 3 4 5 6 
#
# 1 0.029034 -0.005986 0.003029 0.000000 0.000000 0.000000
# 2 -0.005986 0.019998 0.001212 0.000000 0.000000 0.000000
# 3 0.003029 0.001212 0.017196 0.000000 0.000000 0.000000
# 4 0.000000 0.000000 0.000000 0.039858 0.000000 0.000000
# 5 0.000000 0.000000 0.000000 0.000000 0.035685 0.000000
# 6 0.000000 0.000000 0.000000 0.000000 0.000000 3.957370
#
#
# Mechanical properties :
#
#
# Convention : Reuss Voigt Hill
#
# Bulk Modulus (GPa) = 15.93949 16.46537 16.20243
# Shear Modulus (GPa) = 1.21255 20.87161 11.04208
#
# Velocity S-wave (km/s) = 0.80237 3.32893 2.42132
# Velocity P-wave (km/s) = 3.05310 4.84953 4.05212
#
# Compressibility (1/GPa) = 0.06273725
#
# Stress axis : x y z
#
# Youngs Moduli (GPa) = 34.44260 50.00532 58.15261
#
# Poissons Ratio (x) = 0.29934 -0.17616
# Poissons Ratio (y) = 0.20618 -0.07046
# Poissons Ratio (z) = -0.10434 -0.06058
#
# Static dielectric constant tensor:
#      x y z
#    x 1.665600 0.000000 0.000000 
#    y 0.000000 1.625980 0.000000 
#    z 0.000000 0.000000 1.657190 
# 
# From -- ./inp_files/1318.got.cif
#   From: 2010.05.17/outbox.cif.g08.bks.cpg/sg39_1_cif.got.tgz:1318.got - 2010.06.03 18:22:40.
