data_PCOD9361575
_publ_section_title
;
Structure prediction by ZEFSAII (Michael W. Deem and Ramdas Pophale) SiO2 
 PCOD9361575
Probable space group: A B M 2
;
_chemical_formula_sum "Si O2"
_cell_formula_units_Z 64
_cell_length_a 14.171638
_cell_length_b 16.941449
_cell_length_c 12.436316
_cell_angle_alpha 90.000000
_cell_angle_beta 90.000000
_cell_angle_gamma 90.000000
_cell_volume 2985.811261
_symmetry_space_group_name_H-M "A B M 2"
_symmetry_group_IT_number 39
_symmetry_cell_setting 'orthorhombic'
loop_
_space_group_symop_operation_xyz
x,y,z
-x,-y,z
-x,1/2+y,z
x,1/2-y,z
x,1/2+y,1/2+z
-x,1/2-y,1/2+z
-x,y,1/2+z
x,-y,1/2+z
loop_
_atom_site_type_symbol
_atom_site_label
_atom_site_fract_x
_atom_site_fract_y
_atom_site_fract_z
Si Si1 0.838823 0.656643 0.756990
Si Si2 0.162857 0.159619 0.125698
Si Si3 0.469711 0.161053 0.232709
Si Si4 0.033838 0.089908 0.947702
Si Si5 0.353534 0.075577 0.805875
Si Si6 0.281599 0.400729 0.324606
Si Si7 0.636817 0.662997 0.010094
Si Si8 0.158456 0.157647 0.507995
O O1 0.856384 0.750000 0.769091
O O2 0.901234 0.611484 0.845558
O O3 0.729886 0.636388 0.778719
O O4 0.855403 0.633857 0.632491
O O5 0.127736 0.250000 0.136832
O O6 0.202569 0.129269 0.239595
O O7 0.255817 0.161249 0.050824
O O8 0.089175 0.107653 0.059080
O O9 0.506010 0.250000 0.249101
O O10 0.551755 0.097396 0.244101
O O11 0.378914 0.147414 0.309380
O O12 0.427210 0.156106 0.114125
O O13 0.000000 0.000000 0.942725
O O14 0.941029 0.143953 0.949744
O O15 0.310933 0.989238 0.794123
O O16 0.379924 0.092891 0.928910
O O17 0.236918 0.391066 0.442406
O O18 0.620019 0.750000 0.961610
O O19 0.184751 0.250000 0.505362
#
# Coordination Sequence:
#
# PCOD9361575 Si02
#       8
#     8   8   8   8   8   8   8   8
#     4  11  25  45  68  98 138 187 238 287 356 431
#     4  10  21  43  73  95 130 186 234 280 339 431
#     4  10  22  42  69 100 134 185 244 287 346 432
#     4  12  26  43  71 102 138 176 236 299 353 416
#     4  12  23  40  69 101 142 179 229 305 354 412
#     4  11  25  43  68 102 143 182 231 291 359 415
#     4   9  19  38  66  96 129 181 239 283 343 418
#     4  11  26  44  66  98 141 188 233 288 350 425
#
# _framework density 21.434709999999999
#
# number of rings (size 3 to 8) (size 9 to 14) (size 15 to 20)
#    0.000    1.250    1.250    5.250    3.500    2.500 
#    0.000    3.750    0.000    0.000    0.000    0.000 
#    0.000    0.000    0.000    0.000    0.000    0.000 
#
# Total GULP energy -178921.113077 kJ/mol
# GULP energy per Si atom -5591.284784 kJ/mol
# Density = 2.138592 g / cm^3
# Si number density = 21.434710 Si / 1000 Ang^3
#
#
#
# Elastic Constant Matrix: (Units=GPa)
#
#
# Indices 1 2 3 4 5 6 
#
# 1 108.5132 34.2887 50.8981 0.0000 0.0000 0.0000
# 2 34.2887 98.7446 40.3866 0.0000 0.0000 0.0000
# 3 50.8981 40.3866 68.1250 0.0000 0.0000 0.0000
# 4 0.0000 0.0000 0.0000 39.3388 0.0000 0.0000
# 5 0.0000 0.0000 0.0000 0.0000 29.1632 0.0000
# 6 0.0000 0.0000 0.0000 0.0000 0.0000 32.2881
#
#
#
# Elastic Compliance Matrix: (Units=1/GPa)
#
#
# Indices 1 2 3 4 5 6 
#
# 1 0.014233 -0.000783 -0.010170 0.000000 0.000000 0.000000
# 2 -0.000783 0.013412 -0.007366 0.000000 0.000000 0.000000
# 3 -0.010170 -0.007366 0.026644 0.000000 0.000000 0.000000
# 4 0.000000 0.000000 0.000000 0.025420 0.000000 0.000000
# 5 0.000000 0.000000 0.000000 0.000000 0.034290 0.000000
# 6 0.000000 0.000000 0.000000 0.000000 0.000000 0.030971
#
#
# Mechanical properties :
#
#
# Convention : Reuss Voigt Hill
#
# Bulk Modulus (GPa) = 56.65316 58.50329 57.57823
# Shear Modulus (GPa) = 26.66808 30.14532 28.40670
#
# Velocity S-wave (km/s) = 3.53108 3.75424 3.64437
# Velocity P-wave (km/s) = 6.56602 6.79304 6.68050
#
# Compressibility (1/GPa) = 0.01765127
#
# Stress axis : x y z
#
# Youngs Moduli (GPa) = 70.25959 74.56205 37.53244
#
# Poissons Ratio (x) = 0.05838 0.38169
# Poissons Ratio (y) = 0.05501 0.27646
# Poissons Ratio (z) = 0.71452 0.54921
#
# Static dielectric constant tensor:
#      x y z
#    x 1.763030 0.000000 0.000000 
#    y 0.000000 1.757490 0.000000 
#    z 0.000000 0.000000 1.802070 
# 
# From -- ./inp_files/6635.got.cif
#   From: 2010.05.17/outbox.cif.g08.bks.cpg/sg39_4_cif.got.tgz:6635.got - 2010.06.03 18:22:40.
