data_PCOD9361366
_publ_section_title
;
Structure prediction by ZEFSAII (Michael W. Deem and Ramdas Pophale) SiO2 
 PCOD9361366
Probable space group: A B M 2
;
_chemical_formula_sum "Si O2"
_cell_formula_units_Z 40
_cell_length_a 7.193715
_cell_length_b 26.175918
_cell_length_c 8.967424
_cell_angle_alpha 90.000000
_cell_angle_beta 90.000000
_cell_angle_gamma 90.000000
_cell_volume 1688.584717
_symmetry_space_group_name_H-M "A B M 2"
_symmetry_group_IT_number 39
_symmetry_cell_setting 'orthorhombic'
loop_
_space_group_symop_operation_xyz
x,y,z
-x,-y,z
-x,1/2+y,z
x,1/2-y,z
x,1/2+y,1/2+z
-x,1/2-y,1/2+z
-x,y,1/2+z
x,-y,1/2+z
loop_
_atom_site_type_symbol
_atom_site_label
_atom_site_fract_x
_atom_site_fract_y
_atom_site_fract_z
Si Si1 0.297292 0.481208 0.750000
Si Si2 0.417440 0.614335 0.421262
Si Si3 0.765506 0.194143 0.621433
Si Si4 0.075923 0.841939 0.346492
Si Si5 0.817583 0.427572 0.947890
O O1 0.500000 0.500000 0.694128
O O2 0.348303 0.443075 0.886876
O O3 0.190770 0.528761 0.821844
O O4 0.199925 0.453293 0.610848
O O5 0.364506 0.646341 0.570582
O O6 0.637630 0.608416 0.419733
O O7 0.288709 0.644692 0.299268
O O8 0.680736 0.250000 0.656730
O O9 0.917136 0.176504 0.739305
O O10 0.888433 0.198756 0.472960
O O11 0.997239 0.892877 0.426744
#
# Coordination Sequence:
#
# PCOD9361366 Si02
#       5
#     8   8   8   8   8
#     4  10  21  38  62  93 129 171 201 255 309 373
#     4   9  23  39  64  91 127 165 211 259 313 369
#     4  10  22  44  67  92 126 167 213 269 322 366
#     4  10  23  40  68  92 126 166 210 267 312 375
#     4  11  23  41  65  95 132 168 212 249 320 377
#
# _framework density 23.688476000000001
#
# number of rings (size 3 to 8) (size 9 to 14) (size 15 to 20)
#    1.200    0.800    0.000    3.600    8.400    0.800 
#    0.000    8.000    0.000    0.000    0.000    0.000 
#    0.000    0.000    0.000    0.000    0.000    0.000 
#
# Total GULP energy -111389.279471 kJ/mol
# GULP energy per Si atom -5569.463974 kJ/mol
# Density = 2.363456 g / cm^3
# Si number density = 23.688476 Si / 1000 Ang^3
#
#
#
# Elastic Constant Matrix: (Units=GPa)
#
#
# Indices 1 2 3 4 5 6 
#
# 1 111.8945 36.9557 34.4138 0.0000 0.0000 0.0000
# 2 36.9557 82.3785 48.9477 0.0000 0.0000 0.0000
# 3 34.4138 48.9477 82.4349 0.0000 0.0000 0.0000
# 4 0.0000 0.0000 0.0000 619.9930 0.0000 0.0000
# 5 0.0000 0.0000 0.0000 0.0000 35.1408 0.0000
# 6 0.0000 0.0000 0.0000 0.0000 0.0000 16.0153
#
#
#
# Elastic Compliance Matrix: (Units=1/GPa)
#
#
# Indices 1 2 3 4 5 6 
#
# 1 0.010822 -0.003354 -0.002526 0.000000 0.000000 0.000000
# 2 -0.003354 0.019796 -0.010354 0.000000 0.000000 0.000000
# 3 -0.002526 -0.010354 0.019334 0.000000 0.000000 0.000000
# 4 0.000000 0.000000 0.000000 0.001613 0.000000 0.000000
# 5 0.000000 0.000000 0.000000 0.000000 0.028457 0.000000
# 6 0.000000 0.000000 0.000000 0.000000 0.000000 0.062440
#
#
# Mechanical properties :
#
#
# Convention : Reuss Voigt Hill
#
# Bulk Modulus (GPa) = 57.19977 57.48247 57.34112
# Shear Modulus (GPa) = 27.66143 144.65587 86.15865
#
# Velocity S-wave (km/s) = 3.42089 7.82295 6.03743
# Velocity P-wave (km/s) = 6.30892 10.29158 8.53578
#
# Compressibility (1/GPa) = 0.01748259
#
# Stress axis : x y z
#
# Youngs Moduli (GPa) = 92.40800 50.51582 51.72352
#
# Poissons Ratio (x) = 0.16940 0.13068
# Poissons Ratio (y) = 0.30989 0.53556
# Poissons Ratio (z) = 0.23346 0.52305
#
# Static dielectric constant tensor:
#      x y z
#    x 1.862260 0.000000 0.000000 
#    y 0.000000 1.843850 0.000000 
#    z 0.000000 0.000000 1.980980 
# 
# From -- ./inp_files/2201.got.cif
#   From: 2010.05.17/outbox.cif.g08.bks.cpg/sg39_2_cif.got.tgz:2201.got - 2010.06.03 18:22:40.
