data_PCOD9361578
_publ_section_title
;
Structure prediction by ZEFSAII (Michael W. Deem and Ramdas Pophale) SiO2 
 PCOD9361578
Probable space group: A B M 2
;
_chemical_formula_sum "Si O2"
_cell_formula_units_Z 44
_cell_length_a 8.492343
_cell_length_b 9.276146
_cell_length_c 25.935584
_cell_angle_alpha 90.000000
_cell_angle_beta 90.000000
_cell_angle_gamma 90.000000
_cell_volume 2043.107104
_symmetry_space_group_name_H-M "A B M 2"
_symmetry_group_IT_number 39
_symmetry_cell_setting 'orthorhombic'
loop_
_space_group_symop_operation_xyz
x,y,z
-x,-y,z
-x,1/2+y,z
x,1/2-y,z
x,1/2+y,1/2+z
-x,1/2-y,1/2+z
-x,y,1/2+z
x,-y,1/2+z
loop_
_atom_site_type_symbol
_atom_site_label
_atom_site_fract_x
_atom_site_fract_y
_atom_site_fract_z
Si Si1 0.168536 0.750000 0.338990
Si Si2 0.172631 0.924863 0.564407
Si Si3 0.153378 0.750000 0.791352
Si Si4 0.840594 0.413728 0.166098
Si Si5 0.652380 0.917070 0.473223
Si Si6 0.681328 0.032806 0.269104
Si Si7 0.876510 0.250000 0.906697
O O1 0.269364 0.886390 0.321926
O O2 0.033017 0.750000 0.294828
O O3 0.062573 0.750000 0.390948
O O4 0.164411 0.750000 0.563057
O O5 0.227234 0.990055 0.619386
O O6 0.287047 0.988149 0.520734
O O7 0.000000 0.000000 0.556612
O O8 0.219191 0.610994 0.766148
O O9 0.204983 0.750000 0.851003
O O10 0.879278 0.250000 0.148119
O O11 0.726523 0.398337 0.214702
O O12 0.000000 0.500000 0.180465
O O13 0.608041 0.750000 0.486985
O O14 0.805246 0.887181 0.436729
O O15 0.500000 0.000000 0.450619
O O16 0.500000 0.000000 0.271673
#
# Coordination Sequence:
#
# PCOD9361578 Si02
#       7
#     4   8   4   8   8   8   4
#     4  10  21  49  63  99 131 187 242 286 365 419
#     4  11  23  42  68 108 145 195 249 303 362 443
#     4  10  23  43  70  89 138 183 242 290 346 445
#     4  11  23  41  67 100 142 196 244 294 357 445
#     4  10  21  44  73 105 146 187 238 307 375 434
#     4  12  25  41  69 103 143 182 233 304 370 434
#     4   8  24  42  73  94 139 188 248 292 353 452
#
# _framework density 21.535827000000001
#
# number of rings (size 3 to 8) (size 9 to 14) (size 15 to 20)
#    1.091    0.364    0.909    6.000    2.545    1.455 
#    3.273    1.818    2.000    0.000    0.000    0.000 
#    0.000    0.000    0.000    0.000    0.000    0.000 
#
# Total GULP energy -122567.669503 kJ/mol
# GULP energy per Si atom -5571.257705 kJ/mol
# Density = 2.148681 g / cm^3
# Si number density = 21.535827 Si / 1000 Ang^3
#
#
#
# Elastic Constant Matrix: (Units=GPa)
#
#
# Indices 1 2 3 4 5 6 
#
# 1 91.2476 28.1285 44.4003 0.0000 0.0000 0.0000
# 2 28.1285 176.7694 39.9063 0.0000 0.0000 0.0000
# 3 44.4003 39.9063 96.3021 0.0000 0.0000 0.0000
# 4 0.0000 0.0000 0.0000 19.9745 0.0000 0.0000
# 5 0.0000 0.0000 0.0000 0.0000 75.5478 0.0000
# 6 0.0000 0.0000 0.0000 0.0000 0.0000 28.8543
#
#
#
# Elastic Compliance Matrix: (Units=1/GPa)
#
#
# Indices 1 2 3 4 5 6 
#
# 1 0.014248 -0.000865 -0.006210 0.000000 0.000000 0.000000
# 2 -0.000865 0.006293 -0.002209 0.000000 0.000000 0.000000
# 3 -0.006210 -0.002209 0.014163 0.000000 0.000000 0.000000
# 4 0.000000 0.000000 0.000000 0.050064 0.000000 0.000000
# 5 0.000000 0.000000 0.000000 0.000000 0.013237 0.000000
# 6 0.000000 0.000000 0.000000 0.000000 0.000000 0.034657
#
#
# Mechanical properties :
#
#
# Convention : Reuss Voigt Hill
#
# Bulk Modulus (GPa) = 61.97830 65.46547 63.72189
# Shear Modulus (GPa) = 31.92664 41.66759 36.79711
#
# Velocity S-wave (km/s) = 3.85449 4.40341 4.13806
# Velocity P-wave (km/s) = 6.97503 7.50452 7.24461
#
# Compressibility (1/GPa) = 0.01613468
#
# Stress axis : x y z
#
# Youngs Moduli (GPa) = 70.18593 158.89519 70.60775
#
# Poissons Ratio (x) = 0.13747 0.43851
# Poissons Ratio (y) = 0.06072 0.15598
# Poissons Ratio (z) = 0.43589 0.35101
#
# Static dielectric constant tensor:
#      x y z
#    x 1.571520 0.000000 0.000000 
#    y 0.000000 1.814600 0.000000 
#    z 0.000000 0.000000 1.808130 
# 
# From -- ./inp_files/17534.got.cif
#   From: 2010.05.17/outbox.cif.g08.bks.cpg/sg39_9_cif.got.tgz:17534.got - 2010.06.03 18:22:40.
