data_PCOD9361222
_publ_section_title
;
Structure prediction by ZEFSAII (Michael W. Deem and Ramdas Pophale) SiO2 
 PCOD9361222
Probable space group: A B M 2
;
_chemical_formula_sum "Si O2"
_cell_formula_units_Z 56
_cell_length_a 20.719174
_cell_length_b 8.742994
_cell_length_c 15.616712
_cell_angle_alpha 90.000000
_cell_angle_beta 90.000000
_cell_angle_gamma 90.000000
_cell_volume 2828.930117
_symmetry_space_group_name_H-M "A B M 2"
_symmetry_group_IT_number 39
_symmetry_cell_setting 'orthorhombic'
loop_
_space_group_symop_operation_xyz
x,y,z
-x,-y,z
-x,1/2+y,z
x,1/2-y,z
x,1/2+y,1/2+z
-x,1/2-y,1/2+z
-x,y,1/2+z
x,-y,1/2+z
loop_
_atom_site_type_symbol
_atom_site_label
_atom_site_fract_x
_atom_site_fract_y
_atom_site_fract_z
Si Si1 0.571291 0.933054 0.750000
Si Si2 0.800368 0.073713 0.610864
Si Si3 0.202449 0.572827 0.933744
Si Si4 0.341529 0.565146 0.602114
Si Si5 0.670393 0.934322 0.900972
Si Si6 0.938718 0.571505 0.353278
Si Si7 0.065838 0.428891 0.666879
O O1 0.568242 0.750000 0.745246
O O2 0.615109 0.973551 0.832756
O O3 0.500000 0.000000 0.758811
O O4 0.604958 0.995786 0.663829
O O5 0.807158 0.250000 0.636556
O O6 0.729414 0.016334 0.637951
O O7 0.795886 0.050606 0.509247
O O8 0.865356 0.988049 0.635222
O O9 0.211415 0.750000 0.962610
O O10 0.263622 0.523547 0.877199
O O11 0.131391 0.563430 0.894842
O O12 0.343440 0.750000 0.605956
O O13 0.346501 0.524591 0.500579
O O14 0.680289 0.750000 0.898170
O O15 0.951677 0.750000 0.334998
O O16 0.934733 0.475539 0.266324
O O17 0.000000 0.500000 0.402884
O O18 0.062394 0.250000 0.654042
O O19 0.000000 0.500000 0.628823
#
# Coordination Sequence:
#
# PCOD9361222 Si02
#       7
#     8   8   8   8   8   8   8
#     4  11  24  41  63  93 124 157 201 242 293 360
#     4  10  21  38  59  83 115 151 191 240 296 351
#     4  10  21  36  57  85 114 148 195 241 290 351
#     4   9  20  40  63  88 122 159 197 245 299 352
#     4   9  21  41  62  88 122 160 200 245 300 357
#     4  10  21  36  53  78 111 149 193 240 293 347
#     4  11  22  36  55  79 111 150 195 243 294 351
#
# _framework density 19.795470999999999
#
# number of rings (size 3 to 8) (size 9 to 14) (size 15 to 20)
#    0.000    2.000    0.000    4.714    2.000    7.429 
#    0.000    2.857    0.000    0.000    0.000    0.000 
#    0.000    0.000    0.000    0.000    0.000    0.000 
#
# Total GULP energy -156154.774751 kJ/mol
# GULP energy per Si atom -5576.956241 kJ/mol
# Density = 1.975042 g / cm^3
# Si number density = 19.795471 Si / 1000 Ang^3
#
#
#
# Elastic Constant Matrix: (Units=GPa)
#
#
# Indices 1 2 3 4 5 6 
#
# 1 171.5033 53.9777 43.2676 0.0000 0.0000 0.0000
# 2 53.9777 56.0787 9.1320 0.0000 0.0000 0.0000
# 3 43.2676 9.1320 49.7056 0.0000 0.0000 0.0000
# 4 0.0000 0.0000 0.0000 20.2537 0.0000 0.0000
# 5 0.0000 0.0000 0.0000 0.0000 53.5937 0.0000
# 6 0.0000 0.0000 0.0000 0.0000 0.0000 32.2903
#
#
#
# Elastic Compliance Matrix: (Units=1/GPa)
#
#
# Indices 1 2 3 4 5 6 
#
# 1 0.010538 -0.008916 -0.007535 0.000000 0.000000 0.000000
# 2 -0.008916 0.025926 0.002998 0.000000 0.000000 0.000000
# 3 -0.007535 0.002998 0.026127 0.000000 0.000000 0.000000
# 4 0.000000 0.000000 0.000000 0.049374 0.000000 0.000000
# 5 0.000000 0.000000 0.000000 0.000000 0.018659 0.000000
# 6 0.000000 0.000000 0.000000 0.000000 0.000000 0.030969
#
#
# Mechanical properties :
#
#
# Convention : Reuss Voigt Hill
#
# Bulk Modulus (GPa) = 28.02329 54.44915 41.23622
# Shear Modulus (GPa) = 24.95098 32.62156 28.78627
#
# Velocity S-wave (km/s) = 3.55412 4.06387 3.81751
# Velocity P-wave (km/s) = 5.57041 7.04171 6.34883
#
# Compressibility (1/GPa) = 0.03568460
#
# Stress axis : x y z
#
# Youngs Moduli (GPa) = 94.89519 38.57142 38.27512
#
# Poissons Ratio (x) = 0.34391 0.28840
# Poissons Ratio (y) = 0.84610 -0.11475
# Poissons Ratio (z) = 0.71503 -0.11564
#
# Static dielectric constant tensor:
#      x y z
#    x 1.799670 0.000000 0.000000 
#    y 0.000000 1.678480 0.000000 
#    z 0.000000 0.000000 1.733810 
# 
# From -- ./inp_files/10379.got.cif
#   From: 2010.05.17/outbox.cif.g08.bks.cpg/sg39_6_cif.got.tgz:10379.got - 2010.06.03 18:22:40.
