data_PCOD9361472
_publ_section_title
;
Structure prediction by ZEFSAII (Michael W. Deem and Ramdas Pophale) SiO2 
 PCOD9361472
Probable space group: A B M 2
;
_chemical_formula_sum "Si O2"
_cell_formula_units_Z 64
_cell_length_a 22.955784
_cell_length_b 27.579590
_cell_length_c 5.433041
_cell_angle_alpha 90.000000
_cell_angle_beta 90.000000
_cell_angle_gamma 90.000000
_cell_volume 3439.718623
_symmetry_space_group_name_H-M "A B M 2"
_symmetry_group_IT_number 39
_symmetry_cell_setting 'orthorhombic'
loop_
_space_group_symop_operation_xyz
x,y,z
-x,-y,z
-x,1/2+y,z
x,1/2-y,z
x,1/2+y,1/2+z
-x,1/2-y,1/2+z
-x,y,1/2+z
x,-y,1/2+z
loop_
_atom_site_type_symbol
_atom_site_label
_atom_site_fract_x
_atom_site_fract_y
_atom_site_fract_z
Si Si1 0.737473 0.367527 0.294810
Si Si2 0.154476 0.805595 0.080038
Si Si3 0.759126 0.802690 0.179028
Si Si4 0.470395 0.691317 0.804888
Si Si5 0.221411 0.029154 0.644845
Si Si6 0.651079 0.303697 0.047290
Si Si7 0.965295 0.637883 0.648778
Si Si8 0.918111 0.970292 0.650954
O O1 0.791783 0.334061 0.203701
O O2 0.747385 0.356807 0.579862
O O3 0.745556 0.420607 0.192916
O O4 0.675521 0.342704 0.237763
O O5 0.149542 0.750000 0.162569
O O6 0.095168 0.833564 0.122121
O O7 0.177106 0.803762 0.798764
O O8 0.754232 0.750000 0.039424
O O9 0.706922 0.798186 0.373283
O O10 0.474780 0.750000 0.793978
O O11 0.511243 0.674350 0.032575
O O12 0.404818 0.680665 0.891870
O O13 0.151736 0.039127 0.651113
O O14 0.234088 0.005490 0.379468
O O15 0.637819 0.250000 0.156638
O O16 0.950895 0.580619 0.646274
O O17 0.004147 0.649324 0.408722
O O18 0.930898 0.000635 0.402877
#
# Coordination Sequence:
#
# PCOD9361472 Si02
#       8
#     8   8   8   8   8   8   8   8
#     4  11  20  35  63  82 116 150 188 243 291 343
#     4  10  23  41  58  83 112 150 193 232 285 345
#     4   9  19  33  57  84 110 148 197 245 283 334
#     4   9  18  31  48  72 115 168 202 234 276 322
#     4  10  23  38  60  87 114 146 181 227 292 363
#     4   9  19  32  50  86 120 155 206 239 277 333
#     4  12  27  42  61  86 111 145 188 235 285 344
#     4  10  21  40  63  84 109 138 179 232 286 344
#
# _framework density 18.606172000000001
#
# number of rings (size 3 to 8) (size 9 to 14) (size 15 to 20)
#    0.000    2.000    1.250    2.625    7.000    3.000 
#    0.000    0.000    0.000    0.000    0.000    0.000 
#    0.000    3.000    0.000    0.000    0.000    0.000 
#
# Total GULP energy -178238.091643 kJ/mol
# GULP energy per Si atom -5569.940364 kJ/mol
# Density = 1.856382 g / cm^3
# Si number density = 18.606172 Si / 1000 Ang^3
#
#
#
# Elastic Constant Matrix: (Units=GPa)
#
#
# Indices 1 2 3 4 5 6 
#
# 1 45.6471 12.8911 0.9783 0.0000 0.0000 0.0000
# 2 12.8911 49.5104 5.0551 0.0000 0.0000 0.0000
# 3 0.9783 5.0551 62.1151 0.0000 0.0000 0.0000
# 4 0.0000 0.0000 0.0000 13.4287 0.0000 0.0000
# 5 0.0000 0.0000 0.0000 0.0000 11.8586 0.0000
# 6 0.0000 0.0000 0.0000 0.0000 0.0000 37.7948
#
#
#
# Elastic Compliance Matrix: (Units=1/GPa)
#
#
# Indices 1 2 3 4 5 6 
#
# 1 0.023647 -0.006170 0.000130 0.000000 0.000000 0.000000
# 2 -0.006170 0.021977 -0.001691 0.000000 0.000000 0.000000
# 3 0.000130 -0.001691 0.016235 0.000000 0.000000 0.000000
# 4 0.000000 0.000000 0.000000 0.074467 0.000000 0.000000
# 5 0.000000 0.000000 0.000000 0.000000 0.084327 0.000000
# 6 0.000000 0.000000 0.000000 0.000000 0.000000 0.026459
#
#
# Mechanical properties :
#
#
# Convention : Reuss Voigt Hill
#
# Bulk Modulus (GPa) = 21.55408 21.68018 21.61713
# Shear Modulus (GPa) = 17.98299 21.83963 19.91131
#
# Velocity S-wave (km/s) = 3.11224 3.42977 3.27486
# Velocity P-wave (km/s) = 4.95220 5.23086 5.09343
#
# Compressibility (1/GPa) = 0.04639492
#
# Stress axis : x y z
#
# Youngs Moduli (GPa) = 42.28882 45.50205 61.59630
#
# Poissons Ratio (x) = 0.28076 -0.00799
# Poissons Ratio (y) = 0.26093 0.10418
# Poissons Ratio (z) = -0.00548 0.07696
#
# Static dielectric constant tensor:
#      x y z
#    x 1.624180 0.000000 0.000000 
#    y 0.000000 1.655280 0.000000 
#    z 0.000000 0.000000 1.814770 
# 
# From -- ./inp_files/1164.got.cif
#   From: 2010.05.17/outbox.cif.g08.bks.cpg/sg39_1_cif.got.tgz:1164.got - 2010.06.03 18:22:40.
