data_PCOD9361796
_publ_section_title
;
Structure prediction by ZEFSAII (Michael W. Deem and Ramdas Pophale) SiO2 
 PCOD9361796
Probable space group: A B M 2
;
_chemical_formula_sum "Si O2"
_cell_formula_units_Z 20
_cell_length_a 8.171760
_cell_length_b 10.076502
_cell_length_c 10.529656
_cell_angle_alpha 90.000000
_cell_angle_beta 90.000000
_cell_angle_gamma 90.000000
_cell_volume 867.040895
_symmetry_space_group_name_H-M "A B M 2"
_symmetry_group_IT_number 39
_symmetry_cell_setting 'orthorhombic'
loop_
_space_group_symop_operation_xyz
x,y,z
-x,-y,z
-x,1/2+y,z
x,1/2-y,z
x,1/2+y,1/2+z
-x,1/2-y,1/2+z
-x,y,1/2+z
x,-y,1/2+z
loop_
_atom_site_type_symbol
_atom_site_label
_atom_site_fract_x
_atom_site_fract_y
_atom_site_fract_z
Si Si1 0.171512 0.250000 0.809100
Si Si2 0.169238 0.750000 0.023045
Si Si3 0.308927 0.032185 0.337842
Si Si4 0.844416 0.250000 0.677540
O O1 0.241406 0.250000 0.665159
O O2 0.224946 0.390938 0.859256
O O3 0.977806 0.250000 0.791094
O O4 0.971245 0.750000 0.058107
O O5 0.245331 0.624327 0.951603
O O6 0.257603 0.116539 0.210117
O O7 0.500000 0.000000 0.336748
#
# Coordination Sequence:
#
# PCOD9361796 Si02
#       4
#     4   4   8   4
#     4  10  22  44  71 102 146 191 247 296 359 445
#     4   9  24  45  70 104 147 194 243 284 379 447
#     4  11  22  46  76 107 144 192 246 310 363 426
#     4   9  22  47  67 104 149 189 242 300 364 444
#
# _framework density 23.066963000000001
#
# number of rings (size 3 to 8) (size 9 to 14) (size 15 to 20)
#    1.200    0.800    0.000    3.600    0.000    1.600 
#   28.800    2.000    0.000    0.000    0.000   11.200 
#    0.000    0.000    0.000    0.000    0.000    0.000 
#
# Total GULP energy -55737.999896 kJ/mol
# GULP energy per Si atom -5573.799990 kJ/mol
# Density = 2.301446 g / cm^3
# Si number density = 23.066963 Si / 1000 Ang^3
#
#
#
# Elastic Constant Matrix: (Units=GPa)
#
#
# Indices 1 2 3 4 5 6 
#
# 1 187.5521 93.3608 39.8716 0.0000 0.0000 0.0000
# 2 93.3608 247.9857 54.7155 0.0000 0.0000 0.0000
# 3 39.8716 54.7155 86.3589 0.0000 0.0000 0.0000
# 4 0.0000 0.0000 0.0000 39.0193 0.0000 0.0000
# 5 0.0000 0.0000 0.0000 0.0000 31.8175 0.0000
# 6 0.0000 0.0000 0.0000 0.0000 0.0000 63.5424
#
#
#
# Elastic Compliance Matrix: (Units=1/GPa)
#
#
# Indices 1 2 3 4 5 6 
#
# 1 0.006784 -0.002166 -0.001760 0.000000 0.000000 0.000000
# 2 -0.002166 0.005379 -0.002408 0.000000 0.000000 0.000000
# 3 -0.001760 -0.002408 0.013918 0.000000 0.000000 0.000000
# 4 0.000000 0.000000 0.000000 0.025628 0.000000 0.000000
# 5 0.000000 0.000000 0.000000 0.000000 0.031429 0.000000
# 6 0.000000 0.000000 0.000000 0.000000 0.000000 0.015738
#
#
# Mechanical properties :
#
#
# Convention : Reuss Voigt Hill
#
# Bulk Modulus (GPa) = 74.55297 99.75472 87.15384
# Shear Modulus (GPa) = 43.09771 49.13909 46.11840
#
# Velocity S-wave (km/s) = 4.32716 4.62050 4.47623
# Velocity P-wave (km/s) = 7.57338 8.47378 8.03620
#
# Compressibility (1/GPa) = 0.01341328
#
# Stress axis : x y z
#
# Youngs Moduli (GPa) = 147.40398 185.90164 71.84936
#
# Poissons Ratio (x) = 0.40261 0.12646
# Poissons Ratio (y) = 0.31924 0.17303
# Poissons Ratio (z) = 0.25943 0.44770
#
# Static dielectric constant tensor:
#      x y z
#    x 1.883600 0.000000 0.000000 
#    y 0.000000 1.816500 0.000000 
#    z 0.000000 0.000000 2.053680 
# 
# From -- ./inp_files/1835.got.cif
#   From: 2010.05.17/outbox.cif.g08.bks.cpg/sg39_1_cif.got.tgz:1835.got - 2010.06.03 18:22:40.
