data_PCOD9361417
_publ_section_title
;
Structure prediction by ZEFSAII (Michael W. Deem and Ramdas Pophale) SiO2 
 PCOD9361417
Probable space group: A B M 2
;
_chemical_formula_sum "Si O2"
_cell_formula_units_Z 56
_cell_length_a 15.940453
_cell_length_b 11.341563
_cell_length_c 14.389909
_cell_angle_alpha 90.000000
_cell_angle_beta 90.000000
_cell_angle_gamma 90.000000
_cell_volume 2601.546640
_symmetry_space_group_name_H-M "A B M 2"
_symmetry_group_IT_number 39
_symmetry_cell_setting 'orthorhombic'
loop_
_space_group_symop_operation_xyz
x,y,z
-x,-y,z
-x,1/2+y,z
x,1/2-y,z
x,1/2+y,1/2+z
-x,1/2-y,1/2+z
-x,y,1/2+z
x,-y,1/2+z
loop_
_atom_site_type_symbol
_atom_site_label
_atom_site_fract_x
_atom_site_fract_y
_atom_site_fract_z
Si Si1 0.851940 0.121896 0.302790
Si Si2 0.334222 0.047107 0.844939
Si Si3 0.334222 0.952893 0.657264
Si Si4 0.093455 0.953367 0.501101
Si Si5 0.453499 0.625283 0.501101
Si Si6 0.851940 0.621896 0.199413
Si Si7 0.255951 0.888350 0.001101
O O1 0.873025 0.250000 0.259385
O O2 0.751060 0.112819 0.314392
O O3 0.889046 0.116217 0.406295
O O4 0.877693 0.000000 0.251101
O O5 0.375730 0.000000 0.751101
O O6 0.302318 0.940774 0.910848
O O7 0.394622 0.120959 0.910404
O O8 0.394622 0.879041 0.591798
O O9 0.248940 0.887181 0.687811
O O10 0.302318 0.059226 0.591354
O O11 0.110954 0.883783 0.595907
O O12 0.162647 0.057594 0.501101
O O13 0.000000 0.000000 0.501101
O O14 0.500000 0.500000 0.501101
O O15 0.502179 0.750000 0.501101
O O16 0.873025 0.750000 0.242818
O O17 0.254721 0.750000 0.001101
#
# Coordination Sequence:
#
# PCOD9361417 Si02
#       7
#     8   8   8   8   8   8   8
#     4  10  21  39  62  88 115 149 196 247 292 342
#     4   9  20  38  62  86 111 149 194 237 287 346
#     4   9  20  38  62  86 111 149 194 237 287 346
#     4  10  22  37  54  81 118 163 202 235 287 354
#     4  11  24  41  59  86 121 155 189 231 283 346
#     4  10  21  39  62  88 115 149 196 247 292 342
#     4   9  19  34  56  87 117 142 187 252 299 332
#
# _framework density 21.525656999999999
#
# number of rings (size 3 to 8) (size 9 to 14) (size 15 to 20)
#    0.000    2.286    0.000    2.143    0.000   16.000 
#    0.000    2.857    0.000    0.000    0.000    0.000 
#    0.000    0.000    0.000    0.000    0.000    0.000 
#
# Total GULP energy -156308.818761 kJ/mol
# GULP energy per Si atom -5582.457813 kJ/mol
# Density = 2.147666 g / cm^3
# Si number density = 21.525657 Si / 1000 Ang^3
#
#
#
# Elastic Constant Matrix: (Units=GPa)
#
#
# Indices 1 2 3 4 5 6 
#
# 1 39.4606 26.2773 12.0401 0.0000 0.0000 0.0000
# 2 26.2773 226.5810 48.1433 0.0000 0.0000 0.0000
# 3 12.0401 48.1433 131.6064 0.0000 0.0000 0.0000
# 4 0.0000 0.0000 0.0000 -0.6742 0.0000 0.0000
# 5 0.0000 0.0000 0.0000 0.0000 -1.5399 0.0000
# 6 0.0000 0.0000 0.0000 0.0000 0.0000 -12.3454
#
#
#
# Elastic Compliance Matrix: (Units=1/GPa)
#
#
# Indices 1 2 3 4 5 6 
#
# 1 0.027724 -0.002902 -0.001475 0.000000 0.000000 0.000000
# 2 -0.002902 0.005089 -0.001596 0.000000 0.000000 0.000000
# 3 -0.001475 -0.001596 0.008317 0.000000 0.000000 0.000000
# 4 0.000000 0.000000 0.000000 -1.483165 0.000000 0.000000
# 5 0.000000 0.000000 0.000000 0.000000 -0.649407 0.000000
# 6 0.000000 0.000000 0.000000 0.000000 0.000000 -0.081002
#
#
# Mechanical properties :
#
#
# Convention : Reuss Voigt Hill
#
# Bulk Modulus (GPa) = 34.26450 63.39662 48.83056
# Shear Modulus (GPa) = -2.32475 17.83392 7.75458
#
# Velocity S-wave (km/s) = -1.04035 2.88148 1.90008
# Velocity P-wave (km/s) = 3.80912 6.37073 5.24860
#
# Compressibility (1/GPa) = 0.02918472
#
# Stress axis : x y z
#
# Youngs Moduli (GPa) = 36.06963 196.49736 120.23216
#
# Poissons Ratio (x) = 0.57021 0.17732
# Poissons Ratio (y) = 0.10467 0.19191
# Poissons Ratio (z) = 0.05320 0.31365
#
# Static dielectric constant tensor:
#      x y z
#    x 1.768650 0.000000 0.000000 
#    y 0.000000 1.825420 0.000000 
#    z 0.000000 0.000000 1.792380 
# 
# From -- ./inp_files/9798.got.cif
#   From: 2010.05.17/outbox.cif.g08.bks.cpg/sg39_5_cif.got.tgz:9798.got - 2010.06.03 18:22:40.
