data_PCOD9361282
_publ_section_title
;
Structure prediction by ZEFSAII (Michael W. Deem and Ramdas Pophale) SiO2 
 PCOD9361282
Probable space group: A B M 2
;
_chemical_formula_sum "Si O2"
_cell_formula_units_Z 64
_cell_length_a 14.390493
_cell_length_b 8.545153
_cell_length_c 26.889125
_cell_angle_alpha 90.000000
_cell_angle_beta 90.000000
_cell_angle_gamma 90.000000
_cell_volume 3306.527856
_symmetry_space_group_name_H-M "A B M 2"
_symmetry_group_IT_number 39
_symmetry_cell_setting 'orthorhombic'
loop_
_space_group_symop_operation_xyz
x,y,z
-x,-y,z
-x,1/2+y,z
x,1/2-y,z
x,1/2+y,1/2+z
-x,1/2-y,1/2+z
-x,y,1/2+z
x,-y,1/2+z
loop_
_atom_site_type_symbol
_atom_site_label
_atom_site_fract_x
_atom_site_fract_y
_atom_site_fract_z
Si Si1 0.605277 0.060749 0.197550
Si Si2 0.719433 0.439216 0.100891
Si Si3 0.104033 0.438330 0.862124
Si Si4 0.395127 0.437415 0.503604
Si Si5 0.895393 0.564544 0.146368
Si Si6 0.105664 0.937746 0.251397
Si Si7 0.289448 0.939654 0.407115
Si Si8 0.605109 0.939072 0.807295
O O1 0.604239 0.250000 0.196553
O O2 0.663539 0.007424 0.150063
O O3 0.641527 0.013200 0.252481
O O4 0.500000 0.000000 0.193513
O O5 0.723723 0.250000 0.101499
O O6 0.823317 0.504254 0.105439
O O7 0.663296 0.488818 0.052022
O O8 0.099044 0.250000 0.862388
O O9 0.140137 0.481781 0.806419
O O10 0.181623 0.487974 0.901600
O O11 0.000000 0.500000 0.869611
O O12 0.500000 0.500000 0.505131
O O13 0.398840 0.250000 0.503783
O O14 0.342726 0.493915 0.454240
O O15 0.900038 0.750000 0.146931
O O16 0.856821 0.505920 0.200039
O O17 0.000000 0.500000 0.140111
O O18 0.108999 0.750000 0.247391
O O19 0.000000 0.000000 0.252161
O O20 0.292713 0.750000 0.409243
O O21 0.339368 0.990376 0.355901
O O22 0.605014 0.750000 0.807820
O O23 0.500000 0.000000 0.810873
#
# Coordination Sequence:
#
# PCOD9361282 Si02
#       8
#     8   8   8   8   8   8   8   8
#     4   9  18  33  55  80 111 146 180 229 286 344
#     4  10  22  39  60  84 112 150 195 239 289 344
#     4   9  19  34  55  82 115 155 196 239 287 341
#     4  11  24  42  64  89 115 149 192 241 293 345
#     4  11  22  36  56  84 118 155 195 239 286 340
#     4   9  16  29  51  77 112 153 191 232 278 333
#     4  10  21  37  58  84 113 151 197 239 288 345
#     4   9  18  32  52  78 109 143 180 224 282 344
#
# _framework density 19.355651999999999
#
# number of rings (size 3 to 8) (size 9 to 14) (size 15 to 20)
#    0.000    2.250    0.000    3.375    1.750    4.000 
#    0.000    0.625    0.000    1.500    0.000    0.000 
#    0.000    0.000    0.000    0.000    0.000    0.000 
#
# Total GULP energy -178578.737002 kJ/mol
# GULP energy per Si atom -5580.585531 kJ/mol
# Density = 1.931160 g / cm^3
# Si number density = 19.355652 Si / 1000 Ang^3
#
#
#
# Elastic Constant Matrix: (Units=GPa)
#
#
# Indices 1 2 3 4 5 6 
#
# 1 138.4636 30.3823 99.3116 0.0000 0.0000 0.0000
# 2 30.3823 32.8511 37.7526 0.0000 0.0000 0.0000
# 3 99.3116 37.7526 153.4926 0.0000 0.0000 0.0000
# 4 0.0000 0.0000 0.0000 20.9620 0.0000 0.0000
# 5 0.0000 0.0000 0.0000 0.0000 37.9245 0.0000
# 6 0.0000 0.0000 0.0000 0.0000 0.0000 23.0337
#
#
#
# Elastic Compliance Matrix: (Units=1/GPa)
#
#
# Indices 1 2 3 4 5 6 
#
# 1 0.013755 -0.003476 -0.008044 0.000000 0.000000 0.000000
# 2 -0.003476 0.043313 -0.008404 0.000000 0.000000 0.000000
# 3 -0.008044 -0.008404 0.013787 0.000000 0.000000 0.000000
# 4 0.000000 0.000000 0.000000 0.047705 0.000000 0.000000
# 5 0.000000 0.000000 0.000000 0.000000 0.026368 0.000000
# 6 0.000000 0.000000 0.000000 0.000000 0.000000 0.043415
#
#
# Mechanical properties :
#
#
# Convention : Reuss Voigt Hill
#
# Bulk Modulus (GPa) = 32.25243 73.30002 52.77622
# Shear Modulus (GPa) = 20.96191 26.87475 23.91833
#
# Velocity S-wave (km/s) = 3.29445 3.73026 3.51911
# Velocity P-wave (km/s) = 5.58305 7.51701 6.62102
#
# Compressibility (1/GPa) = 0.03100542
#
# Stress axis : x y z
#
# Youngs Moduli (GPa) = 72.70242 23.08754 72.53292
#
# Poissons Ratio (x) = 0.08026 0.58349
# Poissons Ratio (y) = 0.25274 0.60957
# Poissons Ratio (z) = 0.58485 0.19403
#
# Static dielectric constant tensor:
#      x y z
#    x 1.672610 0.000000 0.000000 
#    y 0.000000 1.663190 0.000000 
#    z 0.000000 0.000000 1.690990 
# 
# From -- ./inp_files/16249.got.cif
#   From: 2010.05.17/outbox.cif.g08.bks.cpg/sg39_9_cif.got.tgz:16249.got - 2010.06.03 18:22:40.
