data_PCOD9361361
_publ_section_title
;
Structure prediction by ZEFSAII (Michael W. Deem and Ramdas Pophale) SiO2 
 PCOD9361361
Probable space group: A B M 2
;
_chemical_formula_sum "Si O2"
_cell_formula_units_Z 40
_cell_length_a 9.231296
_cell_length_b 10.770076
_cell_length_c 18.744577
_cell_angle_alpha 90.000000
_cell_angle_beta 90.000000
_cell_angle_gamma 90.000000
_cell_volume 1863.618826
_symmetry_space_group_name_H-M "A B M 2"
_symmetry_group_IT_number 39
_symmetry_cell_setting 'orthorhombic'
loop_
_space_group_symop_operation_xyz
x,y,z
-x,-y,z
-x,1/2+y,z
x,1/2-y,z
x,1/2+y,1/2+z
-x,1/2-y,1/2+z
-x,y,1/2+z
x,-y,1/2+z
loop_
_atom_site_type_symbol
_atom_site_label
_atom_site_fract_x
_atom_site_fract_y
_atom_site_fract_z
Si Si1 0.388664 0.884441 0.615370
Si Si2 0.619669 0.389384 0.310231
Si Si3 0.667757 0.032286 0.462586
Si Si4 0.895015 0.884671 0.532319
Si Si5 0.163706 0.531030 0.190320
O O1 0.457888 0.750000 0.627334
O O2 0.323412 0.889326 0.535406
O O3 0.500000 0.000000 0.622195
O O4 0.256051 0.909127 0.668513
O O5 0.500000 0.500000 0.301456
O O6 0.554931 0.250000 0.308587
O O7 0.699018 0.407433 0.386728
O O8 0.739936 0.402187 0.249102
O O9 0.500000 0.000000 0.457451
O O10 0.759897 0.910248 0.480688
O O11 0.960216 0.750000 0.519907
O O12 0.847126 0.895864 0.615001
O O13 0.000000 0.000000 0.519211
O O14 0.000000 0.500000 0.212600
#
# Coordination Sequence:
#
# PCOD9361361 Si02
#       5
#     8   8   8   8   8
#     4  10  21  38  62  90 119 153 198 251 308 369
#     4  11  24  42  63  89 123 163 206 253 306 363
#     4   9  21  38  61  89 119 154 198 249 303 359
#     4  10  22  41  65  93 125 161 203 252 305 363
#     4  10  23  39  60  89 124 163 206 253 303 358
#
# _framework density 21.463616999999999
#
# number of rings (size 3 to 8) (size 9 to 14) (size 15 to 20)
#    0.000    2.000    0.000    1.800    0.000   24.000 
#    0.000    0.000    0.000    0.000    0.000    0.000 
#    0.000    0.000    0.000    0.000    0.000    0.000 
#
# Total GULP energy -111605.446189 kJ/mol
# GULP energy per Si atom -5580.272309 kJ/mol
# Density = 2.141477 g / cm^3
# Si number density = 21.463617 Si / 1000 Ang^3
#
#
#
# Elastic Constant Matrix: (Units=GPa)
#
#
# Indices 1 2 3 4 5 6 
#
# 1 95.5217 52.7773 34.8107 0.0000 0.0000 0.0000
# 2 52.7773 186.4499 26.8433 0.0000 0.0000 0.0000
# 3 34.8107 26.8433 89.5451 0.0000 0.0000 0.0000
# 4 0.0000 0.0000 0.0000 -6.0733 0.0000 0.0000
# 5 0.0000 0.0000 0.0000 0.0000 151.3235 0.0000
# 6 0.0000 0.0000 0.0000 0.0000 0.0000 22.9672
#
#
#
# Elastic Compliance Matrix: (Units=1/GPa)
#
#
# Indices 1 2 3 4 5 6 
#
# 1 0.013901 -0.003299 -0.004415 0.000000 0.000000 0.000000
# 2 -0.003299 0.006388 -0.000633 0.000000 0.000000 0.000000
# 3 -0.004415 -0.000633 0.013073 0.000000 0.000000 0.000000
# 4 0.000000 0.000000 0.000000 -0.164654 0.000000 0.000000
# 5 0.000000 0.000000 0.000000 0.000000 0.006608 0.000000
# 6 0.000000 0.000000 0.000000 0.000000 0.000000 0.043540
#
#
# Mechanical properties :
#
#
# Convention : Reuss Voigt Hill
#
# Bulk Modulus (GPa) = 59.99053 66.70883 63.34968
# Shear Modulus (GPa) = -84.89860 50.78251 -17.05804
#
# Velocity S-wave (km/s) = -6.29607 4.86941 -2.82218
# Velocity P-wave (km/s) = 4.98432 7.92227 4.35424
#
# Compressibility (1/GPa) = 0.01666930
#
# Stress axis : x y z
#
# Youngs Moduli (GPa) = 71.93959 156.53616 76.49096
#
# Poissons Ratio (x) = 0.51643 0.33770
# Poissons Ratio (y) = 0.23734 0.04838
# Poissons Ratio (z) = 0.31760 0.09901
#
# Static dielectric constant tensor:
#      x y z
#    x 1.805450 0.000000 0.000000 
#    y 0.000000 1.814610 0.000000 
#    z 0.000000 0.000000 1.804760 
# 
# From -- ./inp_files/11361.got.cif
#   From: 2010.05.17/outbox.cif.g08.bks.cpg/sg39_6_cif.got.tgz:11361.got - 2010.06.03 18:22:40.
