data_PCOD9361141
_publ_section_title
;
Structure prediction by ZEFSAII (Michael W. Deem and Ramdas Pophale) SiO2 
 PCOD9361141
Probable space group: A B M 2
;
_chemical_formula_sum "Si O2"
_cell_formula_units_Z 44
_cell_length_a 16.927917
_cell_length_b 8.287269
_cell_length_c 14.855973
_cell_angle_alpha 90.000000
_cell_angle_beta 90.000000
_cell_angle_gamma 90.000000
_cell_volume 2084.088026
_symmetry_space_group_name_H-M "A B M 2"
_symmetry_group_IT_number 39
_symmetry_cell_setting 'orthorhombic'
loop_
_space_group_symop_operation_xyz
x,y,z
-x,-y,z
-x,1/2+y,z
x,1/2-y,z
x,1/2+y,1/2+z
-x,1/2-y,1/2+z
-x,y,1/2+z
x,-y,1/2+z
loop_
_atom_site_type_symbol
_atom_site_label
_atom_site_fract_x
_atom_site_fract_y
_atom_site_fract_z
Si Si1 0.384938 0.567260 0.947160
Si Si2 0.786270 0.052535 0.879153
Si Si3 0.387338 0.059555 0.135547
Si Si4 0.089300 0.440961 0.524464
Si Si5 0.500000 0.500000 0.784769
Si Si6 0.793623 0.056123 0.674139
O O1 0.375295 0.750000 0.981181
O O2 0.299644 0.502907 0.915405
O O3 0.440901 0.575133 0.859667
O O4 0.413472 0.464652 0.032502
O O5 0.784783 0.250000 0.879411
O O6 0.797976 0.000910 0.776974
O O7 0.856538 0.994205 0.942905
O O8 0.397593 0.250000 0.161405
O O9 0.434335 0.952612 0.208775
O O10 0.294479 0.019083 0.138948
O O11 0.086961 0.250000 0.514638
O O12 0.137908 0.483661 0.613668
O O13 0.000000 0.500000 0.525188
O O14 0.801351 0.250000 0.671717
#
# Coordination Sequence:
#
# PCOD9361141 Si02
#       6
#     8   8   8   8   4   8
#     4  11  23  42  65  91 126 169 217 266 319 379
#     4   9  19  39  66  91 123 166 207 255 315 372
#     4  11  24  41  63  93 129 169 214 267 325 382
#     4  11  23  41  66  96 128 164 207 260 318 381
#     4  12  24  38  64  94 128 168 218 268 320 376
#     4  10  20  40  67  93 125 166 210 259 317 378
#
# _framework density 21.112352000000001
#
# number of rings (size 3 to 8) (size 9 to 14) (size 15 to 20)
#    0.000    1.455    3.636    1.636    0.000    5.091 
#    0.000    4.545    0.000    0.000    0.000    0.000 
#    0.000    0.000    0.000    0.000    0.000    0.000 
#
# Total GULP energy -122672.837234 kJ/mol
# GULP energy per Si atom -5576.038056 kJ/mol
# Density = 2.106430 g / cm^3
# Si number density = 21.112352 Si / 1000 Ang^3
#
#
#
# Elastic Constant Matrix: (Units=GPa)
#
#
# Indices 1 2 3 4 5 6 
#
# 1 178.8859 29.4255 67.7682 0.0000 0.0000 0.0000
# 2 29.4255 22.7499 18.6251 0.0000 0.0000 0.0000
# 3 67.7682 18.6251 171.5026 0.0000 0.0000 0.0000
# 4 0.0000 0.0000 0.0000 10.3153 0.0000 0.0000
# 5 0.0000 0.0000 0.0000 0.0000 7.0096 0.0000
# 6 0.0000 0.0000 0.0000 0.0000 0.0000 62.9514
#
#
#
# Elastic Compliance Matrix: (Units=1/GPa)
#
#
# Indices 1 2 3 4 5 6 
#
# 1 0.007775 -0.008277 -0.002173 0.000000 0.000000 0.000000
# 2 -0.008277 0.057058 -0.002926 0.000000 0.000000 0.000000
# 3 -0.002173 -0.002926 0.007007 0.000000 0.000000 0.000000
# 4 0.000000 0.000000 0.000000 0.096944 0.000000 0.000000
# 5 0.000000 0.000000 0.000000 0.000000 0.142661 0.000000
# 6 0.000000 0.000000 0.000000 0.000000 0.000000 0.015885
#
#
# Mechanical properties :
#
#
# Convention : Reuss Voigt Hill
#
# Bulk Modulus (GPa) = 22.17918 67.19732 44.68825
# Shear Modulus (GPa) = 13.54604 33.20991 23.37797
#
# Velocity S-wave (km/s) = 2.53576 3.97042 3.33124
# Velocity P-wave (km/s) = 4.37054 7.27437 6.00075
#
# Compressibility (1/GPa) = 0.04508733
#
# Stress axis : x y z
#
# Youngs Moduli (GPa) = 128.61661 17.52617 142.70755
#
# Poissons Ratio (x) = 0.14507 0.31016
# Poissons Ratio (y) = 1.06459 0.41752
# Poissons Ratio (z) = 0.27953 0.05128
#
# Static dielectric constant tensor:
#      x y z
#    x 1.758250 0.000000 0.000000 
#    y 0.000000 1.787210 0.000000 
#    z 0.000000 0.000000 1.743830 
# 
# From -- ./inp_files/10001.got.cif
#   From: 2010.05.17/outbox.cif.g08.bks.cpg/sg39_6_cif.got.tgz:10001.got - 2010.06.03 18:22:40.
