data_PCOD9361837
_publ_section_title
;
Structure prediction by ZEFSAII (Michael W. Deem and Ramdas Pophale) SiO2 
 PCOD9361837
Probable space group: A B M 2
;
_chemical_formula_sum "Si O2"
_cell_formula_units_Z 64
_cell_length_a 24.054597
_cell_length_b 8.701454
_cell_length_c 15.697852
_cell_angle_alpha 90.000000
_cell_angle_beta 90.000000
_cell_angle_gamma 90.000000
_cell_volume 3285.716920
_symmetry_space_group_name_H-M "A B M 2"
_symmetry_group_IT_number 39
_symmetry_cell_setting 'orthorhombic'
loop_
_space_group_symop_operation_xyz
x,y,z
-x,-y,z
-x,1/2+y,z
x,1/2-y,z
x,1/2+y,1/2+z
-x,1/2-y,1/2+z
-x,y,1/2+z
x,-y,1/2+z
loop_
_atom_site_type_symbol
_atom_site_label
_atom_site_fract_x
_atom_site_fract_y
_atom_site_fract_z
Si Si1 0.252893 0.066698 0.814890
Si Si2 0.125219 0.567395 0.565526
Si Si3 0.759175 0.567533 0.503964
Si Si4 0.642883 0.565598 0.058318
Si Si5 0.061649 0.566414 0.904507
Si Si6 0.131300 0.432997 0.747375
Si Si7 0.438684 0.565850 0.403835
Si Si8 0.368666 0.933583 0.750309
O O1 0.258847 0.250000 0.828413
O O2 0.197278 0.039952 0.760386
O O3 0.245131 0.985422 0.905871
O O4 0.308022 0.001664 0.771472
O O5 0.119942 0.750000 0.559248
O O6 0.188353 0.516981 0.545225
O O7 0.087260 0.489091 0.493902
O O8 0.111604 0.509870 0.660140
O O9 0.767342 0.750000 0.509772
O O10 0.701588 0.518307 0.547350
O O11 0.652398 0.750000 0.052340
O O12 0.618445 0.532973 0.151615
O O13 0.601824 0.520687 0.981880
O O14 0.061005 0.750000 0.901242
O O15 0.099914 0.501349 0.828748
O O16 0.000000 0.500000 0.894875
O O17 0.122583 0.250000 0.744035
O O18 0.500000 0.500000 0.415917
O O19 0.440817 0.750000 0.401365
O O20 0.411791 0.504350 0.316783
O O21 0.367125 0.750000 0.761582
#
# Coordination Sequence:
#
# PCOD9361837 Si02
#       8
#     8   8   8   8   8   8   8   8
#     4  11  22  38  63  94 132 170 207 257 319 380
#     4  12  25  43  67  97 134 173 215 267 323 382
#     4  12  23  37  64  97 130 169 213 259 316 384
#     4  10  23  42  64  92 129 166 205 257 318 378
#     4  12  26  46  70  96 129 170 219 270 324 383
#     4  11  24  43  68  99 133 171 216 264 321 386
#     4  11  24  43  65  88 122 165 210 264 317 371
#     4  11  23  40  64  95 127 164 209 257 313 377
#
# _framework density 19.478244
#
# number of rings (size 3 to 8) (size 9 to 14) (size 15 to 20)
#    0.000    0.750    2.500    5.625    0.000    6.000 
#    0.000    3.750    0.000    0.000    0.000    0.000 
#    0.000    0.000    0.000    0.000    0.000    0.000 
#
# Total GULP energy -179123.139189 kJ/mol
# GULP energy per Si atom -5597.598100 kJ/mol
# Density = 1.943391 g / cm^3
# Si number density = 19.478244 Si / 1000 Ang^3
#
#
#
# Elastic Constant Matrix: (Units=GPa)
#
#
# Indices 1 2 3 4 5 6 
#
# 1 50.7297 11.8457 -24.1875 0.0000 0.0000 0.0000
# 2 11.8457 69.8785 0.9686 0.0000 0.0000 0.0000
# 3 -24.1875 0.9686 61.3055 0.0000 0.0000 0.0000
# 4 0.0000 0.0000 0.0000 30.9241 0.0000 0.0000
# 5 0.0000 0.0000 0.0000 0.0000 -1.7278 0.0000
# 6 0.0000 0.0000 0.0000 0.0000 0.0000 36.6441
#
#
#
# Elastic Compliance Matrix: (Units=1/GPa)
#
#
# Indices 1 2 3 4 5 6 
#
# 1 0.025610 -0.004482 0.010175 0.000000 0.000000 0.000000
# 2 -0.004482 0.015098 -0.002007 0.000000 0.000000 0.000000
# 3 0.010175 -0.002007 0.020358 0.000000 0.000000 0.000000
# 4 0.000000 0.000000 0.000000 0.032337 0.000000 0.000000
# 5 0.000000 0.000000 0.000000 0.000000 -0.578760 0.000000
# 6 0.000000 0.000000 0.000000 0.000000 0.000000 0.027290
#
#
# Mechanical properties :
#
#
# Convention : Reuss Voigt Hill
#
# Bulk Modulus (GPa) = 14.61180 17.68527 16.14854
# Shear Modulus (GPa) = -11.29624 26.05387 7.37882
#
# Velocity S-wave (km/s) = -2.41081 3.66127 1.94845
# Velocity P-wave (km/s) = 0.48109 5.19350 3.65657
#
# Compressibility (1/GPa) = 0.06843782
#
# Stress axis : x y z
#
# Youngs Moduli (GPa) = 39.04662 66.23290 49.12084
#
# Poissons Ratio (x) = 0.29689 -0.49981
# Poissons Ratio (y) = 0.17503 0.09859
# Poissons Ratio (z) = -0.39731 0.13293
#
# Static dielectric constant tensor:
#      x y z
#    x 1.651150 0.000000 0.000000 
#    y 0.000000 1.651000 0.000000 
#    z 0.000000 0.000000 1.673550 
# 
# From -- ./inp_files/10691.got.cif
#   From: 2010.05.17/outbox.cif.g08.bks.cpg/sg39_6_cif.got.tgz:10691.got - 2010.06.03 18:22:40.
