data_PCOD9361593
_publ_section_title
;
Structure prediction by ZEFSAII (Michael W. Deem and Ramdas Pophale) SiO2 
 PCOD9361593
Probable space group: A B M 2
;
_chemical_formula_sum "Si O2"
_cell_formula_units_Z 64
_cell_length_a 7.232485
_cell_length_b 22.846321
_cell_length_c 15.009279
_cell_angle_alpha 90.000000
_cell_angle_beta 90.000000
_cell_angle_gamma 90.000000
_cell_volume 2480.068331
_symmetry_space_group_name_H-M "A B M 2"
_symmetry_group_IT_number 39
_symmetry_cell_setting 'orthorhombic'
loop_
_space_group_symop_operation_xyz
x,y,z
-x,-y,z
-x,1/2+y,z
x,1/2-y,z
x,1/2+y,1/2+z
-x,1/2-y,1/2+z
-x,y,1/2+z
x,-y,1/2+z
loop_
_atom_site_type_symbol
_atom_site_label
_atom_site_fract_x
_atom_site_fract_y
_atom_site_fract_z
Si Si1 0.572812 0.564065 0.582920
Si Si2 0.560076 0.312450 0.099756
Si Si3 0.068330 0.438000 0.265791
Si Si4 0.056434 0.687378 0.743262
Si Si5 0.943202 0.936113 0.477075
Si Si6 0.998331 0.686967 0.545145
Si Si7 0.490786 0.564001 0.779631
Si Si8 0.466993 0.687066 0.809160
O O1 0.500000 0.500000 0.561319
O O2 0.471265 0.626386 0.569248
O O3 0.746950 0.571543 0.521190
O O4 0.612044 0.561911 0.689771
O O5 0.487628 0.250000 0.065795
O O6 0.779170 0.313484 0.074156
O O7 0.537413 0.311591 0.206830
O O8 0.965454 0.376464 0.249543
O O9 0.068546 0.442413 0.371927
O O10 0.282745 0.430474 0.240129
O O11 0.000000 0.500000 0.228992
O O12 0.959830 0.750000 0.761834
O O13 0.242175 0.686340 0.802910
O O14 0.105747 0.689171 0.638859
O O15 0.042234 0.874293 0.497839
O O16 0.000000 0.000000 0.512746
O O17 0.026901 0.750000 0.497984
O O18 0.500000 0.500000 0.824476
O O19 0.524753 0.621621 0.838880
O O20 0.518592 0.750000 0.850657
#
# Coordination Sequence:
#
# PCOD9361593 Si02
#       8
#     8   8   8   8   8   8   8   8
#     4   9  18  32  51  76 101 132 178 223 267 315
#     4   8  14  26  44  68  97 124 156 204 257 305
#     4  10  22  37  53  77 111 149 183 220 271 328
#     4   9  18  32  52  78 104 134 176 223 267 314
#     4  10  22  37  53  77 111 149 183 220 271 328
#     4   9  18  32  52  78 104 134 176 223 267 314
#     4   9  18  32  51  76 101 132 178 223 267 315
#     4   8  14  26  44  68  97 124 156 204 257 305
#
# _framework density 25.805738000000002
#
# number of rings (size 3 to 8) (size 9 to 14) (size 15 to 20)
#    0.000    3.000    0.000    0.000    0.000   11.500 
#    0.000    0.000    0.000    0.000    0.000    0.000 
#    0.000   10.000    0.000    0.000    0.000    0.000 
#
# Total GULP energy -178340.115482 kJ/mol
# GULP energy per Si atom -5573.128609 kJ/mol
# Density = 2.574700 g / cm^3
# Si number density = 25.805738 Si / 1000 Ang^3
#
#
#
# Elastic Constant Matrix: (Units=GPa)
#
#
# Indices 1 2 3 4 5 6 
#
# 1 41.5919 29.3659 -1.2739 0.0000 0.0000 0.0000
# 2 29.3659 357.4548 28.4385 0.0000 0.0000 0.0000
# 3 -1.2739 28.4385 58.2061 0.0000 0.0000 0.0000
# 4 0.0000 0.0000 0.0000 9.4040 0.0000 0.0000
# 5 0.0000 0.0000 0.0000 0.0000 11.0740 0.0000
# 6 0.0000 0.0000 0.0000 0.0000 0.0000 33.7823
#
#
#
# Elastic Compliance Matrix: (Units=1/GPa)
#
#
# Indices 1 2 3 4 5 6 
#
# 1 0.025676 -0.002241 0.001657 0.000000 0.000000 0.000000
# 2 -0.002241 0.003106 -0.001567 0.000000 0.000000 0.000000
# 3 0.001657 -0.001567 0.017982 0.000000 0.000000 0.000000
# 4 0.000000 0.000000 0.000000 0.106337 0.000000 0.000000
# 5 0.000000 0.000000 0.000000 0.000000 0.090301 0.000000
# 6 0.000000 0.000000 0.000000 0.000000 0.000000 0.029601
#
#
# Mechanical properties :
#
#
# Convention : Reuss Voigt Hill
#
# Bulk Modulus (GPa) = 23.55004 63.36818 43.45911
# Shear Modulus (GPa) = 17.15495 37.56689 27.36092
#
# Velocity S-wave (km/s) = 2.58112 3.81958 3.25970
# Velocity P-wave (km/s) = 4.24601 6.63788 5.57180
#
# Compressibility (1/GPa) = 0.04246278
#
# Stress axis : x y z
#
# Youngs Moduli (GPa) = 38.94638 321.92370 55.61088
#
# Poissons Ratio (x) = 0.72150 -0.09215
# Poissons Ratio (y) = 0.08729 0.08713
# Poissons Ratio (z) = -0.06453 0.50437
#
# Static dielectric constant tensor:
#      x y z
#    x 2.048270 0.000000 0.000000 
#    y 0.000000 2.195540 0.000000 
#    z 0.000000 0.000000 1.940370 
# 
# From -- ./inp_files/8779.got.cif
#   From: 2010.05.17/outbox.cif.g08.bks.cpg/sg39_5_cif.got.tgz:8779.got - 2010.06.03 18:22:40.
