data_PCOD9361301
_publ_section_title
;
Structure prediction by ZEFSAII (Michael W. Deem and Ramdas Pophale) SiO2 
 PCOD9361301
Probable space group: A B M 2
;
_chemical_formula_sum "Si O2"
_cell_formula_units_Z 56
_cell_length_a 19.920585
_cell_length_b 8.819763
_cell_length_c 16.130301
_cell_angle_alpha 90.000000
_cell_angle_beta 90.000000
_cell_angle_gamma 90.000000
_cell_volume 2834.010629
_symmetry_space_group_name_H-M "A B M 2"
_symmetry_group_IT_number 39
_symmetry_cell_setting 'orthorhombic'
loop_
_space_group_symop_operation_xyz
x,y,z
-x,-y,z
-x,1/2+y,z
x,1/2-y,z
x,1/2+y,1/2+z
-x,1/2-y,1/2+z
-x,y,1/2+z
x,-y,1/2+z
loop_
_atom_site_type_symbol
_atom_site_label
_atom_site_fract_x
_atom_site_fract_y
_atom_site_fract_z
Si Si1 0.201057 0.425256 0.373190
Si Si2 0.068489 0.930474 0.627009
Si Si3 0.345918 0.567370 0.812318
Si Si4 0.932148 0.429824 0.311432
Si Si5 0.660765 0.067352 0.627865
Si Si6 0.574202 0.432031 0.467056
Si Si7 0.796288 0.925167 0.567171
O O1 0.184588 0.250000 0.351572
O O2 0.267061 0.471837 0.322746
O O3 0.135782 0.525237 0.357714
O O4 0.220228 0.430151 0.469699
O O5 0.063619 0.750000 0.629335
O O6 0.073588 0.996623 0.720119
O O7 0.135350 0.984052 0.581503
O O8 0.000000 0.000000 0.590300
O O9 0.351065 0.750000 0.822281
O O10 0.367087 0.526429 0.718786
O O11 0.387438 0.489785 0.885247
O O12 0.939336 0.250000 0.304818
O O13 0.000000 0.500000 0.349919
O O14 0.667607 0.250000 0.626088
O O15 0.614546 0.021557 0.550312
O O16 0.734005 0.995902 0.615613
O O17 0.500000 0.500000 0.468810
O O18 0.571192 0.250000 0.465600
O O19 0.806716 0.750000 0.591469
#
# Coordination Sequence:
#
# PCOD9361301 Si02
#       7
#     8   8   8   8   8   8   8
#     4  10  21  37  59  87 122 161 202 255 313 369
#     4  11  22  38  58  81 115 157 203 259 316 373
#     4  10  21  41  66  93 126 166 207 255 311 368
#     4  11  22  37  58  83 115 156 205 259 313 375
#     4  10  22  40  65  95 128 167 210 255 311 371
#     4  11  24  42  65  95 130 166 206 254 306 369
#     4  11  22  37  60  90 121 159 207 257 310 369
#
# _framework density 19.759981
#
# number of rings (size 3 to 8) (size 9 to 14) (size 15 to 20)
#    0.000    1.429    1.429    5.143    0.000    5.143 
#    0.000    1.429    0.000    0.000    0.000    0.000 
#    0.000    0.000    0.000    0.000    0.000    0.000 
#
# Total GULP energy -156515.011957 kJ/mol
# GULP energy per Si atom -5589.821856 kJ/mol
# Density = 1.971501 g / cm^3
# Si number density = 19.759981 Si / 1000 Ang^3
#
#
#
# Elastic Constant Matrix: (Units=GPa)
#
#
# Indices 1 2 3 4 5 6 
#
# 1 128.5237 56.7294 60.1276 0.0000 0.0000 0.0000
# 2 56.7294 98.1135 44.3580 0.0000 0.0000 0.0000
# 3 60.1276 44.3580 116.6048 0.0000 0.0000 0.0000
# 4 0.0000 0.0000 0.0000 25.2334 0.0000 0.0000
# 5 0.0000 0.0000 0.0000 0.0000 3.5134 0.0000
# 6 0.0000 0.0000 0.0000 0.0000 0.0000 28.9765
#
#
#
# Elastic Compliance Matrix: (Units=1/GPa)
#
#
# Indices 1 2 3 4 5 6 
#
# 1 0.011989 -0.004996 -0.004281 0.000000 0.000000 0.000000
# 2 -0.004996 0.014392 -0.002898 0.000000 0.000000 0.000000
# 3 -0.004281 -0.002898 0.011886 0.000000 0.000000 0.000000
# 4 0.000000 0.000000 0.000000 0.039630 0.000000 0.000000
# 5 0.000000 0.000000 0.000000 0.000000 0.284628 0.000000
# 6 0.000000 0.000000 0.000000 0.000000 0.000000 0.034511
#
#
# Mechanical properties :
#
#
# Convention : Reuss Voigt Hill
#
# Bulk Modulus (GPa) = 71.86758 73.96354 72.91556
# Shear Modulus (GPa) = 11.73636 23.67979 17.70808
#
# Velocity S-wave (km/s) = 2.43974 3.46551 2.99684
# Velocity P-wave (km/s) = 6.66226 7.31609 6.99682
#
# Compressibility (1/GPa) = 0.01391448
#
# Stress axis : x y z
#
# Youngs Moduli (GPa) = 83.40943 69.48517 84.13039
#
# Poissons Ratio (x) = 0.34717 0.36020
# Poissons Ratio (y) = 0.41675 0.24384
# Poissons Ratio (z) = 0.35712 0.20139
#
# Static dielectric constant tensor:
#      x y z
#    x 1.674980 0.000000 0.000000 
#    y 0.000000 1.672340 0.000000 
#    z 0.000000 0.000000 1.710090 
# 
# From -- ./inp_files/10403.got.cif
#   From: 2010.05.17/outbox.cif.g08.bks.cpg/sg39_6_cif.got.tgz:10403.got - 2010.06.03 18:22:40.
