data_PCOD9361813
_publ_section_title
;
Structure prediction by ZEFSAII (Michael W. Deem and Ramdas Pophale) SiO2 
 PCOD9361813
Probable space group: A B M 2
;
_chemical_formula_sum "Si O2"
_cell_formula_units_Z 64
_cell_length_a 17.242951
_cell_length_b 23.023592
_cell_length_c 7.700260
_cell_angle_alpha 90.000000
_cell_angle_beta 90.000000
_cell_angle_gamma 90.000000
_cell_volume 3056.962168
_symmetry_space_group_name_H-M "A B M 2"
_symmetry_group_IT_number 39
_symmetry_cell_setting 'orthorhombic'
loop_
_space_group_symop_operation_xyz
x,y,z
-x,-y,z
-x,1/2+y,z
x,1/2-y,z
x,1/2+y,1/2+z
-x,1/2-y,1/2+z
-x,y,1/2+z
x,-y,1/2+z
loop_
_atom_site_type_symbol
_atom_site_label
_atom_site_fract_x
_atom_site_fract_y
_atom_site_fract_z
Si Si1 0.702669 0.912978 0.097030
Si Si2 0.574514 0.317111 0.580413
Si Si3 0.073143 0.959891 0.891606
Si Si4 0.401907 0.314820 0.668920
Si Si5 0.242073 0.027105 0.451452
Si Si6 0.754981 0.624969 0.727304
Si Si7 0.028632 0.620958 0.601839
Si Si8 0.093439 0.815186 0.284789
O O1 0.631925 0.868740 0.140474
O O2 0.736775 0.933786 0.283115
O O3 0.746599 0.879514 0.937652
O O4 0.697243 0.975707 0.995896
O O5 0.583336 0.250000 0.652266
O O6 0.485120 0.335826 0.602937
O O7 0.589343 0.311781 0.376224
O O8 0.152810 0.993249 0.921949
O O9 0.080744 0.912292 0.740248
O O10 0.000000 0.000000 0.850340
O O11 0.041725 0.922478 0.052989
O O12 0.390740 0.250000 0.597869
O O13 0.324780 0.351337 0.645063
O O14 0.234191 0.065012 0.626320
O O15 0.827688 0.666416 0.690530
O O16 0.076892 0.638533 0.435561
O O17 0.983766 0.677365 0.670042
O O18 0.101332 0.750000 0.349940
#
# Coordination Sequence:
#
# PCOD9361813 Si02
#       8
#     8   8   8   8   8   8   8   8
#     4  11  25  41  68  93 135 172 212 268 335 390
#     4   9  20  41  68  99 130 166 215 269 325 392
#     4  11  24  37  62  90 119 162 217 271 326 385
#     4   9  19  38  67  97 129 169 216 268 322 385
#     4  12  25  42  64  97 131 172 215 273 330 388
#     4  11  23  42  65  96 130 171 218 271 331 393
#     4  10  23  38  59  90 119 164 216 269 325 392
#     4  11  22  41  62  86 127 171 218 273 332 393
#
# _framework density 20.935815999999999
#
# number of rings (size 3 to 8) (size 9 to 14) (size 15 to 20)
#    0.000    1.500    2.500    1.875    8.750    0.500 
#    0.000    1.250    0.000    0.000    0.000    0.000 
#    0.000    0.000    0.000    0.000    0.000    0.000 
#
# Total GULP energy -178268.589308 kJ/mol
# GULP energy per Si atom -5570.893416 kJ/mol
# Density = 2.088817 g / cm^3
# Si number density = 20.935816 Si / 1000 Ang^3
#
#
#
# Elastic Constant Matrix: (Units=GPa)
#
#
# Indices 1 2 3 4 5 6 
#
# 1 131.4748 60.8593 14.2781 0.0000 0.0000 0.0000
# 2 60.8593 84.3511 6.5535 0.0000 0.0000 0.0000
# 3 14.2781 6.5535 56.1811 0.0000 0.0000 0.0000
# 4 0.0000 0.0000 0.0000 18.3802 0.0000 0.0000
# 5 0.0000 0.0000 0.0000 0.0000 17.2372 0.0000
# 6 0.0000 0.0000 0.0000 0.0000 0.0000 18.5270
#
#
#
# Elastic Compliance Matrix: (Units=1/GPa)
#
#
# Indices 1 2 3 4 5 6 
#
# 1 0.011638 -0.008242 -0.001996 0.000000 0.000000 0.000000
# 2 -0.008242 0.017800 0.000018 0.000000 0.000000 0.000000
# 3 -0.001996 0.000018 0.018305 0.000000 0.000000 0.000000
# 4 0.000000 0.000000 0.000000 0.054406 0.000000 0.000000
# 5 0.000000 0.000000 0.000000 0.000000 0.058014 0.000000
# 6 0.000000 0.000000 0.000000 0.000000 0.000000 0.053975
#
#
# Mechanical properties :
#
#
# Convention : Reuss Voigt Hill
#
# Bulk Modulus (GPa) = 36.62561 48.37654 42.50108
# Shear Modulus (GPa) = 20.51879 23.51661 22.01770
#
# Velocity S-wave (km/s) = 3.13402 3.35516 3.24647
# Velocity P-wave (km/s) = 5.53429 6.17792 5.86494
#
# Compressibility (1/GPa) = 0.02730330
#
# Stress axis : x y z
#
# Youngs Moduli (GPa) = 85.92669 56.17946 54.63045
#
# Poissons Ratio (x) = 0.46301 0.10906
# Poissons Ratio (y) = 0.70817 -0.00099
# Poissons Ratio (z) = 0.17154 -0.00102
#
# Static dielectric constant tensor:
#      x y z
#    x 1.758640 0.000000 0.000000 
#    y 0.000000 1.785460 0.000000 
#    z 0.000000 0.000000 1.801130 
# 
# From -- ./inp_files/3514.got.cif
#   From: 2010.05.17/outbox.cif.g08.bks.cpg/sg39_2_cif.got.tgz:3514.got - 2010.06.03 18:22:40.
