data_PCOD9361272
_publ_section_title
;
Structure prediction by ZEFSAII (Michael W. Deem and Ramdas Pophale) SiO2 
 PCOD9361272
Probable space group: A B M 2
;
_chemical_formula_sum "Si O2"
_cell_formula_units_Z 64
_cell_length_a 12.892286
_cell_length_b 8.904966
_cell_length_c 25.591840
_cell_angle_alpha 90.000000
_cell_angle_beta 90.000000
_cell_angle_gamma 90.000000
_cell_volume 2938.080622
_symmetry_space_group_name_H-M "A B M 2"
_symmetry_group_IT_number 39
_symmetry_cell_setting 'orthorhombic'
loop_
_space_group_symop_operation_xyz
x,y,z
-x,-y,z
-x,1/2+y,z
x,1/2-y,z
x,1/2+y,1/2+z
-x,1/2-y,1/2+z
-x,y,1/2+z
x,-y,1/2+z
loop_
_atom_site_type_symbol
_atom_site_label
_atom_site_fract_x
_atom_site_fract_y
_atom_site_fract_z
Si Si1 0.397164 0.072170 0.191780
Si Si2 0.107558 0.573961 0.443534
Si Si3 0.823775 0.925269 0.825212
Si Si4 0.106218 0.071188 0.612291
Si Si5 0.837139 0.428055 0.721089
Si Si6 0.678573 0.429590 0.579251
Si Si7 0.322832 0.074849 0.476116
Si Si8 0.391953 0.073269 0.358142
O O1 0.411256 0.250000 0.192138
O O2 0.287068 0.041552 0.218629
O O3 0.381811 0.022032 0.131476
O O4 0.500000 0.000000 0.214634
O O5 0.111956 0.750000 0.457235
O O6 0.117927 0.561174 0.380467
O O7 0.207626 0.489486 0.465836
O O8 0.000000 0.500000 0.460120
O O9 0.819345 0.750000 0.810874
O O10 0.872395 0.018787 0.777833
O O11 0.708248 0.988678 0.835834
O O12 0.105452 0.250000 0.607862
O O13 0.116120 0.020217 0.672999
O O14 0.207142 0.001172 0.585018
O O15 0.000000 0.000000 0.591614
O O16 0.853529 0.250000 0.712735
O O17 0.687400 0.250000 0.580278
O O18 0.631750 0.484867 0.524957
O O19 0.317570 0.250000 0.489482
O O20 0.381829 0.059687 0.421197
O O21 0.387130 0.250000 0.344485
O O22 0.500000 0.000000 0.341786
#
# Coordination Sequence:
#
# PCOD9361272 Si02
#       8
#     8   8   8   8   8   8   8   8
#     4   9  20  36  55  79 108 142 179 221 267 317
#     4  10  21  37  57  81 110 143 180 224 272 323
#     4  10  21  37  57  82 111 145 185 228 276 327
#     4  11  22  38  59  83 111 144 183 227 275 327
#     4  10  21  38  57  81 113 147 184 227 274 324
#     4  10  21  38  57  81 112 144 181 226 274 324
#     4  10  21  37  57  82 110 143 183 225 272 325
#     4  10  21  37  57  81 111 146 185 230 278 329
#
# _framework density 21.782928999999999
#
# number of rings (size 3 to 8) (size 9 to 14) (size 15 to 20)
#    0.000    2.000    0.000    4.125    0.000    8.000 
#    0.000    7.500    0.000    0.000    0.000    0.000 
#    0.000    0.000    0.000    0.000    0.000    0.000 
#
# Total GULP energy -178994.432660 kJ/mol
# GULP energy per Si atom -5593.576021 kJ/mol
# Density = 2.173335 g / cm^3
# Si number density = 21.782929 Si / 1000 Ang^3
#
#
#
# Elastic Constant Matrix: (Units=GPa)
#
#
# Indices 1 2 3 4 5 6 
#
# 1 93.3515 26.5112 -20.4154 0.0000 0.0000 0.0000
# 2 26.5112 93.9220 20.4601 0.0000 0.0000 0.0000
# 3 -20.4154 20.4601 77.9634 0.0000 0.0000 0.0000
# 4 0.0000 0.0000 0.0000 86.0567 0.0000 0.0000
# 5 0.0000 0.0000 0.0000 0.0000 -12.0238 0.0000
# 6 0.0000 0.0000 0.0000 0.0000 0.0000 26.7372
#
#
#
# Elastic Compliance Matrix: (Units=1/GPa)
#
#
# Indices 1 2 3 4 5 6 
#
# 1 0.013066 -0.004702 0.004655 0.000000 0.000000 0.000000
# 2 -0.004702 0.012985 -0.004639 0.000000 0.000000 0.000000
# 3 0.004655 -0.004639 0.015263 0.000000 0.000000 0.000000
# 4 0.000000 0.000000 0.000000 0.011620 0.000000 0.000000
# 5 0.000000 0.000000 0.000000 0.000000 -0.083169 0.000000
# 6 0.000000 0.000000 0.000000 0.000000 0.000000 0.037401
#
#
# Mechanical properties :
#
#
# Convention : Reuss Voigt Hill
#
# Bulk Modulus (GPa) = 31.30663 35.37208 33.33935
# Shear Modulus (GPa) = 183.92381 36.06610 109.99495
#
# Velocity S-wave (km/s) = 9.19881 4.07345 7.11376
# Velocity P-wave (km/s) = 11.27952 6.19659 9.10014
#
# Compressibility (1/GPa) = 0.03194211
#
# Stress axis : x y z
#
# Youngs Moduli (GPa) = 76.53637 77.01218 65.51791
#
# Poissons Ratio (x) = 0.36212 -0.30501
# Poissons Ratio (y) = 0.35989 0.30394
# Poissons Ratio (z) = -0.35631 0.35726
#
# Static dielectric constant tensor:
#      x y z
#    x 1.791660 0.000000 0.000000 
#    y 0.000000 1.725860 0.000000 
#    z 0.000000 0.000000 1.838920 
# 
# From -- ./inp_files/17870.got.cif
#   From: 2010.05.17/outbox.cif.g08.bks.cpg/sg39_9_cif.got.tgz:17870.got - 2010.06.03 18:22:40.
