data_PCOD9361489
_publ_section_title
;
Structure prediction by ZEFSAII (Michael W. Deem and Ramdas Pophale) SiO2 
 PCOD9361489
Probable space group: A B M 2
;
_chemical_formula_sum "Si O2"
_cell_formula_units_Z 48
_cell_length_a 14.030333
_cell_length_b 18.545598
_cell_length_c 8.374210
_cell_angle_alpha 90.000000
_cell_angle_beta 90.000000
_cell_angle_gamma 90.000000
_cell_volume 2178.977110
_symmetry_space_group_name_H-M "A B M 2"
_symmetry_group_IT_number 39
_symmetry_cell_setting 'orthorhombic'
loop_
_space_group_symop_operation_xyz
x,y,z
-x,-y,z
-x,1/2+y,z
x,1/2-y,z
x,1/2+y,1/2+z
-x,1/2-y,1/2+z
-x,y,1/2+z
x,-y,1/2+z
loop_
_atom_site_type_symbol
_atom_site_label
_atom_site_fract_x
_atom_site_fract_y
_atom_site_fract_z
Si Si1 0.523548 0.580459 0.654720
Si Si2 0.281552 0.561210 0.989810
Si Si3 0.212030 0.910685 0.347309
Si Si4 0.953183 0.834276 0.992807
Si Si5 0.854258 0.166976 0.835647
Si Si6 0.613979 0.166486 0.446743
O O1 0.500000 0.500000 0.712467
O O2 0.605648 0.570813 0.518937
O O3 0.569477 0.380936 0.587071
O O4 0.567857 0.631468 0.788772
O O5 0.235648 0.578749 0.162134
O O6 0.251076 0.481848 0.935234
O O7 0.234825 0.615426 0.863094
O O8 0.104040 0.890119 0.382927
O O9 0.274024 0.845599 0.422306
O O10 0.938291 0.750000 0.944686
O O11 0.910588 0.843480 0.169696
O O12 0.065699 0.846195 0.971679
O O13 0.823160 0.250000 0.844063
O O14 0.590408 0.250000 0.465344
#
# Coordination Sequence:
#
# PCOD9361489 Si02
#       6
#     8   8   8   8   8   8
#     4  11  23  42  65  89 129 172 213 266 330 391
#     4  11  24  39  64  90 124 169 213 267 321 391
#     4  11  23  40  61  90 127 164 216 263 329 386
#     4  10  21  40  65  92 130 170 209 267 328 385
#     4  10  22  40  64  95 128 168 216 264 325 391
#     4  11  24  40  64  95 126 166 219 272 322 386
#
# _framework density 22.028684999999999
#
# number of rings (size 3 to 8) (size 9 to 14) (size 15 to 20)
#    0.000    1.333    1.667    3.500    2.333    7.333 
#    0.000    5.000    0.000    0.000    0.000    0.000 
#    0.000    0.000    0.000    0.000    0.000    0.000 
#
# Total GULP energy -134268.723930 kJ/mol
# GULP energy per Si atom -5594.530164 kJ/mol
# Density = 2.197855 g / cm^3
# Si number density = 22.028685 Si / 1000 Ang^3
#
#
#
# Elastic Constant Matrix: (Units=GPa)
#
#
# Indices 1 2 3 4 5 6 
#
# 1 50.8849 18.6353 -1.0939 0.0000 0.0000 0.0000
# 2 18.6353 106.5883 16.1503 0.0000 0.0000 0.0000
# 3 -1.0939 16.1503 48.9519 0.0000 0.0000 0.0000
# 4 0.0000 0.0000 0.0000 26.7255 0.0000 0.0000
# 5 0.0000 0.0000 0.0000 0.0000 33.3005 0.0000
# 6 0.0000 0.0000 0.0000 0.0000 0.0000 30.2752
#
#
#
# Elastic Compliance Matrix: (Units=1/GPa)
#
#
# Indices 1 2 3 4 5 6 
#
# 1 0.021143 -0.003966 0.001781 0.000000 0.000000 0.000000
# 2 -0.003966 0.010620 -0.003592 0.000000 0.000000 0.000000
# 3 0.001781 -0.003592 0.021653 0.000000 0.000000 0.000000
# 4 0.000000 0.000000 0.000000 0.037417 0.000000 0.000000
# 5 0.000000 0.000000 0.000000 0.000000 0.030030 0.000000
# 6 0.000000 0.000000 0.000000 0.000000 0.000000 0.033030
#
#
# Mechanical properties :
#
#
# Convention : Reuss Voigt Hill
#
# Bulk Modulus (GPa) = 23.88877 30.42318 27.15598
# Shear Modulus (GPa) = 27.87035 29.57580 28.72307
#
# Velocity S-wave (km/s) = 3.56080 3.66813 3.61486
# Velocity P-wave (km/s) = 5.27007 5.63746 5.45686
#
# Compressibility (1/GPa) = 0.04186067
#
# Stress axis : x y z
#
# Youngs Moduli (GPa) = 47.29682 94.16496 46.18256
#
# Poissons Ratio (x) = 0.37350 -0.08225
# Poissons Ratio (y) = 0.18760 0.16590
# Poissons Ratio (z) = -0.08424 0.33827
#
# Static dielectric constant tensor:
#      x y z
#    x 1.802650 0.000000 0.000000 
#    y 0.000000 1.752360 0.000000 
#    z 0.000000 0.000000 1.835660 
# 
# From -- ./inp_files/3716.got.cif
#   From: 2010.05.17/outbox.cif.g08.bks.cpg/sg39_2_cif.got.tgz:3716.got - 2010.06.03 18:22:40.
