data_PCOD9361330
_publ_section_title
;
Structure prediction by ZEFSAII (Michael W. Deem and Ramdas Pophale) SiO2 
 PCOD9361330
Probable space group: A B M 2
;
_chemical_formula_sum "Si O2"
_cell_formula_units_Z 32
_cell_length_a 18.813778
_cell_length_b 5.555321
_cell_length_c 13.685613
_cell_angle_alpha 90.000000
_cell_angle_beta 90.000000
_cell_angle_gamma 90.000000
_cell_volume 1430.373411
_symmetry_space_group_name_H-M "A B M 2"
_symmetry_group_IT_number 39
_symmetry_cell_setting 'orthorhombic'
loop_
_space_group_symop_operation_xyz
x,y,z
-x,-y,z
-x,1/2+y,z
x,1/2-y,z
x,1/2+y,1/2+z
-x,1/2-y,1/2+z
-x,y,1/2+z
x,-y,1/2+z
loop_
_atom_site_type_symbol
_atom_site_label
_atom_site_fract_x
_atom_site_fract_y
_atom_site_fract_z
Si Si1 0.583421 0.750000 0.076290
Si Si2 0.922646 0.750000 0.107656
Si Si3 0.295978 0.750000 0.740408
Si Si4 0.582503 0.750000 0.565697
Si Si5 0.226072 0.250000 0.435291
Si Si6 0.276976 0.250000 0.658539
Si Si7 0.916465 0.250000 0.186204
Si Si8 0.137165 0.250000 0.904810
O O1 0.632268 0.750000 0.173451
O O2 0.596975 0.506115 0.016786
O O3 0.499455 0.750000 0.098241
O O4 0.921276 0.750000 0.991061
O O5 0.888232 0.498930 0.140959
O O6 0.000408 0.750000 0.156599
O O7 0.290683 0.750000 0.857138
O O8 0.258160 0.500382 0.709288
O O9 0.636725 0.750000 0.655745
O O10 0.253107 0.250000 0.546312
O O11 0.181966 0.500128 0.417867
O O12 0.900567 0.250000 0.300241
#
# Coordination Sequence:
#
# PCOD9361330 Si02
#       8
#     4   4   4   4   4   4   4   4
#     4   8  14  27  51  78 106 148 194 241 300 347
#     4  10  23  42  67  94 123 160 201 247 306 357
#     4  10  21  38  60  84 121 163 203 252 303 357
#     4   8  14  27  51  78 106 148 194 241 300 347
#     4  12  26  40  61  92 125 166 206 242 300 368
#     4  10  21  38  60  84 121 163 203 252 303 357
#     4  10  23  42  67  94 123 160 201 247 306 357
#     4  12  26  42  63  94 127 158 204 252 292 364
#
# _framework density 22.371782
#
# number of rings (size 3 to 8) (size 9 to 14) (size 15 to 20)
#    0.000    2.000    0.000    3.000    0.000   10.000 
#    0.000    0.000    0.000   24.000    0.000    0.000 
#    0.000    0.000    0.000    0.000    0.000    0.000 
#
# Total GULP energy -89087.976789 kJ/mol
# GULP energy per Si atom -5567.998549 kJ/mol
# Density = 2.232086 g / cm^3
# Si number density = 22.371782 Si / 1000 Ang^3
#
#
#
# Elastic Constant Matrix: (Units=GPa)
#
#
# Indices 1 2 3 4 5 6 
#
# 1 81.4138 12.8519 18.5756 0.0000 0.0000 0.0000
# 2 12.8519 270.9076 48.7312 0.0000 0.0000 0.0000
# 3 18.5756 48.7312 162.6916 0.0000 0.0000 0.0000
# 4 0.0000 0.0000 0.0000 27.5981 0.0000 0.0000
# 5 0.0000 0.0000 0.0000 0.0000 11.8138 0.0000
# 6 0.0000 0.0000 0.0000 0.0000 0.0000 -39.9674
#
#
#
# Elastic Compliance Matrix: (Units=1/GPa)
#
#
# Indices 1 2 3 4 5 6 
#
# 1 0.012645 -0.000360 -0.001336 0.000000 0.000000 0.000000
# 2 -0.000360 0.003912 -0.001131 0.000000 0.000000 0.000000
# 3 -0.001336 -0.001131 0.006638 0.000000 0.000000 0.000000
# 4 0.000000 0.000000 0.000000 0.036234 0.000000 0.000000
# 5 0.000000 0.000000 0.000000 0.000000 0.084647 0.000000
# 6 0.000000 0.000000 0.000000 0.000000 0.000000 -0.025020
#
#
# Mechanical properties :
#
#
# Convention : Reuss Voigt Hill
#
# Bulk Modulus (GPa) = 57.00711 75.03673 66.02192
# Shear Modulus (GPa) = 38.29824 28.87918 33.58871
#
# Velocity S-wave (km/s) = 4.14200 3.59677 3.87898
# Velocity P-wave (km/s) = 6.95787 7.13181 7.04537
#
# Compressibility (1/GPa) = 0.01754167
#
# Stress axis : x y z
#
# Youngs Moduli (GPa) = 79.08565 255.64121 150.65224
#
# Poissons Ratio (x) = 0.09191 0.20127
# Poissons Ratio (y) = 0.02843 0.17033
# Poissons Ratio (z) = 0.10566 0.28904
#
# Static dielectric constant tensor:
#      x y z
#    x 1.894740 0.000000 0.000000 
#    y 0.000000 1.990190 0.000000 
#    z 0.000000 0.000000 1.726910 
# 
# From -- ./inp_files/6958.got.cif
#   From: 2010.05.17/outbox.cif.g08.bks.cpg/sg39_4_cif.got.tgz:6958.got - 2010.06.03 18:22:40.
