data_PCOD9361066
_publ_section_title
;
Structure prediction by ZEFSAII (Michael W. Deem and Ramdas Pophale) SiO2 
 PCOD9361066
Probable space group: A B M 2
;
_chemical_formula_sum "Si O2"
_cell_formula_units_Z 48
_cell_length_a 7.481197
_cell_length_b 16.819827
_cell_length_c 16.976248
_cell_angle_alpha 90.000000
_cell_angle_beta 90.000000
_cell_angle_gamma 90.000000
_cell_volume 2136.162696
_symmetry_space_group_name_H-M "A B M 2"
_symmetry_group_IT_number 39
_symmetry_cell_setting 'orthorhombic'
loop_
_space_group_symop_operation_xyz
x,y,z
-x,-y,z
-x,1/2+y,z
x,1/2-y,z
x,1/2+y,1/2+z
-x,1/2-y,1/2+z
-x,y,1/2+z
x,-y,1/2+z
loop_
_atom_site_type_symbol
_atom_site_label
_atom_site_fract_x
_atom_site_fract_y
_atom_site_fract_z
Si Si1 0.633314 0.883902 0.376430
Si Si2 0.205085 0.661222 0.706064
Si Si3 0.704407 0.510669 0.694925
Si Si4 0.243596 0.939749 0.366201
Si Si5 0.965916 0.336452 0.958759
Si Si6 0.151708 0.836569 0.130811
O O1 0.710605 0.855089 0.291925
O O2 0.418646 0.882771 0.372934
O O3 0.755068 0.837780 0.438265
O O4 0.690429 0.974554 0.395687
O O5 0.266892 0.750000 0.679219
O O6 0.242041 0.576165 0.663735
O O7 0.990844 0.665790 0.702036
O O8 0.500000 0.500000 0.719266
O O9 0.799793 0.538123 0.775517
O O10 0.729134 0.585171 0.637648
O O11 0.078906 0.902329 0.412755
O O12 0.038053 0.250000 0.935172
O O13 0.969208 0.343464 0.052651
O O14 0.244115 0.750000 0.129071
#
# Coordination Sequence:
#
# PCOD9361066 Si02
#       6
#     8   8   8   8   8   8
#     4  10  20  40  63  94 127 163 218 270 330 395
#     4  10  20  38  64  91 125 165 217 277 332 393
#     4  11  21  41  64  97 128 169 220 278 336 394
#     4  10  21  41  64  94 124 166 215 275 329 395
#     4  11  24  41  62  92 132 174 216 269 338 402
#     4  10  24  43  61  92 133 178 224 269 332 406
#
# _framework density 22.470198
#
# number of rings (size 3 to 8) (size 9 to 14) (size 15 to 20)
#    0.000    1.667    3.333    2.500    0.000    9.333 
#    6.000    0.000    0.000    0.000    0.000    0.000 
#    0.000    0.000    0.000    0.000    0.000    0.000 
#
# Total GULP energy -133699.051083 kJ/mol
# GULP energy per Si atom -5570.793795 kJ/mol
# Density = 2.241906 g / cm^3
# Si number density = 22.470198 Si / 1000 Ang^3
#
#
#
# Elastic Constant Matrix: (Units=GPa)
#
#
# Indices 1 2 3 4 5 6 
#
# 1 77.2121 35.8473 23.7893 0.0000 0.0000 0.0000
# 2 35.8473 200.2051 38.1929 0.0000 0.0000 0.0000
# 3 23.7893 38.1929 28.7136 0.0000 0.0000 0.0000
# 4 0.0000 0.0000 0.0000 21.6581 0.0000 0.0000
# 5 0.0000 0.0000 0.0000 0.0000 11.0924 0.0000
# 6 0.0000 0.0000 0.0000 0.0000 0.0000 2.5786
#
#
#
# Elastic Compliance Matrix: (Units=1/GPa)
#
#
# Indices 1 2 3 4 5 6 
#
# 1 0.017426 -0.000490 -0.013786 0.000000 0.000000 0.000000
# 2 -0.000490 0.006707 -0.008515 0.000000 0.000000 0.000000
# 3 -0.013786 -0.008515 0.057574 0.000000 0.000000 0.000000
# 4 0.000000 0.000000 0.000000 0.046172 0.000000 0.000000
# 5 0.000000 0.000000 0.000000 0.000000 0.090152 0.000000
# 6 0.000000 0.000000 0.000000 0.000000 0.000000 0.387807
#
#
# Mechanical properties :
#
#
# Convention : Reuss Voigt Hill
#
# Bulk Modulus (GPa) = 27.68114 55.75445 41.71779
# Shear Modulus (GPa) = 7.53622 20.95258 14.24440
#
# Velocity S-wave (km/s) = 1.83335 3.05693 2.52052
# Velocity P-wave (km/s) = 4.10211 6.10952 5.20354
#
# Compressibility (1/GPa) = 0.03612568
#
# Stress axis : x y z
#
# Youngs Moduli (GPa) = 57.38426 149.09621 17.36894
#
# Poissons Ratio (x) = 0.07312 0.23944
# Poissons Ratio (y) = 0.02814 0.14790
# Poissons Ratio (z) = 0.79107 1.26955
#
# Static dielectric constant tensor:
#      x y z
#    x 1.850710 0.000000 0.000000 
#    y 0.000000 1.928350 0.000000 
#    z 0.000000 0.000000 1.847180 
# 
# From -- ./inp_files/11587.got.cif
#   From: 2010.05.17/outbox.cif.g08.bks.cpg/sg39_6_cif.got.tgz:11587.got - 2010.06.03 18:22:40.
