data_PCOD9361336
_publ_section_title
;
Structure prediction by ZEFSAII (Michael W. Deem and Ramdas Pophale) SiO2 
 PCOD9361336
Probable space group: A B M 2
;
_chemical_formula_sum "Si O2"
_cell_formula_units_Z 48
_cell_length_a 9.451739
_cell_length_b 8.619001
_cell_length_c 31.327115
_cell_angle_alpha 90.000000
_cell_angle_beta 90.000000
_cell_angle_gamma 90.000000
_cell_volume 2552.049260
_symmetry_space_group_name_H-M "A B M 2"
_symmetry_group_IT_number 39
_symmetry_cell_setting 'orthorhombic'
loop_
_space_group_symop_operation_xyz
x,y,z
-x,-y,z
-x,1/2+y,z
x,1/2-y,z
x,1/2+y,1/2+z
-x,1/2-y,1/2+z
-x,y,1/2+z
x,-y,1/2+z
loop_
_atom_site_type_symbol
_atom_site_label
_atom_site_fract_x
_atom_site_fract_y
_atom_site_fract_z
Si Si1 0.340985 0.435356 0.728900
Si Si2 0.840735 0.435900 0.651897
Si Si3 0.339883 0.935734 0.386318
Si Si4 0.840720 0.064224 0.807856
Si Si5 0.157960 0.435527 0.053867
Si Si6 0.657588 0.434855 0.977431
O O1 0.500000 0.500000 0.731011
O O2 0.343685 0.250000 0.732132
O O3 0.265290 0.487331 0.685230
O O4 0.248050 0.504363 0.767369
O O5 0.842488 0.250000 0.657796
O O6 0.798270 0.469186 0.602814
O O7 0.000000 0.500000 0.658318
O O8 0.343748 0.750000 0.384428
O O9 0.500000 0.000000 0.380625
O O10 0.239220 0.002577 0.349836
O O11 0.289378 0.991176 0.433028
O O12 0.843573 0.250000 0.807925
O O13 0.000000 0.000000 0.806002
O O14 0.159582 0.250000 0.048258
O O15 0.000000 0.500000 0.049322
O O16 0.252732 0.514567 0.018111
O O17 0.500000 0.500000 0.983203
O O18 0.654179 0.250000 0.972987
#
# Coordination Sequence:
#
# PCOD9361336 Si02
#       6
#     8   8   8   8   8   8
#     4  12  25  42  63  89 120 156 197 242 293 348
#     4  10  21  39  62  88 119 156 197 243 295 350
#     4  11  22  40  63  89 120 156 197 242 294 349
#     4  12  25  43  64  90 121 155 196 241 292 348
#     4  10  21  38  60  87 119 156 198 244 295 350
#     4  11  22  38  60  87 119 157 199 244 295 349
#
# _framework density 18.808415
#
# number of rings (size 3 to 8) (size 9 to 14) (size 15 to 20)
#    0.000    1.000    0.000    9.000    0.000    3.333 
#    0.000    3.333    0.000    0.000    0.000    0.000 
#    0.000    0.000    0.000    0.000    0.000    0.000 
#
# Total GULP energy -134276.732937 kJ/mol
# GULP energy per Si atom -5594.863872 kJ/mol
# Density = 1.876561 g / cm^3
# Si number density = 18.808415 Si / 1000 Ang^3
#
#
#
# Elastic Constant Matrix: (Units=GPa)
#
#
# Indices 1 2 3 4 5 6 
#
# 1 123.2098 76.6302 107.6666 0.0000 0.0000 0.0000
# 2 76.6302 203.8160 96.4687 0.0000 0.0000 0.0000
# 3 107.6666 96.4687 168.3859 0.0000 0.0000 0.0000
# 4 0.0000 0.0000 0.0000 34.4044 0.0000 0.0000
# 5 0.0000 0.0000 0.0000 0.0000 46.4471 0.0000
# 6 0.0000 0.0000 0.0000 0.0000 0.0000 38.0477
#
#
#
# Elastic Compliance Matrix: (Units=1/GPa)
#
#
# Indices 1 2 3 4 5 6 
#
# 1 0.018917 -0.001903 -0.011005 0.000000 0.000000 0.000000
# 2 -0.001903 0.006923 -0.002749 0.000000 0.000000 0.000000
# 3 -0.011005 -0.002749 0.014550 0.000000 0.000000 0.000000
# 4 0.000000 0.000000 0.000000 0.029066 0.000000 0.000000
# 5 0.000000 0.000000 0.000000 0.000000 0.021530 0.000000
# 6 0.000000 0.000000 0.000000 0.000000 0.000000 0.026283
#
#
# Mechanical properties :
#
#
# Convention : Reuss Voigt Hill
#
# Bulk Modulus (GPa) = 110.19212 117.43808 113.81510
# Shear Modulus (GPa) = 32.97945 38.08960 35.53452
#
# Velocity S-wave (km/s) = 4.19195 4.50503 4.35131
# Velocity P-wave (km/s) = 9.06332 9.46758 9.26766
#
# Compressibility (1/GPa) = 0.00907506
#
# Stress axis : x y z
#
# Youngs Moduli (GPa) = 52.86323 144.43915 68.72659
#
# Poissons Ratio (x) = 0.27494 0.75633
# Poissons Ratio (y) = 0.10063 0.18895
# Poissons Ratio (z) = 0.58176 0.39710
#
# Static dielectric constant tensor:
#      x y z
#    x 1.605820 0.000000 0.000000 
#    y 0.000000 1.627260 0.000000 
#    z 0.000000 0.000000 1.646540 
# 
# From -- ./inp_files/17601.got.cif
#   From: 2010.05.17/outbox.cif.g08.bks.cpg/sg39_9_cif.got.tgz:17601.got - 2010.06.03 18:22:40.
