data_PCOD9361479
_publ_section_title
;
Structure prediction by ZEFSAII (Michael W. Deem and Ramdas Pophale) SiO2 
 PCOD9361479
Probable space group: A B M 2
;
_chemical_formula_sum "Si O2"
_cell_formula_units_Z 56
_cell_length_a 13.208596
_cell_length_b 18.740915
_cell_length_c 9.760741
_cell_angle_alpha 90.000000
_cell_angle_beta 90.000000
_cell_angle_gamma 90.000000
_cell_volume 2416.185295
_symmetry_space_group_name_H-M "A B M 2"
_symmetry_group_IT_number 39
_symmetry_cell_setting 'orthorhombic'
loop_
_space_group_symop_operation_xyz
x,y,z
-x,-y,z
-x,1/2+y,z
x,1/2-y,z
x,1/2+y,1/2+z
-x,1/2-y,1/2+z
-x,y,1/2+z
x,-y,1/2+z
loop_
_atom_site_type_symbol
_atom_site_label
_atom_site_fract_x
_atom_site_fract_y
_atom_site_fract_z
Si Si1 0.672225 0.829610 0.906170
Si Si2 0.201942 0.934542 0.992311
Si Si3 0.182465 0.334895 0.264373
Si Si4 0.379431 0.579247 0.164650
Si Si5 0.094857 0.329092 0.989171
Si Si6 0.100277 0.454967 0.789643
Si Si7 0.386252 0.088122 0.162217
O O1 0.624876 0.750000 0.910592
O O2 0.678246 0.863657 0.757291
O O3 0.785329 0.821330 0.959911
O O4 0.621740 0.889182 0.002332
O O5 0.321613 0.921200 0.019010
O O6 0.152347 0.944715 0.141881
O O7 0.158596 0.866680 0.912291
O O8 0.174160 0.001259 0.894489
O O9 0.188332 0.250000 0.263044
O O10 0.100801 0.355674 0.146544
O O11 0.293421 0.367964 0.227807
O O12 0.495529 0.602039 0.187963
O O13 0.371726 0.495014 0.197100
O O14 0.048058 0.250000 0.979394
O O15 0.066660 0.385439 0.874486
O O16 0.000000 0.500000 0.767813
#
# Coordination Sequence:
#
# PCOD9361479 Si02
#       7
#     8   8   8   8   8   8   8
#     4  10  21  40  63  94 137 188 234 284 349 415
#     4  12  25  43  68 101 141 181 233 293 357 427
#     4  10  23  43  70 103 145 193 239 289 347 423
#     4  11  24  37  64  96 139 189 240 294 345 410
#     4   9  19  42  71 100 140 183 223 280 359 428
#     4  12  25  45  74 106 137 177 234 298 365 440
#     4  10  23  39  62  94 141 192 242 288 344 404
#
# _framework density 23.177030999999999
#
# number of rings (size 3 to 8) (size 9 to 14) (size 15 to 20)
#    0.000    1.429    1.429    5.143    4.000    3.429 
#    0.000    1.429    0.000    2.571    0.000    0.000 
#    0.000    0.000    0.000    0.000    0.000    0.000 
#
# Total GULP energy -156307.310400 kJ/mol
# GULP energy per Si atom -5582.403943 kJ/mol
# Density = 2.312428 g / cm^3
# Si number density = 23.177031 Si / 1000 Ang^3
#
#
#
# Elastic Constant Matrix: (Units=GPa)
#
#
# Indices 1 2 3 4 5 6 
#
# 1 58.3055 18.1091 30.2366 0.0000 0.0000 0.0000
# 2 18.1091 104.8450 56.3206 0.0000 0.0000 0.0000
# 3 30.2366 56.3206 141.0281 0.0000 0.0000 0.0000
# 4 0.0000 0.0000 0.0000 32.2067 0.0000 0.0000
# 5 0.0000 0.0000 0.0000 0.0000 23.4861 0.0000
# 6 0.0000 0.0000 0.0000 0.0000 0.0000 7.6266
#
#
#
# Elastic Compliance Matrix: (Units=1/GPa)
#
#
# Indices 1 2 3 4 5 6 
#
# 1 0.019463 -0.001426 -0.003603 0.000000 0.000000 0.000000
# 2 -0.001426 0.012247 -0.004585 0.000000 0.000000 0.000000
# 3 -0.003603 -0.004585 0.009695 0.000000 0.000000 0.000000
# 4 0.000000 0.000000 0.000000 0.031049 0.000000 0.000000
# 5 0.000000 0.000000 0.000000 0.000000 0.042578 0.000000
# 6 0.000000 0.000000 0.000000 0.000000 0.000000 0.131120
#
#
# Mechanical properties :
#
#
# Convention : Reuss Voigt Hill
#
# Bulk Modulus (GPa) = 45.09552 57.05680 51.07616
# Shear Modulus (GPa) = 18.33023 25.96469 22.14746
#
# Velocity S-wave (km/s) = 2.81531 3.35068 3.09460
# Velocity P-wave (km/s) = 5.48335 6.29609 5.90372
#
# Compressibility (1/GPa) = 0.02217515
#
# Stress axis : x y z
#
# Youngs Moduli (GPa) = 51.38063 81.65040 103.15105
#
# Poissons Ratio (x) = 0.11643 0.37169
# Poissons Ratio (y) = 0.07327 0.47298
# Poissons Ratio (z) = 0.18514 0.37439
#
# Static dielectric constant tensor:
#      x y z
#    x 1.929200 0.000000 0.000000 
#    y 0.000000 1.866750 0.000000 
#    z 0.000000 0.000000 1.960930 
# 
# From -- ./inp_files/3385.got.cif
#   From: 2010.05.17/outbox.cif.g08.bks.cpg/sg39_2_cif.got.tgz:3385.got - 2010.06.03 18:22:40.
