data_PCOD9361916
_publ_section_title
;
Structure prediction by ZEFSAII (Michael W. Deem and Ramdas Pophale) SiO2 
 PCOD9361916
Probable space group: A B M 2
;
_chemical_formula_sum "Si O2"
_cell_formula_units_Z 40
_cell_length_a 10.502456
_cell_length_b 18.027299
_cell_length_c 9.185318
_cell_angle_alpha 90.000000
_cell_angle_beta 90.000000
_cell_angle_gamma 90.000000
_cell_volume 1739.064657
_symmetry_space_group_name_H-M "A B M 2"
_symmetry_group_IT_number 39
_symmetry_cell_setting 'orthorhombic'
loop_
_space_group_symop_operation_xyz
x,y,z
-x,-y,z
-x,1/2+y,z
x,1/2-y,z
x,1/2+y,1/2+z
-x,1/2-y,1/2+z
-x,y,1/2+z
x,-y,1/2+z
loop_
_atom_site_type_symbol
_atom_site_label
_atom_site_fract_x
_atom_site_fract_y
_atom_site_fract_z
Si Si1 0.368860 0.836327 0.074260
Si Si2 0.000000 0.500000 0.982189
Si Si3 0.075216 0.750000 0.397822
Si Si4 0.437492 0.920699 0.367742
Si Si5 0.793645 0.113301 0.558262
Si Si6 0.148164 0.367960 0.366055
O O1 0.393431 0.750000 0.103790
O O2 0.388518 0.883456 0.219825
O O3 0.463094 0.868183 0.951883
O O4 0.226691 0.843956 0.008707
O O5 0.083781 0.440327 0.067941
O O6 0.097869 0.549310 0.890741
O O7 0.167993 0.815423 0.464034
O O8 0.972050 0.685749 0.344998
O O9 0.320275 0.928575 0.479402
O O10 0.500000 0.000000 0.337741
O O11 0.764742 0.136554 0.723151
#
# Coordination Sequence:
#
# PCOD9361916 Si02
#       6
#     8   4   4   8   8   8
#     4  12  27  47  75 105 149 189 250 304 378 441
#     4  10  24  42  66 110 146 194 238 302 358 452
#     4  10  24  42  70 110 148 186 238 302 366 442
#     4  12  28  49  73 107 145 195 250 309 372 446
#     4  11  25  44  76 103 149 192 248 299 374 433
#     4  11  23  46  72 108 146 193 245 302 369 443
#
# _framework density 23.000869999999999
#
# number of rings (size 3 to 8) (size 9 to 14) (size 15 to 20)
#    0.000    0.800    1.000    4.800    2.800   12.800 
#    0.000    1.000    0.000    0.000    0.000    0.000 
#    0.000    0.000    0.000    0.000    0.000    0.000 
#
# Total GULP energy -111480.788836 kJ/mol
# GULP energy per Si atom -5574.039442 kJ/mol
# Density = 2.294852 g / cm^3
# Si number density = 23.000870 Si / 1000 Ang^3
#
#
#
# Elastic Constant Matrix: (Units=GPa)
#
#
# Indices 1 2 3 4 5 6 
#
# 1 61.2813 22.7066 25.0934 0.0000 0.0000 0.0000
# 2 22.7066 151.6769 23.2649 0.0000 0.0000 0.0000
# 3 25.0934 23.2649 104.4699 0.0000 0.0000 0.0000
# 4 0.0000 0.0000 0.0000 -17.4683 0.0000 0.0000
# 5 0.0000 0.0000 0.0000 0.0000 22.1039 0.0000
# 6 0.0000 0.0000 0.0000 0.0000 0.0000 30.9262
#
#
#
# Elastic Compliance Matrix: (Units=1/GPa)
#
#
# Indices 1 2 3 4 5 6 
#
# 1 0.018778 -0.002194 -0.004022 0.000000 0.000000 0.000000
# 2 -0.002194 0.007083 -0.001050 0.000000 0.000000 0.000000
# 3 -0.004022 -0.001050 0.010772 0.000000 0.000000 0.000000
# 4 0.000000 0.000000 0.000000 -0.057247 0.000000 0.000000
# 5 0.000000 0.000000 0.000000 0.000000 0.045241 0.000000
# 6 0.000000 0.000000 0.000000 0.000000 0.000000 0.032335
#
#
# Mechanical properties :
#
#
# Convention : Reuss Voigt Hill
#
# Bulk Modulus (GPa) = 45.24855 51.06197 48.15526
# Shear Modulus (GPa) = 63.40263 23.53658 43.46960
#
# Velocity S-wave (km/s) = 5.25596 3.20236 4.35203
# Velocity P-wave (km/s) = 7.51989 5.99347 6.79965
#
# Compressibility (1/GPa) = 0.02210015
#
# Stress axis : x y z
#
# Youngs Moduli (GPa) = 53.25355 141.19239 92.83302
#
# Poissons Ratio (x) = 0.30981 0.37336
# Poissons Ratio (y) = 0.11685 0.09749
# Poissons Ratio (z) = 0.21417 0.14828
#
# Static dielectric constant tensor:
#      x y z
#    x 1.914880 0.000000 0.000000 
#    y 0.000000 1.809250 0.000000 
#    z 0.000000 0.000000 1.882310 
# 
# From -- ./inp_files/2558.got.cif
#   From: 2010.05.17/outbox.cif.g08.bks.cpg/sg39_2_cif.got.tgz:2558.got - 2010.06.03 18:22:40.
