data_PCOD9361673
_publ_section_title
;
Structure prediction by ZEFSAII (Michael W. Deem and Ramdas Pophale) SiO2 
 PCOD9361673
Probable space group: A B M 2
;
_chemical_formula_sum "Si O2"
_cell_formula_units_Z 64
_cell_length_a 19.677922
_cell_length_b 8.664974
_cell_length_c 20.952567
_cell_angle_alpha 90.000000
_cell_angle_beta 90.000000
_cell_angle_gamma 90.000000
_cell_volume 3572.594594
_symmetry_space_group_name_H-M "A B M 2"
_symmetry_group_IT_number 39
_symmetry_cell_setting 'orthorhombic'
loop_
_space_group_symop_operation_xyz
x,y,z
-x,-y,z
-x,1/2+y,z
x,1/2-y,z
x,1/2+y,1/2+z
-x,1/2-y,1/2+z
-x,y,1/2+z
x,-y,1/2+z
loop_
_atom_site_type_symbol
_atom_site_label
_atom_site_fract_x
_atom_site_fract_y
_atom_site_fract_z
Si Si1 0.426666 0.434118 0.159670
Si Si2 0.291301 0.435848 0.712150
Si Si3 0.791301 0.064152 0.338610
Si Si4 0.207675 0.934974 0.084913
Si Si5 0.926666 0.934118 0.391091
Si Si6 0.707675 0.934974 0.965848
Si Si7 0.073297 0.934344 0.533749
Si Si8 0.573297 0.565656 0.517011
O O1 0.500000 0.500000 0.180120
O O2 0.430289 0.250000 0.154993
O O3 0.364582 0.486259 0.203995
O O4 0.413298 0.502927 0.088801
O O5 0.300800 0.250000 0.712837
O O6 0.250000 0.479913 0.775380
O O7 0.246381 0.475068 0.650027
O O8 0.800800 0.250000 0.337924
O O9 0.746381 0.024933 0.400734
O O10 0.864582 0.986259 0.346766
O O11 0.203937 0.750000 0.080188
O O12 0.132903 0.005692 0.078949
O O13 0.250000 1.000000 0.025380
O O14 0.930289 0.750000 0.395768
O O15 0.913298 0.002927 0.461960
O O16 0.000000 0.000000 0.370640
O O17 0.703937 0.750000 0.970573
O O18 0.632904 0.005692 0.971812
O O19 0.072093 0.750000 0.531550
O O20 0.000000 0.000000 0.552815
O O21 0.500000 0.500000 0.497945
O O22 0.572093 0.750000 0.519211
#
# Coordination Sequence:
#
# PCOD9361673 Si02
#       8
#     8   8   8   8   8   8   8   8
#     4  11  21  35  58  85 115 149 192 238 287 345
#     4  10  22  40  60  84 117 155 194 236 285 342
#     4  10  22  40  60  84 117 155 194 236 285 342
#     4  11  21  35  58  86 116 149 188 235 288 341
#     4  11  21  35  58  85 115 149 192 238 287 345
#     4  11  21  35  58  86 116 149 188 235 288 341
#     4  11  21  35  56  84 117 150 191 240 291 344
#     4  11  21  35  56  84 117 150 191 240 291 344
#
# _framework density 17.914151
#
# number of rings (size 3 to 8) (size 9 to 14) (size 15 to 20)
#    0.000    1.250    2.500    6.750    0.000    1.500 
#    0.000    1.250    0.000    0.000    0.000    0.000 
#    0.000    0.000    0.000    0.000    0.000    0.000 
#
# Total GULP energy -178859.300891 kJ/mol
# GULP energy per Si atom -5589.353153 kJ/mol
# Density = 1.787338 g / cm^3
# Si number density = 17.914151 Si / 1000 Ang^3
#
#
#
# Elastic Constant Matrix: (Units=GPa)
#
#
# Indices 1 2 3 4 5 6 
#
# 1 171.6703 71.2087 72.8707 0.0000 0.0000 0.0000
# 2 71.2087 115.8530 54.5116 0.0000 0.0000 0.0000
# 3 72.8707 54.5116 102.7658 0.0000 0.0000 0.0000
# 4 0.0000 0.0000 0.0000 17.7666 0.0000 0.0000
# 5 0.0000 0.0000 0.0000 0.0000 28.2818 0.0000
# 6 0.0000 0.0000 0.0000 0.0000 0.0000 36.0130
#
#
#
# Elastic Compliance Matrix: (Units=1/GPa)
#
#
# Indices 1 2 3 4 5 6 
#
# 1 0.009276 -0.003473 -0.004735 0.000000 0.000000 0.000000
# 2 -0.003473 0.012803 -0.004328 0.000000 0.000000 0.000000
# 3 -0.004735 -0.004328 0.015384 0.000000 0.000000 0.000000
# 4 0.000000 0.000000 0.000000 0.056285 0.000000 0.000000
# 5 0.000000 0.000000 0.000000 0.000000 0.035358 0.000000
# 6 0.000000 0.000000 0.000000 0.000000 0.000000 0.027768
#
#
# Mechanical properties :
#
#
# Convention : Reuss Voigt Hill
#
# Bulk Modulus (GPa) = 80.71161 87.49680 84.10421
# Shear Modulus (GPa) = 26.87039 29.19215 28.03127
#
# Velocity S-wave (km/s) = 3.87712 4.04116 3.95999
# Velocity P-wave (km/s) = 8.07436 8.40969 8.24373
#
# Compressibility (1/GPa) = 0.01238979
#
# Stress axis : x y z
#
# Youngs Moduli (GPa) = 107.80749 78.10568 65.00109
#
# Poissons Ratio (x) = 0.27129 0.30778
# Poissons Ratio (y) = 0.37446 0.28135
# Poissons Ratio (z) = 0.51046 0.33807
#
# Static dielectric constant tensor:
#      x y z
#    x 1.591300 0.000000 0.000000 
#    y 0.000000 1.599490 0.000000 
#    z 0.000000 0.000000 1.588360 
# 
# From -- ./inp_files/13138.got.cif
#   From: 2010.05.17/outbox.cif.g08.bks.cpg/sg39_7_cif.got.tgz:13138.got - 2010.06.03 18:22:40.
