data_PCOD9361341
_publ_section_title
;
Structure prediction by ZEFSAII (Michael W. Deem and Ramdas Pophale) SiO2 
 PCOD9361341
Probable space group: A B M 2
;
_chemical_formula_sum "Si O2"
_cell_formula_units_Z 64
_cell_length_a 12.095401
_cell_length_b 15.272029
_cell_length_c 17.207991
_cell_angle_alpha 90.000000
_cell_angle_beta 90.000000
_cell_angle_gamma 90.000000
_cell_volume 3178.682723
_symmetry_space_group_name_H-M "A B M 2"
_symmetry_group_IT_number 39
_symmetry_cell_setting 'orthorhombic'
loop_
_space_group_symop_operation_xyz
x,y,z
-x,-y,z
-x,1/2+y,z
x,1/2-y,z
x,1/2+y,1/2+z
-x,1/2-y,1/2+z
-x,y,1/2+z
x,-y,1/2+z
loop_
_atom_site_type_symbol
_atom_site_label
_atom_site_fract_x
_atom_site_fract_y
_atom_site_fract_z
Si Si1 0.628649 0.013322 0.515420
Si Si2 0.226862 0.348363 0.474322
Si Si3 0.767805 0.848238 0.918923
Si Si4 0.773467 0.353031 0.789128
Si Si5 0.372316 0.486077 0.193983
Si Si6 0.777754 0.352511 0.233261
Si Si7 0.975179 0.854817 0.179571
Si Si8 0.982341 0.400740 0.509266
O O1 0.694954 0.922210 0.509362
O O2 0.635139 0.044938 0.604597
O O3 0.500000 0.000000 0.495404
O O4 0.689174 0.080934 0.458710
O O5 0.267905 0.250000 0.488859
O O6 0.220689 0.363553 0.381548
O O7 0.101946 0.355926 0.505822
O O8 0.726591 0.750000 0.934312
O O9 0.775983 0.860264 0.826634
O O10 0.889498 0.857593 0.956166
O O11 0.750701 0.250000 0.773523
O O12 0.684018 0.416229 0.750698
O O13 0.889856 0.375570 0.748082
O O14 0.500000 0.500000 0.213859
O O15 0.309095 0.578490 0.200589
O O16 0.756612 0.250000 0.213485
O O17 0.899866 0.376421 0.202989
O O18 0.970293 0.750000 0.166845
O O19 0.943022 0.899542 0.098668
O O20 0.000000 0.500000 0.482930
#
# Coordination Sequence:
#
# PCOD9361341 Si02
#       8
#     8   8   8   8   8   8   8   8
#     4  11  25  44  63  92 123 159 211 255 304 365
#     4  11  23  42  65  92 126 163 203 252 306 365
#     4  11  23  42  65  92 126 163 203 252 306 365
#     4  10  23  41  64  92 123 160 203 250 304 361
#     4  11  25  42  63  88 121 161 205 255 302 359
#     4  10  23  41  64  92 123 160 203 250 304 361
#     4  10  21  38  60  91 126 161 201 247 299 365
#     4  12  23  36  60  96 129 162 201 248 304 367
#
# _framework density 20.134126999999999
#
# number of rings (size 3 to 8) (size 9 to 14) (size 15 to 20)
#    0.000    1.250    1.250    4.125    1.750    8.000 
#    0.000    5.000    0.000    0.000    0.000    0.000 
#    0.000    0.000    0.000    0.000    0.000    0.000 
#
# Total GULP energy -179038.594346 kJ/mol
# GULP energy per Si atom -5594.956073 kJ/mol
# Density = 2.008830 g / cm^3
# Si number density = 20.134127 Si / 1000 Ang^3
#
#
#
# Elastic Constant Matrix: (Units=GPa)
#
#
# Indices 1 2 3 4 5 6 
#
# 1 95.1768 20.4132 13.1670 0.0000 0.0000 0.0000
# 2 20.4132 61.4040 18.2651 0.0000 0.0000 0.0000
# 3 13.1670 18.2651 54.9053 0.0000 0.0000 0.0000
# 4 0.0000 0.0000 0.0000 268.3349 0.0000 0.0000
# 5 0.0000 0.0000 0.0000 0.0000 46.6077 0.0000
# 6 0.0000 0.0000 0.0000 0.0000 0.0000 -14.7803
#
#
#
# Elastic Compliance Matrix: (Units=1/GPa)
#
#
# Indices 1 2 3 4 5 6 
#
# 1 0.011445 -0.003317 -0.001641 0.000000 0.000000 0.000000
# 2 -0.003317 0.019035 -0.005537 0.000000 0.000000 0.000000
# 3 -0.001641 -0.005537 0.020449 0.000000 0.000000 0.000000
# 4 0.000000 0.000000 0.000000 0.003727 0.000000 0.000000
# 5 0.000000 0.000000 0.000000 0.000000 0.021456 0.000000
# 6 0.000000 0.000000 0.000000 0.000000 0.000000 -0.067658
#
#
# Mechanical properties :
#
#
# Convention : Reuss Voigt Hill
#
# Bulk Modulus (GPa) = 33.40108 35.01966 34.21037
# Shear Modulus (GPa) = 126.82751 70.67517 98.75134
#
# Velocity S-wave (km/s) = 7.94532 5.93114 7.01094
# Velocity P-wave (km/s) = 10.03972 8.02094 9.08657
#
# Compressibility (1/GPa) = 0.02993915
#
# Stress axis : x y z
#
# Youngs Moduli (GPa) = 87.37312 52.53433 48.90273
#
# Poissons Ratio (x) = 0.17424 0.08027
# Poissons Ratio (y) = 0.28978 0.27077
# Poissons Ratio (z) = 0.14341 0.29088
#
# Static dielectric constant tensor:
#      x y z
#    x 1.670980 0.000000 0.000000 
#    y 0.000000 1.651540 0.000000 
#    z 0.000000 0.000000 1.693980 
# 
# From -- ./inp_files/12344.got.cif
#   From: 2010.05.17/outbox.cif.g08.bks.cpg/sg39_7_cif.got.tgz:12344.got - 2010.06.03 18:22:40.
