data_PCOD9361040
_publ_section_title
;
Structure prediction by ZEFSAII (Michael W. Deem and Ramdas Pophale) SiO2 
 PCOD9361040
Probable space group: A B M 2
;
_chemical_formula_sum "Si O2"
_cell_formula_units_Z 56
_cell_length_a 11.892834
_cell_length_b 14.559766
_cell_length_c 13.107852
_cell_angle_alpha 90.000000
_cell_angle_beta 90.000000
_cell_angle_gamma 90.000000
_cell_volume 2269.714757
_symmetry_space_group_name_H-M "A B M 2"
_symmetry_group_IT_number 39
_symmetry_cell_setting 'orthorhombic'
loop_
_space_group_symop_operation_xyz
x,y,z
-x,-y,z
-x,1/2+y,z
x,1/2-y,z
x,1/2+y,1/2+z
-x,1/2-y,1/2+z
-x,y,1/2+z
x,-y,1/2+z
loop_
_atom_site_type_symbol
_atom_site_label
_atom_site_fract_x
_atom_site_fract_y
_atom_site_fract_z
Si Si1 0.577367 0.640975 0.629560
Si Si2 0.227228 0.645565 0.992526
Si Si3 0.326789 0.356412 0.180082
Si Si4 0.796219 0.360610 0.477893
Si Si5 0.969942 0.357668 0.872816
Si Si6 0.703124 0.470848 0.297695
Si Si7 0.076488 0.919296 0.170565
O O1 0.601820 0.750000 0.641108
O O2 0.657259 0.605763 0.537743
O O3 0.444326 0.631567 0.619264
O O4 0.615733 0.588807 0.730746
O O5 0.254380 0.750000 0.963148
O O6 0.138521 0.642448 0.087346
O O7 0.147802 0.598697 0.907943
O O8 0.316351 0.250000 0.210533
O O9 0.330319 0.424062 0.276009
O O10 0.230832 0.377483 0.096301
O O11 0.779711 0.250000 0.459984
O O12 0.922490 0.383598 0.441126
O O13 0.716552 0.422205 0.406431
O O14 0.956437 0.250000 0.890217
O O15 0.998808 0.371168 0.754993
O O16 0.821093 0.457171 0.238505
O O17 0.000000 0.000000 0.125919
#
# Coordination Sequence:
#
# PCOD9361040 Si02
#       7
#     8   8   8   8   8   8   8
#     4   9  18  36  61  88 121 159 204 254 310 369
#     4   9  18  34  60  85 112 155 196 242 303 364
#     4  10  21  38  64  94 124 160 208 264 310 364
#     4   9  19  37  64  93 120 161 211 253 304 373
#     4   9  18  35  58  83 113 152 199 245 294 362
#     4  10  20  38  61  88 122 163 205 249 313 372
#     4  10  21  34  52  85 118 154 193 243 296 359
#
# _framework density 24.672704
#
# number of rings (size 3 to 8) (size 9 to 14) (size 15 to 20)
#    0.000    2.571    0.000    1.286    2.000    4.000 
#    7.714    3.571    3.143    3.429    0.000    0.000 
#    0.000    0.000    0.000    0.000    0.000    0.000 
#
# Total GULP energy -156523.720336 kJ/mol
# GULP energy per Si atom -5590.132869 kJ/mol
# Density = 2.461655 g / cm^3
# Si number density = 24.672704 Si / 1000 Ang^3
#
#
#
# Elastic Constant Matrix: (Units=GPa)
#
#
# Indices 1 2 3 4 5 6 
#
# 1 93.4460 23.3243 37.9812 0.0000 0.0000 0.0000
# 2 23.3243 105.0504 38.2121 0.0000 0.0000 0.0000
# 3 37.9812 38.2121 79.3458 0.0000 0.0000 0.0000
# 4 0.0000 0.0000 0.0000 37.1069 0.0000 0.0000
# 5 0.0000 0.0000 0.0000 0.0000 38.2021 0.0000
# 6 0.0000 0.0000 0.0000 0.0000 0.0000 25.0425
#
#
#
# Elastic Compliance Matrix: (Units=1/GPa)
#
#
# Indices 1 2 3 4 5 6 
#
# 1 0.013338 -0.000775 -0.006012 0.000000 0.000000 0.000000
# 2 -0.000775 0.011586 -0.005209 0.000000 0.000000 0.000000
# 3 -0.006012 -0.005209 0.017989 0.000000 0.000000 0.000000
# 4 0.000000 0.000000 0.000000 0.026949 0.000000 0.000000
# 5 0.000000 0.000000 0.000000 0.000000 0.026177 0.000000
# 6 0.000000 0.000000 0.000000 0.000000 0.000000 0.039932
#
#
# Mechanical properties :
#
#
# Convention : Reuss Voigt Hill
#
# Bulk Modulus (GPa) = 52.84574 52.98638 52.91606
# Shear Modulus (GPa) = 30.07171 31.95859 31.01515
#
# Velocity S-wave (km/s) = 3.49496 3.60293 3.54936
# Velocity P-wave (km/s) = 6.14422 6.23141 6.18797
#
# Compressibility (1/GPa) = 0.01892300
#
# Stress axis : x y z
#
# Youngs Moduli (GPa) = 74.97292 86.31131 55.58896
#
# Poissons Ratio (x) = 0.06687 0.33418
# Poissons Ratio (y) = 0.05809 0.28955
# Poissons Ratio (z) = 0.45071 0.44958
#
# Static dielectric constant tensor:
#      x y z
#    x 1.959060 0.000000 0.000000 
#    y 0.000000 2.001370 0.000000 
#    z 0.000000 0.000000 1.980370 
# 
# From -- ./inp_files/9277.got.cif
#   From: 2010.05.17/outbox.cif.g08.bks.cpg/sg39_5_cif.got.tgz:9277.got - 2010.06.03 18:22:40.
