data_PCOD9361314
_publ_section_title
;
Structure prediction by ZEFSAII (Michael W. Deem and Ramdas Pophale) SiO2 
 PCOD9361314
Probable space group: A B M 2
;
_chemical_formula_sum "Si O2"
_cell_formula_units_Z 64
_cell_length_a 15.731201
_cell_length_b 8.877839
_cell_length_c 24.193640
_cell_angle_alpha 90.000000
_cell_angle_beta 90.000000
_cell_angle_gamma 90.000000
_cell_volume 3378.861256
_symmetry_space_group_name_H-M "A B M 2"
_symmetry_group_IT_number 39
_symmetry_cell_setting 'orthorhombic'
loop_
_space_group_symop_operation_xyz
x,y,z
-x,-y,z
-x,1/2+y,z
x,1/2-y,z
x,1/2+y,1/2+z
-x,1/2-y,1/2+z
-x,y,1/2+z
x,-y,1/2+z
loop_
_atom_site_type_symbol
_atom_site_label
_atom_site_fract_x
_atom_site_fract_y
_atom_site_fract_z
Si Si1 0.754124 0.069828 0.962650
Si Si2 0.411836 0.930290 0.265460
Si Si3 0.089290 0.570238 0.266422
Si Si4 0.646309 0.429465 0.650200
Si Si5 0.250046 0.068775 0.841613
Si Si6 0.588379 0.569735 0.534924
Si Si7 0.909572 0.569179 0.030544
Si Si8 0.150774 0.570950 0.653090
O O1 0.763865 0.250000 0.963998
O O2 0.748638 0.011520 0.900308
O O3 0.667868 0.030968 0.995751
O O4 0.833735 0.994050 0.993239
O O5 0.418360 0.750000 0.261345
O O6 0.333340 0.967554 0.305554
O O7 0.500000 0.000000 0.285989
O O8 0.392326 0.998592 0.205252
O O9 0.083218 0.750000 0.266651
O O10 0.166826 0.525313 0.306348
O O11 0.111105 0.515175 0.204684
O O12 0.000000 0.500000 0.284092
O O13 0.631524 0.250000 0.649652
O O14 0.607606 0.503052 0.595468
O O15 0.747964 0.456174 0.650569
O O16 0.247993 0.250000 0.849416
O O17 0.500000 0.500000 0.514510
O O18 0.581418 0.750000 0.538203
O O19 0.911609 0.750000 0.026859
O O20 0.889404 0.527466 0.094348
O O21 0.000000 0.500000 0.014448
O O22 0.137624 0.750000 0.661049
#
# Coordination Sequence:
#
# PCOD9361314 Si02
#       8
#     8   8   8   8   8   8   8   8
#     4  11  25  43  65  91 120 160 208 258 309 361
#     4  11  23  41  63  92 125 163 204 250 306 363
#     4  11  23  40  63  92 124 161 202 248 303 361
#     4  11  21  37  63  94 126 162 201 247 305 365
#     4  10  24  44  64  86 120 163 206 254 307 361
#     4  11  24  41  63  92 125 162 204 250 306 367
#     4  11  23  41  64  93 127 163 204 249 305 365
#     4  10  21  37  62  94 125 162 200 244 303 363
#
# _framework density 18.941292000000001
#
# number of rings (size 3 to 8) (size 9 to 14) (size 15 to 20)
#    0.000    1.250    2.500    3.000    0.000    7.000 
#    0.000    3.750    0.000    0.000    0.000    0.000 
#    0.000    0.000    0.000    0.000    0.000    0.000 
#
# Total GULP energy -179006.235357 kJ/mol
# GULP energy per Si atom -5593.944855 kJ/mol
# Density = 1.889818 g / cm^3
# Si number density = 18.941292 Si / 1000 Ang^3
#
#
#
# Elastic Constant Matrix: (Units=GPa)
#
#
# Indices 1 2 3 4 5 6 
#
# 1 190.9928 78.2741 86.9199 0.0000 0.0000 0.0000
# 2 78.2741 62.8434 58.4648 0.0000 0.0000 0.0000
# 3 86.9199 58.4648 139.8755 0.0000 0.0000 0.0000
# 4 0.0000 0.0000 0.0000 31.1211 0.0000 0.0000
# 5 0.0000 0.0000 0.0000 0.0000 -3.5689 0.0000
# 6 0.0000 0.0000 0.0000 0.0000 0.0000 34.3588
#
#
#
# Elastic Compliance Matrix: (Units=1/GPa)
#
#
# Indices 1 2 3 4 5 6 
#
# 1 0.010968 -0.011978 -0.001809 0.000000 0.000000 0.000000
# 2 -0.011978 0.039119 -0.008907 0.000000 0.000000 0.000000
# 3 -0.001809 -0.008907 0.011996 0.000000 0.000000 0.000000
# 4 0.000000 0.000000 0.000000 0.032132 0.000000 0.000000
# 5 0.000000 0.000000 0.000000 0.000000 -0.280199 0.000000
# 6 0.000000 0.000000 0.000000 0.000000 0.000000 0.029105
#
#
# Mechanical properties :
#
#
# Convention : Reuss Voigt Hill
#
# Bulk Modulus (GPa) = 59.90186 93.44772 76.67479
# Shear Modulus (GPa) = -47.20338 23.71908 -11.74215
#
# Velocity S-wave (km/s) = -4.99750 3.54254 -2.49253
# Velocity P-wave (km/s) = 1.26741 8.13482 5.68195
#
# Compressibility (1/GPa) = 0.01669397
#
# Stress axis : x y z
#
# Youngs Moduli (GPa) = 91.17359 25.56324 83.35804
#
# Poissons Ratio (x) = 0.30620 0.15080
# Poissons Ratio (y) = 1.09210 0.74250
# Poissons Ratio (z) = 0.16494 0.22770
#
# Static dielectric constant tensor:
#      x y z
#    x 1.655320 0.000000 0.000000 
#    y 0.000000 1.630360 0.000000 
#    z 0.000000 0.000000 1.615170 
# 
# From -- ./inp_files/16194.got.cif
#   From: 2010.05.17/outbox.cif.g08.bks.cpg/sg39_9_cif.got.tgz:16194.got - 2010.06.03 18:22:40.
