data_PCOD9361664
_publ_section_title
;
Structure prediction by ZEFSAII (Michael W. Deem and Ramdas Pophale) SiO2 
 PCOD9361664
Probable space group: A B M 2
;
_chemical_formula_sum "Si O2"
_cell_formula_units_Z 40
_cell_length_a 8.281327
_cell_length_b 20.907046
_cell_length_c 11.235303
_cell_angle_alpha 90.000000
_cell_angle_beta 90.000000
_cell_angle_gamma 90.000000
_cell_volume 1945.258841
_symmetry_space_group_name_H-M "A B M 2"
_symmetry_group_IT_number 39
_symmetry_cell_setting 'orthorhombic'
loop_
_space_group_symop_operation_xyz
x,y,z
-x,-y,z
-x,1/2+y,z
x,1/2-y,z
x,1/2+y,1/2+z
-x,1/2-y,1/2+z
-x,y,1/2+z
x,-y,1/2+z
loop_
_atom_site_type_symbol
_atom_site_label
_atom_site_fract_x
_atom_site_fract_y
_atom_site_fract_z
Si Si1 0.390771 0.437083 0.471500
Si Si2 0.177280 0.887180 0.188266
Si Si3 0.924121 0.440519 0.855056
Si Si4 0.364607 0.825451 0.410664
Si Si5 0.026139 0.179364 0.006064
O O1 0.500000 0.500000 0.485114
O O2 0.285516 0.422941 0.589890
O O3 0.267326 0.448876 0.360848
O O4 0.493253 0.373004 0.447634
O O5 0.286582 0.855250 0.290508
O O6 0.042577 0.934569 0.242604
O O7 0.069634 0.832168 0.126867
O O8 0.000000 0.500000 0.926710
O O9 0.956441 0.373741 0.919269
O O10 0.407029 0.750000 0.397047
O O11 0.219174 0.829256 0.507672
O O12 0.996231 0.250000 0.958946
#
# Coordination Sequence:
#
# PCOD9361664 Si02
#       5
#     8   8   8   8   8
#     4  11  24  41  63  92 125 156 199 256 309 356
#     4  10  22  39  64  88 120 165 207 245 296 364
#     4  10  22  40  62  86 118 160 205 246 292 361
#     4  10  22  40  62  92 126 158 200 254 307 356
#     4   9  19  38  62  88 121 161 204 245 291 357
#
# _framework density 20.562816000000002
#
# number of rings (size 3 to 8) (size 9 to 14) (size 15 to 20)
#    0.000    2.000    0.000    3.000    0.000   13.600 
#    0.000    2.000    0.000    0.000    0.000    0.000 
#    0.000    0.000    0.000    0.000    0.000    0.000 
#
# Total GULP energy -111464.259387 kJ/mol
# GULP energy per Si atom -5573.212969 kJ/mol
# Density = 2.051601 g / cm^3
# Si number density = 20.562816 Si / 1000 Ang^3
#
#
#
# Elastic Constant Matrix: (Units=GPa)
#
#
# Indices 1 2 3 4 5 6 
#
# 1 143.2248 80.9039 58.3694 0.0000 0.0000 0.0000
# 2 80.9039 154.7956 32.7539 0.0000 0.0000 0.0000
# 3 58.3694 32.7539 74.4006 0.0000 0.0000 0.0000
# 4 0.0000 0.0000 0.0000 22.9045 0.0000 0.0000
# 5 0.0000 0.0000 0.0000 0.0000 50.5139 0.0000
# 6 0.0000 0.0000 0.0000 0.0000 0.0000 39.4017
#
#
#
# Elastic Compliance Matrix: (Units=1/GPa)
#
#
# Indices 1 2 3 4 5 6 
#
# 1 0.013207 -0.005194 -0.008074 0.000000 0.000000 0.000000
# 2 -0.005194 0.009166 0.000039 0.000000 0.000000 0.000000
# 3 -0.008074 0.000039 0.019758 0.000000 0.000000 0.000000
# 4 0.000000 0.000000 0.000000 0.043660 0.000000 0.000000
# 5 0.000000 0.000000 0.000000 0.000000 0.019797 0.000000
# 6 0.000000 0.000000 0.000000 0.000000 0.000000 0.025380
#
#
# Mechanical properties :
#
#
# Convention : Reuss Voigt Hill
#
# Bulk Modulus (GPa) = 63.80339 79.60838 71.70589
# Shear Modulus (GPa) = 30.74108 35.92358 33.33233
#
# Velocity S-wave (km/s) = 3.87070 4.18427 4.03053
# Velocity P-wave (km/s) = 7.14649 7.88308 7.52380
#
# Compressibility (1/GPa) = 0.01567315
#
# Stress axis : x y z
#
# Youngs Moduli (GPa) = 75.72019 109.09425 50.61243
#
# Poissons Ratio (x) = 0.56662 0.40866
# Poissons Ratio (y) = 0.39328 -0.00199
# Poissons Ratio (z) = 0.61139 -0.00430
#
# Static dielectric constant tensor:
#      x y z
#    x 1.766810 0.000000 0.000000 
#    y 0.000000 1.745840 0.000000 
#    z 0.000000 0.000000 1.803860 
# 
# From -- ./inp_files/4940.got.cif
#   From: 2010.05.17/outbox.cif.g08.bks.cpg/sg39_3_cif.got.tgz:4940.got - 2010.06.03 18:22:40.
