data_PCOD9361246
_publ_section_title
;
Structure prediction by ZEFSAII (Michael W. Deem and Ramdas Pophale) SiO2 
 PCOD9361246
Probable space group: A B M 2
;
_chemical_formula_sum "Si O2"
_cell_formula_units_Z 56
_cell_length_a 14.149833
_cell_length_b 19.954939
_cell_length_c 9.761834
_cell_angle_alpha 90.000000
_cell_angle_beta 90.000000
_cell_angle_gamma 90.000000
_cell_volume 2756.342217
_symmetry_space_group_name_H-M "A B M 2"
_symmetry_group_IT_number 39
_symmetry_cell_setting 'orthorhombic'
loop_
_space_group_symop_operation_xyz
x,y,z
-x,-y,z
-x,1/2+y,z
x,1/2-y,z
x,1/2+y,1/2+z
-x,1/2-y,1/2+z
-x,y,1/2+z
x,-y,1/2+z
loop_
_atom_site_type_symbol
_atom_site_label
_atom_site_fract_x
_atom_site_fract_y
_atom_site_fract_z
Si Si1 0.593219 0.673567 0.136890
Si Si2 0.508700 0.393949 0.898594
Si Si3 0.706961 0.434079 0.027348
Si Si4 0.235960 0.171539 0.967967
Si Si5 0.037910 0.329483 0.855130
Si Si6 0.683384 0.045553 0.331195
Si Si7 0.876257 0.831943 0.559380
O O1 0.586523 0.750000 0.182061
O O2 0.542929 0.628425 0.249062
O O3 0.541627 0.662722 0.991504
O O4 0.703495 0.657877 0.105135
O O5 0.425495 0.448374 0.879458
O O6 0.603992 0.411123 0.978063
O O7 0.692693 0.469373 0.172922
O O8 0.737486 0.490789 0.920012
O O9 0.779029 0.372507 0.041872
O O10 0.252847 0.250000 0.933541
O O11 0.124149 0.161250 0.962889
O O12 0.276243 0.119717 0.857904
O O13 0.025025 0.250000 0.837696
O O14 0.073326 0.351977 0.704455
O O15 0.943569 0.352380 0.931890
O O16 0.863708 0.750000 0.560718
#
# Coordination Sequence:
#
# PCOD9361246 Si02
#       7
#     8   8   8   8   8   8   8
#     4  10  21  36  59  96 132 167 213 273 335 383
#     4  11  23  41  62  91 127 176 223 270 321 396
#     4  12  26  43  67  93 131 173 223 273 323 393
#     4   9  19  39  68  94 126 167 213 267 326 389
#     4   9  18  38  69  99 131 165 211 265 327 394
#     4  11  25  43  65  92 128 174 220 265 328 387
#     4  10  22  42  70 103 129 168 218 273 331 392
#
# _framework density 20.316780000000001
#
# number of rings (size 3 to 8) (size 9 to 14) (size 15 to 20)
#    0.000    1.714    2.857    0.857    4.000    4.000 
#    0.000    3.571    0.000    0.000    0.000    0.000 
#    0.000    0.000    0.000    0.000    0.000    0.000 
#
# Total GULP energy -156098.038371 kJ/mol
# GULP energy per Si atom -5574.929942 kJ/mol
# Density = 2.027054 g / cm^3
# Si number density = 20.316780 Si / 1000 Ang^3
#
#
#
# Elastic Constant Matrix: (Units=GPa)
#
#
# Indices 1 2 3 4 5 6 
#
# 1 92.7754 39.5106 39.3900 0.0000 0.0000 0.0000
# 2 39.5106 51.1046 29.0614 0.0000 0.0000 0.0000
# 3 39.3900 29.0614 86.9411 0.0000 0.0000 0.0000
# 4 0.0000 0.0000 0.0000 16.1318 0.0000 0.0000
# 5 0.0000 0.0000 0.0000 0.0000 28.3329 0.0000
# 6 0.0000 0.0000 0.0000 0.0000 0.0000 11.4808
#
#
#
# Elastic Compliance Matrix: (Units=1/GPa)
#
#
# Indices 1 2 3 4 5 6 
#
# 1 0.017193 -0.010943 -0.004132 0.000000 0.000000 0.000000
# 2 -0.010943 0.031125 -0.005446 0.000000 0.000000 0.000000
# 3 -0.004132 -0.005446 0.015194 0.000000 0.000000 0.000000
# 4 0.000000 0.000000 0.000000 0.061989 0.000000 0.000000
# 5 0.000000 0.000000 0.000000 0.000000 0.035295 0.000000
# 6 0.000000 0.000000 0.000000 0.000000 0.000000 0.087102
#
#
# Mechanical properties :
#
#
# Convention : Reuss Voigt Hill
#
# Bulk Modulus (GPa) = 44.50194 49.63834 47.07014
# Shear Modulus (GPa) = 16.86731 19.37971 18.12351
#
# Velocity S-wave (km/s) = 2.88447 3.09184 2.98995
# Velocity P-wave (km/s) = 5.74849 6.10174 5.92775
#
# Compressibility (1/GPa) = 0.02247093
#
# Stress axis : x y z
#
# Youngs Moduli (GPa) = 58.16189 32.12823 65.81343
#
# Poissons Ratio (x) = 0.35158 0.27193
# Poissons Ratio (y) = 0.63648 0.35843
# Poissons Ratio (z) = 0.24031 0.17497
#
# Static dielectric constant tensor:
#      x y z
#    x 1.745860 0.000000 0.000000 
#    y 0.000000 1.739760 0.000000 
#    z 0.000000 0.000000 1.741840 
# 
# From -- ./inp_files/3403.got.cif
#   From: 2010.05.17/outbox.cif.g08.bks.cpg/sg39_2_cif.got.tgz:3403.got - 2010.06.03 18:22:40.
