data_PCOD9361780
_publ_section_title
;
Structure prediction by ZEFSAII (Michael W. Deem and Ramdas Pophale) SiO2 
 PCOD9361780
Probable space group: A B M 2
;
_chemical_formula_sum "Si O2"
_cell_formula_units_Z 40
_cell_length_a 9.104110
_cell_length_b 19.676893
_cell_length_c 10.009909
_cell_angle_alpha 90.000000
_cell_angle_beta 90.000000
_cell_angle_gamma 90.000000
_cell_volume 1793.181087
_symmetry_space_group_name_H-M "A B M 2"
_symmetry_group_IT_number 39
_symmetry_cell_setting 'orthorhombic'
loop_
_space_group_symop_operation_xyz
x,y,z
-x,-y,z
-x,1/2+y,z
x,1/2-y,z
x,1/2+y,1/2+z
-x,1/2-y,1/2+z
-x,y,1/2+z
x,-y,1/2+z
loop_
_atom_site_type_symbol
_atom_site_label
_atom_site_fract_x
_atom_site_fract_y
_atom_site_fract_z
Si Si1 0.298552 0.943948 0.009750
Si Si2 0.694029 0.561397 0.209204
Si Si3 0.835547 0.828856 0.831719
Si Si4 0.989278 0.108251 0.591668
Si Si5 0.447677 0.168311 0.669361
O O1 0.374124 0.871907 0.045393
O O2 0.124978 0.935151 0.036518
O O3 0.349474 0.002803 0.107643
O O4 0.327274 0.963197 0.858875
O O5 0.865265 0.573906 0.181656
O O6 0.601982 0.630722 0.190968
O O7 0.836029 0.750000 0.864433
O O8 0.668313 0.847142 0.789697
O O9 0.931396 0.840872 0.697048
O O10 0.903585 0.865468 0.960273
O O11 0.457474 0.250000 0.653001
#
# Coordination Sequence:
#
# PCOD9361780 Si02
#       5
#     8   8   8   8   8
#     4  11  27  47  72 106 145 188 244 299 359 434
#     4  12  27  46  75 105 144 190 243 296 367 428
#     4  10  22  43  70 105 148 187 234 293 362 432
#     4  11  23  44  71 106 140 187 240 298 356 428
#     4  10  26  48  73 106 147 190 240 300 361 434
#
# _framework density 22.306726000000001
#
# number of rings (size 3 to 8) (size 9 to 14) (size 15 to 20)
#    0.000    1.200    2.000    1.800    8.400    6.400 
#    0.000    0.000    0.000    0.000    0.000    0.000 
#    0.000    0.000    0.000    0.000    0.000    0.000 
#
# Total GULP energy -111803.092879 kJ/mol
# GULP energy per Si atom -5590.154644 kJ/mol
# Density = 2.225595 g / cm^3
# Si number density = 22.306726 Si / 1000 Ang^3
#
#
#
# Elastic Constant Matrix: (Units=GPa)
#
#
# Indices 1 2 3 4 5 6 
#
# 1 103.9094 52.3220 61.5274 0.0000 0.0000 0.0000
# 2 52.3220 191.1308 233.9056 0.0000 0.0000 0.0000
# 3 61.5274 233.9056 580.2981 0.0000 0.0000 0.0000
# 4 0.0000 0.0000 0.0000 17.9890 0.0000 0.0000
# 5 0.0000 0.0000 0.0000 0.0000 12.6582 0.0000
# 6 0.0000 0.0000 0.0000 0.0000 0.0000 22.8987
#
#
#
# Elastic Compliance Matrix: (Units=1/GPa)
#
#
# Indices 1 2 3 4 5 6 
#
# 1 0.011165 -0.003173 0.000095 0.000000 0.000000 0.000000
# 2 -0.003173 0.011227 -0.004189 0.000000 0.000000 0.000000
# 3 0.000095 -0.004189 0.003402 0.000000 0.000000 0.000000
# 4 0.000000 0.000000 0.000000 0.055590 0.000000 0.000000
# 5 0.000000 0.000000 0.000000 0.000000 0.079000 0.000000
# 6 0.000000 0.000000 0.000000 0.000000 0.000000 0.043671
#
#
# Mechanical properties :
#
#
# Convention : Reuss Voigt Hill
#
# Bulk Modulus (GPa) = 88.80688 174.53870 131.67279
# Shear Modulus (GPa) = 22.48802 45.88142 34.18472
#
# Velocity S-wave (km/s) = 3.17855 4.54016 3.91894
# Velocity P-wave (km/s) = 7.30541 10.29072 8.92378
#
# Compressibility (1/GPa) = 0.01126039
#
# Stress axis : x y z
#
# Youngs Moduli (GPa) = 89.56501 89.07078 293.97470
#
# Poissons Ratio (x) = 0.28260 -0.02795
# Poissons Ratio (y) = 0.28417 1.23145
# Poissons Ratio (z) = -0.00852 0.37311
#
# Static dielectric constant tensor:
#      x y z
#    x 1.843260 0.000000 0.000000 
#    y 0.000000 1.812470 0.000000 
#    z 0.000000 0.000000 1.688590 
# 
# From -- ./inp_files/5046.got.cif
#   From: 2010.05.17/outbox.cif.g08.bks.cpg/sg39_3_cif.got.tgz:5046.got - 2010.06.03 18:22:40.
