data_PCOD9361462
_publ_section_title
;
Structure prediction by ZEFSAII (Michael W. Deem and Ramdas Pophale) SiO2 
 PCOD9361462
Probable space group: A B M 2
;
_chemical_formula_sum "Si O2"
_cell_formula_units_Z 64
_cell_length_a 16.736855
_cell_length_b 14.548297
_cell_length_c 12.826388
_cell_angle_alpha 90.000000
_cell_angle_beta 90.000000
_cell_angle_gamma 90.000000
_cell_volume 3123.132325
_symmetry_space_group_name_H-M "A B M 2"
_symmetry_group_IT_number 39
_symmetry_cell_setting 'orthorhombic'
loop_
_space_group_symop_operation_xyz
x,y,z
-x,-y,z
-x,1/2+y,z
x,1/2-y,z
x,1/2+y,1/2+z
-x,1/2-y,1/2+z
-x,y,1/2+z
x,-y,1/2+z
loop_
_atom_site_type_symbol
_atom_site_label
_atom_site_fract_x
_atom_site_fract_y
_atom_site_fract_z
Si Si1 0.888928 0.042559 0.632330
Si Si2 0.874126 0.643646 0.925601
Si Si3 0.580258 0.356927 0.804018
Si Si4 0.589746 0.856833 0.727441
Si Si5 0.584825 0.053814 0.013996
Si Si6 0.041416 0.642968 0.205032
Si Si7 0.723680 0.644764 0.163583
Si Si8 0.691300 0.396156 0.431402
O O1 0.905858 0.077329 0.515241
O O2 0.800175 0.078256 0.657980
O O3 0.952881 0.100056 0.700008
O O4 0.904894 0.934072 0.645666
O O5 0.869545 0.750000 0.963869
O O6 0.926406 0.642395 0.822580
O O7 0.784067 0.610803 0.902240
O O8 0.582419 0.250000 0.777627
O O9 0.498093 0.393463 0.756976
O O10 0.658514 0.393324 0.745069
O O11 0.573621 0.367568 0.927761
O O12 0.584376 0.750000 0.697059
O O13 0.614972 0.912178 0.625393
O O14 0.642275 0.860936 0.832033
O O15 0.500000 0.000000 0.022696
O O16 0.652324 0.993029 0.958850
O O17 0.043918 0.750000 0.168021
O O18 0.747427 0.750000 0.191668
O O19 0.686630 0.649694 0.046649
#
# Coordination Sequence:
#
# PCOD9361462 Si02
#       8
#     8   8   8   8   8   8   8   8
#     4  10  21  39  69  96 129 172 212 260 320 379
#     4  10  22  42  66  96 129 167 217 264 314 387
#     4  10  23  40  61  88 126 167 211 268 325 383
#     4  11  24  42  63  87 124 168 213 266 323 380
#     4  12  25  38  59  89 125 161 217 267 323 381
#     4  10  22  39  64  99 134 168 210 261 316 381
#     4  10  21  40  66  96 124 163 220 270 321 385
#     4  11  23  37  65  89 125 165 212 263 319 384
#
# _framework density 20.492246999999999
#
# number of rings (size 3 to 8) (size 9 to 14) (size 15 to 20)
#    0.000    1.500    1.250    4.125    5.250    3.000 
#    0.000    0.000    2.750    4.500    0.000    0.000 
#    0.000    0.000    0.000    0.000    0.000    0.000 
#
# Total GULP energy -178543.744082 kJ/mol
# GULP energy per Si atom -5579.492003 kJ/mol
# Density = 2.044561 g / cm^3
# Si number density = 20.492247 Si / 1000 Ang^3
#
#
#
# Elastic Constant Matrix: (Units=GPa)
#
#
# Indices 1 2 3 4 5 6 
#
# 1 78.5260 28.3448 50.3038 0.0000 0.0000 0.0000
# 2 28.3448 105.4214 45.5384 0.0000 0.0000 0.0000
# 3 50.3038 45.5384 105.4255 0.0000 0.0000 0.0000
# 4 0.0000 0.0000 0.0000 39.6601 0.0000 0.0000
# 5 0.0000 0.0000 0.0000 0.0000 41.1537 0.0000
# 6 0.0000 0.0000 0.0000 0.0000 0.0000 13.3991
#
#
#
# Elastic Compliance Matrix: (Units=1/GPa)
#
#
# Indices 1 2 3 4 5 6 
#
# 1 0.018514 -0.001428 -0.008217 0.000000 0.000000 0.000000
# 2 -0.001428 0.011772 -0.004403 0.000000 0.000000 0.000000
# 3 -0.008217 -0.004403 0.015308 0.000000 0.000000 0.000000
# 4 0.000000 0.000000 0.000000 0.025214 0.000000 0.000000
# 5 0.000000 0.000000 0.000000 0.000000 0.024299 0.000000
# 6 0.000000 0.000000 0.000000 0.000000 0.000000 0.074632
#
#
# Mechanical properties :
#
#
# Convention : Reuss Voigt Hill
#
# Bulk Modulus (GPa) = 57.15381 59.74966 58.45174
# Shear Modulus (GPa) = 24.54969 29.85499 27.20234
#
# Velocity S-wave (km/s) = 3.46497 3.82107 3.64737
# Velocity P-wave (km/s) = 6.63016 6.97767 6.80613
#
# Compressibility (1/GPa) = 0.01749665
#
# Stress axis : x y z
#
# Youngs Moduli (GPa) = 54.01306 84.94834 65.32495
#
# Poissons Ratio (x) = 0.12134 0.53677
# Poissons Ratio (y) = 0.07715 0.28764
# Poissons Ratio (z) = 0.44382 0.37405
#
# Static dielectric constant tensor:
#      x y z
#    x 1.727360 0.000000 0.000000 
#    y 0.000000 1.820970 0.000000 
#    z 0.000000 0.000000 1.721120 
# 
# From -- ./inp_files/6891.got.cif
#   From: 2010.05.17/outbox.cif.g08.bks.cpg/sg39_4_cif.got.tgz:6891.got - 2010.06.03 18:22:40.
