data_PCOD9361432
_publ_section_title
;
Structure prediction by ZEFSAII (Michael W. Deem and Ramdas Pophale) SiO2 
 PCOD9361432
Probable space group: A B M 2
;
_chemical_formula_sum "Si O2"
_cell_formula_units_Z 48
_cell_length_a 19.341581
_cell_length_b 8.668412
_cell_length_c 15.366151
_cell_angle_alpha 90.000000
_cell_angle_beta 90.000000
_cell_angle_gamma 90.000000
_cell_volume 2576.301060
_symmetry_space_group_name_H-M "A B M 2"
_symmetry_group_IT_number 39
_symmetry_cell_setting 'orthorhombic'
loop_
_space_group_symop_operation_xyz
x,y,z
-x,-y,z
-x,1/2+y,z
x,1/2-y,z
x,1/2+y,1/2+z
-x,1/2-y,1/2+z
-x,y,1/2+z
x,-y,1/2+z
loop_
_atom_site_type_symbol
_atom_site_label
_atom_site_fract_x
_atom_site_fract_y
_atom_site_fract_z
Si Si1 0.328296 0.435513 0.507340
Si Si2 0.922914 0.934354 0.918305
Si Si3 0.827455 0.434852 0.071815
Si Si4 0.167485 0.433863 0.263506
Si Si5 0.316242 0.065338 0.817888
Si Si6 0.423237 0.564182 0.167686
O O1 0.332452 0.250000 0.495263
O O2 0.251924 0.469027 0.545163
O O3 0.336463 0.517566 0.415145
O O4 0.384736 0.483286 0.578740
O O5 0.923797 0.750000 0.921379
O O6 0.886733 0.990561 0.829603
O O7 0.000000 0.000000 0.923886
O O8 0.877194 0.999166 0.997719
O O9 0.834499 0.250000 0.076703
O O10 0.842729 0.507900 0.165361
O O11 0.161894 0.250000 0.268309
O O12 0.243891 0.485830 0.293747
O O13 0.306832 0.250000 0.811781
O O14 0.374692 0.018157 0.748600
O O15 0.500000 0.500000 0.174111
O O16 0.426065 0.750000 0.167701
#
# Coordination Sequence:
#
# PCOD9361432 Si02
#       6
#     8   8   8   8   8   8
#     4  10  21  39  63  91 125 162 208 259 313 375
#     4  12  26  45  67  96 132 169 210 261 320 377
#     4  11  22  41  67  96 129 166 211 262 315 377
#     4  12  24  40  65  97 129 168 215 262 315 375
#     4  11  22  39  63  92 125 164 212 262 314 376
#     4  10  23  42  61  88 127 166 206 260 318 373
#
# _framework density 18.631361999999999
#
# number of rings (size 3 to 8) (size 9 to 14) (size 15 to 20)
#    0.000    1.000    3.333    4.000    0.000    4.000 
#    0.000    6.667    0.000    0.000    0.000    0.000 
#    0.000    0.000    0.000    0.000    0.000    0.000 
#
# Total GULP energy -134256.749490 kJ/mol
# GULP energy per Si atom -5594.031229 kJ/mol
# Density = 1.858896 g / cm^3
# Si number density = 18.631362 Si / 1000 Ang^3
#
#
#
# Elastic Constant Matrix: (Units=GPa)
#
#
# Indices 1 2 3 4 5 6 
#
# 1 92.0623 30.7617 12.5731 0.0000 0.0000 0.0000
# 2 30.7617 67.5696 20.9839 0.0000 0.0000 0.0000
# 3 12.5731 20.9839 99.8209 0.0000 0.0000 0.0000
# 4 0.0000 0.0000 0.0000 36.5768 0.0000 0.0000
# 5 0.0000 0.0000 0.0000 0.0000 21.2594 0.0000
# 6 0.0000 0.0000 0.0000 0.0000 0.0000 33.3853
#
#
#
# Elastic Compliance Matrix: (Units=1/GPa)
#
#
# Indices 1 2 3 4 5 6 
#
# 1 0.012827 -0.005711 -0.000415 0.000000 0.000000 0.000000
# 2 -0.005711 0.018376 -0.003144 0.000000 0.000000 0.000000
# 3 -0.000415 -0.003144 0.010731 0.000000 0.000000 0.000000
# 4 0.000000 0.000000 0.000000 0.027340 0.000000 0.000000
# 5 0.000000 0.000000 0.000000 0.000000 0.047038 0.000000
# 6 0.000000 0.000000 0.000000 0.000000 0.000000 0.029953
#
#
# Mechanical properties :
#
#
# Convention : Reuss Voigt Hill
#
# Bulk Modulus (GPa) = 42.74433 43.12113 42.93273
# Shear Modulus (GPa) = 28.96838 31.25325 30.11081
#
# Velocity S-wave (km/s) = 3.94740 4.10012 4.02448
# Velocity P-wave (km/s) = 6.61573 6.75346 6.68495
#
# Compressibility (1/GPa) = 0.02339492
#
# Stress axis : x y z
#
# Youngs Moduli (GPa) = 77.96000 54.41989 93.18752
#
# Poissons Ratio (x) = 0.31078 0.03869
# Poissons Ratio (y) = 0.44521 0.29294
# Poissons Ratio (z) = 0.03237 0.17107
#
# Static dielectric constant tensor:
#      x y z
#    x 1.611110 0.000000 0.000000 
#    y 0.000000 1.626950 0.000000 
#    z 0.000000 0.000000 1.621670 
# 
# From -- ./inp_files/10038.got.cif
#   From: 2010.05.17/outbox.cif.g08.bks.cpg/sg39_6_cif.got.tgz:10038.got - 2010.06.03 18:22:40.
