data_PCOD9361762
_publ_section_title
;
Structure prediction by ZEFSAII (Michael W. Deem and Ramdas Pophale) SiO2 
 PCOD9361762
Probable space group: A B M 2
;
_chemical_formula_sum "Si O2"
_cell_formula_units_Z 32
_cell_length_a 6.484626
_cell_length_b 16.003671
_cell_length_c 13.609476
_cell_angle_alpha 90.000000
_cell_angle_beta 90.000000
_cell_angle_gamma 90.000000
_cell_volume 1412.361765
_symmetry_space_group_name_H-M "A B M 2"
_symmetry_group_IT_number 39
_symmetry_cell_setting 'orthorhombic'
loop_
_space_group_symop_operation_xyz
x,y,z
-x,-y,z
-x,1/2+y,z
x,1/2-y,z
x,1/2+y,1/2+z
-x,1/2-y,1/2+z
-x,y,1/2+z
x,-y,1/2+z
loop_
_atom_site_type_symbol
_atom_site_label
_atom_site_fract_x
_atom_site_fract_y
_atom_site_fract_z
Si Si1 0.039936 0.250000 0.119900
Si Si2 0.237434 0.891376 0.213390
Si Si3 0.575006 0.750000 0.239510
Si Si4 0.661194 0.930917 0.503407
Si Si5 0.717724 0.250000 0.954207
Si Si6 0.000000 0.500000 0.869151
O O1 0.279953 0.250000 0.143923
O O2 0.942046 0.169570 0.173472
O O3 0.938861 0.250000 0.010963
O O4 0.427803 0.831184 0.241033
O O5 0.296321 0.945541 0.118258
O O6 0.151737 0.946773 0.300750
O O7 0.716936 0.750000 0.336705
O O8 0.602688 0.834081 0.489652
O O9 0.865830 0.941466 0.439233
O O10 0.500000 0.000000 0.469161
#
# Coordination Sequence:
#
# PCOD9361762 Si02
#       6
#     4   8   4   8   4   4
#     4   9  21  43  65  94 134 171 226 296 354 416
#     4  10  24  42  67 101 134 181 235 290 354 419
#     4  11  21  43  73  99 136 187 236 285 353 429
#     4  11  25  44  67 100 138 180 233 291 354 417
#     4  10  22  42  68 101 134 178 234 287 351 419
#     4  12  24  42  66  96 136 182 230 288 352 420
#
# _framework density 22.657084999999999
#
# number of rings (size 3 to 8) (size 9 to 14) (size 15 to 20)
#    0.000    1.500    0.000    4.500    0.000   10.000 
#    0.000   21.250    0.000    0.000    0.000    0.000 
#    0.000    0.000    0.000    0.000    0.000    0.000 
#
# Total GULP energy -89509.205105 kJ/mol
# GULP energy per Si atom -5594.325319 kJ/mol
# Density = 2.260552 g / cm^3
# Si number density = 22.657085 Si / 1000 Ang^3
#
#
#
# Elastic Constant Matrix: (Units=GPa)
#
#
# Indices 1 2 3 4 5 6 
#
# 1 106.0177 59.8507 62.2249 0.0000 0.0000 0.0000
# 2 59.8507 116.9784 41.1069 0.0000 0.0000 0.0000
# 3 62.2249 41.1069 157.4317 0.0000 0.0000 0.0000
# 4 0.0000 0.0000 0.0000 12.1024 0.0000 0.0000
# 5 0.0000 0.0000 0.0000 0.0000 26.6389 0.0000
# 6 0.0000 0.0000 0.0000 0.0000 0.0000 10.7821
#
#
#
# Elastic Compliance Matrix: (Units=1/GPa)
#
#
# Indices 1 2 3 4 5 6 
#
# 1 0.015741 -0.006460 -0.004535 0.000000 0.000000 0.000000
# 2 -0.006460 0.012063 -0.000597 0.000000 0.000000 0.000000
# 3 -0.004535 -0.000597 0.008300 0.000000 0.000000 0.000000
# 4 0.000000 0.000000 0.000000 0.082628 0.000000 0.000000
# 5 0.000000 0.000000 0.000000 0.000000 0.037539 0.000000
# 6 0.000000 0.000000 0.000000 0.000000 0.000000 0.092746
#
#
# Mechanical properties :
#
#
# Convention : Reuss Voigt Hill
#
# Bulk Modulus (GPa) = 77.38977 78.53253 77.96115
# Shear Modulus (GPa) = 18.08265 24.38770 21.23517
#
# Velocity S-wave (km/s) = 2.82813 3.28439 3.06476
# Velocity P-wave (km/s) = 6.70042 7.00853 6.85621
#
# Compressibility (1/GPa) = 0.01292161
#
# Stress axis : x y z
#
# Youngs Moduli (GPa) = 63.52840 82.89488 120.48033
#
# Poissons Ratio (x) = 0.53551 0.54636
# Poissons Ratio (y) = 0.41040 0.07187
# Poissons Ratio (z) = 0.28809 0.04945
#
# Static dielectric constant tensor:
#      x y z
#    x 1.839810 0.000000 0.000000 
#    y 0.000000 1.943890 0.000000 
#    z 0.000000 0.000000 1.841860 
# 
# From -- ./inp_files/7265.got.cif
#   From: 2010.05.17/outbox.cif.g08.bks.cpg/sg39_4_cif.got.tgz:7265.got - 2010.06.03 18:22:40.
