data_PCOD9361154
_publ_section_title
;
Structure prediction by ZEFSAII (Michael W. Deem and Ramdas Pophale) SiO2 
 PCOD9361154
Probable space group: A B M 2
;
_chemical_formula_sum "Si O2"
_cell_formula_units_Z 28
_cell_length_a 7.187124
_cell_length_b 17.535458
_cell_length_c 8.985089
_cell_angle_alpha 90.000000
_cell_angle_beta 90.000000
_cell_angle_gamma 90.000000
_cell_volume 1132.386373
_symmetry_space_group_name_H-M "A B M 2"
_symmetry_group_IT_number 39
_symmetry_cell_setting 'orthorhombic'
loop_
_space_group_symop_operation_xyz
x,y,z
-x,-y,z
-x,1/2+y,z
x,1/2-y,z
x,1/2+y,1/2+z
-x,1/2-y,1/2+z
-x,y,1/2+z
x,-y,1/2+z
loop_
_atom_site_type_symbol
_atom_site_label
_atom_site_fract_x
_atom_site_fract_y
_atom_site_fract_z
Si Si1 0.769980 0.838831 0.555900
Si Si2 0.633577 0.398056 0.514200
Si Si3 0.500000 0.500000 0.748930
Si Si4 0.973593 0.092039 0.341338
O O1 0.810020 0.750000 0.570341
O O2 0.545290 0.850292 0.565207
O O3 0.882808 0.883728 0.684831
O O4 0.833064 0.870719 0.394573
O O5 0.650575 0.464211 0.637509
O O6 0.575802 0.437768 0.360193
O O7 0.834039 0.369854 0.465779
O O8 0.000000 0.000000 0.355578
#
# Coordination Sequence:
#
# PCOD9361154 Si02
#       4
#     8   8   4   8
#     4  12  29  48  72 112 156 200 246 307 386 456
#     4  11  24  44  73 105 147 192 244 307 369 439
#     4  10  20  40  72 106 132 178 248 308 350 422
#     4  12  27  48  81 110 146 197 260 318 368 445
#
# _framework density 24.726545000000002
#
# number of rings (size 3 to 8) (size 9 to 14) (size 15 to 20)
#    0.000    0.571    2.857    5.143    8.000    2.286 
#    0.000    0.000    0.000    0.000    0.000    0.000 
#    0.000    0.000    0.000    0.000    0.000    0.000 
#
# Total GULP energy -78204.722911 kJ/mol
# GULP energy per Si atom -5586.051636 kJ/mol
# Density = 2.467027 g / cm^3
# Si number density = 24.726545 Si / 1000 Ang^3
#
#
#
# Elastic Constant Matrix: (Units=GPa)
#
#
# Indices 1 2 3 4 5 6 
#
# 1 116.5502 30.3119 29.7666 0.0000 0.0000 0.0000
# 2 30.3119 128.6647 26.2449 0.0000 0.0000 0.0000
# 3 29.7666 26.2449 130.5046 0.0000 0.0000 0.0000
# 4 0.0000 0.0000 0.0000 15.4686 0.0000 0.0000
# 5 0.0000 0.0000 0.0000 0.0000 60.2382 0.0000
# 6 0.0000 0.0000 0.0000 0.0000 0.0000 24.2418
#
#
#
# Elastic Compliance Matrix: (Units=1/GPa)
#
#
# Indices 1 2 3 4 5 6 
#
# 1 0.009527 -0.001878 -0.001795 0.000000 0.000000 0.000000
# 2 -0.001878 0.008475 -0.001276 0.000000 0.000000 0.000000
# 3 -0.001795 -0.001276 0.008329 0.000000 0.000000 0.000000
# 4 0.000000 0.000000 0.000000 0.064647 0.000000 0.000000
# 5 0.000000 0.000000 0.000000 0.000000 0.016601 0.000000
# 6 0.000000 0.000000 0.000000 0.000000 0.000000 0.041251
#
#
# Mechanical properties :
#
#
# Convention : Reuss Voigt Hill
#
# Bulk Modulus (GPa) = 60.85825 60.92961 60.89393
# Shear Modulus (GPa) = 30.44968 39.28281 34.86625
#
# Velocity S-wave (km/s) = 3.51302 3.99016 3.75917
# Velocity P-wave (km/s) = 6.41257 6.77668 6.59714
#
# Compressibility (1/GPa) = 0.01643163
#
# Stress axis : x y z
#
# Youngs Moduli (GPa) = 104.96495 117.99558 120.06760
#
# Poissons Ratio (x) = 0.22163 0.21555
# Poissons Ratio (y) = 0.19715 0.15320
# Poissons Ratio (z) = 0.18844 0.15055
#
# Static dielectric constant tensor:
#      x y z
#    x 2.216320 0.000000 0.000000 
#    y 0.000000 1.934710 0.000000 
#    z 0.000000 0.000000 1.948630 
# 
# From -- ./inp_files/1914.got.cif
#   From: 2010.05.17/outbox.cif.g08.bks.cpg/sg39_1_cif.got.tgz:1914.got - 2010.06.03 18:22:40.
