data_PCOD9361090
_publ_section_title
;
Structure prediction by ZEFSAII (Michael W. Deem and Ramdas Pophale) SiO2 
 PCOD9361090
Probable space group: A B M 2
;
_chemical_formula_sum "Si O2"
_cell_formula_units_Z 44
_cell_length_a 8.849248
_cell_length_b 17.051123
_cell_length_c 11.584134
_cell_angle_alpha 90.000000
_cell_angle_beta 90.000000
_cell_angle_gamma 90.000000
_cell_volume 1747.925532
_symmetry_space_group_name_H-M "A B M 2"
_symmetry_group_IT_number 39
_symmetry_cell_setting 'orthorhombic'
loop_
_space_group_symop_operation_xyz
x,y,z
-x,-y,z
-x,1/2+y,z
x,1/2-y,z
x,1/2+y,1/2+z
-x,1/2-y,1/2+z
-x,y,1/2+z
x,-y,1/2+z
loop_
_atom_site_type_symbol
_atom_site_label
_atom_site_fract_x
_atom_site_fract_y
_atom_site_fract_z
Si Si1 0.845893 0.250000 0.905061
Si Si2 0.674320 0.841901 0.838787
Si Si3 0.147048 0.664027 0.665967
Si Si4 0.397472 0.068915 0.250458
Si Si5 0.170887 0.115495 0.597345
Si Si6 0.824019 0.014953 0.429312
O O1 0.875260 0.316024 0.801965
O O2 0.812831 0.318971 0.999705
O O3 0.673422 0.750000 0.864458
O O4 0.505938 0.877705 0.831324
O O5 0.742722 0.856565 0.711087
O O6 0.778425 0.893920 0.922647
O O7 0.137939 0.750000 0.607031
O O8 0.311630 0.625932 0.663671
O O9 0.000000 0.500000 0.907230
O O10 0.007320 0.612281 0.626952
O O11 0.500000 0.000000 0.198852
O O12 0.274628 0.024154 0.327854
O O13 0.217224 0.032124 0.545136
#
# Coordination Sequence:
#
# PCOD9361090 Si02
#       6
#     4   8   8   8   8   8
#     4  10  20  40  76 116 148 190 254 332 374 468
#     4  11  25  45  78 113 157 201 256 320 385 463
#     4  10  20  38  74 106 149 185 254 323 381 445
#     4  10  22  43  69  99 154 204 247 314 383 458
#     4  12  23  44  80 113 149 207 254 319 400 459
#     4  11  25  47  75 110 151 204 257 313 386 457
#
# _framework density 25.172696999999999
#
# number of rings (size 3 to 8) (size 9 to 14) (size 15 to 20)
#    0.545    0.727    3.636    1.636    0.000    3.636 
#    0.000   13.636    0.000    2.182    0.000    0.000 
#    0.000    0.000    0.000    0.000    0.000    0.000 
#
# Total GULP energy -122774.609759 kJ/mol
# GULP energy per Si atom -5580.664080 kJ/mol
# Density = 2.511540 g / cm^3
# Si number density = 25.172697 Si / 1000 Ang^3
#
#
#
# Elastic Constant Matrix: (Units=GPa)
#
#
# Indices 1 2 3 4 5 6 
#
# 1 127.6756 40.0251 15.5071 0.0000 0.0000 0.0000
# 2 40.0251 189.6417 23.4517 0.0000 0.0000 0.0000
# 3 15.5071 23.4517 93.5690 0.0000 0.0000 0.0000
# 4 0.0000 0.0000 0.0000 51.5143 0.0000 0.0000
# 5 0.0000 0.0000 0.0000 0.0000 25.8687 0.0000
# 6 0.0000 0.0000 0.0000 0.0000 0.0000 20.9330
#
#
#
# Elastic Compliance Matrix: (Units=1/GPa)
#
#
# Indices 1 2 3 4 5 6 
#
# 1 0.008475 -0.001667 -0.000987 0.000000 0.000000 0.000000
# 2 -0.001667 0.005770 -0.001170 0.000000 0.000000 0.000000
# 3 -0.000987 -0.001170 0.011144 0.000000 0.000000 0.000000
# 4 0.000000 0.000000 0.000000 0.019412 0.000000 0.000000
# 5 0.000000 0.000000 0.000000 0.000000 0.038657 0.000000
# 6 0.000000 0.000000 0.000000 0.000000 0.000000 0.047771
#
#
# Mechanical properties :
#
#
# Convention : Reuss Voigt Hill
#
# Bulk Modulus (GPa) = 56.36417 63.20601 59.78509
# Shear Modulus (GPa) = 34.53306 41.79004 38.16155
#
# Velocity S-wave (km/s) = 3.70786 4.07889 3.89780
# Velocity P-wave (km/s) = 6.38519 6.88089 6.63767
#
# Compressibility (1/GPa) = 0.01774177
#
# Stress axis : x y z
#
# Youngs Moduli (GPa) = 117.99878 173.32483 89.73401
#
# Poissons Ratio (x) = 0.28886 0.08855
# Poissons Ratio (y) = 0.19666 0.10497
# Poissons Ratio (z) = 0.11644 0.20276
#
# Static dielectric constant tensor:
#      x y z
#    x 1.999930 0.000000 0.000000 
#    y 0.000000 2.011050 0.000000 
#    z 0.000000 0.000000 1.972550 
# 
# From -- ./inp_files/9148.got.cif
#   From: 2010.05.17/outbox.cif.g08.bks.cpg/sg39_5_cif.got.tgz:9148.got - 2010.06.03 18:22:40.
