data_PCOD9361307
_publ_section_title
;
Structure prediction by ZEFSAII (Michael W. Deem and Ramdas Pophale) SiO2 
 PCOD9361307
Probable space group: A B M 2
;
_chemical_formula_sum "Si O2"
_cell_formula_units_Z 64
_cell_length_a 11.217006
_cell_length_b 23.323700
_cell_length_c 12.871636
_cell_angle_alpha 90.000000
_cell_angle_beta 90.000000
_cell_angle_gamma 90.000000
_cell_volume 3367.504220
_symmetry_space_group_name_H-M "A B M 2"
_symmetry_group_IT_number 39
_symmetry_cell_setting 'orthorhombic'
loop_
_space_group_symop_operation_xyz
x,y,z
-x,-y,z
-x,1/2+y,z
x,1/2-y,z
x,1/2+y,1/2+z
-x,1/2-y,1/2+z
-x,y,1/2+z
x,-y,1/2+z
loop_
_atom_site_type_symbol
_atom_site_label
_atom_site_fract_x
_atom_site_fract_y
_atom_site_fract_z
Si Si1 0.206540 0.315670 0.360650
Si Si2 0.724392 0.815367 0.997937
Si Si3 0.653382 0.316952 0.269751
Si Si4 0.599067 0.077413 0.587315
Si Si5 0.649231 0.457922 0.012922
Si Si6 0.818296 0.359908 0.083467
Si Si7 0.421736 0.894306 0.813431
Si Si8 0.939694 0.318555 0.659800
O O1 0.224958 0.250000 0.336244
O O2 0.163282 0.323860 0.477796
O O3 0.332862 0.346027 0.354204
O O4 0.119323 0.336280 0.269343
O O5 0.683926 0.750000 0.019264
O O6 0.628562 0.862196 0.034605
O O7 0.842364 0.824612 0.067300
O O8 0.736285 0.820499 0.873360
O O9 0.612543 0.250000 0.263259
O O10 0.724439 0.332885 0.165207
O O11 0.546266 0.362157 0.290466
O O12 0.459298 0.062671 0.585754
O O13 0.631484 0.081561 0.707095
O O14 0.664930 0.025331 0.529747
O O15 0.763520 0.420205 0.043455
O O16 0.592174 0.442786 0.900927
O O17 0.945729 0.357191 0.138175
O O18 0.971863 0.250000 0.664615
#
# Coordination Sequence:
#
# PCOD9361307 Si02
#       8
#     8   8   8   8   8   8   8   8
#     4  10  21  37  60  88 124 165 204 256 315 371
#     4  10  22  39  60  90 120 158 205 249 308 370
#     4  11  22  35  59  92 128 161 200 259 316 373
#     4  11  21  41  63  88 120 162 203 255 306 376
#     4  10  24  39  61  89 122 163 207 250 311 369
#     4  11  23  40  56  92 126 163 214 256 304 369
#     4  11  21  38  60  91 121 155 205 256 317 373
#     4  10  21  38  61  86 122 167 207 253 305 366
#
# _framework density 19.005172000000002
#
# number of rings (size 3 to 8) (size 9 to 14) (size 15 to 20)
#    0.000    1.500    3.750    1.500    1.750    3.500 
#    0.000    0.625    0.000    0.000    0.000    0.000 
#    0.000    0.000    0.000    0.000    0.000    0.000 
#
# Total GULP energy -178414.335786 kJ/mol
# GULP energy per Si atom -5575.447993 kJ/mol
# Density = 1.896191 g / cm^3
# Si number density = 19.005172 Si / 1000 Ang^3
#
#
#
# Elastic Constant Matrix: (Units=GPa)
#
#
# Indices 1 2 3 4 5 6 
#
# 1 56.2495 26.5696 17.2400 0.0000 0.0000 0.0000
# 2 26.5696 93.8159 31.8323 0.0000 0.0000 0.0000
# 3 17.2400 31.8323 125.2663 0.0000 0.0000 0.0000
# 4 0.0000 0.0000 0.0000 20.2826 0.0000 0.0000
# 5 0.0000 0.0000 0.0000 0.0000 11.3747 0.0000
# 6 0.0000 0.0000 0.0000 0.0000 0.0000 17.8123
#
#
#
# Elastic Compliance Matrix: (Units=1/GPa)
#
#
# Indices 1 2 3 4 5 6 
#
# 1 0.020775 -0.005377 -0.001493 0.000000 0.000000 0.000000
# 2 -0.005377 0.013057 -0.002578 0.000000 0.000000 0.000000
# 3 -0.001493 -0.002578 0.008844 0.000000 0.000000 0.000000
# 4 0.000000 0.000000 0.000000 0.049303 0.000000 0.000000
# 5 0.000000 0.000000 0.000000 0.000000 0.087914 0.000000
# 6 0.000000 0.000000 0.000000 0.000000 0.000000 0.056141
#
#
# Mechanical properties :
#
#
# Convention : Reuss Voigt Hill
#
# Bulk Modulus (GPa) = 42.05255 47.40173 44.72714
# Shear Modulus (GPa) = 19.02174 23.20657 21.11416
#
# Velocity S-wave (km/s) = 3.16709 3.49817 3.33674
# Velocity P-wave (km/s) = 5.96229 6.42743 6.19922
#
# Compressibility (1/GPa) = 0.02377977
#
# Stress axis : x y z
#
# Youngs Moduli (GPa) = 48.13378 76.58856 113.07706
#
# Poissons Ratio (x) = 0.41184 0.16880
# Poissons Ratio (y) = 0.25883 0.29150
# Poissons Ratio (z) = 0.07185 0.19744
#
# Static dielectric constant tensor:
#      x y z
#    x 1.689910 0.000000 0.000000 
#    y 0.000000 1.672000 0.000000 
#    z 0.000000 0.000000 1.716830 
# 
# From -- ./inp_files/6093.got.cif
#   From: 2010.05.17/outbox.cif.g08.bks.cpg/sg39_4_cif.got.tgz:6093.got - 2010.06.03 18:22:40.
