data_PCOD9361265
_publ_section_title
;
Structure prediction by ZEFSAII (Michael W. Deem and Ramdas Pophale) SiO2 
 PCOD9361265
Probable space group: A B M 2
;
_chemical_formula_sum "Si O2"
_cell_formula_units_Z 64
_cell_length_a 9.999845
_cell_length_b 19.039690
_cell_length_c 19.178395
_cell_angle_alpha 90.000000
_cell_angle_beta 90.000000
_cell_angle_gamma 90.000000
_cell_volume 3651.450357
_symmetry_space_group_name_H-M "A B M 2"
_symmetry_group_IT_number 39
_symmetry_cell_setting 'orthorhombic'
loop_
_space_group_symop_operation_xyz
x,y,z
-x,-y,z
-x,1/2+y,z
x,1/2-y,z
x,1/2+y,1/2+z
-x,1/2-y,1/2+z
-x,y,1/2+z
x,-y,1/2+z
loop_
_atom_site_type_symbol
_atom_site_label
_atom_site_fract_x
_atom_site_fract_y
_atom_site_fract_z
Si Si1 0.320892 0.434325 0.043030
Si Si2 0.318723 0.560910 0.381714
Si Si3 0.393155 0.103646 0.382689
Si Si4 0.164800 0.170018 0.292059
Si Si5 0.162058 0.831104 0.147513
Si Si6 0.629342 0.599083 0.544749
Si Si7 0.856683 0.171965 0.624695
Si Si8 0.924869 0.926756 0.776447
O O1 0.319173 0.518528 0.051414
O O2 0.470842 0.407090 0.060150
O O3 0.217966 0.391698 0.088968
O O4 0.290219 0.420761 0.961888
O O5 0.449982 0.606851 0.363344
O O6 0.359705 0.479099 0.380310
O O7 0.193601 0.565741 0.331454
O O8 0.298167 0.143900 0.329614
O O9 0.365626 0.123426 0.463658
O O10 0.137547 0.250000 0.311822
O O11 0.169638 0.167096 0.207809
O O12 0.040848 0.120636 0.310281
O O13 0.181725 0.750000 0.171481
O O14 0.281103 0.854507 0.096333
O O15 0.139721 0.885667 0.210867
O O16 0.015665 0.832292 0.111615
O O17 0.810699 0.250000 0.601935
O O18 0.000000 0.000000 0.757480
#
# Coordination Sequence:
#
# PCOD9361265 Si02
#       8
#     8   8   8   8   8   8   8   8
#     4   9  19  37  56  83 112 142 188 234 282 337
#     4   9  19  36  57  83 113 140 188 244 282 329
#     4   9  18  37  57  81 112 147 186 237 287 336
#     4  10  21  37  56  81 117 151 185 233 285 344
#     4  10  23  39  54  81 117 150 187 235 283 338
#     4   9  20  35  58  81 111 148 184 235 283 334
#     4   9  20  37  54  76 111 148 182 229 281 331
#     4  11  21  36  59  86 112 151 193 237 286 343
#
# _framework density 17.527282
#
# number of rings (size 3 to 8) (size 9 to 14) (size 15 to 20)
#    0.000    2.500    1.250    2.625    3.500    3.000 
#    0.000    9.375    0.000    0.000    0.000    0.000 
#    0.000    0.000    0.000    0.000    0.000    0.000 
#
# Total GULP energy -178269.553670 kJ/mol
# GULP energy per Si atom -5570.923552 kJ/mol
# Density = 1.748739 g / cm^3
# Si number density = 17.527282 Si / 1000 Ang^3
#
#
#
# Elastic Constant Matrix: (Units=GPa)
#
#
# Indices 1 2 3 4 5 6 
#
# 1 70.9686 44.7125 50.3753 0.0000 0.0000 0.0000
# 2 44.7125 74.9489 39.9157 0.0000 0.0000 0.0000
# 3 50.3753 39.9157 44.6273 0.0000 0.0000 0.0000
# 4 0.0000 0.0000 0.0000 7.2111 0.0000 0.0000
# 5 0.0000 0.0000 0.0000 0.0000 25.2273 0.0000
# 6 0.0000 0.0000 0.0000 0.0000 0.0000 20.3981
#
#
#
# Elastic Compliance Matrix: (Units=1/GPa)
#
#
# Indices 1 2 3 4 5 6 
#
# 1 0.070912 0.000622 -0.080602 0.000000 0.000000 0.000000
# 2 0.000622 0.025485 -0.023496 0.000000 0.000000 0.000000
# 3 -0.080602 -0.023496 0.134407 0.000000 0.000000 0.000000
# 4 0.000000 0.000000 0.000000 0.138676 0.000000 0.000000
# 5 0.000000 0.000000 0.000000 0.000000 0.039640 0.000000
# 6 0.000000 0.000000 0.000000 0.000000 0.000000 0.049024
#
#
# Mechanical properties :
#
#
# Convention : Reuss Voigt Hill
#
# Bulk Modulus (GPa) = 41.92634 51.17242 46.54938
# Shear Modulus (GPa) = 7.42890 14.27005 10.84948
#
# Velocity S-wave (km/s) = 2.06099 2.85645 2.49068
# Velocity P-wave (km/s) = 5.44391 6.33548 5.90654
#
# Compressibility (1/GPa) = 0.02385136
#
# Stress axis : x y z
#
# Youngs Moduli (GPa) = 14.10193 39.23903 7.44007
#
# Poissons Ratio (x) = -0.02441 0.59969
# Poissons Ratio (y) = -0.00877 0.17482
# Poissons Ratio (z) = 1.13665 0.92198
#
# Static dielectric constant tensor:
#      x y z
#    x 1.586580 0.000000 0.000000 
#    y 0.000000 1.604960 0.000000 
#    z 0.000000 0.000000 1.584320 
# 
# From -- ./inp_files/11966.got.cif
#   From: 2010.05.17/outbox.cif.g08.bks.cpg/sg39_6_cif.got.tgz:11966.got - 2010.06.03 18:22:40.
