data_PCOD9361337
_publ_section_title
;
Structure prediction by ZEFSAII (Michael W. Deem and Ramdas Pophale) SiO2 
 PCOD9361337
Probable space group: A B M 2
;
_chemical_formula_sum "Si O2"
_cell_formula_units_Z 48
_cell_length_a 13.093788
_cell_length_b 16.786867
_cell_length_c 11.144490
_cell_angle_alpha 90.000000
_cell_angle_beta 90.000000
_cell_angle_gamma 90.000000
_cell_volume 2449.599888
_symmetry_space_group_name_H-M "A B M 2"
_symmetry_group_IT_number 39
_symmetry_cell_setting 'orthorhombic'
loop_
_space_group_symop_operation_xyz
x,y,z
-x,-y,z
-x,1/2+y,z
x,1/2-y,z
x,1/2+y,1/2+z
-x,1/2-y,1/2+z
-x,y,1/2+z
x,-y,1/2+z
loop_
_atom_site_type_symbol
_atom_site_label
_atom_site_fract_x
_atom_site_fract_y
_atom_site_fract_z
Si Si1 0.877132 0.840242 0.438910
Si Si2 0.795385 0.445399 0.148569
Si Si3 0.739390 0.899283 0.027308
Si Si4 0.095881 0.156769 0.846919
Si Si5 0.303051 0.836310 0.773519
Si Si6 0.379865 0.993125 0.326446
O O1 0.885035 0.750000 0.485175
O O2 0.811572 0.890163 0.533134
O O3 0.814823 0.837848 0.314793
O O4 0.990815 0.868631 0.410737
O O5 0.807584 0.534391 0.097129
O O6 0.873162 0.406461 0.244199
O O7 0.686267 0.452821 0.218166
O O8 0.688239 0.848053 0.131487
O O9 0.812321 0.849047 0.941914
O O10 0.657544 0.946427 0.945045
O O11 0.085188 0.250000 0.807187
O O12 0.344749 0.750000 0.810980
O O13 0.348319 0.914506 0.833360
O O14 0.500000 0.000000 0.306380
#
# Coordination Sequence:
#
# PCOD9361337 Si02
#       6
#     8   8   8   8   8   8
#     4  10  21  38  60  87 126 167 204 250 306 371
#     4  10  21  40  59  92 120 160 209 254 307 369
#     4  10  21  39  60  90 120 158 202 256 309 363
#     4  10  22  38  59  87 122 167 205 246 303 366
#     4  10  21  40  60  87 122 158 202 251 311 375
#     4  10  22  43  68  87 121 160 208 266 323 369
#
# _framework density 19.595037999999999
#
# number of rings (size 3 to 8) (size 9 to 14) (size 15 to 20)
#    0.000    2.000    1.667    1.000    2.333    3.333 
#    3.000    5.000    0.000    0.000    0.000    0.000 
#    0.000    0.000    0.000    0.000    0.000    0.000 
#
# Total GULP energy -133675.883874 kJ/mol
# GULP energy per Si atom -5569.828495 kJ/mol
# Density = 1.955044 g / cm^3
# Si number density = 19.595038 Si / 1000 Ang^3
#
#
#
# Elastic Constant Matrix: (Units=GPa)
#
#
# Indices 1 2 3 4 5 6 
#
# 1 103.0776 48.6445 29.0183 0.0000 0.0000 0.0000
# 2 48.6445 80.9393 25.9134 0.0000 0.0000 0.0000
# 3 29.0183 25.9134 83.5799 0.0000 0.0000 0.0000
# 4 0.0000 0.0000 0.0000 24.0353 0.0000 0.0000
# 5 0.0000 0.0000 0.0000 0.0000 12.8923 0.0000
# 6 0.0000 0.0000 0.0000 0.0000 0.0000 12.3423
#
#
#
# Elastic Compliance Matrix: (Units=1/GPa)
#
#
# Indices 1 2 3 4 5 6 
#
# 1 0.013998 -0.007612 -0.002500 0.000000 0.000000 0.000000
# 2 -0.007612 0.017856 -0.002893 0.000000 0.000000 0.000000
# 3 -0.002500 -0.002893 0.013730 0.000000 0.000000 0.000000
# 4 0.000000 0.000000 0.000000 0.041605 0.000000 0.000000
# 5 0.000000 0.000000 0.000000 0.000000 0.077566 0.000000
# 6 0.000000 0.000000 0.000000 0.000000 0.000000 0.081022
#
#
# Mechanical properties :
#
#
# Convention : Reuss Voigt Hill
#
# Bulk Modulus (GPa) = 51.09130 52.74991 51.92060
# Shear Modulus (GPa) = 17.96547 20.78867 19.37707
#
# Velocity S-wave (km/s) = 3.03122 3.26070 3.14805
# Velocity P-wave (km/s) = 6.19526 6.41519 6.30619
#
# Compressibility (1/GPa) = 0.01957280
#
# Stress axis : x y z
#
# Youngs Moduli (GPa) = 71.44131 56.00308 72.83571
#
# Poissons Ratio (x) = 0.42631 0.18207
# Poissons Ratio (y) = 0.54382 0.21073
# Poissons Ratio (z) = 0.17858 0.16203
#
# Static dielectric constant tensor:
#      x y z
#    x 1.696730 0.000000 0.000000 
#    y 0.000000 1.763020 0.000000 
#    z 0.000000 0.000000 1.721800 
# 
# From -- ./inp_files/5816.got.cif
#   From: 2010.05.17/outbox.cif.g08.bks.cpg/sg39_3_cif.got.tgz:5816.got - 2010.06.03 18:22:40.
