data_PCOD9361776
_publ_section_title
;
Structure prediction by ZEFSAII (Michael W. Deem and Ramdas Pophale) SiO2 
 PCOD9361776
Probable space group: A B M 2
;
_chemical_formula_sum "Si O2"
_cell_formula_units_Z 56
_cell_length_a 5.323924
_cell_length_b 15.271300
_cell_length_c 27.701030
_cell_angle_alpha 90.000000
_cell_angle_beta 90.000000
_cell_angle_gamma 90.000000
_cell_volume 2252.183506
_symmetry_space_group_name_H-M "A B M 2"
_symmetry_group_IT_number 39
_symmetry_cell_setting 'orthorhombic'
loop_
_space_group_symop_operation_xyz
x,y,z
-x,-y,z
-x,1/2+y,z
x,1/2-y,z
x,1/2+y,1/2+z
-x,1/2-y,1/2+z
-x,y,1/2+z
x,-y,1/2+z
loop_
_atom_site_type_symbol
_atom_site_label
_atom_site_fract_x
_atom_site_fract_y
_atom_site_fract_z
Si Si1 0.833959 0.348528 0.841050
Si Si2 0.000000 0.000000 0.594196
Si Si3 0.373294 0.910446 0.520293
Si Si4 0.612411 0.596102 0.199709
Si Si5 0.208787 0.848772 0.419593
Si Si6 0.112047 0.651503 0.247640
Si Si7 0.500000 0.500000 0.362424
Si Si8 0.349181 0.846729 0.110060
O O1 0.730827 0.250000 0.832584
O O2 0.069871 0.356945 0.804960
O O3 0.670139 0.434023 0.831757
O O4 0.930843 0.353407 0.896339
O O5 0.825358 0.055813 0.559035
O O6 0.165480 0.072077 0.621358
O O7 0.243632 0.860469 0.476561
O O8 0.567678 0.858074 0.554233
O O9 0.500000 0.000000 0.501240
O O10 0.500000 0.500000 0.195520
O O11 0.890748 0.597477 0.221405
O O12 0.580288 0.641034 0.147272
O O13 0.400040 0.640225 0.233376
O O14 0.299025 0.750000 0.406925
O O15 0.349166 0.930305 0.395070
O O16 0.039776 0.750000 0.234079
O O17 0.241147 0.750000 0.117190
#
# Coordination Sequence:
#
# PCOD9361776 Si02
#       8
#     8   4   8   8   8   8   4   8
#     4  10  26  46  70 104 143 188 244 305 368 442
#     4  10  24  42  70 100 140 184 234 300 354 442
#     4  10  22  43  69 101 141 181 235 296 362 436
#     4  12  27  46  75 110 152 198 252 312 378 448
#     4  11  24  42  68 102 139 183 235 293 362 437
#     4  11  26  49  75 108 149 197 252 315 379 445
#     4  12  24  42  70  96 140 184 236 296 362 436
#     4  11  25  45  70 105 144 192 244 302 370 440
#
# _framework density 24.864757000000001
#
# number of rings (size 3 to 8) (size 9 to 14) (size 15 to 20)
#    0.000    1.143    0.714    4.286    9.000    2.286 
#    0.000    1.429    0.000    0.000    0.000    0.000 
#    0.000    0.000    0.000    0.000    0.000    0.000 
#
# Total GULP energy -156592.547244 kJ/mol
# GULP energy per Si atom -5592.590973 kJ/mol
# Density = 2.480816 g / cm^3
# Si number density = 24.864757 Si / 1000 Ang^3
#
#
#
# Elastic Constant Matrix: (Units=GPa)
#
#
# Indices 1 2 3 4 5 6 
#
# 1 71.3113 28.5829 29.8039 0.0000 0.0000 0.0000
# 2 28.5829 164.6807 34.8627 0.0000 0.0000 0.0000
# 3 29.8039 34.8627 112.5848 0.0000 0.0000 0.0000
# 4 0.0000 0.0000 0.0000 22.6782 0.0000 0.0000
# 5 0.0000 0.0000 0.0000 0.0000 26.9617 0.0000
# 6 0.0000 0.0000 0.0000 0.0000 0.0000 32.8394
#
#
#
# Elastic Compliance Matrix: (Units=1/GPa)
#
#
# Indices 1 2 3 4 5 6 
#
# 1 0.016397 -0.002062 -0.003702 0.000000 0.000000 0.000000
# 2 -0.002062 0.006758 -0.001547 0.000000 0.000000 0.000000
# 3 -0.003702 -0.001547 0.010341 0.000000 0.000000 0.000000
# 4 0.000000 0.000000 0.000000 0.044095 0.000000 0.000000
# 5 0.000000 0.000000 0.000000 0.000000 0.037090 0.000000
# 6 0.000000 0.000000 0.000000 0.000000 0.000000 0.030451
#
#
# Mechanical properties :
#
#
# Convention : Reuss Voigt Hill
#
# Bulk Modulus (GPa) = 52.98336 59.45289 56.21812
# Shear Modulus (GPa) = 30.11233 33.51768 31.81501
#
# Velocity S-wave (km/s) = 3.48378 3.67549 3.58092
# Velocity P-wave (km/s) = 6.12676 6.47879 6.30523
#
# Compressibility (1/GPa) = 0.01887385
#
# Stress axis : x y z
#
# Youngs Moduli (GPa) = 60.98734 147.97912 96.70104
#
# Poissons Ratio (x) = 0.30516 0.35799
# Poissons Ratio (y) = 0.12577 0.14956
# Poissons Ratio (z) = 0.22578 0.22887
#
# Static dielectric constant tensor:
#      x y z
#    x 2.058810 0.000000 0.000000 
#    y 0.000000 1.952740 0.000000 
#    z 0.000000 0.000000 1.948500 
# 
# From -- ./inp_files/17298.got.cif
#   From: 2010.05.17/outbox.cif.g08.bks.cpg/sg39_9_cif.got.tgz:17298.got - 2010.06.03 18:22:40.
