data_PCOD9361697
_publ_section_title
;
Structure prediction by ZEFSAII (Michael W. Deem and Ramdas Pophale) SiO2 
 PCOD9361697
Probable space group: A B M 2
;
_chemical_formula_sum "Si O2"
_cell_formula_units_Z 64
_cell_length_a 9.769234
_cell_length_b 27.923202
_cell_length_c 10.913551
_cell_angle_alpha 90.000000
_cell_angle_beta 90.000000
_cell_angle_gamma 90.000000
_cell_volume 2977.088963
_symmetry_space_group_name_H-M "A B M 2"
_symmetry_group_IT_number 39
_symmetry_cell_setting 'orthorhombic'
loop_
_space_group_symop_operation_xyz
x,y,z
-x,-y,z
-x,1/2+y,z
x,1/2-y,z
x,1/2+y,1/2+z
-x,1/2-y,1/2+z
-x,y,1/2+z
x,-y,1/2+z
loop_
_atom_site_type_symbol
_atom_site_label
_atom_site_fract_x
_atom_site_fract_y
_atom_site_fract_z
Si Si1 0.790593 0.477351 0.318110
Si Si2 0.745047 0.307312 0.355338
Si Si3 0.949942 0.351585 0.523303
Si Si4 0.277883 0.625428 0.707648
Si Si5 0.646516 0.474306 0.582628
Si Si6 0.444973 0.807864 0.875018
Si Si7 0.050203 0.926522 0.866884
Si Si8 0.764423 0.692917 0.584061
O O1 0.698724 0.467184 0.440568
O O2 0.725849 0.492875 0.186754
O O3 0.871930 0.523668 0.367474
O O4 0.906050 0.436594 0.298401
O O5 0.764070 0.250000 0.362626
O O6 0.883596 0.331404 0.399680
O O7 0.599577 0.318671 0.416993
O O8 0.719823 0.323382 0.216935
O O9 0.822235 0.348679 0.612632
O O10 0.001565 0.405212 0.496412
O O11 0.080891 0.322284 0.561820
O O12 0.344199 0.578293 0.645526
O O13 0.390713 0.661053 0.761499
O O14 0.163442 0.608194 0.807364
O O15 0.500000 0.500000 0.573582
O O16 0.437907 0.750000 0.851241
O O17 0.340172 0.822534 0.980822
O O18 0.758512 0.750000 0.584094
#
# Coordination Sequence:
#
# PCOD9361697 Si02
#       8
#     8   8   8   8   8   8   8   8
#     4  10  23  42  69  91 127 176 211 273 339 400
#     4  10  24  43  64  93 129 177 224 269 338 406
#     4  12  22  40  65  97 131 162 223 280 327 397
#     4  11  24  42  66 101 129 175 228 271 339 405
#     4  11  24  45  65  96 134 171 223 276 338 408
#     4  10  23  44  66  93 137 184 225 275 336 404
#     4  10  22  40  64  94 127 162 219 267 330 397
#     4  10  22  41  65  93 132 174 223 282 335 388
#
# _framework density 21.497509999999998
#
# number of rings (size 3 to 8) (size 9 to 14) (size 15 to 20)
#    0.000    1.500    2.500    1.500    3.500    3.000 
#    6.750    0.000    0.000    0.000    0.000    0.000 
#    0.000    0.000    0.000    0.000    0.000    0.000 
#
# Total GULP energy -178376.954114 kJ/mol
# GULP energy per Si atom -5574.279816 kJ/mol
# Density = 2.144858 g / cm^3
# Si number density = 21.497510 Si / 1000 Ang^3
#
#
#
# Elastic Constant Matrix: (Units=GPa)
#
#
# Indices 1 2 3 4 5 6 
#
# 1 113.6668 17.4994 27.5707 0.0000 0.0000 0.0000
# 2 17.4994 -38.8810 101.2760 0.0000 0.0000 0.0000
# 3 27.5707 101.2760 -95.6653 0.0000 0.0000 0.0000
# 4 0.0000 0.0000 0.0000 20.0862 0.0000 0.0000
# 5 0.0000 0.0000 0.0000 0.0000 24.2824 0.0000
# 6 0.0000 0.0000 0.0000 0.0000 0.0000 27.0769
#
#
#
# Elastic Compliance Matrix: (Units=1/GPa)
#
#
# Indices 1 2 3 4 5 6 
#
# 1 0.011146 -0.007615 -0.004850 0.000000 0.000000 0.000000
# 2 -0.007615 0.019837 0.018805 0.000000 0.000000 0.000000
# 3 -0.004850 0.018805 0.008058 0.000000 0.000000 0.000000
# 4 0.000000 0.000000 0.000000 0.049785 0.000000 0.000000
# 5 0.000000 0.000000 0.000000 0.000000 0.041182 0.000000
# 6 0.000000 0.000000 0.000000 0.000000 0.000000 0.036932
#
#
# Mechanical properties :
#
#
# Convention : Reuss Voigt Hill
#
# Bulk Modulus (GPa) = 19.33429 30.20141 24.76785
# Shear Modulus (GPa) = 29.15461 3.14073 16.14767
#
# Velocity S-wave (km/s) = 3.68664 1.21002 2.74367
# Velocity P-wave (km/s) = 5.20913 4.00393 4.64578
#
# Compressibility (1/GPa) = 0.05172157
#
# Stress axis : x y z
#
# Youngs Moduli (GPa) = 89.71554 50.41165 124.10743
#
# Poissons Ratio (x) = 0.38390 0.60187
# Poissons Ratio (y) = 0.68321 -2.33389
# Poissons Ratio (z) = 0.43508 -0.94801
#
# Static dielectric constant tensor:
#      x y z
#    x 1.781820 0.000000 0.000000 
#    y 0.000000 1.803360 0.000000 
#    z 0.000000 0.000000 1.887660 
# 
# From -- ./inp_files/5423.got.cif
#   From: 2010.05.17/outbox.cif.g08.bks.cpg/sg39_3_cif.got.tgz:5423.got - 2010.06.03 18:22:40.
