data_PCOD9361157
_publ_section_title
;
Structure prediction by ZEFSAII (Michael W. Deem and Ramdas Pophale) SiO2 
 PCOD9361157
Probable space group: A B M 2
;
_chemical_formula_sum "Si O2"
_cell_formula_units_Z 48
_cell_length_a 9.207879
_cell_length_b 14.805704
_cell_length_c 17.863541
_cell_angle_alpha 90.000000
_cell_angle_beta 90.000000
_cell_angle_gamma 90.000000
_cell_volume 2435.321020
_symmetry_space_group_name_H-M "A B M 2"
_symmetry_group_IT_number 39
_symmetry_cell_setting 'orthorhombic'
loop_
_space_group_symop_operation_xyz
x,y,z
-x,-y,z
-x,1/2+y,z
x,1/2-y,z
x,1/2+y,1/2+z
-x,1/2-y,1/2+z
-x,y,1/2+z
x,-y,1/2+z
loop_
_atom_site_type_symbol
_atom_site_label
_atom_site_fract_x
_atom_site_fract_y
_atom_site_fract_z
Si Si1 0.024654 0.250000 0.598640
Si Si2 0.350349 0.044590 0.567254
Si Si3 0.549660 0.750000 0.219401
Si Si4 0.895165 0.415437 0.504052
Si Si5 0.379471 0.571834 0.245568
Si Si6 0.109557 0.250000 0.261490
Si Si7 0.918233 0.095078 0.336101
Si Si8 0.643015 0.250000 0.075624
O O1 0.197352 0.250000 0.613968
O O2 0.970806 0.338130 0.553450
O O3 0.950188 0.250000 0.677985
O O4 0.345291 0.052601 0.657797
O O5 0.349033 0.149468 0.537885
O O6 0.500000 0.000000 0.544629
O O7 0.237539 0.967703 0.542461
O O8 0.467577 0.663813 0.249903
O O9 0.716386 0.750000 0.247162
O O10 0.499468 0.750000 0.130316
O O11 0.870164 0.378870 0.420371
O O12 0.000000 0.500000 0.494612
O O13 0.500000 0.500000 0.272425
O O14 0.227671 0.582333 0.287787
O O15 0.035984 0.165155 0.303381
O O16 0.000000 0.000000 0.336498
#
# Coordination Sequence:
#
# PCOD9361157 Si02
#       8
#     4   8   4   8   8   4   8   4
#     4  12  25  38  73  96 132 180 230 287 341 415
#     4  10  22  38  67  99 138 179 230 293 348 422
#     4  10  22  38  62  99 128 165 221 287 338 400
#     4  11  25  43  64  98 137 178 227 279 355 422
#     4  10  21  39  66  96 135 174 227 282 339 412
#     4  12  25  41  69 100 131 173 238 283 345 403
#     4  11  25  43  67  97 139 178 221 287 345 421
#     4  10  20  41  60  95 137 168 221 289 352 400
#
# _framework density 19.709927
#
# number of rings (size 3 to 8) (size 9 to 14) (size 15 to 20)
#    0.000    1.333    1.667    4.000    9.333    0.667 
#    0.000    0.000    0.000    0.000    0.000    0.000 
#    0.000    0.000    0.000    0.000    0.000    0.000 
#
# Total GULP energy -133688.993837 kJ/mol
# GULP energy per Si atom -5570.374743 kJ/mol
# Density = 1.966507 g / cm^3
# Si number density = 19.709927 Si / 1000 Ang^3
#
#
#
# Elastic Constant Matrix: (Units=GPa)
#
#
# Indices 1 2 3 4 5 6 
#
# 1 162.0382 46.0182 39.8924 0.0000 0.0000 0.0000
# 2 46.0182 130.7245 47.0471 0.0000 0.0000 0.0000
# 3 39.8924 47.0471 64.4378 0.0000 0.0000 0.0000
# 4 0.0000 0.0000 0.0000 44.7487 0.0000 0.0000
# 5 0.0000 0.0000 0.0000 0.0000 207.4601 0.0000
# 6 0.0000 0.0000 0.0000 0.0000 0.0000 56.5300
#
#
#
# Elastic Compliance Matrix: (Units=1/GPa)
#
#
# Indices 1 2 3 4 5 6 
#
# 1 0.007442 -0.001304 -0.003655 0.000000 0.000000 0.000000
# 2 -0.001304 0.010605 -0.006935 0.000000 0.000000 0.000000
# 3 -0.003655 -0.006935 0.022845 0.000000 0.000000 0.000000
# 4 0.000000 0.000000 0.000000 0.022347 0.000000 0.000000
# 5 0.000000 0.000000 0.000000 0.000000 0.004820 0.000000
# 6 0.000000 0.000000 0.000000 0.000000 0.000000 0.017690
#
#
# Mechanical properties :
#
#
# Convention : Reuss Voigt Hill
#
# Bulk Modulus (GPa) = 58.46984 69.23510 63.85247
# Shear Modulus (GPa) = 43.38863 76.69728 60.04296
#
# Velocity S-wave (km/s) = 4.69695 6.24480 5.52535
# Velocity P-wave (km/s) = 7.69056 9.33809 8.55408
#
# Compressibility (1/GPa) = 0.01710283
#
# Stress axis : x y z
#
# Youngs Moduli (GPa) = 134.38079 94.29699 43.77342
#
# Poissons Ratio (x) = 0.12299 0.15998
# Poissons Ratio (y) = 0.17527 0.30358
# Poissons Ratio (z) = 0.49111 0.65397
#
# Static dielectric constant tensor:
#      x y z
#    x 1.519100 0.000000 0.000000 
#    y 0.000000 1.702430 0.000000 
#    z 0.000000 0.000000 1.716620 
# 
# From -- ./inp_files/11670.got.cif
#   From: 2010.05.17/outbox.cif.g08.bks.cpg/sg39_6_cif.got.tgz:11670.got - 2010.06.03 18:22:40.
