data_PCOD9361689
_publ_section_title
;
Structure prediction by ZEFSAII (Michael W. Deem and Ramdas Pophale) SiO2 
 PCOD9361689
Probable space group: A B M 2
;
_chemical_formula_sum "Si O2"
_cell_formula_units_Z 40
_cell_length_a 11.861350
_cell_length_b 18.427531
_cell_length_c 7.402518
_cell_angle_alpha 90.000000
_cell_angle_beta 90.000000
_cell_angle_gamma 90.000000
_cell_volume 1618.008295
_symmetry_space_group_name_H-M "A B M 2"
_symmetry_group_IT_number 39
_symmetry_cell_setting 'orthorhombic'
loop_
_space_group_symop_operation_xyz
x,y,z
-x,-y,z
-x,1/2+y,z
x,1/2-y,z
x,1/2+y,1/2+z
-x,1/2-y,1/2+z
-x,y,1/2+z
x,-y,1/2+z
loop_
_atom_site_type_symbol
_atom_site_label
_atom_site_fract_x
_atom_site_fract_y
_atom_site_fract_z
Si Si1 0.624786 0.332077 0.990930
Si Si2 0.034411 0.920484 0.818640
Si Si3 0.600544 0.057206 0.282197
Si Si4 0.723749 0.578876 0.147784
Si Si5 0.870583 0.671119 0.633833
O O1 0.578966 0.250000 0.960850
O O2 0.559124 0.385458 0.129337
O O3 0.666399 0.370876 0.805260
O O4 0.739220 0.324653 0.104951
O O5 0.140167 0.920690 0.677039
O O6 0.913923 0.890886 0.760578
O O7 0.077390 0.857918 0.949726
O O8 0.000000 0.000000 0.888532
O O9 0.335049 0.907366 0.453370
O O10 0.500000 0.000000 0.333383
O O11 0.689613 0.004340 0.186147
O O12 0.914462 0.750000 0.685521
#
# Coordination Sequence:
#
# PCOD9361689 Si02
#       5
#     8   8   8   8   8
#     4  10  24  47  72 106 144 179 230 293 350 421
#     4  11  23  36  62  97 135 178 228 281 336 409
#     4  12  25  45  77 101 131 187 240 296 360 416
#     4  11  25  42  70 103 140 182 236 291 351 420
#     4  10  22  40  62  95 140 182 220 273 346 417
#
# _framework density 24.721753
#
# number of rings (size 3 to 8) (size 9 to 14) (size 15 to 20)
#    0.000    1.200    2.000    3.000    8.400    2.400 
#    0.000    1.000    0.000    0.000    0.000    0.000 
#    0.000    0.000    0.000    0.000    0.000    0.000 
#
# Total GULP energy -111550.291445 kJ/mol
# GULP energy per Si atom -5577.514572 kJ/mol
# Density = 2.466549 g / cm^3
# Si number density = 24.721753 Si / 1000 Ang^3
#
#
#
# Elastic Constant Matrix: (Units=GPa)
#
#
# Indices 1 2 3 4 5 6 
#
# 1 82.5237 17.7255 3.9589 0.0000 0.0000 0.0000
# 2 17.7255 142.8511 31.4569 0.0000 0.0000 0.0000
# 3 3.9589 31.4569 101.5036 0.0000 0.0000 0.0000
# 4 0.0000 0.0000 0.0000 40.5487 0.0000 0.0000
# 5 0.0000 0.0000 0.0000 0.0000 30.5883 0.0000
# 6 0.0000 0.0000 0.0000 0.0000 0.0000 19.3449
#
#
#
# Elastic Compliance Matrix: (Units=1/GPa)
#
#
# Indices 1 2 3 4 5 6 
#
# 1 0.012450 -0.001543 -0.000007 0.000000 0.000000 0.000000
# 2 -0.001543 0.007704 -0.002327 0.000000 0.000000 0.000000
# 3 -0.000007 -0.002327 0.010573 0.000000 0.000000 0.000000
# 4 0.000000 0.000000 0.000000 0.024662 0.000000 0.000000
# 5 0.000000 0.000000 0.000000 0.000000 0.032692 0.000000
# 6 0.000000 0.000000 0.000000 0.000000 0.000000 0.051693
#
#
# Mechanical properties :
#
#
# Convention : Reuss Voigt Hill
#
# Bulk Modulus (GPa) = 43.53237 48.12901 45.83069
# Shear Modulus (GPa) = 32.21910 36.34552 34.28231
#
# Velocity S-wave (km/s) = 3.61400 3.83846 3.72792
# Velocity P-wave (km/s) = 5.92130 6.25744 6.09169
#
# Compressibility (1/GPa) = 0.02297141
#
# Stress axis : x y z
#
# Youngs Moduli (GPa) = 80.32422 129.79764 94.57648
#
# Poissons Ratio (x) = 0.20030 0.00069
# Poissons Ratio (y) = 0.12395 0.22012
# Poissons Ratio (z) = 0.00059 0.30210
#
# Static dielectric constant tensor:
#      x y z
#    x 1.978920 0.000000 0.000000 
#    y 0.000000 1.937660 0.000000 
#    z 0.000000 0.000000 2.230510 
# 
# From -- ./inp_files/2540.got.cif
#   From: 2010.05.17/outbox.cif.g08.bks.cpg/sg39_2_cif.got.tgz:2540.got - 2010.06.03 18:22:40.
