data_PCOD9361415
_publ_section_title
;
Structure prediction by ZEFSAII (Michael W. Deem and Ramdas Pophale) SiO2 
 PCOD9361415
Probable space group: A B M 2
;
_chemical_formula_sum "Si O2"
_cell_formula_units_Z 40
_cell_length_a 7.563551
_cell_length_b 10.214635
_cell_length_c 25.724633
_cell_angle_alpha 90.000000
_cell_angle_beta 90.000000
_cell_angle_gamma 90.000000
_cell_volume 1987.457177
_symmetry_space_group_name_H-M "A B M 2"
_symmetry_group_IT_number 39
_symmetry_cell_setting 'orthorhombic'
loop_
_space_group_symop_operation_xyz
x,y,z
-x,-y,z
-x,1/2+y,z
x,1/2-y,z
x,1/2+y,1/2+z
-x,1/2-y,1/2+z
-x,y,1/2+z
x,-y,1/2+z
loop_
_atom_site_type_symbol
_atom_site_label
_atom_site_fract_x
_atom_site_fract_y
_atom_site_fract_z
Si Si1 0.219628 0.750000 0.980680
Si Si2 0.851345 0.898645 0.812674
Si Si3 0.934828 0.250000 0.575026
Si Si4 0.707857 0.015317 0.423356
Si Si5 0.000000 0.500000 0.646573
Si Si6 0.363067 0.250000 0.999778
Si Si7 0.342035 0.597111 0.208974
O O1 0.209892 0.619306 0.945242
O O2 0.423671 0.750000 0.001721
O O3 0.075145 0.750000 0.026673
O O4 0.918916 0.750000 0.810830
O O5 0.796910 0.934032 0.871079
O O6 0.693736 0.907455 0.771062
O O7 0.000000 0.000000 0.796178
O O8 0.960276 0.377485 0.609743
O O9 0.735521 0.250000 0.553870
O O10 0.706141 0.123915 0.468306
O O11 0.500000 0.000000 0.410947
O O12 0.834112 0.544009 0.681314
O O13 0.500000 0.500000 0.195159
O O14 0.372601 0.750000 0.195062
#
# Coordination Sequence:
#
# PCOD9361415 Si02
#       7
#     4   8   4   8   4   4   8
#     4  10  24  40  63  97 132 177 231 274 331 404
#     4  11  24  40  65 101 138 176 220 269 334 410
#     4  12  26  42  70  94 134 178 228 290 348 402
#     4  10  21  39  61  94 136 178 217 270 330 400
#     4  12  26  48  68 104 138 174 232 298 352 406
#     4  10  22  42  63  91 134 177 225 278 329 404
#     4  11  26  48  75 104 138 181 228 282 350 415
#
# _framework density 20.12622
#
# number of rings (size 3 to 8) (size 9 to 14) (size 15 to 20)
#    0.000    1.200    3.000    1.800    5.600    2.400 
#    0.000    0.000    0.000    0.000    0.000    0.000 
#    0.000    0.000    0.000    0.000    0.000    0.000 
#
# Total GULP energy -111806.738023 kJ/mol
# GULP energy per Si atom -5590.336901 kJ/mol
# Density = 2.008041 g / cm^3
# Si number density = 20.126220 Si / 1000 Ang^3
#
#
#
# Elastic Constant Matrix: (Units=GPa)
#
#
# Indices 1 2 3 4 5 6 
#
# 1 84.0296 54.7182 32.9996 0.0000 0.0000 0.0000
# 2 54.7182 178.7874 33.6449 0.0000 0.0000 0.0000
# 3 32.9996 33.6449 66.2543 0.0000 0.0000 0.0000
# 4 0.0000 0.0000 0.0000 27.7294 0.0000 0.0000
# 5 0.0000 0.0000 0.0000 0.0000 0.8076 0.0000
# 6 0.0000 0.0000 0.0000 0.0000 0.0000 14.9938
#
#
#
# Elastic Compliance Matrix: (Units=1/GPa)
#
#
# Indices 1 2 3 4 5 6 
#
# 1 0.017041 -0.004000 -0.006456 0.000000 0.000000 0.000000
# 2 -0.004000 0.007123 -0.001625 0.000000 0.000000 0.000000
# 3 -0.006456 -0.001625 0.019134 0.000000 0.000000 0.000000
# 4 0.000000 0.000000 0.000000 0.036063 0.000000 0.000000
# 5 0.000000 0.000000 0.000000 0.000000 1.238168 0.000000
# 6 0.000000 0.000000 0.000000 0.000000 0.000000 0.066694
#
#
# Mechanical properties :
#
#
# Convention : Reuss Voigt Hill
#
# Bulk Modulus (GPa) = 52.25879 63.53296 57.89588
# Shear Modulus (GPa) = 3.53416 22.55343 13.04379
#
# Velocity S-wave (km/s) = 1.32658 3.35117 2.54854
# Velocity P-wave (km/s) = 5.32619 6.82712 6.12282
#
# Compressibility (1/GPa) = 0.01913554
#
# Stress axis : x y z
#
# Youngs Moduli (GPa) = 58.68187 140.38342 52.26263
#
# Poissons Ratio (x) = 0.56160 0.33742
# Poissons Ratio (y) = 0.23476 0.08492
# Poissons Ratio (z) = 0.37886 0.22810
#
# Static dielectric constant tensor:
#      x y z
#    x 1.716570 0.000000 0.000000 
#    y 0.000000 1.708310 0.000000 
#    z 0.000000 0.000000 1.685550 
# 
# From -- ./inp_files/15480.got.cif
#   From: 2010.05.17/outbox.cif.g08.bks.cpg/sg39_8_cif.got.tgz:15480.got - 2010.06.03 18:22:40.
