data_PCOD9361063
_publ_section_title
;
Structure prediction by ZEFSAII (Michael W. Deem and Ramdas Pophale) SiO2 
 PCOD9361063
Probable space group: A B M 2
;
_chemical_formula_sum "Si O2"
_cell_formula_units_Z 56
_cell_length_a 5.036883
_cell_length_b 16.918564
_cell_length_c 32.052102
_cell_angle_alpha 90.000000
_cell_angle_beta 90.000000
_cell_angle_gamma 90.000000
_cell_volume 2731.378444
_symmetry_space_group_name_H-M "A B M 2"
_symmetry_group_IT_number 39
_symmetry_cell_setting 'orthorhombic'
loop_
_space_group_symop_operation_xyz
x,y,z
-x,-y,z
-x,1/2+y,z
x,1/2-y,z
x,1/2+y,1/2+z
-x,1/2-y,1/2+z
-x,y,1/2+z
x,-y,1/2+z
loop_
_atom_site_type_symbol
_atom_site_label
_atom_site_fract_x
_atom_site_fract_y
_atom_site_fract_z
Si Si1 0.940609 0.406646 0.915630
Si Si2 0.750129 0.443903 0.003487
Si Si3 0.606362 0.410929 0.279157
Si Si4 0.895589 0.342059 0.734656
Si Si5 0.431459 0.656782 0.369569
Si Si6 0.594818 0.409337 0.092500
Si Si7 0.906394 0.658233 0.137079
O O1 0.707189 0.379965 0.885023
O O2 0.000000 0.500000 0.911235
O O3 0.206425 0.360662 0.903832
O O4 0.841624 0.395846 0.963047
O O5 0.500000 0.500000 0.991792
O O6 0.665368 0.395095 0.044049
O O7 0.000000 0.500000 0.015385
O O8 0.500000 0.500000 0.277500
O O9 0.374577 0.357478 0.259418
O O10 0.653662 0.384723 0.326656
O O11 0.873184 0.396364 0.253262
O O12 0.974642 0.250000 0.739228
O O13 0.853678 0.358510 0.685721
O O14 0.460742 0.750000 0.362979
O O15 0.500000 0.500000 0.094854
O O16 0.356431 0.357470 0.110380
O O17 0.855390 0.394411 0.119682
O O18 0.985767 0.750000 0.133579
#
# Coordination Sequence:
#
# PCOD9361063 Si02
#       7
#     8   8   8   8   8   8   8
#     4  11  22  41  66  91 120 162 210 255 302 362
#     4  10  20  38  63  93 124 159 205 257 309 359
#     4  12  25  42  65  93 122 159 210 259 304 360
#     4  11  24  43  64  88 124 167 206 251 313 371
#     4  12  25  42  62  91 129 163 200 251 314 371
#     4  11  22  39  64  92 122 162 210 256 302 362
#     4  11  24  41  61  90 128 166 203 251 314 371
#
# _framework density 20.502466999999999
#
# number of rings (size 3 to 8) (size 9 to 14) (size 15 to 20)
#    0.000    0.857    0.000    9.429    0.000    5.714 
#    0.000    4.286    0.000    0.000    0.000    0.000 
#    0.000    0.000    0.000    0.000    0.000    0.000 
#
# Total GULP energy -156721.778961 kJ/mol
# GULP energy per Si atom -5597.206391 kJ/mol
# Density = 2.045580 g / cm^3
# Si number density = 20.502467 Si / 1000 Ang^3
#
#
#
# Elastic Constant Matrix: (Units=GPa)
#
#
# Indices 1 2 3 4 5 6 
#
# 1 104.5694 2.2804 9.7109 0.0000 0.0000 0.0000
# 2 2.2804 52.0632 33.1302 0.0000 0.0000 0.0000
# 3 9.7109 33.1302 72.5938 0.0000 0.0000 0.0000
# 4 0.0000 0.0000 0.0000 14.6196 0.0000 0.0000
# 5 0.0000 0.0000 0.0000 0.0000 43.3987 0.0000
# 6 0.0000 0.0000 0.0000 0.0000 0.0000 -15.6501
#
#
#
# Elastic Compliance Matrix: (Units=1/GPa)
#
#
# Indices 1 2 3 4 5 6 
#
# 1 0.009695 0.000565 -0.001555 0.000000 0.000000 0.000000
# 2 0.000565 0.027101 -0.012444 0.000000 0.000000 0.000000
# 3 -0.001555 -0.012444 0.019662 0.000000 0.000000 0.000000
# 4 0.000000 0.000000 0.000000 0.068401 0.000000 0.000000
# 5 0.000000 0.000000 0.000000 0.000000 0.023042 0.000000
# 6 0.000000 0.000000 0.000000 0.000000 0.000000 -0.063897
#
#
# Mechanical properties :
#
#
# Convention : Reuss Voigt Hill
#
# Bulk Modulus (GPa) = 33.79417 35.49660 34.64539
# Shear Modulus (GPa) = 41.41253 20.74730 31.07991
#
# Velocity S-wave (km/s) = 4.49918 3.18455 3.89769
# Velocity P-wave (km/s) = 6.59613 5.55633 6.09843
#
# Compressibility (1/GPa) = 0.02959090
#
# Stress axis : x y z
#
# Youngs Moduli (GPa) = 103.14511 36.89858 50.85860
#
# Poissons Ratio (x) = -0.02083 0.07906
# Poissons Ratio (y) = -0.05824 0.63288
# Poissons Ratio (z) = 0.16035 0.45916
#
# Static dielectric constant tensor:
#      x y z
#    x 1.699280 0.000000 0.000000 
#    y 0.000000 1.707940 0.000000 
#    z 0.000000 0.000000 1.721420 
# 
# From -- ./inp_files/17281.got.cif
#   From: 2010.05.17/outbox.cif.g08.bks.cpg/sg39_9_cif.got.tgz:17281.got - 2010.06.03 18:22:40.
