data_PCOD9361250
_publ_section_title
;
Structure prediction by ZEFSAII (Michael W. Deem and Ramdas Pophale) SiO2 
 PCOD9361250
Probable space group: A B M 2
;
_chemical_formula_sum "Si O2"
_cell_formula_units_Z 48
_cell_length_a 9.997448
_cell_length_b 15.118091
_cell_length_c 17.983740
_cell_angle_alpha 90.000000
_cell_angle_beta 90.000000
_cell_angle_gamma 90.000000
_cell_volume 2718.104341
_symmetry_space_group_name_H-M "A B M 2"
_symmetry_group_IT_number 39
_symmetry_cell_setting 'orthorhombic'
loop_
_space_group_symop_operation_xyz
x,y,z
-x,-y,z
-x,1/2+y,z
x,1/2-y,z
x,1/2+y,1/2+z
-x,1/2-y,1/2+z
-x,y,1/2+z
x,-y,1/2+z
loop_
_atom_site_type_symbol
_atom_site_label
_atom_site_fract_x
_atom_site_fract_y
_atom_site_fract_z
Si Si1 0.859624 0.951141 0.038160
Si Si2 0.489652 0.750000 0.055981
Si Si3 0.877356 0.062350 0.717020
Si Si4 0.380872 0.071655 0.480543
Si Si5 0.440117 0.750000 0.722801
Si Si6 0.188208 0.250000 0.029480
Si Si7 0.878837 0.750000 0.194740
Si Si8 0.608310 0.576629 0.308285
O O1 0.845894 0.942123 0.128346
O O2 0.844814 0.851591 0.002714
O O3 0.000000 0.000000 0.023240
O O4 0.745896 0.018583 0.011520
O O5 0.481798 0.750000 0.145506
O O6 0.649655 0.750000 0.037584
O O7 0.422707 0.661031 0.023531
O O8 0.929303 0.161449 0.730870
O O9 0.742025 0.050321 0.763314
O O10 0.000000 0.000000 0.735026
O O11 0.358386 0.094989 0.394104
O O12 0.500000 0.000000 0.485390
O O13 0.281823 0.750000 0.703473
O O14 0.457605 0.837700 0.770516
O O15 0.103746 0.250000 0.106534
O O16 0.500000 0.500000 0.305241
#
# Coordination Sequence:
#
# PCOD9361250 Si02
#       8
#     8   4   8   8   4   4   4   8
#     4  10  21  36  60  89 121 159 205 253 302 368
#     4  11  21  34  64  89 115 156 203 254 294 357
#     4   9  18  34  57  81 110 153 193 238 289 357
#     4  11  23  37  57  89 119 158 201 247 305 368
#     4   9  19  35  56  83 109 154 187 237 294 347
#     4   9  16  34  55  80 119 152 185 247 314 344
#     4   7  14  29  51  78 103 140 181 218 292 336
#     4  10  22  37  57  83 119 153 190 245 301 359
#
# _framework density 17.659365999999999
#
# number of rings (size 3 to 8) (size 9 to 14) (size 15 to 20)
#    0.000    2.333    1.667    1.500    2.333    1.333 
#    0.000    1.667    0.000    2.000    0.000    0.000 
#    0.000    0.000    0.000    0.000    0.000    0.000 
#
# Total GULP energy -133618.271040 kJ/mol
# GULP energy per Si atom -5567.427960 kJ/mol
# Density = 1.761917 g / cm^3
# Si number density = 17.659366 Si / 1000 Ang^3
#
#
#
# Elastic Constant Matrix: (Units=GPa)
#
#
# Indices 1 2 3 4 5 6 
#
# 1 93.7125 61.2004 43.5067 0.0000 0.0000 0.0000
# 2 61.2004 166.9487 64.6606 0.0000 0.0000 0.0000
# 3 43.5067 64.6606 84.9869 0.0000 0.0000 0.0000
# 4 0.0000 0.0000 0.0000 23.4848 0.0000 0.0000
# 5 0.0000 0.0000 0.0000 0.0000 17.3295 0.0000
# 6 0.0000 0.0000 0.0000 0.0000 0.0000 34.6705
#
#
#
# Elastic Compliance Matrix: (Units=1/GPa)
#
#
# Indices 1 2 3 4 5 6 
#
# 1 0.015448 -0.003686 -0.005103 0.000000 0.000000 0.000000
# 2 -0.003686 0.009372 -0.005243 0.000000 0.000000 0.000000
# 3 -0.005103 -0.005243 0.018368 0.000000 0.000000 0.000000
# 4 0.000000 0.000000 0.000000 0.042581 0.000000 0.000000
# 5 0.000000 0.000000 0.000000 0.000000 0.057705 0.000000
# 6 0.000000 0.000000 0.000000 0.000000 0.000000 0.028843
#
#
# Mechanical properties :
#
#
# Convention : Reuss Voigt Hill
#
# Bulk Modulus (GPa) = 66.12918 76.04261 71.08589
# Shear Modulus (GPa) = 24.33998 26.84900 25.59449
#
# Velocity S-wave (km/s) = 3.71658 3.90344 3.81115
# Velocity P-wave (km/s) = 7.47968 7.96681 7.72709
#
# Compressibility (1/GPa) = 0.01512192
#
# Stress axis : x y z
#
# Youngs Moduli (GPa) = 64.73517 106.70088 54.44131
#
# Poissons Ratio (x) = 0.39332 0.27783
# Poissons Ratio (y) = 0.23863 0.28546
# Poissons Ratio (z) = 0.33037 0.55948
#
# Static dielectric constant tensor:
#      x y z
#    x 1.576120 0.000000 0.000000 
#    y 0.000000 1.639060 0.000000 
#    z 0.000000 0.000000 1.609330 
# 
# From -- ./inp_files/11649.got.cif
#   From: 2010.05.17/outbox.cif.g08.bks.cpg/sg39_6_cif.got.tgz:11649.got - 2010.06.03 18:22:40.
