data_PCOD9361579
_publ_section_title
;
Structure prediction by ZEFSAII (Michael W. Deem and Ramdas Pophale) SiO2 
 PCOD9361579
Probable space group: A B M 2
;
_chemical_formula_sum "Si O2"
_cell_formula_units_Z 32
_cell_length_a 4.731692
_cell_length_b 24.022757
_cell_length_c 10.272661
_cell_angle_alpha 90.000000
_cell_angle_beta 90.000000
_cell_angle_gamma 90.000000
_cell_volume 1167.675780
_symmetry_space_group_name_H-M "A B M 2"
_symmetry_group_IT_number 39
_symmetry_cell_setting 'orthorhombic'
loop_
_space_group_symop_operation_xyz
x,y,z
-x,-y,z
-x,1/2+y,z
x,1/2-y,z
x,1/2+y,1/2+z
-x,1/2-y,1/2+z
-x,y,1/2+z
x,-y,1/2+z
loop_
_atom_site_type_symbol
_atom_site_label
_atom_site_fract_x
_atom_site_fract_y
_atom_site_fract_z
Si Si1 0.042558 0.368260 0.052900
Si Si2 0.823635 0.750000 0.561712
Si Si3 0.464394 0.129480 0.391074
Si Si4 0.562752 0.750000 0.288441
Si Si5 0.251620 0.037541 0.719917
O O1 0.973737 0.306779 0.105764
O O2 0.920625 0.419998 0.129754
O O3 0.868842 0.371299 0.916761
O O4 0.374138 0.371748 0.029222
O O5 0.808586 0.750000 0.403466
O O6 0.520065 0.750000 0.634205
O O7 0.549900 0.188367 0.328017
O O8 0.574270 0.075821 0.318397
O O9 0.500000 0.000000 0.655522
O O10 0.000000 0.000000 0.779610
#
# Coordination Sequence:
#
# PCOD9361579 Si02
#       5
#     8   4   8   4   8
#     4  11  24  44  68  99 134 178 223 286 346 413
#     4  10  21  44  73 108 140 180 228 288 356 418
#     4  11  24  44  68  99 134 178 223 286 346 413
#     4  10  21  44  73 108 140 180 228 288 356 418
#     4  12  26  43  66  97 132 182 232 284 336 406
#
# _framework density 27.404865999999998
#
# number of rings (size 3 to 8) (size 9 to 14) (size 15 to 20)
#    0.000    1.000    2.500    3.750    0.000    6.000 
#    4.500    2.500    0.000    0.000    0.000    0.000 
#    0.000    0.000    0.000    0.000    0.000    0.000 
#
# Total GULP energy -89427.493404 kJ/mol
# GULP energy per Si atom -5589.218338 kJ/mol
# Density = 2.734249 g / cm^3
# Si number density = 27.404866 Si / 1000 Ang^3
#
#
#
# Elastic Constant Matrix: (Units=GPa)
#
#
# Indices 1 2 3 4 5 6 
#
# 1 114.3157 34.2508 5.5751 0.0000 0.0000 0.0000
# 2 34.2508 190.1825 19.7125 0.0000 0.0000 0.0000
# 3 5.5751 19.7125 38.6522 0.0000 0.0000 0.0000
# 4 0.0000 0.0000 0.0000 41.3176 0.0000 0.0000
# 5 0.0000 0.0000 0.0000 0.0000 29.5977 0.0000
# 6 0.0000 0.0000 0.0000 0.0000 0.0000 3.7246
#
#
#
# Elastic Compliance Matrix: (Units=1/GPa)
#
#
# Indices 1 2 3 4 5 6 
#
# 1 0.009256 -0.001614 -0.000512 0.000000 0.000000 0.000000
# 2 -0.001614 0.005833 -0.002742 0.000000 0.000000 0.000000
# 3 -0.000512 -0.002742 0.027344 0.000000 0.000000 0.000000
# 4 0.000000 0.000000 0.000000 0.024203 0.000000 0.000000
# 5 0.000000 0.000000 0.000000 0.000000 0.033786 0.000000
# 6 0.000000 0.000000 0.000000 0.000000 0.000000 0.268489
#
#
# Mechanical properties :
#
#
# Convention : Reuss Voigt Hill
#
# Bulk Modulus (GPa) = 30.58354 51.35858 40.97106
# Shear Modulus (GPa) = 12.83546 33.83544 23.33545
#
# Velocity S-wave (km/s) = 2.16652 3.51757 2.92123
# Velocity P-wave (km/s) = 4.17643 5.93962 5.13428
#
# Compressibility (1/GPa) = 0.03269733
#
# Stress axis : x y z
#
# Youngs Moduli (GPa) = 108.03532 171.43900 36.57108
#
# Poissons Ratio (x) = 0.27669 0.01872
# Poissons Ratio (y) = 0.17436 0.10028
# Poissons Ratio (z) = 0.05532 0.47009
#
# Static dielectric constant tensor:
#      x y z
#    x 2.102090 0.000000 0.000000 
#    y 0.000000 2.096650 0.000000 
#    z 0.000000 0.000000 2.198120 
# 
# From -- ./inp_files/4380.got.cif
#   From: 2010.05.17/outbox.cif.g08.bks.cpg/sg39_3_cif.got.tgz:4380.got - 2010.06.03 18:22:40.
