data_PCOD9361138
_publ_section_title
;
Structure prediction by ZEFSAII (Michael W. Deem and Ramdas Pophale) SiO2 
 PCOD9361138
Probable space group: A B M 2
;
_chemical_formula_sum "Si O2"
_cell_formula_units_Z 64
_cell_length_a 8.784460
_cell_length_b 29.296355
_cell_length_c 11.989675
_cell_angle_alpha 90.000000
_cell_angle_beta 90.000000
_cell_angle_gamma 90.000000
_cell_volume 3085.574738
_symmetry_space_group_name_H-M "A B M 2"
_symmetry_group_IT_number 39
_symmetry_cell_setting 'orthorhombic'
loop_
_space_group_symop_operation_xyz
x,y,z
-x,-y,z
-x,1/2+y,z
x,1/2-y,z
x,1/2+y,1/2+z
-x,1/2-y,1/2+z
-x,y,1/2+z
x,-y,1/2+z
loop_
_atom_site_type_symbol
_atom_site_label
_atom_site_fract_x
_atom_site_fract_y
_atom_site_fract_z
Si Si1 0.047781 0.952149 0.898850
Si Si2 0.697667 0.825254 0.398829
Si Si3 0.938412 0.371997 0.745422
Si Si4 0.493882 0.799834 0.200281
Si Si5 0.795229 0.437753 0.574208
Si Si6 0.352686 0.473038 0.522553
Si Si7 0.162366 0.300810 0.637515
Si Si8 0.513193 0.885635 0.039991
O O1 0.991062 0.909632 0.826859
O O2 0.224878 0.956698 0.933840
O O3 0.000000 0.000000 0.844503
O O4 0.952394 0.946911 0.012248
O O5 0.839653 0.839579 0.323901
O O6 0.586039 0.799274 0.314940
O O7 0.767364 0.804766 0.512705
O O8 0.590767 0.866359 0.441388
O O9 0.826742 0.404511 0.675742
O O10 0.048324 0.341538 0.668816
O O11 0.518832 0.750000 0.144149
O O12 0.312008 0.804134 0.215472
O O13 0.538209 0.843266 0.124053
O O14 0.725221 0.487559 0.597017
O O15 0.671009 0.408847 0.504016
O O16 0.500000 0.500000 0.472846
O O17 0.415472 0.428565 0.586506
O O18 0.094028 0.250000 0.650444
#
# Coordination Sequence:
#
# PCOD9361138 Si02
#       8
#     8   8   8   8   8   8   8   8
#     4  10  22  40  61  96 133 179 221 271 335 398
#     4  11  22  42  71  92 135 170 226 278 341 400
#     4  12  23  41  65 102 130 177 220 274 337 414
#     4  10  22  42  67  95 125 169 226 275 338 407
#     4  10  22  39  61  94 135 170 224 271 332 396
#     4   9  19  39  64  89 132 177 216 278 322 392
#     4  10  25  45  66  98 135 174 222 284 343 402
#     4  10  20  40  66  95 125 172 219 282 327 394
#
# _framework density 20.741679999999999
#
# number of rings (size 3 to 8) (size 9 to 14) (size 15 to 20)
#    0.000    1.750    2.500    1.125    3.500    3.000 
#    0.000    1.875    0.000    0.000    0.000    0.000 
#    0.000    0.000    0.000    0.000    0.000    0.000 
#
# Total GULP energy -178175.853007 kJ/mol
# GULP energy per Si atom -5567.995406 kJ/mol
# Density = 2.069447 g / cm^3
# Si number density = 20.741680 Si / 1000 Ang^3
#
#
#
# Elastic Constant Matrix: (Units=GPa)
#
#
# Indices 1 2 3 4 5 6 
#
# 1 76.8246 46.8660 36.3104 0.0000 0.0000 0.0000
# 2 46.8660 154.1362 40.8784 0.0000 0.0000 0.0000
# 3 36.3104 40.8784 54.7100 0.0000 0.0000 0.0000
# 4 0.0000 0.0000 0.0000 28.6991 0.0000 0.0000
# 5 0.0000 0.0000 0.0000 0.0000 8.2402 0.0000
# 6 0.0000 0.0000 0.0000 0.0000 0.0000 24.9717
#
#
#
# Elastic Compliance Matrix: (Units=1/GPa)
#
#
# Indices 1 2 3 4 5 6 
#
# 1 0.020172 -0.003221 -0.010981 0.000000 0.000000 0.000000
# 2 -0.003221 0.008605 -0.004292 0.000000 0.000000 0.000000
# 3 -0.010981 -0.004292 0.028773 0.000000 0.000000 0.000000
# 4 0.000000 0.000000 0.000000 0.034844 0.000000 0.000000
# 5 0.000000 0.000000 0.000000 0.000000 0.121356 0.000000
# 6 0.000000 0.000000 0.000000 0.000000 0.000000 0.040045
#
#
# Mechanical properties :
#
#
# Convention : Reuss Voigt Hill
#
# Bulk Modulus (GPa) = 48.63335 59.30891 53.97113
# Shear Modulus (GPa) = 16.79890 23.15660 19.97775
#
# Velocity S-wave (km/s) = 2.84898 3.34492 3.10686
# Velocity P-wave (km/s) = 5.85835 6.60107 6.24077
#
# Compressibility (1/GPa) = 0.02056202
#
# Stress axis : x y z
#
# Youngs Moduli (GPa) = 49.57441 116.20542 34.75464
#
# Poissons Ratio (x) = 0.37430 0.38164
# Poissons Ratio (y) = 0.15968 0.14917
# Poissons Ratio (z) = 0.54438 0.49876
#
# Static dielectric constant tensor:
#      x y z
#    x 1.796100 0.000000 0.000000 
#    y 0.000000 1.789620 0.000000 
#    z 0.000000 0.000000 1.753290 
# 
# From -- ./inp_files/5431.got.cif
#   From: 2010.05.17/outbox.cif.g08.bks.cpg/sg39_3_cif.got.tgz:5431.got - 2010.06.03 18:22:40.
