data_PCOD9361952
_publ_section_title
;
Structure prediction by ZEFSAII (Michael W. Deem and Ramdas Pophale) SiO2 
 PCOD9361952
Probable space group: A B M 2
;
_chemical_formula_sum "Si O2"
_cell_formula_units_Z 40
_cell_length_a 13.785579
_cell_length_b 14.406779
_cell_length_c 9.601533
_cell_angle_alpha 90.000000
_cell_angle_beta 90.000000
_cell_angle_gamma 90.000000
_cell_volume 1906.920047
_symmetry_space_group_name_H-M "A B M 2"
_symmetry_group_IT_number 39
_symmetry_cell_setting 'orthorhombic'
loop_
_space_group_symop_operation_xyz
x,y,z
-x,-y,z
-x,1/2+y,z
x,1/2-y,z
x,1/2+y,1/2+z
-x,1/2-y,1/2+z
-x,y,1/2+z
x,-y,1/2+z
loop_
_atom_site_type_symbol
_atom_site_label
_atom_site_fract_x
_atom_site_fract_y
_atom_site_fract_z
Si Si1 0.737979 0.250000 0.018651
Si Si2 0.349997 0.750000 0.713654
Si Si3 0.599552 0.953106 0.860724
Si Si4 0.000000 0.000000 0.772870
Si Si5 0.707184 0.951435 0.125774
Si Si6 0.124379 0.430200 0.528720
Si Si7 0.575765 0.750000 0.757678
O O1 0.806390 0.159310 0.024956
O O2 0.658947 0.250000 0.141090
O O3 0.676745 0.250000 0.876611
O O4 0.304418 0.656964 0.651871
O O5 0.466463 0.750000 0.697484
O O6 0.589041 0.843400 0.845621
O O7 0.500000 0.000000 0.814670
O O8 0.685792 0.992010 0.765444
O O9 0.624189 0.980917 0.017087
O O10 0.946292 0.930842 0.663829
O O11 0.070174 0.945940 0.881648
O O12 0.808133 0.980654 0.059293
#
# Coordination Sequence:
#
# PCOD9361952 Si02
#       7
#     4   4   8   4   8   8   4
#     4  12  26  44  70 104 137 183 230 285 328 415
#     4  12  27  40  67 100 147 191 237 273 326 393
#     4  12  25  41  64  95 138 188 238 280 327 389
#     4  10  24  48  74  98 128 174 216 298 360 426
#     4  12  25  44  67  98 137 186 228 287 335 405
#     4  11  24  46  73 100 136 169 229 284 359 413
#     4  12  27  40  63 100 144 188 233 272 326 390
#
# _framework density 20.976233000000001
#
# number of rings (size 3 to 8) (size 9 to 14) (size 15 to 20)
#    0.000    0.400    4.000    4.800    2.800    0.800 
#    0.000    4.000    0.000    0.000    0.000    0.000 
#    0.000    0.000    0.000    0.000    0.000    0.000 
#
# Total GULP energy -111892.378640 kJ/mol
# GULP energy per Si atom -5594.618932 kJ/mol
# Density = 2.092849 g / cm^3
# Si number density = 20.976233 Si / 1000 Ang^3
#
#
#
# Elastic Constant Matrix: (Units=GPa)
#
#
# Indices 1 2 3 4 5 6 
#
# 1 90.5658 25.7067 34.4252 0.0000 0.0000 0.0000
# 2 25.7067 99.9983 13.8919 0.0000 0.0000 0.0000
# 3 34.4252 13.8919 118.5856 0.0000 0.0000 0.0000
# 4 0.0000 0.0000 0.0000 13.2760 0.0000 0.0000
# 5 0.0000 0.0000 0.0000 0.0000 38.2728 0.0000
# 6 0.0000 0.0000 0.0000 0.0000 0.0000 -4.4362
#
#
#
# Elastic Compliance Matrix: (Units=1/GPa)
#
#
# Indices 1 2 3 4 5 6 
#
# 1 0.013193 -0.002907 -0.003489 0.000000 0.000000 0.000000
# 2 -0.002907 0.010806 -0.000422 0.000000 0.000000 0.000000
# 3 -0.003489 -0.000422 0.009495 0.000000 0.000000 0.000000
# 4 0.000000 0.000000 0.000000 0.075324 0.000000 0.000000
# 5 0.000000 0.000000 0.000000 0.000000 0.026128 0.000000
# 6 0.000000 0.000000 0.000000 0.000000 0.000000 -0.225419
#
#
# Mechanical properties :
#
#
# Convention : Reuss Voigt Hill
#
# Bulk Modulus (GPa) = 50.35815 50.79971 50.57893
# Shear Modulus (GPa) = -71.20808 25.09760 -23.05524
#
# Velocity S-wave (km/s) = -5.83273 3.46277 -3.31888
# Velocity P-wave (km/s) = 4.61537 6.34492 3.07867
#
# Compressibility (1/GPa) = 0.01985776
#
# Stress axis : x y z
#
# Youngs Moduli (GPa) = 75.79687 92.54067 105.31703
#
# Poissons Ratio (x) = 0.26900 0.36750
# Poissons Ratio (y) = 0.22033 0.04445
# Poissons Ratio (z) = 0.26449 0.03906
#
# Static dielectric constant tensor:
#      x y z
#    x 1.778890 0.000000 0.000000 
#    y 0.000000 1.717590 0.000000 
#    z 0.000000 0.000000 1.749750 
# 
# From -- ./inp_files/3111.got.cif
#   From: 2010.05.17/outbox.cif.g08.bks.cpg/sg39_2_cif.got.tgz:3111.got - 2010.06.03 18:22:40.
