data_PCOD9361426
_publ_section_title
;
Structure prediction by ZEFSAII (Michael W. Deem and Ramdas Pophale) SiO2 
 PCOD9361426
Probable space group: A B M 2
;
_chemical_formula_sum "Si O2"
_cell_formula_units_Z 56
_cell_length_a 15.897047
_cell_length_b 15.418451
_cell_length_c 9.158344
_cell_angle_alpha 90.000000
_cell_angle_beta 90.000000
_cell_angle_gamma 90.000000
_cell_volume 2244.781918
_symmetry_space_group_name_H-M "A B M 2"
_symmetry_group_IT_number 39
_symmetry_cell_setting 'orthorhombic'
loop_
_space_group_symop_operation_xyz
x,y,z
-x,-y,z
-x,1/2+y,z
x,1/2-y,z
x,1/2+y,1/2+z
-x,1/2-y,1/2+z
-x,y,1/2+z
x,-y,1/2+z
loop_
_atom_site_type_symbol
_atom_site_label
_atom_site_fract_x
_atom_site_fract_y
_atom_site_fract_z
Si Si1 0.336954 0.847873 0.105760
Si Si2 0.615574 0.348262 0.507804
Si Si3 0.930234 0.155017 0.044356
Si Si4 0.229646 0.152133 0.330515
Si Si5 0.247456 0.955788 0.334306
Si Si6 0.497221 0.401643 0.756452
Si Si7 0.937438 0.579304 0.858762
O O1 0.349595 0.750000 0.158730
O O2 0.263542 0.892939 0.197531
O O3 0.421148 0.899051 0.138880
O O4 0.307688 0.843910 0.941701
O O5 0.651028 0.250000 0.508428
O O6 0.679267 0.421869 0.445009
O O7 0.577896 0.370072 0.666737
O O8 0.537791 0.348220 0.392963
O O9 0.915826 0.250000 0.109328
O O10 0.855569 0.143017 0.927116
O O11 0.016875 0.151905 0.954071
O O12 0.934629 0.093967 0.184828
O O13 0.224047 0.250000 0.260882
O O14 0.243371 0.054195 0.271540
O O15 0.157618 0.937382 0.406265
O O16 0.500000 0.500000 0.808085
O O17 0.000000 0.500000 0.887223
#
# Coordination Sequence:
#
# PCOD9361426 Si02
#       7
#     8   8   8   8   8   8   8
#     4  10  21  40  67  93 127 179 228 271 337 417
#     4  11  24  43  71 103 138 182 232 286 349 413
#     4  11  24  41  66  98 132 175 223 282 343 408
#     4  10  21  39  62  93 127 171 225 278 335 403
#     4  11  22  40  68  96 131 178 232 281 335 417
#     4  11  22  40  66 101 137 179 226 279 342 414
#     4  12  24  42  68  97 134 177 229 282 348 410
#
# _framework density 24.946743999999999
#
# number of rings (size 3 to 8) (size 9 to 14) (size 15 to 20)
#    0.000    1.143    2.857    4.714    0.000    2.857 
#    0.000    0.000    0.000   12.000    0.000    0.000 
#    0.000    0.000    0.000    0.000    0.000    0.000 
#
# Total GULP energy -156459.419540 kJ/mol
# GULP energy per Si atom -5587.836412 kJ/mol
# Density = 2.488996 g / cm^3
# Si number density = 24.946744 Si / 1000 Ang^3
#
#
#
# Elastic Constant Matrix: (Units=GPa)
#
#
# Indices 1 2 3 4 5 6 
#
# 1 112.2629 20.5508 38.0489 0.0000 0.0000 0.0000
# 2 20.5508 135.5091 6.0947 0.0000 0.0000 0.0000
# 3 38.0489 6.0947 80.3870 0.0000 0.0000 0.0000
# 4 0.0000 0.0000 0.0000 3.4911 0.0000 0.0000
# 5 0.0000 0.0000 0.0000 0.0000 34.9221 0.0000
# 6 0.0000 0.0000 0.0000 0.0000 0.0000 17.7710
#
#
#
# Elastic Compliance Matrix: (Units=1/GPa)
#
#
# Indices 1 2 3 4 5 6 
#
# 1 0.010876 -0.001423 -0.005040 0.000000 0.000000 0.000000
# 2 -0.001423 0.007591 0.000098 0.000000 0.000000 0.000000
# 3 -0.005040 0.000098 0.014818 0.000000 0.000000 0.000000
# 4 0.000000 0.000000 0.000000 0.286442 0.000000 0.000000
# 5 0.000000 0.000000 0.000000 0.000000 0.028635 0.000000
# 6 0.000000 0.000000 0.000000 0.000000 0.000000 0.056272
#
#
# Mechanical properties :
#
#
# Convention : Reuss Voigt Hill
#
# Bulk Modulus (GPa) = 48.64926 50.83861 49.74394
# Shear Modulus (GPa) = 11.78647 28.80114 20.29380
#
# Velocity S-wave (km/s) = 2.17598 3.40149 2.85526
# Velocity P-wave (km/s) = 5.08496 5.98748 5.55458
#
# Compressibility (1/GPa) = 0.02055530
#
# Stress axis : x y z
#
# Youngs Moduli (GPa) = 91.94253 131.73582 67.48544
#
# Poissons Ratio (x) = 0.18743 0.34014
# Poissons Ratio (y) = 0.13081 -0.00661
# Poissons Ratio (z) = 0.46340 -0.01290
#
# Static dielectric constant tensor:
#      x y z
#    x 1.975220 0.000000 0.000000 
#    y 0.000000 2.032760 0.000000 
#    z 0.000000 0.000000 1.985280 
# 
# From -- ./inp_files/6501.got.cif
#   From: 2010.05.17/outbox.cif.g08.bks.cpg/sg39_4_cif.got.tgz:6501.got - 2010.06.03 18:22:40.
