data_PCOD9361800
_publ_section_title
;
Structure prediction by ZEFSAII (Michael W. Deem and Ramdas Pophale) SiO2 
 PCOD9361800
Probable space group: A B M 2
;
_chemical_formula_sum "Si O2"
_cell_formula_units_Z 56
_cell_length_a 5.219031
_cell_length_b 14.926116
_cell_length_c 29.681505
_cell_angle_alpha 90.000000
_cell_angle_beta 90.000000
_cell_angle_gamma 90.000000
_cell_volume 2312.185147
_symmetry_space_group_name_H-M "A B M 2"
_symmetry_group_IT_number 39
_symmetry_cell_setting 'orthorhombic'
loop_
_space_group_symop_operation_xyz
x,y,z
-x,-y,z
-x,1/2+y,z
x,1/2-y,z
x,1/2+y,1/2+z
-x,1/2-y,1/2+z
-x,y,1/2+z
x,-y,1/2+z
loop_
_atom_site_type_symbol
_atom_site_label
_atom_site_fract_x
_atom_site_fract_y
_atom_site_fract_z
Si Si1 0.363509 0.096308 0.772680
Si Si2 0.127204 0.851847 0.550731
Si Si3 0.069892 0.899156 0.451465
Si Si4 0.636515 0.652312 0.187167
Si Si5 0.445491 0.393497 0.871370
Si Si6 0.380213 0.598565 0.102692
Si Si7 0.000000 0.000000 0.708963
Si Si8 0.234685 0.750000 0.911210
O O1 0.542037 0.151147 0.738794
O O2 0.316078 0.127173 0.823301
O O3 0.500000 0.000000 0.778198
O O4 0.120218 0.072843 0.742785
O O5 0.046787 0.750000 0.542308
O O6 0.898143 0.894552 0.580291
O O7 0.164024 0.899475 0.502592
O O8 0.399550 0.849848 0.575275
O O9 0.272704 0.864414 0.414150
O O10 0.839419 0.829560 0.447525
O O11 0.000000 0.000000 0.438399
O O12 0.753270 0.750000 0.176972
O O13 0.397500 0.636877 0.153379
O O14 0.805876 0.562245 0.181245
O O15 0.500000 0.500000 0.875394
O O16 0.690845 0.330130 0.874986
O O17 0.500000 0.500000 0.101305
#
# Coordination Sequence:
#
# PCOD9361800 Si02
#       8
#     8   8   8   8   8   8   4   4
#     4   9  22  43  68 103 145 191 245 305 371 439
#     4  12  28  48  76 111 150 196 255 318 383 460
#     4  12  26  46  73 108 145 197 247 313 378 451
#     4  11  25  45  71 107 148 197 247 306 376 453
#     4  11  25  45  74 105 149 198 249 315 375 448
#     4  12  27  49  76 110 149 198 253 313 387 461
#     4  10  22  44  74 102 146 196 242 312 376 442
#     4  12  26  46  72 102 146 192 252 302 382 452
#
# _framework density 24.219512000000002
#
# number of rings (size 3 to 8) (size 9 to 14) (size 15 to 20)
#    0.000    0.857    2.143    4.286    8.000    2.286 
#    0.000    0.000    0.000    0.000    0.000    0.000 
#    0.000    0.000    0.000    0.000    0.000    0.000 
#
# Total GULP energy -155981.574877 kJ/mol
# GULP energy per Si atom -5570.770531 kJ/mol
# Density = 2.416439 g / cm^3
# Si number density = 24.219512 Si / 1000 Ang^3
#
#
#
# Elastic Constant Matrix: (Units=GPa)
#
#
# Indices 1 2 3 4 5 6 
#
# 1 68.3068 -1.9843 39.8698 0.0000 0.0000 0.0000
# 2 -1.9843 150.0153 6.0300 0.0000 0.0000 0.0000
# 3 39.8698 6.0300 160.1058 0.0000 0.0000 0.0000
# 4 0.0000 0.0000 0.0000 -112.2756 0.0000 0.0000
# 5 0.0000 0.0000 0.0000 0.0000 35.4053 0.0000
# 6 0.0000 0.0000 0.0000 0.0000 0.0000 2.6715
#
#
#
# Elastic Compliance Matrix: (Units=1/GPa)
#
#
# Indices 1 2 3 4 5 6 
#
# 1 0.017153 0.000399 -0.004287 0.000000 0.000000 0.000000
# 2 0.000399 0.006685 -0.000351 0.000000 0.000000 0.000000
# 3 -0.004287 -0.000351 0.007327 0.000000 0.000000 0.000000
# 4 0.000000 0.000000 0.000000 -0.008907 0.000000 0.000000
# 5 0.000000 0.000000 0.000000 0.000000 0.028244 0.000000
# 6 0.000000 0.000000 0.000000 0.000000 0.000000 0.374315
#
#
# Mechanical properties :
#
#
# Convention : Reuss Voigt Hill
#
# Bulk Modulus (GPa) = 44.07580 51.80653 47.94117
# Shear Modulus (GPa) = 11.34151 7.46108 9.40129
#
# Velocity S-wave (km/s) = 2.16632 1.75707 1.97234
# Velocity P-wave (km/s) = 4.94927 5.05502 5.00242
#
# Compressibility (1/GPa) = 0.02268819
#
# Stress axis : x y z
#
# Youngs Moduli (GPa) = 58.29721 149.58003 136.48970
#
# Poissons Ratio (x) = -0.05971 0.58508
# Poissons Ratio (y) = -0.02327 0.04794
# Poissons Ratio (z) = 0.24990 0.05253
#
# Static dielectric constant tensor:
#      x y z
#    x 2.064190 0.000000 0.000000 
#    y 0.000000 2.701140 0.000000 
#    z 0.000000 0.000000 1.946290 
# 
# From -- ./inp_files/17321.got.cif
#   From: 2010.05.17/outbox.cif.g08.bks.cpg/sg39_9_cif.got.tgz:17321.got - 2010.06.03 18:22:40.
