data_PCOD9361262
_publ_section_title
;
Structure prediction by ZEFSAII (Michael W. Deem and Ramdas Pophale) SiO2 
 PCOD9361262
Probable space group: A B M 2
;
_chemical_formula_sum "Si O2"
_cell_formula_units_Z 64
_cell_length_a 17.272044
_cell_length_b 22.095870
_cell_length_c 8.731847
_cell_angle_alpha 90.000000
_cell_angle_beta 90.000000
_cell_angle_gamma 90.000000
_cell_volume 3332.429414
_symmetry_space_group_name_H-M "A B M 2"
_symmetry_group_IT_number 39
_symmetry_cell_setting 'orthorhombic'
loop_
_space_group_symop_operation_xyz
x,y,z
-x,-y,z
-x,1/2+y,z
x,1/2-y,z
x,1/2+y,1/2+z
-x,1/2-y,1/2+z
-x,y,1/2+z
x,-y,1/2+z
loop_
_atom_site_type_symbol
_atom_site_label
_atom_site_fract_x
_atom_site_fract_y
_atom_site_fract_z
Si Si1 0.415280 0.482613 0.537280
Si Si2 0.246049 0.323552 0.731808
Si Si3 0.497635 0.632510 0.162454
Si Si4 0.085598 0.324000 0.883264
Si Si5 0.395973 0.817735 0.393230
Si Si6 0.356826 0.917245 0.768093
Si Si7 0.924866 0.822947 0.234377
Si Si8 0.759758 0.322498 0.874352
O O1 0.500000 0.500000 0.466013
O O2 0.443438 0.426312 0.641236
O O3 0.377090 0.537666 0.629285
O O4 0.353660 0.459934 0.415188
O O5 0.248641 0.250000 0.740090
O O6 0.161831 0.343064 0.790679
O O7 0.313423 0.345761 0.846218
O O8 0.258071 0.337264 0.552315
O O9 0.442318 0.682699 0.232679
O O10 0.563163 0.619151 0.288529
O O11 0.550233 0.649617 0.017211
O O12 0.085605 0.250000 0.881912
O O13 0.005643 0.344618 0.805520
O O14 0.088085 0.343634 0.060206
O O15 0.383291 0.750000 0.451511
O O16 0.290521 0.867050 0.767650
O O17 0.931312 0.750000 0.226942
O O18 0.849820 0.834554 0.338059
O O19 0.745405 0.250000 0.848867
#
# Coordination Sequence:
#
# PCOD9361262 Si02
#       8
#     8   8   8   8   8   8   8   8
#     4  10  21  40  60  80 101 144 200 255 298 332
#     4   9  19  33  50  75 119 166 203 239 287 354
#     4  11  22  38  57  79 109 151 199 246 293 355
#     4   9  16  29  49  77 114 165 207 237 276 341
#     4  11  23  36  53  82 121 161 195 237 301 371
#     4  11  23  38  61  81 109 147 192 249 296 349
#     4   9  17  29  51  79 118 163 203 236 284 352
#     4  10  21  37  55  85 125 160 192 239 302 367
#
# _framework density 19.205207999999999
#
# number of rings (size 3 to 8) (size 9 to 14) (size 15 to 20)
#    0.000    2.000    1.250    3.000    3.500    4.000 
#    0.000    0.000    0.000    0.000    0.000    0.000 
#    0.000   21.000    0.000    0.000    0.000    0.000 
#
# Total GULP energy -178276.776538 kJ/mol
# GULP energy per Si atom -5571.149267 kJ/mol
# Density = 1.916150 g / cm^3
# Si number density = 19.205208 Si / 1000 Ang^3
#
#
#
# Elastic Constant Matrix: (Units=GPa)
#
#
# Indices 1 2 3 4 5 6 
#
# 1 93.6080 40.2643 37.3220 0.0000 0.0000 0.0000
# 2 40.2643 52.5627 24.7912 0.0000 0.0000 0.0000
# 3 37.3220 24.7912 67.6034 0.0000 0.0000 0.0000
# 4 0.0000 0.0000 0.0000 19.2542 0.0000 0.0000
# 5 0.0000 0.0000 0.0000 0.0000 29.8163 0.0000
# 6 0.0000 0.0000 0.0000 0.0000 0.0000 7.1175
#
#
#
# Elastic Compliance Matrix: (Units=1/GPa)
#
#
# Indices 1 2 3 4 5 6 
#
# 1 0.017620 -0.010772 -0.005777 0.000000 0.000000 0.000000
# 2 -0.010772 0.029590 -0.004904 0.000000 0.000000 0.000000
# 3 -0.005777 -0.004904 0.019780 0.000000 0.000000 0.000000
# 4 0.000000 0.000000 0.000000 0.051937 0.000000 0.000000
# 5 0.000000 0.000000 0.000000 0.000000 0.033539 0.000000
# 6 0.000000 0.000000 0.000000 0.000000 0.000000 0.140499
#
#
# Mechanical properties :
#
#
# Convention : Reuss Voigt Hill
#
# Bulk Modulus (GPa) = 41.52347 46.50325 44.01336
# Shear Modulus (GPa) = 14.53920 18.66404 16.60162
#
# Velocity S-wave (km/s) = 2.75443 3.12079 2.94331
# Velocity P-wave (km/s) = 5.63771 6.10346 5.87520
#
# Compressibility (1/GPa) = 0.02408277
#
# Stress axis : x y z
#
# Youngs Moduli (GPa) = 56.75429 33.79543 50.55666
#
# Poissons Ratio (x) = 0.36406 0.29207
# Poissons Ratio (y) = 0.61138 0.24792
# Poissons Ratio (z) = 0.32787 0.16573
#
# Static dielectric constant tensor:
#      x y z
#    x 1.666460 0.000000 0.000000 
#    y 0.000000 1.686120 0.000000 
#    z 0.000000 0.000000 1.745930 
# 
# From -- ./inp_files/3525.got.cif
#   From: 2010.05.17/outbox.cif.g08.bks.cpg/sg39_2_cif.got.tgz:3525.got - 2010.06.03 18:22:40.
