data_PCOD9361268
_publ_section_title
;
Structure prediction by ZEFSAII (Michael W. Deem and Ramdas Pophale) SiO2 
 PCOD9361268
Probable space group: A B M 2
;
_chemical_formula_sum "Si O2"
_cell_formula_units_Z 60
_cell_length_a 19.384548
_cell_length_b 7.634881
_cell_length_c 18.772928
_cell_angle_alpha 90.000000
_cell_angle_beta 90.000000
_cell_angle_gamma 90.000000
_cell_volume 2778.369262
_symmetry_space_group_name_H-M "A B M 2"
_symmetry_group_IT_number 39
_symmetry_cell_setting 'orthorhombic'
loop_
_space_group_symop_operation_xyz
x,y,z
-x,-y,z
-x,1/2+y,z
x,1/2-y,z
x,1/2+y,1/2+z
-x,1/2-y,1/2+z
-x,y,1/2+z
x,-y,1/2+z
loop_
_atom_site_type_symbol
_atom_site_label
_atom_site_fract_x
_atom_site_fract_y
_atom_site_fract_z
Si Si1 0.333523 0.060708 0.878660
Si Si2 0.792542 0.536870 0.636731
Si Si3 0.638582 0.959075 0.665336
Si Si4 0.624086 0.250000 0.771018
Si Si5 0.921899 0.039842 0.228546
Si Si6 0.922069 0.041032 0.391908
Si Si7 0.420324 0.956358 0.010403
Si Si8 0.210371 0.548913 0.974893
O O1 0.336545 0.250000 0.842212
O O2 0.347383 0.903526 0.825563
O O3 0.260881 0.043065 0.919442
O O4 0.389410 0.051248 0.941991
O O5 0.795962 0.750000 0.634373
O O6 0.720112 0.494230 0.674333
O O7 0.860006 0.473851 0.678879
O O8 0.789827 0.475783 0.554953
O O9 0.628070 0.750000 0.676141
O O10 0.620186 0.995747 0.582950
O O11 0.599090 0.093227 0.715529
O O12 0.916155 0.250000 0.230818
O O13 0.914267 0.976559 0.310139
O O14 0.000000 0.000000 0.204314
O O15 0.911954 0.250000 0.392469
O O16 0.865970 0.958340 0.443174
O O17 0.000000 0.000000 0.414043
O O18 0.412730 0.750000 0.996728
O O19 0.500000 0.000000 0.020446
O O20 0.234808 0.750000 0.979655
#
# Coordination Sequence:
#
# PCOD9361268 Si02
#       8
#     8   8   8   4   8   8   8   8
#     4  12  25  44  70 104 141 182 235 289 344 412
#     4   9  19  37  62  89 125 164 210 276 334 397
#     4  10  23  44  70 102 139 179 229 284 344 414
#     4  12  26  44  68 106 144 180 228 290 354 408
#     4   9  19  36  55  79 113 158 208 264 329 399
#     4  10  21  37  56  83 118 166 221 275 341 412
#     4  11  23  45  78 108 139 187 238 277 338 422
#     4  11  21  38  62  93 129 169 216 282 341 407
#
# _framework density 21.595402
#
# number of rings (size 3 to 8) (size 9 to 14) (size 15 to 20)
#    0.000    1.600    2.667    1.600    3.733    1.067 
#    2.400    2.000    0.000    0.000    0.000    0.000 
#    0.000    0.000    0.000    0.000    0.000    0.000 
#
# Total GULP energy -167184.959546 kJ/mol
# GULP energy per Si atom -5572.831985 kJ/mol
# Density = 2.154625 g / cm^3
# Si number density = 21.595402 Si / 1000 Ang^3
#
#
#
# Elastic Constant Matrix: (Units=GPa)
#
#
# Indices 1 2 3 4 5 6 
#
# 1 79.0634 0.1432 10.4884 0.0000 0.0000 0.0000
# 2 0.1432 113.0343 24.2675 0.0000 0.0000 0.0000
# 3 10.4884 24.2675 60.6931 0.0000 0.0000 0.0000
# 4 0.0000 0.0000 0.0000 -64.9474 0.0000 0.0000
# 5 0.0000 0.0000 0.0000 0.0000 -66.1457 0.0000
# 6 0.0000 0.0000 0.0000 0.0000 0.0000 21.6391
#
#
#
# Elastic Compliance Matrix: (Units=1/GPa)
#
#
# Indices 1 2 3 4 5 6 
#
# 1 0.012971 0.000508 -0.002445 0.000000 0.000000 0.000000
# 2 0.000508 0.009698 -0.003965 0.000000 0.000000 0.000000
# 3 -0.002445 -0.003965 0.018484 0.000000 0.000000 0.000000
# 4 0.000000 0.000000 0.000000 -0.015397 0.000000 0.000000
# 5 0.000000 0.000000 0.000000 0.000000 -0.015118 0.000000
# 6 0.000000 0.000000 0.000000 0.000000 0.000000 0.046213
#
#
# Mechanical properties :
#
#
# Convention : Reuss Voigt Hill
#
# Bulk Modulus (GPa) = 34.07174 35.84321 34.95748
# Shear Modulus (GPa) = 63.74485 -7.36470 28.19008
#
# Velocity S-wave (km/s) = 5.43892 -1.84871 3.61692
# Velocity P-wave (km/s) = 7.43331 3.47515 5.80219
#
# Compressibility (1/GPa) = 0.02934984
#
# Stress axis : x y z
#
# Youngs Moduli (GPa) = 77.09216 103.11879 54.09983
#
# Poissons Ratio (x) = -0.05243 0.13227
# Poissons Ratio (y) = -0.03920 0.21452
# Poissons Ratio (z) = 0.18848 0.40890
#
# Static dielectric constant tensor:
#      x y z
#    x 1.785560 0.000000 0.000000 
#    y 0.000000 1.808470 0.000000 
#    z 0.000000 0.000000 1.767410 
# 
# From -- ./inp_files/12958.got.cif
#   From: 2010.05.17/outbox.cif.g08.bks.cpg/sg39_7_cif.got.tgz:12958.got - 2010.06.03 18:22:40.
