data_PCOD9361390
_publ_section_title
;
Structure prediction by ZEFSAII (Michael W. Deem and Ramdas Pophale) SiO2 
 PCOD9361390
Probable space group: A B M 2
;
_chemical_formula_sum "Si O2"
_cell_formula_units_Z 56
_cell_length_a 15.921260
_cell_length_b 8.002592
_cell_length_c 21.027431
_cell_angle_alpha 90.000000
_cell_angle_beta 90.000000
_cell_angle_gamma 90.000000
_cell_volume 2679.133327
_symmetry_space_group_name_H-M "A B M 2"
_symmetry_group_IT_number 39
_symmetry_cell_setting 'orthorhombic'
loop_
_space_group_symop_operation_xyz
x,y,z
-x,-y,z
-x,1/2+y,z
x,1/2-y,z
x,1/2+y,1/2+z
-x,1/2-y,1/2+z
-x,y,1/2+z
x,-y,1/2+z
loop_
_atom_site_type_symbol
_atom_site_label
_atom_site_fract_x
_atom_site_fract_y
_atom_site_fract_z
Si Si1 0.273100 0.454404 0.844110
Si Si2 0.090936 0.550744 0.660448
Si Si3 0.678558 0.450529 0.481151
Si Si4 0.407603 0.051894 0.603642
Si Si5 0.864860 0.953750 0.020836
Si Si6 0.911811 0.549717 0.882810
Si Si7 0.273657 0.048928 0.705020
O O1 0.274606 0.250000 0.844620
O O2 0.321177 0.510464 0.907984
O O3 0.175359 0.506417 0.851759
O O4 0.302458 0.510260 0.774850
O O5 0.093823 0.750000 0.659021
O O6 0.098544 0.485452 0.587385
O O7 0.175685 0.491756 0.694645
O O8 0.000000 0.500000 0.686683
O O9 0.679809 0.250000 0.478581
O O10 0.608013 0.501764 0.530619
O O11 0.767594 0.503538 0.512196
O O12 0.402409 0.250000 0.606475
O O13 0.333553 0.981808 0.648989
O O14 0.500000 0.000000 0.625071
O O15 0.867905 0.750000 0.021409
O O16 0.908761 0.012069 0.956076
O O17 0.908449 0.750000 0.884000
O O18 0.000000 0.500000 0.852739
O O19 0.279708 0.250000 0.704453
#
# Coordination Sequence:
#
# PCOD9361390 Si02
#       7
#     8   8   8   8   8   8   8
#     4   8  17  34  57  78 106 148 185 225 280 333
#     4  11  21  33  51  78 113 154 197 239 285 333
#     4   9  16  34  61  84 108 141 182 228 282 337
#     4  11  23  38  61  89 116 145 183 231 284 343
#     4   8  15  28  48  73 103 139 179 225 279 327
#     4   9  16  28  46  70 100 138 183 228 272 320
#     4  10  21  39  58  82 115 152 193 233 279 337
#
# _framework density 20.902280999999999
#
# number of rings (size 3 to 8) (size 9 to 14) (size 15 to 20)
#    0.000    2.571    1.429    3.000    0.000    1.143 
#    0.000    7.143    0.000    1.714    0.000    0.000 
#    0.000    0.000    0.000    0.000    0.000    0.000 
#
# Total GULP energy -156169.156397 kJ/mol
# GULP energy per Si atom -5577.469871 kJ/mol
# Density = 2.085471 g / cm^3
# Si number density = 20.902281 Si / 1000 Ang^3
#
#
#
# Elastic Constant Matrix: (Units=GPa)
#
#
# Indices 1 2 3 4 5 6 
#
# 1 86.2185 2.1224 46.4141 0.0000 0.0000 0.0000
# 2 2.1224 13.7347 12.8381 0.0000 0.0000 0.0000
# 3 46.4141 12.8381 137.8998 0.0000 0.0000 0.0000
# 4 0.0000 0.0000 0.0000 10.7913 0.0000 0.0000
# 5 0.0000 0.0000 0.0000 0.0000 -0.3407 0.0000
# 6 0.0000 0.0000 0.0000 0.0000 0.0000 23.9491
#
#
#
# Elastic Compliance Matrix: (Units=1/GPa)
#
#
# Indices 1 2 3 4 5 6 
#
# 1 0.014243 0.002497 -0.005026 0.000000 0.000000 0.000000
# 2 0.002497 0.080186 -0.008306 0.000000 0.000000 0.000000
# 3 -0.005026 -0.008306 0.009717 0.000000 0.000000 0.000000
# 4 0.000000 0.000000 0.000000 0.092667 0.000000 0.000000
# 5 0.000000 0.000000 0.000000 0.000000 -2.935536 0.000000
# 6 0.000000 0.000000 0.000000 0.000000 0.000000 0.041755
#
#
# Mechanical properties :
#
#
# Convention : Reuss Voigt Hill
#
# Bulk Modulus (GPa) = 12.12476 40.06691 26.09583
# Shear Modulus (GPa) = -1.88836 18.64519 8.37842
#
# Velocity S-wave (km/s) = -0.95152 2.98991 2.00426
# Velocity P-wave (km/s) = 2.14618 5.57940 4.22704
#
# Compressibility (1/GPa) = 0.08247586
#
# Stress axis : x y z
#
# Youngs Moduli (GPa) = 70.21100 12.47105 102.91650
#
# Poissons Ratio (x) = -0.03114 0.51729
# Poissons Ratio (y) = -0.17534 0.85478
# Poissons Ratio (z) = 0.35290 0.10358
#
# Static dielectric constant tensor:
#      x y z
#    x 1.753990 0.000000 0.000000 
#    y 0.000000 1.740440 0.000000 
#    z 0.000000 0.000000 1.792530 
# 
# From -- ./inp_files/14759.got.cif
#   From: 2010.05.17/outbox.cif.g08.bks.cpg/sg39_8_cif.got.tgz:14759.got - 2010.06.03 18:22:40.
