data_PCOD9361343
_publ_section_title
;
Structure prediction by ZEFSAII (Michael W. Deem and Ramdas Pophale) SiO2 
 PCOD9361343
Probable space group: A B M 2
;
_chemical_formula_sum "Si O2"
_cell_formula_units_Z 60
_cell_length_a 12.615362
_cell_length_b 26.467542
_cell_length_c 8.233053
_cell_angle_alpha 90.000000
_cell_angle_beta 90.000000
_cell_angle_gamma 90.000000
_cell_volume 2748.996832
_symmetry_space_group_name_H-M "A B M 2"
_symmetry_group_IT_number 39
_symmetry_cell_setting 'orthorhombic'
loop_
_space_group_symop_operation_xyz
x,y,z
-x,-y,z
-x,1/2+y,z
x,1/2-y,z
x,1/2+y,1/2+z
-x,1/2-y,1/2+z
-x,y,1/2+z
x,-y,1/2+z
loop_
_atom_site_type_symbol
_atom_site_label
_atom_site_fract_x
_atom_site_fract_y
_atom_site_fract_z
Si Si1 0.264735 0.250000 0.535560
Si Si2 0.844746 0.052311 0.630497
Si Si3 0.937756 0.649733 0.037711
Si Si4 0.848426 0.838877 0.677843
Si Si5 0.444098 0.946577 0.903759
Si Si6 0.264766 0.195368 0.198366
Si Si7 0.370967 0.598500 0.571744
Si Si8 0.209648 0.443683 0.513395
O O1 0.237578 0.204799 0.664914
O O2 0.277424 0.206603 0.388913
O O3 0.939763 0.089546 0.578378
O O4 0.743397 0.074628 0.529373
O O5 0.845536 0.993279 0.589410
O O6 0.825204 0.059955 0.823456
O O7 0.851433 0.673631 0.159479
O O8 0.050732 0.675328 0.064577
O O9 0.894970 0.656913 0.857754
O O10 0.812717 0.893111 0.612533
O O11 0.533555 0.905606 0.947395
O O12 0.337738 0.948413 0.010338
O O13 0.500000 0.000000 0.915126
O O14 0.408070 0.935189 0.722597
O O15 0.723694 0.250000 0.616438
O O16 0.346571 0.154549 0.132562
#
# Coordination Sequence:
#
# PCOD9361343 Si02
#       8
#     4   8   8   8   8   8   8   8
#     4  10  22  40  66  86 124 158 210 260 318 362
#     4  10  21  40  61  89 134 169 206 258 321 368
#     4  11  24  41  65  96 127 167 211 260 319 381
#     4  12  25  40  64  96 127 165 218 261 317 380
#     4  11  21  34  62  94 126 164 209 258 310 380
#     4   9  22  44  67  85 126 167 206 265 323 375
#     4  10  21  38  60  93 127 163 209 260 317 372
#     4  11  23  39  62  94 131 172 212 265 310 380
#
# _framework density 21.826142999999998
#
# number of rings (size 3 to 8) (size 9 to 14) (size 15 to 20)
#    0.400    1.067    1.333    5.200    3.733    2.667 
#    0.000    3.333    1.467    0.000    0.000    0.000 
#    0.000    0.000    0.000    0.000    0.000    0.000 
#
# Total GULP energy -167124.100351 kJ/mol
# GULP energy per Si atom -5570.803345 kJ/mol
# Density = 2.177647 g / cm^3
# Si number density = 21.826143 Si / 1000 Ang^3
#
#
#
# Elastic Constant Matrix: (Units=GPa)
#
#
# Indices 1 2 3 4 5 6 
#
# 1 32.7050 -8.1902 -6.1847 0.0000 0.0000 0.0000
# 2 -8.1902 114.3154 8.1175 0.0000 0.0000 0.0000
# 3 -6.1847 8.1175 40.5125 0.0000 0.0000 0.0000
# 4 0.0000 0.0000 0.0000 42.0039 0.0000 0.0000
# 5 0.0000 0.0000 0.0000 0.0000 24.6730 0.0000
# 6 0.0000 0.0000 0.0000 0.0000 0.0000 0.3439
#
#
#
# Elastic Compliance Matrix: (Units=1/GPa)
#
#
# Indices 1 2 3 4 5 6 
#
# 1 0.031916 0.001969 0.004478 0.000000 0.000000 0.000000
# 2 0.001969 0.008995 -0.001502 0.000000 0.000000 0.000000
# 3 0.004478 -0.001502 0.025668 0.000000 0.000000 0.000000
# 4 0.000000 0.000000 0.000000 0.023807 0.000000 0.000000
# 5 0.000000 0.000000 0.000000 0.000000 0.040530 0.000000
# 6 0.000000 0.000000 0.000000 0.000000 0.000000 2.907958
#
#
# Mechanical properties :
#
#
# Convention : Reuss Voigt Hill
#
# Bulk Modulus (GPa) = 13.07715 19.44646 16.26180
# Shear Modulus (GPa) = 1.63694 26.32351 13.98023
#
# Velocity S-wave (km/s) = 0.86696 3.47660 2.53361
# Velocity P-wave (km/s) = 2.64701 5.00447 4.00321
#
# Compressibility (1/GPa) = 0.07646928
#
# Stress axis : x y z
#
# Youngs Moduli (GPa) = 31.33208 111.16766 38.95863
#
# Poissons Ratio (x) = -0.21885 -0.17445
# Poissons Ratio (y) = -0.06168 0.05851
# Poissons Ratio (z) = -0.14030 0.16696
#
# Static dielectric constant tensor:
#      x y z
#    x 1.856780 0.000000 0.000000 
#    y 0.000000 1.805580 0.000000 
#    z 0.000000 0.000000 1.808920 
# 
# From -- ./inp_files/2837.got.cif
#   From: 2010.05.17/outbox.cif.g08.bks.cpg/sg39_2_cif.got.tgz:2837.got - 2010.06.03 18:22:40.
