data_PCOD9361999
_publ_section_title
;
Structure prediction by ZEFSAII (Michael W. Deem and Ramdas Pophale) SiO2 
 PCOD9361999
Probable space group: A B M 2
;
_chemical_formula_sum "Si O2"
_cell_formula_units_Z 48
_cell_length_a 16.334030
_cell_length_b 30.147919
_cell_length_c 5.017761
_cell_angle_alpha 90.000000
_cell_angle_beta 90.000000
_cell_angle_gamma 90.000000
_cell_volume 2470.931241
_symmetry_space_group_name_H-M "A B M 2"
_symmetry_group_IT_number 39
_symmetry_cell_setting 'orthorhombic'
loop_
_space_group_symop_operation_xyz
x,y,z
-x,-y,z
-x,1/2+y,z
x,1/2-y,z
x,1/2+y,1/2+z
-x,1/2-y,1/2+z
-x,y,1/2+z
x,-y,1/2+z
loop_
_atom_site_type_symbol
_atom_site_label
_atom_site_fract_x
_atom_site_fract_y
_atom_site_fract_z
Si Si1 0.554989 0.340391 0.204060
Si Si2 0.779726 0.526398 0.964855
Si Si3 0.809772 0.652307 0.177339
Si Si4 0.718846 0.383823 0.201039
Si Si5 0.940724 0.920719 0.019169
Si Si6 0.226067 0.250000 0.154524
Si Si7 0.656466 0.750000 0.650813
O O1 0.519614 0.344284 0.499459
O O2 0.624558 0.376260 0.135195
O O3 0.599794 0.293102 0.175428
O O4 0.760152 0.485564 0.768987
O O5 0.737400 0.568286 0.825703
O O6 0.875396 0.539807 0.979927
O O7 0.775533 0.629899 0.449253
O O8 0.885028 0.623319 0.064097
O O9 0.824037 0.704685 0.205707
O O10 0.740870 0.648176 0.948835
O O11 0.999867 0.922157 0.269715
O O12 0.300112 0.250000 0.365202
O O13 0.270213 0.250000 0.867172
#
# Coordination Sequence:
#
# PCOD9361999 Si02
#       7
#     8   8   8   8   8   4   4
#     4  12  23  37  58  89 128 163 199 256 320 368
#     4  11  23  40  65  92 115 153 199 248 304 371
#     4  11  21  39  61  85 119 170 212 246 296 362
#     4  11  22  41  61  85 123 162 208 251 304 376
#     4  11  23  39  60  90 126 154 187 247 311 365
#     4  12  20  37  62  85 118 166 220 256 284 353
#     4  12  22  37  56  91 126 158 206 268 304 359
#
# _framework density 19.425874
#
# number of rings (size 3 to 8) (size 9 to 14) (size 15 to 20)
#    0.000    0.667    3.333    7.500    0.000    2.000 
#    0.000    0.833    0.000    3.000    0.000    0.000 
#    0.000    0.000    0.000    0.000    0.000    0.000 
#
# Total GULP energy -134024.257589 kJ/mol
# GULP energy per Si atom -5584.344066 kJ/mol
# Density = 1.938166 g / cm^3
# Si number density = 19.425874 Si / 1000 Ang^3
#
#
#
# Elastic Constant Matrix: (Units=GPa)
#
#
# Indices 1 2 3 4 5 6 
#
# 1 36.1950 3.2289 9.1252 0.0000 0.0000 0.0000
# 2 3.2289 75.8645 21.0242 0.0000 0.0000 0.0000
# 3 9.1252 21.0242 93.3647 0.0000 0.0000 0.0000
# 4 0.0000 0.0000 0.0000 19.6680 0.0000 0.0000
# 5 0.0000 0.0000 0.0000 0.0000 28.9604 0.0000
# 6 0.0000 0.0000 0.0000 0.0000 0.0000 64.4812
#
#
#
# Elastic Compliance Matrix: (Units=1/GPa)
#
#
# Indices 1 2 3 4 5 6 
#
# 1 0.028342 -0.000468 -0.002665 0.000000 0.000000 0.000000
# 2 -0.000468 0.014066 -0.003122 0.000000 0.000000 0.000000
# 3 -0.002665 -0.003122 0.011674 0.000000 0.000000 0.000000
# 4 0.000000 0.000000 0.000000 0.050844 0.000000 0.000000
# 5 0.000000 0.000000 0.000000 0.000000 0.034530 0.000000
# 6 0.000000 0.000000 0.000000 0.000000 0.000000 0.015508
#
#
# Mechanical properties :
#
#
# Convention : Reuss Voigt Hill
#
# Bulk Modulus (GPa) = 24.05370 30.24229 27.14799
# Shear Modulus (GPa) = 27.57390 34.09166 30.83278
#
# Velocity S-wave (km/s) = 3.77164 4.19377 3.98829
# Velocity P-wave (km/s) = 5.60144 6.24917 5.93415
#
# Compressibility (1/GPa) = 0.04157364
#
# Stress axis : x y z
#
# Youngs Moduli (GPa) = 35.28374 71.09116 85.65969
#
# Poissons Ratio (x) = 0.03326 0.22826
# Poissons Ratio (y) = 0.01651 0.26741
# Poissons Ratio (z) = 0.09402 0.22193
#
# Static dielectric constant tensor:
#      x y z
#    x 1.674460 0.000000 0.000000 
#    y 0.000000 1.737570 0.000000 
#    z 0.000000 0.000000 1.660400 
# 
# From -- ./inp_files/609.got.cif
#   From: 2010.05.17/outbox.cif.g08.bks.cpg/sg39_1_cif.got.tgz:609.got - 2010.06.03 18:22:40.
