data_PCOD9361625
_publ_section_title
;
Structure prediction by ZEFSAII (Michael W. Deem and Ramdas Pophale) SiO2 
 PCOD9361625
Probable space group: A B M 2
;
_chemical_formula_sum "Si O2"
_cell_formula_units_Z 40
_cell_length_a 10.422478
_cell_length_b 22.617354
_cell_length_c 8.658776
_cell_angle_alpha 90.000000
_cell_angle_beta 90.000000
_cell_angle_gamma 90.000000
_cell_volume 2041.123521
_symmetry_space_group_name_H-M "A B M 2"
_symmetry_group_IT_number 39
_symmetry_cell_setting 'orthorhombic'
loop_
_space_group_symop_operation_xyz
x,y,z
-x,-y,z
-x,1/2+y,z
x,1/2-y,z
x,1/2+y,1/2+z
-x,1/2-y,1/2+z
-x,y,1/2+z
x,-y,1/2+z
loop_
_atom_site_type_symbol
_atom_site_label
_atom_site_fract_x
_atom_site_fract_y
_atom_site_fract_z
Si Si1 0.193508 0.683110 0.869280
Si Si2 0.639434 0.959706 0.718657
Si Si3 0.081350 0.444259 0.836558
Si Si4 0.587841 0.582870 0.372596
Si Si5 0.963096 0.360154 0.592894
O O1 0.237295 0.750000 0.900552
O O2 0.312717 0.637083 0.857378
O O3 0.116777 0.682126 0.705543
O O4 0.090496 0.664659 0.004708
O O5 0.789111 0.959084 0.751845
O O6 0.608923 0.942158 0.543877
O O7 0.563590 0.913234 0.830927
O O8 0.613012 0.028572 0.755547
O O9 0.995278 0.412812 0.709682
O O10 0.000000 0.500000 0.899116
O O11 0.113698 0.393635 0.960037
#
# Coordination Sequence:
#
# PCOD9361625 Si02
#       5
#     8   8   8   8   8
#     4  11  23  43  65  91 129 173 225 265 318 390
#     4  11  23  40  63  94 130 164 209 262 335 396
#     4  11  22  35  63  96 129 158 207 269 326 388
#     4  11  24  40  65  93 124 177 208 263 328 396
#     4  10  22  38  60  92 125 166 209 268 331 369
#
# _framework density 19.597049999999999
#
# number of rings (size 3 to 8) (size 9 to 14) (size 15 to 20)
#    0.000    1.200    2.000    6.000    8.400    0.000 
#    0.000    1.000    0.000    0.000    0.000    0.000 
#    0.000    0.000    0.000    0.000    0.000    0.000 
#
# Total GULP energy -111352.558048 kJ/mol
# GULP energy per Si atom -5567.627902 kJ/mol
# Density = 1.955245 g / cm^3
# Si number density = 19.597050 Si / 1000 Ang^3
#
#
#
# Elastic Constant Matrix: (Units=GPa)
#
#
# Indices 1 2 3 4 5 6 
#
# 1 62.6691 42.3140 14.5745 0.0000 0.0000 0.0000
# 2 42.3140 124.8020 34.3800 0.0000 0.0000 0.0000
# 3 14.5745 34.3800 77.0430 0.0000 0.0000 0.0000
# 4 0.0000 0.0000 0.0000 82.4054 0.0000 0.0000
# 5 0.0000 0.0000 0.0000 0.0000 14.3485 0.0000
# 6 0.0000 0.0000 0.0000 0.0000 0.0000 24.4011
#
#
#
# Elastic Compliance Matrix: (Units=1/GPa)
#
#
# Indices 1 2 3 4 5 6 
#
# 1 0.020748 -0.006788 -0.000896 0.000000 0.000000 0.000000
# 2 -0.006788 0.011356 -0.003784 0.000000 0.000000 0.000000
# 3 -0.000896 -0.003784 0.014838 0.000000 0.000000 0.000000
# 4 0.000000 0.000000 0.000000 0.012135 0.000000 0.000000
# 5 0.000000 0.000000 0.000000 0.000000 0.069694 0.000000
# 6 0.000000 0.000000 0.000000 0.000000 0.000000 0.040982
#
#
# Mechanical properties :
#
#
# Convention : Reuss Voigt Hill
#
# Bulk Modulus (GPa) = 41.65375 49.67232 45.66304
# Shear Modulus (GPa) = 24.91398 35.78071 30.34734
#
# Velocity S-wave (km/s) = 3.56942 4.27760 3.93945
# Velocity P-wave (km/s) = 6.18780 7.05684 6.63656
#
# Compressibility (1/GPa) = 0.02400744
#
# Stress axis : x y z
#
# Youngs Moduli (GPa) = 48.19662 88.05592 67.39593
#
# Poissons Ratio (x) = 0.59771 0.06039
# Poissons Ratio (y) = 0.32715 0.25500
# Poissons Ratio (z) = 0.04318 0.33317
#
# Static dielectric constant tensor:
#      x y z
#    x 2.691660 0.000000 0.000000 
#    y 0.000000 1.216340 0.000000 
#    z 0.000000 0.000000 1.725000 
# 
# From -- ./inp_files/2628.got.cif
#   From: 2010.05.17/outbox.cif.g08.bks.cpg/sg39_2_cif.got.tgz:2628.got - 2010.06.03 18:22:40.
