data_PCOD9361271
_publ_section_title
;
Structure prediction by ZEFSAII (Michael W. Deem and Ramdas Pophale) SiO2 
 PCOD9361271
Probable space group: A B M 2
;
_chemical_formula_sum "Si O2"
_cell_formula_units_Z 60
_cell_length_a 24.063014
_cell_length_b 24.459499
_cell_length_c 4.981208
_cell_angle_alpha 90.000000
_cell_angle_beta 90.000000
_cell_angle_gamma 90.000000
_cell_volume 2931.785941
_symmetry_space_group_name_H-M "A B M 2"
_symmetry_group_IT_number 39
_symmetry_cell_setting 'orthorhombic'
loop_
_space_group_symop_operation_xyz
x,y,z
-x,-y,z
-x,1/2+y,z
x,1/2-y,z
x,1/2+y,1/2+z
-x,1/2-y,1/2+z
-x,y,1/2+z
x,-y,1/2+z
loop_
_atom_site_type_symbol
_atom_site_label
_atom_site_fract_x
_atom_site_fract_y
_atom_site_fract_z
Si Si1 0.351887 0.635506 0.372150
Si Si2 0.462219 0.813073 0.187468
Si Si3 0.147975 0.037566 0.834975
Si Si4 0.275865 0.964798 0.247142
Si Si5 0.964758 0.750000 0.804448
Si Si6 0.118572 0.847566 0.178908
Si Si7 0.696301 0.814119 0.368242
Si Si8 0.817849 0.185211 0.680352
O O1 0.413924 0.645466 0.267906
O O2 0.323675 0.577048 0.328234
O O3 0.346546 0.654041 0.678948
O O4 0.314603 0.674158 0.178712
O O5 0.441369 0.750000 0.218314
O O6 0.513878 0.819177 0.390166
O O7 0.212844 0.055628 0.800366
O O8 0.110616 0.089760 0.765220
O O9 0.140065 0.987826 0.627250
O O10 0.280490 0.017862 0.438054
O O11 0.930240 0.695533 0.733651
O O12 0.018917 0.750000 0.615801
O O13 0.168142 0.825881 0.372207
O O14 0.137781 0.844174 0.871622
O O15 0.691080 0.750000 0.316389
O O16 0.757009 0.832801 0.272155
O O17 0.822419 0.250000 0.730554
#
# Coordination Sequence:
#
# PCOD9361271 Si02
#       8
#     8   8   8   8   4   8   8   8
#     4  12  22  37  57  81 115 158 198 240 306 353
#     4  10  21  37  57  79 107 148 201 252 299 360
#     4  10  21  37  60  91 121 160 205 242 293 368
#     4  10  21  37  57  84 117 154 197 240 289 359
#     4  12  26  44  66  94 124 164 218 262 308 352
#     4  12  22  40  64  86 126 164 205 253 303 354
#     4  11  22  32  52  86 124 151 182 230 291 377
#     4  11  20  34  54  88 122 159 194 230 300 375
#
# _framework density 20.465343000000001
#
# number of rings (size 3 to 8) (size 9 to 14) (size 15 to 20)
#    0.000    1.067    1.333    6.800    0.000    5.333 
#    0.000    0.000    0.000    4.800    0.000    0.000 
#    0.000    0.000    0.000    0.000    0.000    0.000 
#
# Total GULP energy -167760.750331 kJ/mol
# GULP energy per Si atom -5592.025011 kJ/mol
# Density = 2.041876 g / cm^3
# Si number density = 20.465343 Si / 1000 Ang^3
#
#
#
# Elastic Constant Matrix: (Units=GPa)
#
#
# Indices 1 2 3 4 5 6 
#
# 1 44.4537 24.7046 -7.7827 0.0000 0.0000 0.0000
# 2 24.7046 74.5628 -7.7966 0.0000 0.0000 0.0000
# 3 -7.7827 -7.7966 56.4019 0.0000 0.0000 0.0000
# 4 0.0000 0.0000 0.0000 18.9244 0.0000 0.0000
# 5 0.0000 0.0000 0.0000 0.0000 25.4485 0.0000
# 6 0.0000 0.0000 0.0000 0.0000 0.0000 21.3450
#
#
#
# Elastic Compliance Matrix: (Units=1/GPa)
#
#
# Indices 1 2 3 4 5 6 
#
# 1 0.027947 -0.008986 0.002614 0.000000 0.000000 0.000000
# 2 -0.008986 0.016498 0.001041 0.000000 0.000000 0.000000
# 3 0.002614 0.001041 0.018234 0.000000 0.000000 0.000000
# 4 0.000000 0.000000 0.000000 0.052842 0.000000 0.000000
# 5 0.000000 0.000000 0.000000 0.000000 0.039295 0.000000
# 6 0.000000 0.000000 0.000000 0.000000 0.000000 0.046849
#
#
# Mechanical properties :
#
#
# Convention : Reuss Voigt Hill
#
# Bulk Modulus (GPa) = 19.22486 21.51877 20.37182
# Shear Modulus (GPa) = 21.77065 24.22979 23.00022
#
# Velocity S-wave (km/s) = 3.26510 3.44458 3.35604
# Velocity P-wave (km/s) = 4.86095 5.13398 4.99933
#
# Compressibility (1/GPa) = 0.05201598
#
# Stress axis : x y z
#
# Youngs Moduli (GPa) = 35.78212 60.61461 54.84129
#
# Poissons Ratio (x) = 0.54469 -0.14336
# Poissons Ratio (y) = 0.32154 -0.05707
# Poissons Ratio (z) = -0.09354 -0.06307
#
# Static dielectric constant tensor:
#      x y z
#    x 1.732260 0.000000 0.000000 
#    y 0.000000 1.729920 0.000000 
#    z 0.000000 0.000000 1.696500 
# 
# From -- ./inp_files/1124.got.cif
#   From: 2010.05.17/outbox.cif.g08.bks.cpg/sg39_1_cif.got.tgz:1124.got - 2010.06.03 18:22:40.
