data_PCOD9361875
_publ_section_title
;
Structure prediction by ZEFSAII (Michael W. Deem and Ramdas Pophale) SiO2 
 PCOD9361875
Probable space group: A B M 2
;
_chemical_formula_sum "Si O2"
_cell_formula_units_Z 56
_cell_length_a 13.781473
_cell_length_b 20.954308
_cell_length_c 9.314386
_cell_angle_alpha 90.000000
_cell_angle_beta 90.000000
_cell_angle_gamma 90.000000
_cell_volume 2689.819845
_symmetry_space_group_name_H-M "A B M 2"
_symmetry_group_IT_number 39
_symmetry_cell_setting 'orthorhombic'
loop_
_space_group_symop_operation_xyz
x,y,z
-x,-y,z
-x,1/2+y,z
x,1/2-y,z
x,1/2+y,1/2+z
-x,1/2-y,1/2+z
-x,y,1/2+z
x,-y,1/2+z
loop_
_atom_site_type_symbol
_atom_site_label
_atom_site_fract_x
_atom_site_fract_y
_atom_site_fract_z
Si Si1 0.370525 0.441812 0.418420
Si Si2 0.886035 0.454302 0.216761
Si Si3 0.766344 0.677237 0.383528
Si Si4 0.069172 0.578934 0.888907
Si Si5 0.692228 0.078030 0.350194
Si Si6 0.499955 0.404398 0.170297
Si Si7 0.665268 0.819415 0.078035
O O1 0.305436 0.378606 0.442369
O O2 0.317048 0.508953 0.426103
O O3 0.416921 0.441067 0.258970
O O4 0.458539 0.436414 0.528614
O O5 0.884962 0.526885 0.277866
O O6 0.779062 0.426882 0.237652
O O7 0.960276 0.418796 0.326266
O O8 0.921161 0.447034 0.052496
O O9 0.761690 0.750000 0.443892
O O10 0.872179 0.644996 0.387070
O O11 0.729460 0.682314 0.220505
O O12 0.592692 0.099127 0.273401
O O13 0.709681 0.129186 0.472392
O O14 0.443521 0.340625 0.123844
O O15 0.662100 0.750000 0.009946
#
# Coordination Sequence:
#
# PCOD9361875 Si02
#       7
#     8   8   8   8   8   8   8
#     4  11  24  39  65  97 136 171 226 279 338 398
#     4  11  25  41  72 107 136 175 225 286 346 402
#     4  10  23  44  70  96 134 181 223 275 347 413
#     4  11  23  45  70 105 139 176 222 283 350 409
#     4  12  25  38  70 100 137 173 235 285 335 403
#     4  11  24  40  61  97 132 177 223 274 337 396
#     4  10  25  44  65  97 139 186 225 280 348 411
#
# _framework density 20.819237999999999
#
# number of rings (size 3 to 8) (size 9 to 14) (size 15 to 20)
#    0.000    1.143    2.857    3.000   10.000    1.143 
#    0.000    3.571    0.000    0.000    0.000    0.000 
#    0.000    0.000    0.000    0.000    0.000    0.000 
#
# Total GULP energy -156347.004999 kJ/mol
# GULP energy per Si atom -5583.821607 kJ/mol
# Density = 2.077185 g / cm^3
# Si number density = 20.819238 Si / 1000 Ang^3
#
#
#
# Elastic Constant Matrix: (Units=GPa)
#
#
# Indices 1 2 3 4 5 6 
#
# 1 57.7908 31.5631 8.3582 0.0000 0.0000 0.0000
# 2 31.5631 155.1068 42.3701 0.0000 0.0000 0.0000
# 3 8.3582 42.3701 101.2079 0.0000 0.0000 0.0000
# 4 0.0000 0.0000 0.0000 20.4294 0.0000 0.0000
# 5 0.0000 0.0000 0.0000 0.0000 26.9572 0.0000
# 6 0.0000 0.0000 0.0000 0.0000 0.0000 16.6588
#
#
#
# Elastic Compliance Matrix: (Units=1/GPa)
#
#
# Indices 1 2 3 4 5 6 
#
# 1 0.019468 -0.003977 0.000057 0.000000 0.000000 0.000000
# 2 -0.003977 0.008092 -0.003059 0.000000 0.000000 0.000000
# 3 0.000057 -0.003059 0.011157 0.000000 0.000000 0.000000
# 4 0.000000 0.000000 0.000000 0.048949 0.000000 0.000000
# 5 0.000000 0.000000 0.000000 0.000000 0.037096 0.000000
# 6 0.000000 0.000000 0.000000 0.000000 0.000000 0.060028
#
#
# Mechanical properties :
#
#
# Convention : Reuss Voigt Hill
#
# Bulk Modulus (GPa) = 40.39067 53.18758 46.78912
# Shear Modulus (GPa) = 24.15449 28.26335 26.20892
#
# Velocity S-wave (km/s) = 3.40987 3.68850 3.55192
# Velocity P-wave (km/s) = 5.91149 6.61384 6.27250
#
# Compressibility (1/GPa) = 0.02475819
#
# Stress axis : x y z
#
# Youngs Moduli (GPa) = 51.36718 123.57583 89.63239
#
# Poissons Ratio (x) = 0.49148 -0.00514
# Poissons Ratio (y) = 0.20430 0.27421
# Poissons Ratio (z) = -0.00294 0.37806
#
# Static dielectric constant tensor:
#      x y z
#    x 1.786320 0.000000 0.000000 
#    y 0.000000 1.779630 0.000000 
#    z 0.000000 0.000000 1.776520 
# 
# From -- ./inp_files/3416.got.cif
#   From: 2010.05.17/outbox.cif.g08.bks.cpg/sg39_2_cif.got.tgz:3416.got - 2010.06.03 18:22:40.
