data_PCOD9361156
_publ_section_title
;
Structure prediction by ZEFSAII (Michael W. Deem and Ramdas Pophale) SiO2 
 PCOD9361156
Probable space group: A B M 2
;
_chemical_formula_sum "Si O2"
_cell_formula_units_Z 56
_cell_length_a 22.429240
_cell_length_b 14.279958
_cell_length_c 7.166551
_cell_angle_alpha 90.000000
_cell_angle_beta 90.000000
_cell_angle_gamma 90.000000
_cell_volume 2295.364624
_symmetry_space_group_name_H-M "A B M 2"
_symmetry_group_IT_number 39
_symmetry_cell_setting 'orthorhombic'
loop_
_space_group_symop_operation_xyz
x,y,z
-x,-y,z
-x,1/2+y,z
x,1/2-y,z
x,1/2+y,1/2+z
-x,1/2-y,1/2+z
-x,y,1/2+z
x,-y,1/2+z
loop_
_atom_site_type_symbol
_atom_site_label
_atom_site_fract_x
_atom_site_fract_y
_atom_site_fract_z
Si Si1 0.654526 0.951074 0.087320
Si Si2 0.073914 0.595848 0.411843
Si Si3 0.282803 0.864315 0.924131
Si Si4 0.582242 0.359522 0.271555
Si Si5 0.446195 0.138976 0.336481
Si Si6 0.160023 0.850194 0.108359
Si Si7 0.943726 0.380498 0.832686
O O1 0.593276 0.928372 0.205871
O O2 0.576888 0.132605 0.047881
O O3 0.633950 0.909759 0.887950
O O4 0.682913 0.052732 0.039562
O O5 0.133247 0.601371 0.289705
O O6 0.079978 0.628019 0.623468
O O7 0.058622 0.487190 0.402073
O O8 0.013717 0.645363 0.334603
O O9 0.295740 0.750000 0.951820
O O10 0.298738 0.890484 0.710092
O O11 0.214743 0.883782 0.983842
O O12 0.589659 0.250000 0.312812
O O13 0.515689 0.386226 0.338653
O O14 0.441391 0.250000 0.278149
O O15 0.180881 0.750000 0.180652
O O16 0.102861 0.839445 0.976090
#
# Coordination Sequence:
#
# PCOD9361156 Si02
#       7
#     8   8   8   8   8   8   8
#     4  12  26  50  84 110 152 219 260 311 398 465
#     4  11  20  38  69 106 145 193 245 308 390 467
#     4  11  30  56  77 112 160 212 277 330 375 462
#     4  10  20  40  79 129 171 203 249 324 401 476
#     4  10  20  40  78 128 169 200 252 323 396 479
#     4  11  26  47  69 103 150 193 248 323 383 451
#     4  11  20  38  69 106 145 191 243 311 386 466
#
# _framework density 24.396996999999999
#
# number of rings (size 3 to 8) (size 9 to 14) (size 15 to 20)
#    0.000    1.143    4.286    2.143    4.000    1.143 
#    0.000    3.571    0.000    2.571    0.000    0.000 
#    0.000    0.000    0.000    0.000    0.000    0.000 
#
# Total GULP energy -156244.799743 kJ/mol
# GULP energy per Si atom -5580.171419 kJ/mol
# Density = 2.434147 g / cm^3
# Si number density = 24.396997 Si / 1000 Ang^3
#
#
#
# Elastic Constant Matrix: (Units=GPa)
#
#
# Indices 1 2 3 4 5 6 
#
# 1 67.2367 36.7153 -2.6628 0.0000 0.0000 0.0000
# 2 36.7153 142.7129 34.9760 0.0000 0.0000 0.0000
# 3 -2.6628 34.9760 118.5741 0.0000 0.0000 0.0000
# 4 0.0000 0.0000 0.0000 79.5595 0.0000 0.0000
# 5 0.0000 0.0000 0.0000 0.0000 14.3397 0.0000
# 6 0.0000 0.0000 0.0000 0.0000 0.0000 67.9770
#
#
#
# Elastic Compliance Matrix: (Units=1/GPa)
#
#
# Indices 1 2 3 4 5 6 
#
# 1 0.017682 -0.005008 0.001874 0.000000 0.000000 0.000000
# 2 -0.005008 0.008972 -0.002759 0.000000 0.000000 0.000000
# 3 0.001874 -0.002759 0.009289 0.000000 0.000000 0.000000
# 4 0.000000 0.000000 0.000000 0.012569 0.000000 0.000000
# 5 0.000000 0.000000 0.000000 0.000000 0.069737 0.000000
# 6 0.000000 0.000000 0.000000 0.000000 0.000000 0.014711
#
#
# Mechanical properties :
#
#
# Convention : Reuss Voigt Hill
#
# Bulk Modulus (GPa) = 41.39516 51.84231 46.61874
# Shear Modulus (GPa) = 32.72298 49.67493 41.19895
#
# Velocity S-wave (km/s) = 3.66631 4.51722 4.11382
# Velocity P-wave (km/s) = 5.90987 6.96438 6.45869
#
# Compressibility (1/GPa) = 0.02415741
#
# Stress axis : x y z
#
# Youngs Moduli (GPa) = 56.55496 111.46160 107.64930
#
# Poissons Ratio (x) = 0.55824 -0.20178
# Poissons Ratio (y) = 0.28325 0.29699
# Poissons Ratio (z) = -0.10601 0.30751
#
# Static dielectric constant tensor:
#      x y z
#    x 2.024740 0.000000 0.000000 
#    y 0.000000 1.941000 0.000000 
#    z 0.000000 0.000000 1.964130 
# 
# From -- ./inp_files/3971.got.cif
#   From: 2010.05.17/outbox.cif.g08.bks.cpg/sg39_2_cif.got.tgz:3971.got - 2010.06.03 18:22:40.
