data_PCOD9361377
_publ_section_title
;
Structure prediction by ZEFSAII (Michael W. Deem and Ramdas Pophale) SiO2 
 PCOD9361377
Probable space group: A B M 2
;
_chemical_formula_sum "Si O2"
_cell_formula_units_Z 52
_cell_length_a 14.228555
_cell_length_b 20.007879
_cell_length_c 8.799334
_cell_angle_alpha 90.000000
_cell_angle_beta 90.000000
_cell_angle_gamma 90.000000
_cell_volume 2505.022621
_symmetry_space_group_name_H-M "A B M 2"
_symmetry_group_IT_number 39
_symmetry_cell_setting 'orthorhombic'
loop_
_space_group_symop_operation_xyz
x,y,z
-x,-y,z
-x,1/2+y,z
x,1/2-y,z
x,1/2+y,1/2+z
-x,1/2-y,1/2+z
-x,y,1/2+z
x,-y,1/2+z
loop_
_atom_site_type_symbol
_atom_site_label
_atom_site_fract_x
_atom_site_fract_y
_atom_site_fract_z
Si Si1 0.554301 0.330644 0.195630
Si Si2 0.867471 0.750000 0.782089
Si Si3 0.131993 0.473410 0.733561
Si Si4 0.630412 0.169178 0.863757
Si Si5 0.188593 0.374661 0.196224
Si Si6 0.060347 0.750000 0.625553
Si Si7 0.264096 0.627608 0.351867
Si Si8 0.000000 0.000000 0.483324
O O1 0.556451 0.250000 0.201134
O O2 0.449039 0.350610 0.240755
O O3 0.628100 0.356931 0.319549
O O4 0.591496 0.350455 0.029460
O O5 0.799350 0.813785 0.778370
O O6 0.950191 0.750000 0.660344
O O7 0.917990 0.750000 0.946328
O O8 0.144176 0.553057 0.725372
O O9 0.229790 0.438400 0.764230
O O10 0.070620 0.456939 0.586048
O O11 0.065750 0.455966 0.875960
O O12 0.639040 0.250000 0.860722
O O13 0.730610 0.139645 0.819114
O O14 0.111880 0.315704 0.192872
O O15 0.238213 0.375016 0.029638
#
# Coordination Sequence:
#
# PCOD9361377 Si02
#       8
#     8   4   8   8   8   4   8   4
#     4  10  21  38  64  94 125 163 204 252 309 374
#     4  10  24  38  57  86 123 158 199 254 312 360
#     4  11  24  40  63  88 122 168 217 256 307 366
#     4  10  21  38  64  94 125 163 204 252 309 374
#     4  11  23  41  61  91 125 165 205 259 310 371
#     4  10  24  38  57  86 123 158 199 254 312 360
#     4  11  23  41  61  91 125 165 205 259 310 371
#     4  10  24  42  60  84 122 174 216 256 296 378
#
# _framework density 20.758295
#
# number of rings (size 3 to 8) (size 9 to 14) (size 15 to 20)
#    0.000    1.538    3.077    0.923    6.462    2.462 
#    0.000    0.769    0.000    3.692    0.000    0.000 
#    0.000    0.000    0.000    0.000    0.000    0.000 
#
# Total GULP energy -145302.168364 kJ/mol
# GULP energy per Si atom -5588.544937 kJ/mol
# Density = 2.071105 g / cm^3
# Si number density = 20.758295 Si / 1000 Ang^3
#
#
#
# Elastic Constant Matrix: (Units=GPa)
#
#
# Indices 1 2 3 4 5 6 
#
# 1 60.9319 2.7360 -2.7677 0.0000 0.0000 0.0000
# 2 2.7360 70.5402 0.0776 0.0000 0.0000 0.0000
# 3 -2.7677 0.0776 56.8564 0.0000 0.0000 0.0000
# 4 0.0000 0.0000 0.0000 13.7289 0.0000 0.0000
# 5 0.0000 0.0000 0.0000 0.0000 38.1826 0.0000
# 6 0.0000 0.0000 0.0000 0.0000 0.0000 15.4440
#
#
#
# Elastic Compliance Matrix: (Units=1/GPa)
#
#
# Indices 1 2 3 4 5 6 
#
# 1 0.016477 -0.000640 0.000803 0.000000 0.000000 0.000000
# 2 -0.000640 0.014201 -0.000051 0.000000 0.000000 0.000000
# 3 0.000803 -0.000051 0.017627 0.000000 0.000000 0.000000
# 4 0.000000 0.000000 0.000000 0.072839 0.000000 0.000000
# 5 0.000000 0.000000 0.000000 0.000000 0.026190 0.000000
# 6 0.000000 0.000000 0.000000 0.000000 0.000000 0.064750
#
#
# Mechanical properties :
#
#
# Convention : Reuss Voigt Hill
#
# Bulk Modulus (GPa) = 20.60564 20.93558 20.77061
# Shear Modulus (GPa) = 21.92632 26.02327 23.97479
#
# Velocity S-wave (km/s) = 3.25355 3.54451 3.40214
# Velocity P-wave (km/s) = 4.90532 5.18254 5.04583
#
# Compressibility (1/GPa) = 0.04853041
#
# Stress axis : x y z
#
# Youngs Moduli (GPa) = 60.69072 70.41663 56.73013
#
# Poissons Ratio (x) = 0.04506 -0.04555
# Poissons Ratio (y) = 0.03884 0.00287
# Poissons Ratio (z) = -0.04873 0.00356
#
# Static dielectric constant tensor:
#      x y z
#    x 1.706410 0.000000 0.000000 
#    y 0.000000 1.745250 0.000000 
#    z 0.000000 0.000000 1.779530 
# 
# From -- ./inp_files/3362.got.cif
#   From: 2010.05.17/outbox.cif.g08.bks.cpg/sg39_2_cif.got.tgz:3362.got - 2010.06.03 18:22:40.
