data_PCOD9361145
_publ_section_title
;
Structure prediction by ZEFSAII (Michael W. Deem and Ramdas Pophale) SiO2 
 PCOD9361145
Probable space group: A B M 2
;
_chemical_formula_sum "Si O2"
_cell_formula_units_Z 40
_cell_length_a 8.443542
_cell_length_b 26.286956
_cell_length_c 8.842817
_cell_angle_alpha 90.000000
_cell_angle_beta 90.000000
_cell_angle_gamma 90.000000
_cell_volume 1962.707598
_symmetry_space_group_name_H-M "A B M 2"
_symmetry_group_IT_number 39
_symmetry_cell_setting 'orthorhombic'
loop_
_space_group_symop_operation_xyz
x,y,z
-x,-y,z
-x,1/2+y,z
x,1/2-y,z
x,1/2+y,1/2+z
-x,1/2-y,1/2+z
-x,y,1/2+z
x,-y,1/2+z
loop_
_atom_site_type_symbol
_atom_site_label
_atom_site_fract_x
_atom_site_fract_y
_atom_site_fract_z
Si Si1 0.712394 0.807086 0.657870
Si Si2 0.408978 0.551729 0.415996
Si Si3 0.881282 0.400959 0.296581
Si Si4 0.588775 0.844800 0.343025
Si Si5 0.813491 0.596493 0.134369
O O1 0.771372 0.750000 0.681094
O O2 0.835862 0.850790 0.703727
O O3 0.657969 0.815283 0.485482
O O4 0.557716 0.817022 0.762554
O O5 0.500000 0.500000 0.399264
O O6 0.268580 0.560930 0.293904
O O7 0.521319 0.600957 0.402914
O O8 0.318498 0.556510 0.577329
O O9 0.887536 0.386674 0.473822
O O10 0.045140 0.423285 0.238044
O O11 0.722723 0.858861 0.221196
#
# Coordination Sequence:
#
# PCOD9361145 Si02
#       5
#     8   8   8   8   8
#     4  11  21  38  62  95 133 176 226 273 333 400
#     4   9  21  39  67  98 124 178 221 268 332 405
#     4   9  21  40  64  96 131 172 214 285 330 390
#     4  11  20  39  63  94 133 172 221 281 325 390
#     4  10  20  40  68  90 136 171 212 280 337 386
#
# _framework density 20.380008
#
# number of rings (size 3 to 8) (size 9 to 14) (size 15 to 20)
#    1.200    0.800    2.000    1.800    0.000    0.800 
#    0.000    7.000    4.400    3.600    0.000    0.000 
#    0.000    0.000    0.000    0.000    0.000    0.000 
#
# Total GULP energy -111559.318369 kJ/mol
# GULP energy per Si atom -5577.965918 kJ/mol
# Density = 2.033362 g / cm^3
# Si number density = 20.380008 Si / 1000 Ang^3
#
#
#
# Elastic Constant Matrix: (Units=GPa)
#
#
# Indices 1 2 3 4 5 6 
#
# 1 63.0541 29.6169 29.5428 0.0000 0.0000 0.0000
# 2 29.6169 99.3076 22.6176 0.0000 0.0000 0.0000
# 3 29.5428 22.6176 89.7943 0.0000 0.0000 0.0000
# 4 0.0000 0.0000 0.0000 -4.7015 0.0000 0.0000
# 5 0.0000 0.0000 0.0000 0.0000 49.1104 0.0000
# 6 0.0000 0.0000 0.0000 0.0000 0.0000 2.3598
#
#
#
# Elastic Compliance Matrix: (Units=1/GPa)
#
#
# Indices 1 2 3 4 5 6 
#
# 1 0.020798 -0.004927 -0.005602 0.000000 0.000000 0.000000
# 2 -0.004927 0.011850 -0.001364 0.000000 0.000000 0.000000
# 3 -0.005602 -0.001364 0.013323 0.000000 0.000000 0.000000
# 4 0.000000 0.000000 0.000000 -0.212697 0.000000 0.000000
# 5 0.000000 0.000000 0.000000 0.000000 0.020362 0.000000
# 6 0.000000 0.000000 0.000000 0.000000 0.000000 0.423759
#
#
# Mechanical properties :
#
#
# Convention : Reuss Voigt Hill
#
# Bulk Modulus (GPa) = 45.07307 46.19005 45.63156
# Shear Modulus (GPa) = 16.20350 20.71231 18.45791
#
# Velocity S-wave (km/s) = 2.82276 3.19141 3.01273
# Velocity P-wave (km/s) = 5.72610 6.02443 5.87716
#
# Compressibility (1/GPa) = 0.02218619
#
# Stress axis : x y z
#
# Youngs Moduli (GPa) = 48.08114 84.39037 75.05780
#
# Poissons Ratio (x) = 0.41578 0.42045
# Poissons Ratio (y) = 0.23689 0.10236
# Poissons Ratio (z) = 0.26934 0.11509
#
# Static dielectric constant tensor:
#      x y z
#    x 1.744500 0.000000 0.000000 
#    y 0.000000 1.965280 0.000000 
#    z 0.000000 0.000000 1.751950 
# 
# From -- ./inp_files/2195.got.cif
#   From: 2010.05.17/outbox.cif.g08.bks.cpg/sg39_2_cif.got.tgz:2195.got - 2010.06.03 18:22:40.
