data_PCOD9361328
_publ_section_title
;
Structure prediction by ZEFSAII (Michael W. Deem and Ramdas Pophale) SiO2 
 PCOD9361328
Probable space group: A B M 2
;
_chemical_formula_sum "Si O2"
_cell_formula_units_Z 28
_cell_length_a 12.291388
_cell_length_b 19.556425
_cell_length_c 5.050576
_cell_angle_alpha 90.000000
_cell_angle_beta 90.000000
_cell_angle_gamma 90.000000
_cell_volume 1214.035275
_symmetry_space_group_name_H-M "A B M 2"
_symmetry_group_IT_number 39
_symmetry_cell_setting 'orthorhombic'
loop_
_space_group_symop_operation_xyz
x,y,z
-x,-y,z
-x,1/2+y,z
x,1/2-y,z
x,1/2+y,1/2+z
-x,1/2-y,1/2+z
-x,y,1/2+z
x,-y,1/2+z
loop_
_atom_site_type_symbol
_atom_site_label
_atom_site_fract_x
_atom_site_fract_y
_atom_site_fract_z
Si Si1 0.806558 0.959800 0.952850
Si Si2 0.072721 0.674469 0.270645
Si Si3 0.576100 0.098556 0.507279
Si Si4 0.570249 0.250000 0.409125
O O1 0.676396 0.951015 0.960107
O O2 0.840888 0.018180 0.745690
O O3 0.854114 0.888948 0.849708
O O4 0.123370 0.750000 0.309867
O O5 0.029832 0.670912 0.971154
O O6 0.462764 0.250000 0.600463
O O7 0.620416 0.176831 0.479621
O O8 0.517643 0.090486 0.788028
#
# Coordination Sequence:
#
# PCOD9361328 Si02
#       4
#     8   8   8   4
#     4  12  26  40  62  97 128 167 209 252 315 371
#     4  10  23  45  70  94 122 161 207 260 318 374
#     4  10  21  38  59  86 125 167 209 253 301 361
#     4   8  16  32  54  80 106 150 206 250 294 338
#
# _framework density 23.063582
#
# number of rings (size 3 to 8) (size 9 to 14) (size 15 to 20)
#    0.000    1.714    0.000    3.429    2.000    6.857 
#    0.000    0.000    0.000    0.000    0.000    0.000 
#    0.000    0.000    0.000    0.000    0.000    0.000 
#
# Total GULP energy -78293.459071 kJ/mol
# GULP energy per Si atom -5592.389934 kJ/mol
# Density = 2.301109 g / cm^3
# Si number density = 23.063582 Si / 1000 Ang^3
#
#
#
# Elastic Constant Matrix: (Units=GPa)
#
#
# Indices 1 2 3 4 5 6 
#
# 1 16.6141 11.8527 -14.3573 0.0000 0.0000 0.0000
# 2 11.8527 89.0818 1.8488 0.0000 0.0000 0.0000
# 3 -14.3573 1.8488 77.7056 0.0000 0.0000 0.0000
# 4 0.0000 0.0000 0.0000 33.2216 0.0000 0.0000
# 5 0.0000 0.0000 0.0000 0.0000 13.9107 0.0000
# 6 0.0000 0.0000 0.0000 0.0000 0.0000 44.0710
#
#
#
# Elastic Compliance Matrix: (Units=1/GPa)
#
#
# Indices 1 2 3 4 5 6 
#
# 1 0.081358 -0.011143 0.015297 0.000000 0.000000 0.000000
# 2 -0.011143 0.012757 -0.002362 0.000000 0.000000 0.000000
# 3 0.015297 -0.002362 0.015752 0.000000 0.000000 0.000000
# 4 0.000000 0.000000 0.000000 0.030101 0.000000 0.000000
# 5 0.000000 0.000000 0.000000 0.000000 0.071887 0.000000
# 6 0.000000 0.000000 0.000000 0.000000 0.000000 0.022691
#
#
# Mechanical properties :
#
#
# Convention : Reuss Voigt Hill
#
# Bulk Modulus (GPa) = 8.81429 20.23221 14.52325
# Shear Modulus (GPa) = 18.60267 30.51112 24.55689
#
# Velocity S-wave (km/s) = 2.84312 3.64113 3.26659
# Velocity P-wave (km/s) = 3.82202 5.14476 4.53191
#
# Compressibility (1/GPa) = 0.11345219
#
# Stress axis : x y z
#
# Youngs Moduli (GPa) = 12.29131 78.38690 63.48513
#
# Poissons Ratio (x) = 0.87343 -0.97115
# Poissons Ratio (y) = 0.13696 0.14997
# Poissons Ratio (z) = -0.18802 0.18517
#
# Static dielectric constant tensor:
#      x y z
#    x 1.819730 0.000000 0.000000 
#    y 0.000000 1.901490 0.000000 
#    z 0.000000 0.000000 1.796880 
# 
# From -- ./inp_files/241.got.cif
#   From: 2010.05.17/outbox.cif.g08.bks.cpg/sg39_1_cif.got.tgz:241.got - 2010.06.03 18:22:40.
