data_PCOD9361954
_publ_section_title
;
Structure prediction by ZEFSAII (Michael W. Deem and Ramdas Pophale) SiO2 
 PCOD9361954
Probable space group: A B M 2
;
_chemical_formula_sum "Si O2"
_cell_formula_units_Z 32
_cell_length_a 10.579588
_cell_length_b 9.114322
_cell_length_c 14.365850
_cell_angle_alpha 90.000000
_cell_angle_beta 90.000000
_cell_angle_gamma 90.000000
_cell_volume 1385.238172
_symmetry_space_group_name_H-M "A B M 2"
_symmetry_group_IT_number 39
_symmetry_cell_setting 'orthorhombic'
loop_
_space_group_symop_operation_xyz
x,y,z
-x,-y,z
-x,1/2+y,z
x,1/2-y,z
x,1/2+y,1/2+z
-x,1/2-y,1/2+z
-x,y,1/2+z
x,-y,1/2+z
loop_
_atom_site_type_symbol
_atom_site_label
_atom_site_fract_x
_atom_site_fract_y
_atom_site_fract_z
Si Si1 0.299738 0.555363 0.358290
Si Si2 0.185282 0.250000 0.370576
Si Si3 0.180789 0.250000 0.581650
Si Si4 0.917903 0.250000 0.281225
Si Si5 0.500000 0.500000 0.215530
Si Si6 0.704233 0.088279 0.574350
O O1 0.276099 0.384675 0.355011
O O2 0.164833 0.618955 0.325385
O O3 0.407979 0.589480 0.284410
O O4 0.330186 0.592459 0.464768
O O5 0.132688 0.250000 0.476270
O O6 0.062157 0.250000 0.308294
O O7 0.092307 0.250000 0.670664
O O8 0.242715 0.418152 0.587912
O O9 0.588730 0.589610 0.145719
O O10 0.772575 0.250000 0.589257
#
# Coordination Sequence:
#
# PCOD9361954 Si02
#       6
#     8   4   4   4   4   8
#     4  11  25  46  71 105 145 189 243 299 370 437
#     4  10  26  48  72 106 142 188 247 305 364 435
#     4  10  24  49  72 105 144 186 247 305 355 437
#     4  12  22  49  74 103 144 190 238 308 367 432
#     4  12  26  42  72 108 148 196 238 300 368 450
#     4  11  25  44  70 105 147 191 240 299 363 429
#
# _framework density 23.100719000000002
#
# number of rings (size 3 to 8) (size 9 to 14) (size 15 to 20)
#    0.000    1.000    3.750    1.500    5.250    0.000 
#    9.000    2.500    0.000    0.000    0.000    0.000 
#    0.000    0.000    0.000    0.000    0.000    0.000 
#
# Total GULP energy -89092.795446 kJ/mol
# GULP energy per Si atom -5568.299715 kJ/mol
# Density = 2.304814 g / cm^3
# Si number density = 23.100719 Si / 1000 Ang^3
#
#
#
# Elastic Constant Matrix: (Units=GPa)
#
#
# Indices 1 2 3 4 5 6 
#
# 1 70.1898 31.7843 74.7932 0.0000 0.0000 0.0000
# 2 31.7843 222.9410 37.2257 0.0000 0.0000 0.0000
# 3 74.7932 37.2257 194.0024 0.0000 0.0000 0.0000
# 4 0.0000 0.0000 0.0000 6.9222 0.0000 0.0000
# 5 0.0000 0.0000 0.0000 0.0000 30.9906 0.0000
# 6 0.0000 0.0000 0.0000 0.0000 0.0000 35.7227
#
#
#
# Elastic Compliance Matrix: (Units=1/GPa)
#
#
# Indices 1 2 3 4 5 6 
#
# 1 0.025033 -0.002022 -0.009263 0.000000 0.000000 0.000000
# 2 -0.002022 0.004797 -0.000141 0.000000 0.000000 0.000000
# 3 -0.009263 -0.000141 0.008753 0.000000 0.000000 0.000000
# 4 0.000000 0.000000 0.000000 0.144463 0.000000 0.000000
# 5 0.000000 0.000000 0.000000 0.000000 0.032268 0.000000
# 6 0.000000 0.000000 0.000000 0.000000 0.000000 0.027993
#
#
# Mechanical properties :
#
#
# Convention : Reuss Voigt Hill
#
# Bulk Modulus (GPa) = 63.56827 86.08219 74.82523
# Shear Modulus (GPa) = 18.42273 37.61575 28.01924
#
# Velocity S-wave (km/s) = 2.82706 4.03964 3.48647
# Velocity P-wave (km/s) = 6.18336 7.68785 6.97628
#
# Compressibility (1/GPa) = 0.01573112
#
# Stress axis : x y z
#
# Youngs Moduli (GPa) = 39.94676 208.44942 114.24996
#
# Poissons Ratio (x) = 0.42154 1.05830
# Poissons Ratio (y) = 0.08078 0.01610
# Poissons Ratio (z) = 0.37003 0.02937
#
# Static dielectric constant tensor:
#      x y z
#    x 1.826650 0.000000 0.000000 
#    y 0.000000 1.939260 0.000000 
#    z 0.000000 0.000000 1.828570 
# 
# From -- ./inp_files/8939.got.cif
#   From: 2010.05.17/outbox.cif.g08.bks.cpg/sg39_5_cif.got.tgz:8939.got - 2010.06.03 18:22:40.
