data_PCOD9361606
_publ_section_title
;
Structure prediction by ZEFSAII (Michael W. Deem and Ramdas Pophale) SiO2 
 PCOD9361606
Probable space group: A B M 2
;
_chemical_formula_sum "Si O2"
_cell_formula_units_Z 40
_cell_length_a 8.934315
_cell_length_b 28.567708
_cell_length_c 5.638661
_cell_angle_alpha 90.000000
_cell_angle_beta 90.000000
_cell_angle_gamma 90.000000
_cell_volume 1439.171811
_symmetry_space_group_name_H-M "A B M 2"
_symmetry_group_IT_number 39
_symmetry_cell_setting 'orthorhombic'
loop_
_space_group_symop_operation_xyz
x,y,z
-x,-y,z
-x,1/2+y,z
x,1/2-y,z
x,1/2+y,1/2+z
-x,1/2-y,1/2+z
-x,y,1/2+z
x,-y,1/2+z
loop_
_atom_site_type_symbol
_atom_site_label
_atom_site_fract_x
_atom_site_fract_y
_atom_site_fract_z
Si Si1 0.673574 0.517427 0.044220
Si Si2 0.937897 0.109320 0.060457
Si Si3 0.852857 0.804007 0.055027
Si Si4 0.340791 0.884198 0.311636
Si Si5 0.567858 0.687212 0.314103
O O1 0.500000 0.500000 0.060665
O O2 0.739090 0.505455 0.302419
O O3 0.673899 0.572083 0.982928
O O4 0.760143 0.103921 0.083599
O O5 0.997435 0.089819 0.810925
O O6 0.002606 0.163094 0.078564
O O7 0.880299 0.750000 0.982806
O O8 0.746118 0.837226 0.895998
O O9 0.743059 0.803170 0.284306
O O10 0.509248 0.866377 0.295180
O O11 0.489049 0.704383 0.069431
#
# Coordination Sequence:
#
# PCOD9361606 Si02
#       5
#     8   8   8   8   8
#     4  10  24  40  69 106 135 177 229 290 354 429
#     4  10  22  42  65  95 129 183 224 273 333 403
#     4  10  23  42  67 100 141 188 233 279 344 420
#     4  10  23  43  72 101 140 181 232 292 349 413
#     4  10  22  37  63  92 130 171 219 278 335 398
#
# _framework density 27.793765
#
# number of rings (size 3 to 8) (size 9 to 14) (size 15 to 20)
#    0.000    2.000    0.000    1.200   11.200    9.600 
#    0.000    8.000    0.000   14.400    0.000    0.000 
#    0.000    0.000    0.000    0.000    0.000    0.000 
#
# Total GULP energy -111574.964427 kJ/mol
# GULP energy per Si atom -5578.748221 kJ/mol
# Density = 2.773051 g / cm^3
# Si number density = 27.793765 Si / 1000 Ang^3
#
#
#
# Elastic Constant Matrix: (Units=GPa)
#
#
# Indices 1 2 3 4 5 6 
#
# 1 117.8109 25.5170 24.5373 0.0000 0.0000 0.0000
# 2 25.5170 113.6483 44.4827 0.0000 0.0000 0.0000
# 3 24.5373 44.4827 223.3290 0.0000 0.0000 0.0000
# 4 0.0000 0.0000 0.0000 59.7581 0.0000 0.0000
# 5 0.0000 0.0000 0.0000 0.0000 56.1688 0.0000
# 6 0.0000 0.0000 0.0000 0.0000 0.0000 36.3358
#
#
#
# Elastic Compliance Matrix: (Units=1/GPa)
#
#
# Indices 1 2 3 4 5 6 
#
# 1 0.009005 -0.001773 -0.000636 0.000000 0.000000 0.000000
# 2 -0.001773 0.009892 -0.001776 0.000000 0.000000 0.000000
# 3 -0.000636 -0.001776 0.004901 0.000000 0.000000 0.000000
# 4 0.000000 0.000000 0.000000 0.016734 0.000000 0.000000
# 5 0.000000 0.000000 0.000000 0.000000 0.017803 0.000000
# 6 0.000000 0.000000 0.000000 0.000000 0.000000 0.027521
#
#
# Mechanical properties :
#
#
# Convention : Reuss Voigt Hill
#
# Bulk Modulus (GPa) = 64.81339 71.54026 68.17683
# Shear Modulus (GPa) = 50.31765 54.46927 52.39346
#
# Velocity S-wave (km/s) = 4.25949 4.43173 4.34646
# Velocity P-wave (km/s) = 6.89645 7.20989 7.05491
#
# Compressibility (1/GPa) = 0.01542891
#
# Stress axis : x y z
#
# Youngs Moduli (GPa) = 111.05364 101.09116 204.02939
#
# Poissons Ratio (x) = 0.17921 0.12981
# Poissons Ratio (y) = 0.19687 0.36226
# Poissons Ratio (z) = 0.07066 0.17949
#
# Static dielectric constant tensor:
#      x y z
#    x 2.190930 0.000000 0.000000 
#    y 0.000000 2.179240 0.000000 
#    z 0.000000 0.000000 2.363170 
# 
# From -- ./inp_files/340.got.cif
#   From: 2010.05.17/outbox.cif.g08.bks.cpg/sg39_1_cif.got.tgz:340.got - 2010.06.03 18:22:40.
