data_PCOD9361711
_publ_section_title
;
Structure prediction by ZEFSAII (Michael W. Deem and Ramdas Pophale) SiO2 
 PCOD9361711
Probable space group: A B M 2
;
_chemical_formula_sum "Si O2"
_cell_formula_units_Z 40
_cell_length_a 10.414579
_cell_length_b 16.363894
_cell_length_c 9.103071
_cell_angle_alpha 90.000000
_cell_angle_beta 90.000000
_cell_angle_gamma 90.000000
_cell_volume 1551.373277
_symmetry_space_group_name_H-M "A B M 2"
_symmetry_group_IT_number 39
_symmetry_cell_setting 'orthorhombic'
loop_
_space_group_symop_operation_xyz
x,y,z
-x,-y,z
-x,1/2+y,z
x,1/2-y,z
x,1/2+y,1/2+z
-x,1/2-y,1/2+z
-x,y,1/2+z
x,-y,1/2+z
loop_
_atom_site_type_symbol
_atom_site_label
_atom_site_fract_x
_atom_site_fract_y
_atom_site_fract_z
Si Si1 0.898696 0.872722 0.153770
Si Si2 0.261573 0.158418 0.886239
Si Si3 0.483821 0.902244 0.595971
Si Si4 0.831776 0.061911 0.137058
Si Si5 0.311671 0.623270 0.877540
O O1 0.800761 0.836395 0.275617
O O2 0.052606 0.873350 0.163868
O O3 0.869108 0.969292 0.164001
O O4 0.864310 0.844612 0.989618
O O5 0.280293 0.250000 0.829605
O O6 0.266927 0.090694 0.760304
O O7 0.367635 0.133674 0.002628
O O8 0.425580 0.895514 0.761086
O O9 0.602334 0.851686 0.521037
O O10 0.500000 0.000000 0.568042
O O11 0.778882 0.062513 0.972226
#
# Coordination Sequence:
#
# PCOD9361711 Si02
#       5
#     8   8   8   8   8
#     4  10  22  40  68 100 137 186 236 283 338 415
#     4  11  25  44  67 102 144 181 228 293 356 409
#     4  11  22  39  64  95 132 180 230 277 338 414
#     4  11  21  40  68 101 137 183 238 284 338 415
#     4  11  21  37  64  95 129 173 229 286 335 394
#
# _framework density 25.783608000000001
#
# number of rings (size 3 to 8) (size 9 to 14) (size 15 to 20)
#    0.000    1.200    0.000    7.800    0.000    4.000 
#    0.000   14.000    0.000    0.000    0.000    0.000 
#    0.000    0.000    0.000    0.000    0.000    0.000 
#
# Total GULP energy -111353.167013 kJ/mol
# GULP energy per Si atom -5567.658351 kJ/mol
# Density = 2.572492 g / cm^3
# Si number density = 25.783608 Si / 1000 Ang^3
#
#
#
# Elastic Constant Matrix: (Units=GPa)
#
#
# Indices 1 2 3 4 5 6 
#
# 1 93.1961 -8.1055 39.0758 0.0000 0.0000 0.0000
# 2 -8.1055 106.3405 27.2770 0.0000 0.0000 0.0000
# 3 39.0758 27.2770 171.3179 0.0000 0.0000 0.0000
# 4 0.0000 0.0000 0.0000 -57.9746 0.0000 0.0000
# 5 0.0000 0.0000 0.0000 0.0000 37.4870 0.0000
# 6 0.0000 0.0000 0.0000 0.0000 0.0000 -22.8917
#
#
#
# Elastic Compliance Matrix: (Units=1/GPa)
#
#
# Indices 1 2 3 4 5 6 
#
# 1 0.012155 0.001707 -0.003044 0.000000 0.000000 0.000000
# 2 0.001707 0.010044 -0.001989 0.000000 0.000000 0.000000
# 3 -0.003044 -0.001989 0.006848 0.000000 0.000000 0.000000
# 4 0.000000 0.000000 0.000000 -0.017249 0.000000 0.000000
# 5 0.000000 0.000000 0.000000 0.000000 0.026676 0.000000
# 6 0.000000 0.000000 0.000000 0.000000 0.000000 -0.043684
#
#
# Mechanical properties :
#
#
# Convention : Reuss Voigt Hill
#
# Bulk Modulus (GPa) = 44.65089 54.14993 49.40041
# Shear Modulus (GPa) = 561.38793 12.16461 286.77627
#
# Velocity S-wave (km/s) = 14.77170 2.17444 10.55773
# Velocity P-wave (km/s) = 17.55827 5.22987 12.95462
#
# Compressibility (1/GPa) = 0.02239597
#
# Stress axis : x y z
#
# Youngs Moduli (GPa) = 82.27086 99.56210 146.02602
#
# Poissons Ratio (x) = -0.16999 0.44454
# Poissons Ratio (y) = -0.14046 0.29039
# Poissons Ratio (z) = 0.25045 0.19799
#
# Static dielectric constant tensor:
#      x y z
#    x 2.258220 0.000000 0.000000 
#    y 0.000000 2.107130 0.000000 
#    z 0.000000 0.000000 1.970510 
# 
# From -- ./inp_files/2524.got.cif
#   From: 2010.05.17/outbox.cif.g08.bks.cpg/sg39_2_cif.got.tgz:2524.got - 2010.06.03 18:22:40.
