data_PCOD9361988
_publ_section_title
;
Structure prediction by ZEFSAII (Michael W. Deem and Ramdas Pophale) SiO2 
 PCOD9361988
Probable space group: A B M 2
;
_chemical_formula_sum "Si O2"
_cell_formula_units_Z 64
_cell_length_a 11.242783
_cell_length_b 22.020525
_cell_length_c 13.258859
_cell_angle_alpha 90.000000
_cell_angle_beta 90.000000
_cell_angle_gamma 90.000000
_cell_volume 3282.522030
_symmetry_space_group_name_H-M "A B M 2"
_symmetry_group_IT_number 39
_symmetry_cell_setting 'orthorhombic'
loop_
_space_group_symop_operation_xyz
x,y,z
-x,-y,z
-x,1/2+y,z
x,1/2-y,z
x,1/2+y,1/2+z
-x,1/2-y,1/2+z
-x,y,1/2+z
x,-y,1/2+z
loop_
_atom_site_type_symbol
_atom_site_label
_atom_site_fract_x
_atom_site_fract_y
_atom_site_fract_z
Si Si1 0.365068 0.681249 0.461760
Si Si2 0.300729 0.039787 0.673358
Si Si3 0.702776 0.685485 0.193297
Si Si4 0.455153 0.069856 0.500288
Si Si5 0.171457 0.384373 0.844642
Si Si6 0.076667 0.118288 0.240406
Si Si7 0.113010 0.039882 0.043754
Si Si8 0.311757 0.931236 0.805511
O O1 0.415230 0.750000 0.446889
O O2 0.308189 0.681192 0.573670
O O3 0.453799 0.623125 0.468291
O O4 0.262254 0.667727 0.380368
O O5 0.395993 0.077173 0.609507
O O6 0.226842 0.080991 0.749327
O O7 0.215056 0.001051 0.597588
O O8 0.357355 0.989331 0.746229
O O9 0.654928 0.750000 0.227471
O O10 0.840607 0.676877 0.223440
O O11 0.643324 0.628043 0.245861
O O12 0.351642 0.071747 0.418404
O O13 0.500000 0.000000 0.498382
O O14 0.039696 0.368857 0.804642
O O15 0.161061 0.426552 0.944573
O O16 0.065779 0.086654 0.130502
O O17 0.168093 0.072403 0.297608
O O18 0.000000 0.000000 0.014792
#
# Coordination Sequence:
#
# PCOD9361988 Si02
#       8
#     8   8   8   8   8   8   8   8
#     4  11  25  45  67  93 130 178 226 278 335 398
#     4  11  23  38  59  94 129 171 218 267 331 395
#     4   9  19  40  63  84 119 169 218 262 321 398
#     4  12  25  42  64  94 133 175 223 286 331 390
#     4  12  23  39  66  96 133 172 216 269 335 402
#     4   9  21  37  60  94 126 163 218 260 330 402
#     4  11  21  34  59  96 137 171 204 265 335 401
#     4   9  21  38  60  94 124 163 217 269 332 394
#
# _framework density 19.497202999999999
#
# number of rings (size 3 to 8) (size 9 to 14) (size 15 to 20)
#    0.750    0.750    2.500    3.000    5.250    4.500 
#    0.000    1.875    0.000    0.000    0.000    0.000 
#    0.000    0.000    0.000    0.000    0.000    0.000 
#
# Total GULP energy -178352.828834 kJ/mol
# GULP energy per Si atom -5573.525901 kJ/mol
# Density = 1.945283 g / cm^3
# Si number density = 19.497203 Si / 1000 Ang^3
#
#
#
# Elastic Constant Matrix: (Units=GPa)
#
#
# Indices 1 2 3 4 5 6 
#
# 1 48.9123 23.6176 11.2988 0.0000 0.0000 0.0000
# 2 23.6176 53.5554 16.8926 0.0000 0.0000 0.0000
# 3 11.2988 16.8926 62.0061 0.0000 0.0000 0.0000
# 4 0.0000 0.0000 0.0000 27.4737 0.0000 0.0000
# 5 0.0000 0.0000 0.0000 0.0000 -1.6727 0.0000
# 6 0.0000 0.0000 0.0000 0.0000 0.0000 1.9777
#
#
#
# Elastic Compliance Matrix: (Units=1/GPa)
#
#
# Indices 1 2 3 4 5 6 
#
# 1 0.026154 -0.010973 -0.001776 0.000000 0.000000 0.000000
# 2 -0.010973 0.025032 -0.004820 0.000000 0.000000 0.000000
# 3 -0.001776 -0.004820 0.017764 0.000000 0.000000 0.000000
# 4 0.000000 0.000000 0.000000 0.036398 0.000000 0.000000
# 5 0.000000 0.000000 0.000000 0.000000 -0.597828 0.000000
# 6 0.000000 0.000000 0.000000 0.000000 0.000000 0.505645
#
#
# Mechanical properties :
#
#
# Convention : Reuss Voigt Hill
#
# Bulk Modulus (GPa) = 29.57650 29.78797 29.68223
# Shear Modulus (GPa) = 83.92981 13.06672 48.49826
#
# Velocity S-wave (km/s) = 6.56815 2.59160 4.99284
# Velocity P-wave (km/s) = 8.52779 4.92610 6.96382
#
# Compressibility (1/GPa) = 0.03381062
#
# Stress axis : x y z
#
# Youngs Moduli (GPa) = 38.23567 39.94929 56.29291
#
# Poissons Ratio (x) = 0.43838 0.09999
# Poissons Ratio (y) = 0.41957 0.27133
# Poissons Ratio (z) = 0.06791 0.19255
#
# Static dielectric constant tensor:
#      x y z
#    x 1.730580 0.000000 0.000000 
#    y 0.000000 1.725790 0.000000 
#    z 0.000000 0.000000 1.689060 
# 
# From -- ./inp_files/6098.got.cif
#   From: 2010.05.17/outbox.cif.g08.bks.cpg/sg39_4_cif.got.tgz:6098.got - 2010.06.03 18:22:40.
