data_PCOD9361699
_publ_section_title
;
Structure prediction by ZEFSAII (Michael W. Deem and Ramdas Pophale) SiO2 
 PCOD9361699
Probable space group: A B M 2
;
_chemical_formula_sum "Si O2"
_cell_formula_units_Z 64
_cell_length_a 23.399752
_cell_length_b 13.776152
_cell_length_c 8.585573
_cell_angle_alpha 90.000000
_cell_angle_beta 90.000000
_cell_angle_gamma 90.000000
_cell_volume 2767.632780
_symmetry_space_group_name_H-M "A B M 2"
_symmetry_group_IT_number 39
_symmetry_cell_setting 'orthorhombic'
loop_
_space_group_symop_operation_xyz
x,y,z
-x,-y,z
-x,1/2+y,z
x,1/2-y,z
x,1/2+y,1/2+z
-x,1/2-y,1/2+z
-x,y,1/2+z
x,-y,1/2+z
loop_
_atom_site_type_symbol
_atom_site_label
_atom_site_fract_x
_atom_site_fract_y
_atom_site_fract_z
Si Si1 0.573869 0.642544 0.316180
Si Si2 0.030903 0.898989 0.071137
Si Si3 0.539284 0.860427 0.663171
Si Si4 0.077179 0.645247 0.411087
Si Si5 0.294568 0.632134 0.457768
Si Si6 0.821136 0.551664 0.096995
Si Si7 0.649654 0.993269 0.717578
Si Si8 0.846003 0.864423 0.439930
O O1 0.590847 0.750000 0.264038
O O2 0.542413 0.647097 0.479114
O O3 0.524283 0.604537 0.203403
O O4 0.628969 0.576852 0.336352
O O5 0.085505 0.872156 0.966950
O O6 0.975394 0.839343 0.027224
O O7 0.052738 0.893710 0.247872
O O8 0.000000 0.000000 0.038656
O O9 0.545285 0.750000 0.728446
O O10 0.593221 0.925862 0.706637
O O11 0.104168 0.750000 0.375035
O O12 0.123301 0.579899 0.496483
O O13 0.305448 0.750000 0.456336
O O14 0.231894 0.608808 0.523242
O O15 0.333559 0.563759 0.573155
O O16 0.303608 0.578933 0.290449
O O17 0.817497 0.435281 0.069876
O O18 0.829688 0.588605 0.273101
O O19 0.830400 0.750000 0.447042
#
# Coordination Sequence:
#
# PCOD9361699 Si02
#       8
#     8   8   8   8   8   8   8   8
#     4  10  22  40  66 102 143 186 236 294 363 435
#     4  12  25  43  67 107 147 186 229 292 364 446
#     4  10  22  40  65 103 144 187 238 293 360 436
#     4  12  24  42  70 103 144 189 236 294 364 440
#     4  12  28  50  75 107 144 191 251 310 367 425
#     4  12  27  50  77 104 144 191 246 308 365 432
#     4  12  24  45  71 102 142 196 240 303 363 428
#     4  12  26  49  78 108 145 187 236 296 368 441
#
# _framework density 23.124455999999999
#
# number of rings (size 3 to 8) (size 9 to 14) (size 15 to 20)
#    0.000    0.500    2.500    6.000    1.750    1.000 
#    0.000    5.625    0.000    0.000    0.000    0.000 
#    0.000    0.000    0.000    0.000    0.000    0.000 
#
# Total GULP energy -178552.519256 kJ/mol
# GULP energy per Si atom -5579.766227 kJ/mol
# Density = 2.307182 g / cm^3
# Si number density = 23.124456 Si / 1000 Ang^3
#
#
#
# Elastic Constant Matrix: (Units=GPa)
#
#
# Indices 1 2 3 4 5 6 
#
# 1 69.1084 37.7135 6.9586 0.0000 0.0000 0.0000
# 2 37.7135 198.0393 39.8708 0.0000 0.0000 0.0000
# 3 6.9586 39.8708 57.0300 0.0000 0.0000 0.0000
# 4 0.0000 0.0000 0.0000 21.5147 0.0000 0.0000
# 5 0.0000 0.0000 0.0000 0.0000 39.9114 0.0000
# 6 0.0000 0.0000 0.0000 0.0000 0.0000 34.3825
#
#
#
# Elastic Compliance Matrix: (Units=1/GPa)
#
#
# Indices 1 2 3 4 5 6 
#
# 1 0.016150 -0.003118 0.000209 0.000000 0.000000 0.000000
# 2 -0.003118 0.006478 -0.004149 0.000000 0.000000 0.000000
# 3 0.000209 -0.004149 0.020410 0.000000 0.000000 0.000000
# 4 0.000000 0.000000 0.000000 0.046480 0.000000 0.000000
# 5 0.000000 0.000000 0.000000 0.000000 0.025055 0.000000
# 6 0.000000 0.000000 0.000000 0.000000 0.000000 0.029085
#
#
# Mechanical properties :
#
#
# Convention : Reuss Voigt Hill
#
# Bulk Modulus (GPa) = 34.57396 54.80706 44.69051
# Shear Modulus (GPa) = 29.86599 35.13737 32.50168
#
# Velocity S-wave (km/s) = 3.59769 3.90229 3.75308
# Velocity P-wave (km/s) = 5.67816 6.63748 6.17648
#
# Compressibility (1/GPa) = 0.02892351
#
# Stress axis : x y z
#
# Youngs Moduli (GPa) = 61.91820 154.35701 48.99643
#
# Poissons Ratio (x) = 0.48123 -0.01024
# Poissons Ratio (y) = 0.19304 0.20328
# Poissons Ratio (z) = -0.01294 0.64040
#
# Static dielectric constant tensor:
#      x y z
#    x 1.870080 0.000000 0.000000 
#    y 0.000000 2.072430 0.000000 
#    z 0.000000 0.000000 1.884970 
# 
# From -- ./inp_files/4082.got.cif
#   From: 2010.05.17/outbox.cif.g08.bks.cpg/sg39_3_cif.got.tgz:4082.got - 2010.06.03 18:22:40.
