data_PCOD9361131
_publ_section_title
;
Structure prediction by ZEFSAII (Michael W. Deem and Ramdas Pophale) SiO2 
 PCOD9361131
Probable space group: A B M 2
;
_chemical_formula_sum "Si O2"
_cell_formula_units_Z 52
_cell_length_a 18.451327
_cell_length_b 8.738294
_cell_length_c 15.791551
_cell_angle_alpha 90.000000
_cell_angle_beta 90.000000
_cell_angle_gamma 90.000000
_cell_volume 2546.121038
_symmetry_space_group_name_H-M "A B M 2"
_symmetry_group_IT_number 39
_symmetry_cell_setting 'orthorhombic'
loop_
_space_group_symop_operation_xyz
x,y,z
-x,-y,z
-x,1/2+y,z
x,1/2-y,z
x,1/2+y,1/2+z
-x,1/2-y,1/2+z
-x,y,1/2+z
x,-y,1/2+z
loop_
_atom_site_type_symbol
_atom_site_label
_atom_site_fract_x
_atom_site_fract_y
_atom_site_fract_z
Si Si1 0.175209 0.926821 0.243300
Si Si2 0.412417 0.750000 0.856095
Si Si3 0.573011 0.250000 0.040686
Si Si4 0.459301 0.250000 0.725066
Si Si5 0.342623 0.923427 0.564715
Si Si6 0.176059 0.569062 0.558908
Si Si7 0.919209 0.936595 0.901548
Si Si8 0.340417 0.504533 0.758852
O O1 0.156824 0.750000 0.232933
O O2 0.125929 0.988981 0.319071
O O3 0.260265 0.937231 0.267790
O O4 0.164434 0.002525 0.152152
O O5 0.469814 0.750000 0.780483
O O6 0.360763 0.606557 0.839058
O O7 0.453712 0.750000 0.944652
O O8 0.523933 0.250000 0.124742
O O9 0.614661 0.416044 0.047235
O O10 0.407296 0.390063 0.747768
O O11 0.365210 0.750000 0.534546
O O12 0.260384 0.952946 0.534440
O O13 0.338635 0.913727 0.667232
O O14 0.165241 0.750000 0.565256
O O15 0.123025 0.510562 0.485952
O O16 0.919933 0.750000 0.901681
O O17 0.000000 0.000000 0.899635
#
# Coordination Sequence:
#
# PCOD9361131 Si02
#       8
#     8   4   4   4   8   8   8   8
#     4  10  21  39  65  93 124 167 218 261 320 385
#     4  12  24  40  64 104 131 162 227 270 330 399
#     4  10  24  40  68  98 129 168 227 260 324 408
#     4  10  22  46  68  86 134 178 204 280 330 391
#     4   9  18  39  65  95 127 168 211 271 331 378
#     4   9  20  37  61  89 125 161 208 263 320 381
#     4  10  23  42  59  89 129 168 212 259 326 388
#     4  10  20  40  65  92 127 169 216 268 328 386
#
# _framework density 20.423224000000001
#
# number of rings (size 3 to 8) (size 9 to 14) (size 15 to 20)
#    0.000    2.154    1.538    0.462    6.462    1.846 
#    1.385    9.231    0.000    0.000    0.000    0.000 
#    0.000    0.000    0.000    0.000    0.000    0.000 
#
# Total GULP energy -144949.309023 kJ/mol
# GULP energy per Si atom -5574.973424 kJ/mol
# Density = 2.037674 g / cm^3
# Si number density = 20.423224 Si / 1000 Ang^3
#
#
#
# Elastic Constant Matrix: (Units=GPa)
#
#
# Indices 1 2 3 4 5 6 
#
# 1 85.6020 15.3360 53.7312 0.0000 0.0000 0.0000
# 2 15.3360 61.6339 22.2356 0.0000 0.0000 0.0000
# 3 53.7312 22.2356 131.1515 0.0000 0.0000 0.0000
# 4 0.0000 0.0000 0.0000 20.0638 0.0000 0.0000
# 5 0.0000 0.0000 0.0000 0.0000 35.7903 0.0000
# 6 0.0000 0.0000 0.0000 0.0000 0.0000 12.6284
#
#
#
# Elastic Compliance Matrix: (Units=1/GPa)
#
#
# Indices 1 2 3 4 5 6 
#
# 1 0.015893 -0.001710 -0.006221 0.000000 0.000000 0.000000
# 2 -0.001710 0.017466 -0.002261 0.000000 0.000000 0.000000
# 3 -0.006221 -0.002261 0.010557 0.000000 0.000000 0.000000
# 4 0.000000 0.000000 0.000000 0.049841 0.000000 0.000000
# 5 0.000000 0.000000 0.000000 0.000000 0.027941 0.000000
# 6 0.000000 0.000000 0.000000 0.000000 0.000000 0.079187
#
#
# Mechanical properties :
#
#
# Convention : Reuss Voigt Hill
#
# Bulk Modulus (GPa) = 42.49545 51.22145 46.85845
# Shear Modulus (GPa) = 21.82329 26.16878 23.99604
#
# Velocity S-wave (km/s) = 3.27242 3.58344 3.43146
# Velocity P-wave (km/s) = 5.92713 6.50045 6.22040
#
# Compressibility (1/GPa) = 0.02353193
#
# Stress axis : x y z
#
# Youngs Moduli (GPa) = 62.91894 57.25438 94.72500
#
# Poissons Ratio (x) = 0.09792 0.58932
# Poissons Ratio (y) = 0.10760 0.21413
# Poissons Ratio (z) = 0.39145 0.12943
#
# Static dielectric constant tensor:
#      x y z
#    x 1.701620 0.000000 0.000000 
#    y 0.000000 1.727410 0.000000 
#    z 0.000000 0.000000 1.725310 
# 
# From -- ./inp_files/12930.got.cif
#   From: 2010.05.17/outbox.cif.g08.bks.cpg/sg39_7_cif.got.tgz:12930.got - 2010.06.03 18:22:40.
