data_PCOD9361753
_publ_section_title
;
Structure prediction by ZEFSAII (Michael W. Deem and Ramdas Pophale) SiO2 
 PCOD9361753
Probable space group: A B M 2
;
_chemical_formula_sum "Si O2"
_cell_formula_units_Z 40
_cell_length_a 8.441529
_cell_length_b 14.551996
_cell_length_c 13.711657
_cell_angle_alpha 90.000000
_cell_angle_beta 90.000000
_cell_angle_gamma 90.000000
_cell_volume 1684.354977
_symmetry_space_group_name_H-M "A B M 2"
_symmetry_group_IT_number 39
_symmetry_cell_setting 'orthorhombic'
loop_
_space_group_symop_operation_xyz
x,y,z
-x,-y,z
-x,1/2+y,z
x,1/2-y,z
x,1/2+y,1/2+z
-x,1/2-y,1/2+z
-x,y,1/2+z
x,-y,1/2+z
loop_
_atom_site_type_symbol
_atom_site_label
_atom_site_fract_x
_atom_site_fract_y
_atom_site_fract_z
Si Si1 0.802470 0.350007 0.472340
Si Si2 0.691184 0.852080 0.241384
Si Si3 0.753176 0.991438 0.603565
Si Si4 0.952091 0.099636 0.273304
Si Si5 0.423218 0.145980 0.461046
O O1 0.848396 0.250000 0.513844
O O2 0.854145 0.436040 0.538026
O O3 0.861669 0.353703 0.361636
O O4 0.612243 0.356672 0.468999
O O5 0.635861 0.750000 0.210272
O O6 0.624953 0.870789 0.348924
O O7 0.882562 0.852513 0.248191
O O8 0.653922 0.936365 0.170239
O O9 0.847690 0.926460 0.679063
O O10 0.657423 0.927824 0.530242
O O11 0.000000 0.000000 0.314266
O O12 0.369761 0.250000 0.485266
#
# Coordination Sequence:
#
# PCOD9361753 Si02
#       5
#     8   8   8   8   8
#     4  11  24  43  66  95 127 165 210 260 314 373
#     4  10  22  42  65  93 128 168 210 259 314 373
#     4  11  22  38  62  92 127 164 204 254 309 370
#     4  10  23  40  63  93 127 165 211 259 312 371
#     4  10  24  43  65  93 127 166 211 258 313 373
#
# _framework density 23.747961
#
# number of rings (size 3 to 8) (size 9 to 14) (size 15 to 20)
#    0.000    1.600    0.000    4.200    0.000   12.000 
#    0.000    6.000    0.000    0.000    0.000    0.000 
#    0.000    0.000    0.000    0.000    0.000    0.000 
#
# Total GULP energy -111913.229443 kJ/mol
# GULP energy per Si atom -5595.661472 kJ/mol
# Density = 2.369391 g / cm^3
# Si number density = 23.747961 Si / 1000 Ang^3
#
#
#
# Elastic Constant Matrix: (Units=GPa)
#
#
# Indices 1 2 3 4 5 6 
#
# 1 32.6837 22.2174 31.4026 0.0000 0.0000 0.0000
# 2 22.2174 145.3962 63.3174 0.0000 0.0000 0.0000
# 3 31.4026 63.3174 143.1278 0.0000 0.0000 0.0000
# 4 0.0000 0.0000 0.0000 36.8668 0.0000 0.0000
# 5 0.0000 0.0000 0.0000 0.0000 37.9413 0.0000
# 6 0.0000 0.0000 0.0000 0.0000 0.0000 20.3344
#
#
#
# Elastic Compliance Matrix: (Units=1/GPa)
#
#
# Indices 1 2 3 4 5 6 
#
# 1 0.039677 -0.002814 -0.007460 0.000000 0.000000 0.000000
# 2 -0.002814 0.008719 -0.003240 0.000000 0.000000 0.000000
# 3 -0.007460 -0.003240 0.010057 0.000000 0.000000 0.000000
# 4 0.000000 0.000000 0.000000 0.027125 0.000000 0.000000
# 5 0.000000 0.000000 0.000000 0.000000 0.026356 0.000000
# 6 0.000000 0.000000 0.000000 0.000000 0.000000 0.049178
#
#
# Mechanical properties :
#
#
# Convention : Reuss Voigt Hill
#
# Bulk Modulus (GPa) = 31.82229 61.67583 46.74906
# Shear Modulus (GPa) = 25.17446 32.64654 28.91050
#
# Velocity S-wave (km/s) = 3.25940 3.71173 3.49289
# Velocity P-wave (km/s) = 5.25300 6.66308 5.99961
#
# Compressibility (1/GPa) = 0.03142451
#
# Stress axis : x y z
#
# Youngs Moduli (GPa) = 25.20337 114.69854 99.43616
#
# Poissons Ratio (x) = 0.32277 0.74183
# Poissons Ratio (y) = 0.07092 0.32212
# Poissons Ratio (z) = 0.18803 0.37157
#
# Static dielectric constant tensor:
#      x y z
#    x 1.897790 0.000000 0.000000 
#    y 0.000000 1.976120 0.000000 
#    z 0.000000 0.000000 1.886160 
# 
# From -- ./inp_files/8077.got.cif
#   From: 2010.05.17/outbox.cif.g08.bks.cpg/sg39_5_cif.got.tgz:8077.got - 2010.06.03 18:22:40.
