data_PCOD9361101
_publ_section_title
;
Structure prediction by ZEFSAII (Michael W. Deem and Ramdas Pophale) SiO2 
 PCOD9361101
Probable space group: A B M 2
;
_chemical_formula_sum "Si O2"
_cell_formula_units_Z 44
_cell_length_a 8.109801
_cell_length_b 7.507188
_cell_length_c 30.748545
_cell_angle_alpha 90.000000
_cell_angle_beta 90.000000
_cell_angle_gamma 90.000000
_cell_volume 1872.026790
_symmetry_space_group_name_H-M "A B M 2"
_symmetry_group_IT_number 39
_symmetry_cell_setting 'orthorhombic'
loop_
_space_group_symop_operation_xyz
x,y,z
-x,-y,z
-x,1/2+y,z
x,1/2-y,z
x,1/2+y,1/2+z
-x,1/2-y,1/2+z
-x,y,1/2+z
x,-y,1/2+z
loop_
_atom_site_type_symbol
_atom_site_label
_atom_site_fract_x
_atom_site_fract_y
_atom_site_fract_z
Si Si1 0.805143 0.536758 0.774370
Si Si2 0.247211 0.750000 0.523697
Si Si3 0.811005 0.461719 0.089999
Si Si4 0.804069 0.537505 0.869102
Si Si5 0.309501 0.448132 0.462699
Si Si6 0.311154 0.461795 0.682019
O O1 0.780723 0.750000 0.775121
O O2 0.745397 0.470855 0.821580
O O3 0.729415 0.463719 0.729778
O O4 0.000000 0.500000 0.772276
O O5 0.291252 0.591558 0.559272
O O6 0.205669 0.595034 0.487355
O O7 0.776526 0.250000 0.086543
O O8 0.792274 0.520765 0.140285
O O9 0.000000 0.500000 0.076749
O O10 0.779222 0.750000 0.871219
O O11 0.720194 0.455331 0.911168
O O12 0.000000 0.500000 0.871327
O O13 0.500000 0.500000 0.470957
O O14 0.278070 0.250000 0.478971
O O15 0.500000 0.500000 0.671845
O O16 0.284769 0.250000 0.684842
#
# Coordination Sequence:
#
# PCOD9361101 Si02
#       6
#     8   4   8   8   8   8
#     4   9  19  37  63  94 131 172 216 263 323 390
#     4  12  26  46  70 100 128 174 220 284 322 404
#     4  11  24  46  71  98 133 172 224 274 333 394
#     4  10  20  39  64  98 135 173 219 275 329 387
#     4  12  25  47  69  96 133 176 223 271 335 398
#     4  10  23  40  61  96 132 172 217 269 326 391
#
# _framework density 23.503938999999999
#
# number of rings (size 3 to 8) (size 9 to 14) (size 15 to 20)
#    0.000    1.455    2.727    1.636    1.273    3.636 
#    6.545    1.818    0.000    0.000    0.000    0.000 
#    0.000    0.000    0.000    0.000    0.000    0.000 
#
# Total GULP energy -122486.209119 kJ/mol
# GULP energy per Si atom -5567.554960 kJ/mol
# Density = 2.345044 g / cm^3
# Si number density = 23.503939 Si / 1000 Ang^3
#
#
#
# Elastic Constant Matrix: (Units=GPa)
#
#
# Indices 1 2 3 4 5 6 
#
# 1 33.4732 -0.1249 7.2643 0.0000 0.0000 0.0000
# 2 -0.1249 178.1705 54.3356 0.0000 0.0000 0.0000
# 3 7.2643 54.3356 166.8807 0.0000 0.0000 0.0000
# 4 0.0000 0.0000 0.0000 24.9652 0.0000 0.0000
# 5 0.0000 0.0000 0.0000 0.0000 19.5790 0.0000
# 6 0.0000 0.0000 0.0000 0.0000 0.0000 13.6814
#
#
#
# Elastic Compliance Matrix: (Units=1/GPa)
#
#
# Indices 1 2 3 4 5 6 
#
# 1 0.030195 0.000469 -0.001467 0.000000 0.000000 0.000000
# 2 0.000469 0.006239 -0.002052 0.000000 0.000000 0.000000
# 3 -0.001467 -0.002052 0.006724 0.000000 0.000000 0.000000
# 4 0.000000 0.000000 0.000000 0.040056 0.000000 0.000000
# 5 0.000000 0.000000 0.000000 0.000000 0.051075 0.000000
# 6 0.000000 0.000000 0.000000 0.000000 0.000000 0.073092
#
#
# Mechanical properties :
#
#
# Convention : Reuss Voigt Hill
#
# Bulk Modulus (GPa) = 26.98517 55.71939 41.35228
# Shear Modulus (GPa) = 22.14027 32.78175 27.46101
#
# Velocity S-wave (km/s) = 3.07250 3.73867 3.42183
# Velocity P-wave (km/s) = 4.90847 6.51112 5.76575
#
# Compressibility (1/GPa) = 0.03705739
#
# Stress axis : x y z
#
# Youngs Moduli (GPa) = 33.11836 160.29206 148.71728
#
# Poissons Ratio (x) = -0.07510 0.21816
# Poissons Ratio (y) = -0.01552 0.30512
# Poissons Ratio (z) = 0.04858 0.32886
#
# Static dielectric constant tensor:
#      x y z
#    x 1.884420 0.000000 0.000000 
#    y 0.000000 1.916650 0.000000 
#    z 0.000000 0.000000 1.945360 
# 
# From -- ./inp_files/17454.got.cif
#   From: 2010.05.17/outbox.cif.g08.bks.cpg/sg39_9_cif.got.tgz:17454.got - 2010.06.03 18:22:40.
