data_PCOD9361626
_publ_section_title
;
Structure prediction by ZEFSAII (Michael W. Deem and Ramdas Pophale) SiO2 
 PCOD9361626
Probable space group: A B M 2
;
_chemical_formula_sum "Si O2"
_cell_formula_units_Z 48
_cell_length_a 8.977006
_cell_length_b 19.653996
_cell_length_c 13.615866
_cell_angle_alpha 90.000000
_cell_angle_beta 90.000000
_cell_angle_gamma 90.000000
_cell_volume 2402.302247
_symmetry_space_group_name_H-M "A B M 2"
_symmetry_group_IT_number 39
_symmetry_cell_setting 'orthorhombic'
loop_
_space_group_symop_operation_xyz
x,y,z
-x,-y,z
-x,1/2+y,z
x,1/2-y,z
x,1/2+y,1/2+z
-x,1/2-y,1/2+z
-x,y,1/2+z
x,-y,1/2+z
loop_
_atom_site_type_symbol
_atom_site_label
_atom_site_fract_x
_atom_site_fract_y
_atom_site_fract_z
Si Si1 0.243718 0.174807 0.067590
Si Si2 0.154009 0.540745 0.649963
Si Si3 0.672063 0.074852 0.043865
Si Si4 0.605854 0.900748 0.902312
Si Si5 0.832930 0.526446 0.373515
Si Si6 0.458144 0.329084 0.699555
O O1 0.179165 0.250000 0.074077
O O2 0.140859 0.111594 0.094263
O O3 0.382493 0.169823 0.144064
O O4 0.308650 0.159088 0.959977
O O5 0.284067 0.493951 0.602872
O O6 0.185754 0.553944 0.764035
O O7 0.000000 0.500000 0.643252
O O8 0.654415 0.133915 0.123851
O O9 0.522761 0.076086 0.977848
O O10 0.797105 0.079200 0.959727
O O11 0.718420 0.963154 0.883907
O O12 0.543123 0.871919 0.800159
O O13 0.000000 0.500000 0.384696
O O14 0.420632 0.250000 0.717093
#
# Coordination Sequence:
#
# PCOD9361626 Si02
#       6
#     8   8   8   8   8   8
#     4  10  22  38  61  92 125 167 206 256 327 385
#     4  11  23  41  65  92 131 169 214 267 320 385
#     4  11  22  38  63  95 123 160 220 259 314 376
#     4  11  21  37  64  93 125 163 214 268 312 370
#     4  11  23  39  63  92 129 162 210 271 321 377
#     4  10  22  40  62  91 131 167 209 265 322 381
#
# _framework density 19.980833000000001
#
# number of rings (size 3 to 8) (size 9 to 14) (size 15 to 20)
#    0.000    1.333    3.333    2.500    2.333    0.667 
#    0.000    1.667    0.000    0.000    0.000    0.000 
#    0.000    0.000    0.000    0.000    0.000    0.000 
#
# Total GULP energy -134027.012518 kJ/mol
# GULP energy per Si atom -5584.458855 kJ/mol
# Density = 1.993536 g / cm^3
# Si number density = 19.980833 Si / 1000 Ang^3
#
#
#
# Elastic Constant Matrix: (Units=GPa)
#
#
# Indices 1 2 3 4 5 6 
#
# 1 47.2050 19.4761 17.4950 0.0000 0.0000 0.0000
# 2 19.4761 105.2924 14.8473 0.0000 0.0000 0.0000
# 3 17.4950 14.8473 113.6841 0.0000 0.0000 0.0000
# 4 0.0000 0.0000 0.0000 18.7158 0.0000 0.0000
# 5 0.0000 0.0000 0.0000 0.0000 31.5111 0.0000
# 6 0.0000 0.0000 0.0000 0.0000 0.0000 17.9852
#
#
#
# Elastic Compliance Matrix: (Units=1/GPa)
#
#
# Indices 1 2 3 4 5 6 
#
# 1 0.024008 -0.003993 -0.003173 0.000000 0.000000 0.000000
# 2 -0.003993 0.010340 -0.000736 0.000000 0.000000 0.000000
# 3 -0.003173 -0.000736 0.009381 0.000000 0.000000 0.000000
# 4 0.000000 0.000000 0.000000 0.053431 0.000000 0.000000
# 5 0.000000 0.000000 0.000000 0.000000 0.031735 0.000000
# 6 0.000000 0.000000 0.000000 0.000000 0.000000 0.055601
#
#
# Mechanical properties :
#
#
# Convention : Reuss Voigt Hill
#
# Bulk Modulus (GPa) = 35.81173 41.09092 38.45132
# Shear Modulus (GPa) = 23.85412 27.93330 25.89371
#
# Velocity S-wave (km/s) = 3.45896 3.74305 3.60380
# Velocity P-wave (km/s) = 5.82362 6.26820 6.04999
#
# Compressibility (1/GPa) = 0.02792382
#
# Stress axis : x y z
#
# Youngs Moduli (GPa) = 41.65315 96.71389 106.60169
#
# Poissons Ratio (x) = 0.38621 0.33825
# Poissons Ratio (y) = 0.16633 0.07844
# Poissons Ratio (z) = 0.13217 0.07117
#
# Static dielectric constant tensor:
#      x y z
#    x 1.733680 0.000000 0.000000 
#    y 0.000000 1.697700 0.000000 
#    z 0.000000 0.000000 1.721080 
# 
# From -- ./inp_files/8336.got.cif
#   From: 2010.05.17/outbox.cif.g08.bks.cpg/sg39_5_cif.got.tgz:8336.got - 2010.06.03 18:22:40.
