data_PCOD9361086
_publ_section_title
;
Structure prediction by ZEFSAII (Michael W. Deem and Ramdas Pophale) SiO2 
 PCOD9361086
Probable space group: A B M 2
;
_chemical_formula_sum "Si O2"
_cell_formula_units_Z 52
_cell_length_a 14.870711
_cell_length_b 21.558352
_cell_length_c 8.842583
_cell_angle_alpha 90.000000
_cell_angle_beta 90.000000
_cell_angle_gamma 90.000000
_cell_volume 2834.826195
_symmetry_space_group_name_H-M "A B M 2"
_symmetry_group_IT_number 39
_symmetry_cell_setting 'orthorhombic'
loop_
_space_group_symop_operation_xyz
x,y,z
-x,-y,z
-x,1/2+y,z
x,1/2-y,z
x,1/2+y,1/2+z
-x,1/2-y,1/2+z
-x,y,1/2+z
x,-y,1/2+z
loop_
_atom_site_type_symbol
_atom_site_label
_atom_site_fract_x
_atom_site_fract_y
_atom_site_fract_z
Si Si1 0.870443 0.250000 0.914351
Si Si2 0.500000 0.000000 0.716699
Si Si3 0.785614 0.547451 0.045331
Si Si4 0.919937 0.557472 0.516826
Si Si5 0.625502 0.049019 0.977164
Si Si6 0.231139 0.124293 0.339473
Si Si7 0.910892 0.888151 0.836168
Si Si8 0.061300 0.750000 0.268935
O O1 0.810659 0.309599 0.875194
O O2 0.954142 0.250000 0.797748
O O3 0.906139 0.250000 0.091152
O O4 0.425719 0.970868 0.825519
O O5 0.551368 0.951441 0.608504
O O6 0.874554 0.505390 0.087454
O O7 0.761893 0.600288 0.167734
O O8 0.700236 0.502960 0.020993
O O9 0.818525 0.581659 0.893413
O O10 0.842316 0.576975 0.404365
O O11 0.927118 0.601581 0.660172
O O12 0.009848 0.573153 0.421204
O O13 0.679424 0.110877 0.935712
O O14 0.909659 0.813839 0.852760
#
# Coordination Sequence:
#
# PCOD9361086 Si02
#       8
#     4   4   8   8   8   8   8   4
#     4  12  26  42  60  78 126 173 227 265 294 345
#     4  10  20  38  68  96 126 148 182 250 324 394
#     4  11  24  37  58  90 125 152 200 250 316 371
#     4  11  22  38  55  81 118 162 202 257 312 351
#     4  10  21  39  64  98 123 152 190 245 320 390
#     4  11  22  40  61  86 124 164 207 256 300 367
#     4  12  23  37  57  79 120 165 213 259 295 355
#     4  12  24  42  56  82 112 175 233 255 288 343
#
# _framework density 18.343275999999999
#
# number of rings (size 3 to 8) (size 9 to 14) (size 15 to 20)
#    0.000    0.923    4.615    3.231    4.308    1.231 
#    0.000    0.000    0.000    0.923    0.000    0.000 
#    0.000    0.000    0.000    0.000    0.000    0.000 
#
# Total GULP energy -144772.181224 kJ/mol
# GULP energy per Si atom -5568.160816 kJ/mol
# Density = 1.830153 g / cm^3
# Si number density = 18.343276 Si / 1000 Ang^3
#
#
#
# Elastic Constant Matrix: (Units=GPa)
#
#
# Indices 1 2 3 4 5 6 
#
# 1 53.9261 27.3941 26.0803 0.0000 0.0000 0.0000
# 2 27.3941 91.2753 12.0072 0.0000 0.0000 0.0000
# 3 26.0803 12.0072 82.1406 0.0000 0.0000 0.0000
# 4 0.0000 0.0000 0.0000 20.6473 0.0000 0.0000
# 5 0.0000 0.0000 0.0000 0.0000 24.4719 0.0000
# 6 0.0000 0.0000 0.0000 0.0000 0.0000 20.6369
#
#
#
# Elastic Compliance Matrix: (Units=1/GPa)
#
#
# Indices 1 2 3 4 5 6 
#
# 1 0.025359 -0.006680 -0.007075 0.000000 0.000000 0.000000
# 2 -0.006680 0.012930 0.000231 0.000000 0.000000 0.000000
# 3 -0.007075 0.000231 0.014387 0.000000 0.000000 0.000000
# 4 0.000000 0.000000 0.000000 0.048432 0.000000 0.000000
# 5 0.000000 0.000000 0.000000 0.000000 0.040863 0.000000
# 6 0.000000 0.000000 0.000000 0.000000 0.000000 0.048457
#
#
# Mechanical properties :
#
#
# Convention : Reuss Voigt Hill
#
# Bulk Modulus (GPa) = 39.02075 39.81167 39.41621
# Shear Modulus (GPa) = 22.12188 23.94193 23.03190
#
# Velocity S-wave (km/s) = 3.47651 3.61670 3.54730
# Velocity P-wave (km/s) = 6.11829 6.26031 6.18971
#
# Compressibility (1/GPa) = 0.02562739
#
# Stress axis : x y z
#
# Youngs Moduli (GPa) = 39.43343 77.33708 69.50752
#
# Poissons Ratio (x) = 0.51663 0.49178
# Poissons Ratio (y) = 0.26342 -0.01605
# Poissons Ratio (z) = 0.27900 -0.01786
#
# Static dielectric constant tensor:
#      x y z
#    x 1.660680 0.000000 0.000000 
#    y 0.000000 1.658070 0.000000 
#    z 0.000000 0.000000 1.641330 
# 
# From -- ./inp_files/3369.got.cif
#   From: 2010.05.17/outbox.cif.g08.bks.cpg/sg39_2_cif.got.tgz:3369.got - 2010.06.03 18:22:40.
