data_PCOD9361922
_publ_section_title
;
Structure prediction by ZEFSAII (Michael W. Deem and Ramdas Pophale) SiO2 
 PCOD9361922
Probable space group: A B M 2
;
_chemical_formula_sum "Si O2"
_cell_formula_units_Z 24
_cell_length_a 5.156909
_cell_length_b 20.932193
_cell_length_c 10.000707
_cell_angle_alpha 90.000000
_cell_angle_beta 90.000000
_cell_angle_gamma 90.000000
_cell_volume 1079.530462
_symmetry_space_group_name_H-M "A B M 2"
_symmetry_group_IT_number 39
_symmetry_cell_setting 'orthorhombic'
loop_
_space_group_symop_operation_xyz
x,y,z
-x,-y,z
-x,1/2+y,z
x,1/2-y,z
x,1/2+y,1/2+z
-x,1/2-y,1/2+z
-x,y,1/2+z
x,-y,1/2+z
loop_
_atom_site_type_symbol
_atom_site_label
_atom_site_fract_x
_atom_site_fract_y
_atom_site_fract_z
Si Si1 0.242504 0.821566 0.892620
Si Si2 0.049776 0.879136 0.640502
Si Si3 0.461930 0.429772 0.764431
O O1 0.326713 0.750000 0.927328
O O2 0.472255 0.872508 0.867228
O O3 0.099959 0.823390 0.749215
O O4 0.051221 0.850316 0.003293
O O5 0.818900 0.921275 0.702041
O O6 0.316455 0.918727 0.650532
O O7 0.500000 0.500000 0.822979
#
# Coordination Sequence:
#
# PCOD9361922 Si02
#       3
#     8   8   8
#     4  10  24  43  70 101 139 179 228 287 345 411
#     4  10  24  43  67 101 133 181 226 283 340 411
#     4  10  24  45  67 101 133 181 228 280 341 410
#
# _framework density 22.231888000000001
#
# number of rings (size 3 to 8) (size 9 to 14) (size 15 to 20)
#    2.000    0.000    0.000    2.000    4.667    4.000 
#    6.000    0.000    0.000    0.000    0.000    0.000 
#    0.000    0.000    0.000    0.000    0.000    0.000 
#
# Total GULP energy -66881.740874 kJ/mol
# GULP energy per Si atom -5573.478406 kJ/mol
# Density = 2.218129 g / cm^3
# Si number density = 22.231888 Si / 1000 Ang^3
#
#
#
# Elastic Constant Matrix: (Units=GPa)
#
#
# Indices 1 2 3 4 5 6 
#
# 1 86.6248 10.9960 -5.4562 0.0000 0.0000 0.0000
# 2 10.9960 130.4663 -12.3396 0.0000 0.0000 0.0000
# 3 -5.4562 -12.3396 55.3447 0.0000 0.0000 0.0000
# 4 0.0000 0.0000 0.0000 7.8317 0.0000 0.0000
# 5 0.0000 0.0000 0.0000 0.0000 25.6026 0.0000
# 6 0.0000 0.0000 0.0000 0.0000 0.0000 21.1752
#
#
#
# Elastic Compliance Matrix: (Units=1/GPa)
#
#
# Indices 1 2 3 4 5 6 
#
# 1 0.011718 -0.000897 0.000955 0.000000 0.000000 0.000000
# 2 -0.000897 0.007899 0.001673 0.000000 0.000000 0.000000
# 3 0.000955 0.001673 0.018536 0.000000 0.000000 0.000000
# 4 0.000000 0.000000 0.000000 0.127686 0.000000 0.000000
# 5 0.000000 0.000000 0.000000 0.000000 0.039059 0.000000
# 6 0.000000 0.000000 0.000000 0.000000 0.000000 0.047225
#
#
# Mechanical properties :
#
#
# Convention : Reuss Voigt Hill
#
# Bulk Modulus (GPa) = 24.03071 28.75956 26.39514
# Shear Modulus (GPa) = 19.04529 29.53761 24.29145
#
# Velocity S-wave (km/s) = 2.93006 3.64897 3.30910
# Velocity P-wave (km/s) = 4.72013 5.54234 5.14768
#
# Compressibility (1/GPa) = 0.04161342
#
# Stress axis : x y z
#
# Youngs Moduli (GPa) = 85.33802 126.60412 53.95009
#
# Poissons Ratio (x) = 0.11360 -0.05153
# Poissons Ratio (y) = 0.07657 -0.09024
# Poissons Ratio (z) = -0.08151 -0.21176
#
# Static dielectric constant tensor:
#      x y z
#    x 1.818710 0.000000 0.000000 
#    y 0.000000 1.806060 0.000000 
#    z 0.000000 0.000000 1.826410 
# 
# From -- ./inp_files/1642.got.cif
#   From: 2010.05.17/outbox.cif.g08.bks.cpg/sg39_1_cif.got.tgz:1642.got - 2010.06.03 18:22:40.
