data_PCOD9361001
_publ_section_title
;
Structure prediction by ZEFSAII (Michael W. Deem and Ramdas Pophale) SiO2 
 PCOD9361001
Probable space group: A B M 2
;
_chemical_formula_sum "Si O2"
_cell_formula_units_Z 64
_cell_length_a 24.236362
_cell_length_b 8.710994
_cell_length_c 15.805715
_cell_angle_alpha 90.000000
_cell_angle_beta 90.000000
_cell_angle_gamma 90.000000
_cell_volume 3336.946869
_symmetry_space_group_name_H-M "A B M 2"
_symmetry_group_IT_number 39
_symmetry_cell_setting 'orthorhombic'
loop_
_space_group_symop_operation_xyz
x,y,z
-x,-y,z
-x,1/2+y,z
x,1/2-y,z
x,1/2+y,1/2+z
-x,1/2-y,1/2+z
-x,y,1/2+z
x,-y,1/2+z
loop_
_atom_site_type_symbol
_atom_site_label
_atom_site_fract_x
_atom_site_fract_y
_atom_site_fract_z
Si Si1 0.371046 0.934799 0.276790
Si Si2 0.751395 0.565950 0.835851
Si Si3 0.133888 0.933274 0.775069
Si Si4 0.438370 0.065963 0.435605
Si Si5 0.061379 0.935637 0.935616
Si Si6 0.751370 0.065950 0.535368
Si Si7 0.133915 0.433274 0.596139
Si Si8 0.628927 0.565200 0.094440
O O1 0.375537 0.750000 0.278326
O O2 0.306954 0.976247 0.294390
O O3 0.406738 0.004446 0.352713
O O4 0.387656 0.000003 0.185621
O O5 0.757753 0.750000 0.828665
O O6 0.803831 0.486942 0.793850
O O7 0.749644 0.527208 0.935609
O O8 0.132757 0.750000 0.771693
O O9 0.095319 0.985118 0.852567
O O10 0.115407 0.000010 0.685600
O O11 0.439065 0.250000 0.435602
O O12 0.500000 0.000000 0.435569
O O13 0.406782 0.004452 0.518537
O O14 0.059482 0.750000 0.935618
O O15 0.095360 0.985121 0.018625
O O16 0.000000 0.000000 0.935649
O O17 0.757722 0.250000 0.542556
O O18 0.693015 0.023744 0.576803
O O19 0.803801 0.986957 0.577395
O O20 0.132789 0.250000 0.599504
O O21 0.624437 0.750000 0.092905
#
# Coordination Sequence:
#
# PCOD9361001 Si02
#       8
#     8   8   8   8   8   8   8   8
#     4  11  23  42  65  96 131 165 208 256 307 371
#     4  10  20  37  63  94 127 164 201 246 304 364
#     4  11  23  40  61  91 124 159 202 250 302 364
#     4  12  26  45  68  93 123 166 212 262 315 366
#     4  10  24  43  62  85 117 156 204 254 305 360
#     4  10  20  37  63  94 127 164 201 246 304 364
#     4  11  23  40  61  91 124 159 202 250 302 364
#     4  11  23  42  65  96 131 165 208 256 307 371
#
# _framework density 19.179209
#
# number of rings (size 3 to 8) (size 9 to 14) (size 15 to 20)
#    0.000    1.250    2.500    3.375    0.000    7.000 
#    0.000    5.000    0.000    0.000    0.000    0.000 
#    0.000    0.000    0.000    0.000    0.000    0.000 
#
# Total GULP energy -178989.357505 kJ/mol
# GULP energy per Si atom -5593.417422 kJ/mol
# Density = 1.913556 g / cm^3
# Si number density = 19.179209 Si / 1000 Ang^3
#
#
#
# Elastic Constant Matrix: (Units=GPa)
#
#
# Indices 1 2 3 4 5 6 
#
# 1 153.1586 54.4923 92.3507 0.0000 0.0000 0.0000
# 2 54.4923 62.4726 62.3315 0.0000 0.0000 0.0000
# 3 92.3507 62.3315 205.6143 0.0000 0.0000 0.0000
# 4 0.0000 0.0000 0.0000 34.6893 0.0000 0.0000
# 5 0.0000 0.0000 0.0000 0.0000 -4.1227 0.0000
# 6 0.0000 0.0000 0.0000 0.0000 0.0000 34.9568
#
#
#
# Elastic Compliance Matrix: (Units=1/GPa)
#
#
# Indices 1 2 3 4 5 6 
#
# 1 0.010464 -0.006362 -0.002771 0.000000 0.000000 0.000000
# 2 -0.006362 0.026816 -0.005272 0.000000 0.000000 0.000000
# 3 -0.002771 -0.005272 0.007706 0.000000 0.000000 0.000000
# 4 0.000000 0.000000 0.000000 0.028827 0.000000 0.000000
# 5 0.000000 0.000000 0.000000 0.000000 -0.242562 0.000000
# 6 0.000000 0.000000 0.000000 0.000000 0.000000 0.028607
#
#
# Mechanical properties :
#
#
# Convention : Reuss Voigt Hill
#
# Bulk Modulus (GPa) = 61.81920 93.28829 77.55375
# Shear Modulus (GPa) = -47.19675 27.24275 -9.97700
#
# Velocity S-wave (km/s) = -4.96606 3.77295 -2.28326
# Velocity P-wave (km/s) = 0.76151 8.22959 5.79423
#
# Compressibility (1/GPa) = 0.01617620
#
# Stress axis : x y z
#
# Youngs Moduli (GPa) = 95.56886 37.29055 129.76620
#
# Poissons Ratio (x) = 0.23725 0.35958
# Poissons Ratio (y) = 0.60804 0.68409
# Poissons Ratio (z) = 0.26482 0.19659
#
# Static dielectric constant tensor:
#      x y z
#    x 1.633270 0.000000 0.000000 
#    y 0.000000 1.641270 0.000000 
#    z 0.000000 0.000000 1.661400 
# 
# From -- ./inp_files/10643.got.cif
#   From: 2010.05.17/outbox.cif.g08.bks.cpg/sg39_6_cif.got.tgz:10643.got - 2010.06.03 18:22:40.
