data_PCOD9361077
_publ_section_title
;
Structure prediction by ZEFSAII (Michael W. Deem and Ramdas Pophale) SiO2 
 PCOD9361077
Probable space group: A B M 2
;
_chemical_formula_sum "Si O2"
_cell_formula_units_Z 64
_cell_length_a 11.412669
_cell_length_b 26.740052
_cell_length_c 9.487608
_cell_angle_alpha 90.000000
_cell_angle_beta 90.000000
_cell_angle_gamma 90.000000
_cell_volume 2895.384211
_symmetry_space_group_name_H-M "A B M 2"
_symmetry_group_IT_number 39
_symmetry_cell_setting 'orthorhombic'
loop_
_space_group_symop_operation_xyz
x,y,z
-x,-y,z
-x,1/2+y,z
x,1/2-y,z
x,1/2+y,1/2+z
-x,1/2-y,1/2+z
-x,y,1/2+z
x,-y,1/2+z
loop_
_atom_site_type_symbol
_atom_site_label
_atom_site_fract_x
_atom_site_fract_y
_atom_site_fract_z
Si Si1 0.121103 0.855825 0.734110
Si Si2 0.534320 0.628006 0.351949
Si Si3 0.361957 0.309064 0.120085
Si Si4 0.357413 0.496055 0.487519
Si Si5 0.641971 0.391905 0.141754
Si Si6 0.007331 0.808524 0.480885
Si Si7 0.265703 0.445454 0.236687
Si Si8 0.740640 0.808444 0.824233
O O1 0.236697 0.827805 0.677743
O O2 0.023163 0.838592 0.624433
O O3 0.145062 0.915074 0.734824
O O4 0.089840 0.834205 0.885311
O O5 0.549110 0.674811 0.245595
O O6 0.428405 0.596514 0.285536
O O7 0.558132 0.631161 0.517993
O O8 0.644266 0.594280 0.301443
O O9 0.366158 0.250000 0.113954
O O10 0.352126 0.322914 0.951298
O O11 0.500000 0.500000 0.474117
O O12 0.324517 0.444967 0.574122
O O13 0.286476 0.491324 0.342218
O O14 0.310252 0.540791 0.582611
O O15 0.726994 0.347820 0.196569
O O16 0.983444 0.750000 0.507870
O O17 0.130895 0.811337 0.395265
O O18 0.721617 0.750000 0.784533
#
# Coordination Sequence:
#
# PCOD9361077 Si02
#       8
#     8   8   8   8   8   8   8   8
#     4  10  21  38  61  93 127 157 208 260 320 369
#     4  10  21  34  51  83 114 152 198 250 310 364
#     4   9  18  35  55  79 117 158 197 244 304 372
#     4  11  22  39  65  89 121 160 214 262 313 376
#     4  11  22  35  57  84 119 156 204 257 308 368
#     4  10  20  38  66  94 124 166 211 256 308 376
#     4  10  23  39  60  92 121 159 206 265 318 369
#     4   9  20  37  57  85 118 161 206 250 308 369
#
# _framework density 22.104147999999999
#
# number of rings (size 3 to 8) (size 9 to 14) (size 15 to 20)
#    0.000    2.000    1.250    3.000    1.750    7.000 
#    0.000    1.250    0.000    6.000    0.000    0.000 
#    0.000    0.000    0.000    0.000    0.000    0.000 
#
# Total GULP energy -178309.276641 kJ/mol
# GULP energy per Si atom -5572.164895 kJ/mol
# Density = 2.205384 g / cm^3
# Si number density = 22.104148 Si / 1000 Ang^3
#
#
#
# Elastic Constant Matrix: (Units=GPa)
#
#
# Indices 1 2 3 4 5 6 
#
# 1 23.2046 9.5095 20.5712 0.0000 0.0000 0.0000
# 2 9.5095 66.9899 41.5905 0.0000 0.0000 0.0000
# 3 20.5712 41.5905 123.9236 0.0000 0.0000 0.0000
# 4 0.0000 0.0000 0.0000 29.9327 0.0000 0.0000
# 5 0.0000 0.0000 0.0000 0.0000 37.6635 0.0000
# 6 0.0000 0.0000 0.0000 0.0000 0.0000 23.6840
#
#
#
# Elastic Compliance Matrix: (Units=1/GPa)
#
#
# Indices 1 2 3 4 5 6 
#
# 1 0.050860 -0.002499 -0.007604 0.000000 0.000000 0.000000
# 2 -0.002499 0.018979 -0.005955 0.000000 0.000000 0.000000
# 3 -0.007604 -0.005955 0.011330 0.000000 0.000000 0.000000
# 4 0.000000 0.000000 0.000000 0.033408 0.000000 0.000000
# 5 0.000000 0.000000 0.000000 0.000000 0.026551 0.000000
# 6 0.000000 0.000000 0.000000 0.000000 0.000000 0.042223
#
#
# Mechanical properties :
#
#
# Convention : Reuss Voigt Hill
#
# Bulk Modulus (GPa) = 20.38565 39.71782 30.05174
# Shear Modulus (GPa) = 21.56857 27.75251 24.66054
#
# Velocity S-wave (km/s) = 3.12712 3.54720 3.34376
# Velocity P-wave (km/s) = 4.72028 5.89782 5.34160
#
# Compressibility (1/GPa) = 0.04905411
#
# Stress axis : x y z
#
# Youngs Moduli (GPa) = 19.66178 52.68856 88.25874
#
# Poissons Ratio (x) = 0.13166 0.67112
# Poissons Ratio (y) = 0.04913 0.52558
# Poissons Ratio (z) = 0.14951 0.31376
#
# Static dielectric constant tensor:
#      x y z
#    x 1.850310 0.000000 0.000000 
#    y 0.000000 1.922400 0.000000 
#    z 0.000000 0.000000 1.925390 
# 
# From -- ./inp_files/2922.got.cif
#   From: 2010.05.17/outbox.cif.g08.bks.cpg/sg39_2_cif.got.tgz:2922.got - 2010.06.03 18:22:40.
