data_PCOD9361166
_publ_section_title
;
Structure prediction by ZEFSAII (Michael W. Deem and Ramdas Pophale) SiO2 
 PCOD9361166
Probable space group: A B M 2
;
_chemical_formula_sum "Si O2"
_cell_formula_units_Z 64
_cell_length_a 8.464759
_cell_length_b 23.146560
_cell_length_c 14.153026
_cell_angle_alpha 90.000000
_cell_angle_beta 90.000000
_cell_angle_gamma 90.000000
_cell_volume 2773.003121
_symmetry_space_group_name_H-M "A B M 2"
_symmetry_group_IT_number 39
_symmetry_cell_setting 'orthorhombic'
loop_
_space_group_symop_operation_xyz
x,y,z
-x,-y,z
-x,1/2+y,z
x,1/2-y,z
x,1/2+y,1/2+z
-x,1/2-y,1/2+z
-x,y,1/2+z
x,-y,1/2+z
loop_
_atom_site_type_symbol
_atom_site_label
_atom_site_fract_x
_atom_site_fract_y
_atom_site_fract_z
Si Si1 0.097777 0.926730 0.649200
Si Si2 0.925148 0.315421 0.227399
Si Si3 0.412243 0.864193 0.168912
Si Si4 0.019971 0.815360 0.450849
Si Si5 0.661190 0.632107 0.028273
Si Si6 0.562676 0.433519 0.346943
Si Si7 0.807292 0.580131 0.524393
Si Si8 0.171741 0.010198 0.345060
O O1 0.249375 0.920437 0.582179
O O2 0.146092 0.958901 0.745138
O O3 0.037469 0.862681 0.679595
O O4 0.945025 0.946877 0.589548
O O5 0.961562 0.250000 0.198052
O O6 0.740144 0.328198 0.203950
O O7 0.957937 0.320575 0.338582
O O8 0.546964 0.836570 0.103205
O O9 0.491277 0.895905 0.258207
O O10 0.334412 0.910216 0.096960
O O11 0.972861 0.750000 0.473413
O O12 0.193138 0.829802 0.491886
O O13 0.889377 0.860548 0.487551
O O14 0.565491 0.604909 0.940639
O O15 0.500000 0.500000 0.343810
O O16 0.748089 0.448589 0.330078
O O17 0.753445 0.547383 0.429772
O O18 0.000000 0.000000 0.385969
#
# Coordination Sequence:
#
# PCOD9361166 Si02
#       8
#     8   8   8   8   8   8   8   8
#     4  10  22  37  61  91 123 160 207 253 308 366
#     4  10  20  41  69  93 125 163 201 253 319 375
#     4  11  24  42  63  92 126 164 211 254 307 374
#     4  10  20  41  69  93 125 163 201 253 319 375
#     4  11  24  42  63  92 126 164 211 254 307 374
#     4  12  26  42  62  85 128 173 208 254 314 361
#     4  10  22  37  61  91 123 160 207 253 308 366
#     4  12  22  36  58  87 122 157 210 262 302 351
#
# _framework density 23.07967
#
# number of rings (size 3 to 8) (size 9 to 14) (size 15 to 20)
#    0.000    1.250    2.500    4.500    0.000   11.000 
#    0.000    0.000    0.000    3.000    0.000    0.000 
#    0.000    0.000    0.000    0.000    0.000    0.000 
#
# Total GULP energy -178827.438572 kJ/mol
# GULP energy per Si atom -5588.357455 kJ/mol
# Density = 2.302714 g / cm^3
# Si number density = 23.079670 Si / 1000 Ang^3
#
#
#
# Elastic Constant Matrix: (Units=GPa)
#
#
# Indices 1 2 3 4 5 6 
#
# 1 38.8618 -8.6865 8.8486 0.0000 0.0000 0.0000
# 2 -8.6865 78.1226 25.3731 0.0000 0.0000 0.0000
# 3 8.8486 25.3731 166.9277 0.0000 0.0000 0.0000
# 4 0.0000 0.0000 0.0000 4.4813 0.0000 0.0000
# 5 0.0000 0.0000 0.0000 0.0000 35.3754 0.0000
# 6 0.0000 0.0000 0.0000 0.0000 0.0000 26.8445
#
#
#
# Elastic Compliance Matrix: (Units=1/GPa)
#
#
# Indices 1 2 3 4 5 6 
#
# 1 0.026999 0.003647 -0.001986 0.000000 0.000000 0.000000
# 2 0.003647 0.013958 -0.002315 0.000000 0.000000 0.000000
# 3 -0.001986 -0.002315 0.006448 0.000000 0.000000 0.000000
# 4 0.000000 0.000000 0.000000 0.223148 0.000000 0.000000
# 5 0.000000 0.000000 0.000000 0.000000 0.028268 0.000000
# 6 0.000000 0.000000 0.000000 0.000000 0.000000 0.037252
#
#
# Mechanical properties :
#
#
# Convention : Reuss Voigt Hill
#
# Bulk Modulus (GPa) = 21.69289 37.22027 29.45658
# Shear Modulus (GPa) = 14.17453 30.56538 22.36995
#
# Velocity S-wave (km/s) = 2.48091 3.64310 3.11665
# Velocity P-wave (km/s) = 4.19834 5.81877 5.07367
#
# Compressibility (1/GPa) = 0.04609804
#
# Stress axis : x y z
#
# Youngs Moduli (GPa) = 37.03773 71.64473 155.09324
#
# Poissons Ratio (x) = -0.26129 0.30794
# Poissons Ratio (y) = -0.13508 0.35903
# Poissons Ratio (z) = 0.07354 0.16585
#
# Static dielectric constant tensor:
#      x y z
#    x 1.994130 0.000000 0.000000 
#    y 0.000000 1.893560 0.000000 
#    z 0.000000 0.000000 1.885100 
# 
# From -- ./inp_files/8788.got.cif
#   From: 2010.05.17/outbox.cif.g08.bks.cpg/sg39_5_cif.got.tgz:8788.got - 2010.06.03 18:22:40.
