data_PCOD9361528
_publ_section_title
;
Structure prediction by ZEFSAII (Michael W. Deem and Ramdas Pophale) SiO2 
 PCOD9361528
Probable space group: A B M 2
;
_chemical_formula_sum "Si O2"
_cell_formula_units_Z 64
_cell_length_a 22.398992
_cell_length_b 15.320158
_cell_length_c 9.479472
_cell_angle_alpha 90.000000
_cell_angle_beta 90.000000
_cell_angle_gamma 90.000000
_cell_volume 3252.938608
_symmetry_space_group_name_H-M "A B M 2"
_symmetry_group_IT_number 39
_symmetry_cell_setting 'orthorhombic'
loop_
_space_group_symop_operation_xyz
x,y,z
-x,-y,z
-x,1/2+y,z
x,1/2-y,z
x,1/2+y,1/2+z
-x,1/2-y,1/2+z
-x,y,1/2+z
x,-y,1/2+z
loop_
_atom_site_type_symbol
_atom_site_label
_atom_site_fract_x
_atom_site_fract_y
_atom_site_fract_z
Si Si1 0.064500 0.653970 0.619470
Si Si2 0.669325 0.853666 0.557799
Si Si3 0.037511 0.409802 0.807762
Si Si4 0.849984 0.490526 0.745752
Si Si5 0.232608 0.008103 0.494877
Si Si6 0.449968 0.143646 0.386507
Si Si7 0.315324 0.646028 0.393166
Si Si8 0.435424 0.643732 0.563047
O O1 0.089887 0.750000 0.620205
O O2 0.047419 0.626778 0.462345
O O3 0.112791 0.589302 0.684095
O O4 0.004165 0.648626 0.710705
O O5 0.679727 0.750000 0.533864
O O6 0.719991 0.913789 0.488693
O O7 0.606582 0.877309 0.484860
O O8 0.669471 0.867088 0.727331
O O9 0.102459 0.430767 0.744080
O O10 0.000000 0.500000 0.819602
O O11 0.791156 0.502916 0.653535
O O12 0.826478 0.475365 0.902705
O O13 0.262799 0.918241 0.442766
O O14 0.452920 0.250000 0.380219
O O15 0.510299 0.113591 0.463550
O O16 0.441881 0.112950 0.224970
O O17 0.302091 0.750000 0.411095
O O18 0.372615 0.623053 0.489554
O O19 0.438489 0.750000 0.567171
#
# Coordination Sequence:
#
# PCOD9361528 Si02
#       8
#     8   8   8   8   8   8   8   8
#     4  11  23  40  65  98 126 154 199 253 300 351
#     4  10  22  40  61  87 120 161 206 255 309 367
#     4  10  21  41  65  90 124 162 197 240 302 362
#     4  11  24  42  65  87 121 169 204 242 300 363
#     4  12  24  43  63  89 124 166 210 252 300 356
#     4   9  17  31  55  86 119 155 200 254 313 371
#     4  10  22  40  62  87 120 162 206 253 310 369
#     4   9  17  31  55  86 118 155 199 253 313 372
#
# _framework density 19.674519
#
# number of rings (size 3 to 8) (size 9 to 14) (size 15 to 20)
#    0.000    1.750    2.500    2.250    3.500    4.000 
#    0.000    1.875    0.000    3.000    0.000    0.000 
#    0.000    0.000    0.000    0.000    0.000    0.000 
#
# Total GULP energy -178681.785705 kJ/mol
# GULP energy per Si atom -5583.805803 kJ/mol
# Density = 1.962974 g / cm^3
# Si number density = 19.674519 Si / 1000 Ang^3
#
#
#
# Elastic Constant Matrix: (Units=GPa)
#
#
# Indices 1 2 3 4 5 6 
#
# 1 91.3879 27.4107 29.3884 0.0000 0.0000 0.0000
# 2 27.4107 46.5640 28.0549 0.0000 0.0000 0.0000
# 3 29.3884 28.0549 73.9021 0.0000 0.0000 0.0000
# 4 0.0000 0.0000 0.0000 73.6168 0.0000 0.0000
# 5 0.0000 0.0000 0.0000 0.0000 56.4675 0.0000
# 6 0.0000 0.0000 0.0000 0.0000 0.0000 15.8010
#
#
#
# Elastic Compliance Matrix: (Units=1/GPa)
#
#
# Indices 1 2 3 4 5 6 
#
# 1 0.013823 -0.006256 -0.003122 0.000000 0.000000 0.000000
# 2 -0.006256 0.030676 -0.009157 0.000000 0.000000 0.000000
# 3 -0.003122 -0.009157 0.018249 0.000000 0.000000 0.000000
# 4 0.000000 0.000000 0.000000 0.013584 0.000000 0.000000
# 5 0.000000 0.000000 0.000000 0.000000 0.017709 0.000000
# 6 0.000000 0.000000 0.000000 0.000000 0.000000 0.063287
#
#
# Mechanical properties :
#
#
# Convention : Reuss Voigt Hill
#
# Bulk Modulus (GPa) = 38.94513 42.39576 40.67045
# Shear Modulus (GPa) = 24.63563 37.64373 31.13968
#
# Velocity S-wave (km/s) = 3.54243 4.37890 3.98268
# Velocity P-wave (km/s) = 6.04726 6.86744 6.47036
#
# Compressibility (1/GPa) = 0.02567715
#
# Stress axis : x y z
#
# Youngs Moduli (GPa) = 72.34463 32.59885 54.79672
#
# Poissons Ratio (x) = 0.20394 0.17107
# Poissons Ratio (y) = 0.45259 0.50180
# Poissons Ratio (z) = 0.22585 0.29852
#
# Static dielectric constant tensor:
#      x y z
#    x 1.655360 0.000000 0.000000 
#    y 0.000000 1.677430 0.000000 
#    z 0.000000 0.000000 1.661200 
# 
# From -- ./inp_files/4023.got.cif
#   From: 2010.05.17/outbox.cif.g08.bks.cpg/sg39_3_cif.got.tgz:4023.got - 2010.06.03 18:22:40.
