data_PCOD9361570
_publ_section_title
;
Structure prediction by ZEFSAII (Michael W. Deem and Ramdas Pophale) SiO2 
 PCOD9361570
Probable space group: A B M 2
;
_chemical_formula_sum "Si O2"
_cell_formula_units_Z 44
_cell_length_a 16.727953
_cell_length_b 8.702677
_cell_length_c 14.627908
_cell_angle_alpha 90.000000
_cell_angle_beta 90.000000
_cell_angle_gamma 90.000000
_cell_volume 2129.501179
_symmetry_space_group_name_H-M "A B M 2"
_symmetry_group_IT_number 39
_symmetry_cell_setting 'orthorhombic'
loop_
_space_group_symop_operation_xyz
x,y,z
-x,-y,z
-x,1/2+y,z
x,1/2-y,z
x,1/2+y,1/2+z
-x,1/2-y,1/2+z
-x,y,1/2+z
x,-y,1/2+z
loop_
_atom_site_type_symbol
_atom_site_label
_atom_site_fract_x
_atom_site_fract_y
_atom_site_fract_z
Si Si1 0.911648 0.565439 0.497210
Si Si2 0.500000 0.000000 0.238219
Si Si3 0.387344 0.579842 0.575565
Si Si4 0.205290 0.431883 0.335766
Si Si5 0.777575 0.068258 0.140288
Si Si6 0.612046 0.570397 0.389297
O O1 0.916531 0.750000 0.498856
O O2 0.864477 0.522385 0.405011
O O3 0.853065 0.518733 0.579540
O O4 0.000000 0.500000 0.503018
O O5 0.445957 0.086671 0.162744
O O6 0.431156 0.962967 0.313844
O O7 0.380153 0.750000 0.535928
O O8 0.302128 0.521129 0.611597
O O9 0.412228 0.468731 0.492669
O O10 0.196797 0.250000 0.313525
O O11 0.204938 0.530989 0.244910
O O12 0.292452 0.447689 0.382324
O O13 0.763934 0.250000 0.125275
O O14 0.592660 0.750000 0.367856
#
# Coordination Sequence:
#
# PCOD9361570 Si02
#       6
#     8   4   8   8   8   8
#     4  10  23  43  68  97 134 171 214 270 329 392
#     4  12  26  42  66  96 128 174 222 272 326 390
#     4  12  26  44  67  98 133 175 223 274 331 391
#     4  10  21  43  68  95 131 173 216 269 329 390
#     4  11  23  42  68  98 132 175 220 269 328 392
#     4  11  24  45  68  94 132 174 219 273 330 390
#
# _framework density 20.662115
#
# number of rings (size 3 to 8) (size 9 to 14) (size 15 to 20)
#    0.000    1.091    3.636    2.182    0.000    9.455 
#    0.000    3.636    0.000    0.000    0.000    0.000 
#    0.000    0.000    0.000    0.000    0.000    0.000 
#
# Total GULP energy -122771.005170 kJ/mol
# GULP energy per Si atom -5580.500235 kJ/mol
# Density = 2.061509 g / cm^3
# Si number density = 20.662115 Si / 1000 Ang^3
#
#
#
# Elastic Constant Matrix: (Units=GPa)
#
#
# Indices 1 2 3 4 5 6 
#
# 1 146.5169 41.8809 41.6983 0.0000 0.0000 0.0000
# 2 41.8809 33.5047 20.0158 0.0000 0.0000 0.0000
# 3 41.6983 20.0158 121.6421 0.0000 0.0000 0.0000
# 4 0.0000 0.0000 0.0000 82.6661 0.0000 0.0000
# 5 0.0000 0.0000 0.0000 0.0000 24.5525 0.0000
# 6 0.0000 0.0000 0.0000 0.0000 0.0000 -29.5710
#
#
#
# Elastic Compliance Matrix: (Units=1/GPa)
#
#
# Indices 1 2 3 4 5 6 
#
# 1 0.010914 -0.012651 -0.001659 0.000000 0.000000 0.000000
# 2 -0.012651 0.047764 -0.003523 0.000000 0.000000 0.000000
# 3 -0.001659 -0.003523 0.009369 0.000000 0.000000 0.000000
# 4 0.000000 0.000000 0.000000 0.012097 0.000000 0.000000
# 5 0.000000 0.000000 0.000000 0.000000 0.040729 0.000000
# 6 0.000000 0.000000 0.000000 0.000000 0.000000 -0.033817
#
#
# Mechanical properties :
#
#
# Convention : Reuss Voigt Hill
#
# Bulk Modulus (GPa) = 30.88200 56.53933 43.71066
# Shear Modulus (GPa) = 37.44874 28.73410 33.09142
#
# Velocity S-wave (km/s) = 4.26189 3.73321 4.00628
# Velocity P-wave (km/s) = 6.26074 6.78275 6.52697
#
# Compressibility (1/GPa) = 0.03238132
#
# Stress axis : x y z
#
# Youngs Moduli (GPa) = 91.62959 20.93613 106.73053
#
# Poissons Ratio (x) = 0.26485 0.17712
# Poissons Ratio (y) = 1.15916 0.37601
# Poissons Ratio (z) = 0.15206 0.07376
#
# Static dielectric constant tensor:
#      x y z
#    x 1.723710 0.000000 0.000000 
#    y 0.000000 1.739370 0.000000 
#    z 0.000000 0.000000 1.715280 
# 
# From -- ./inp_files/9972.got.cif
#   From: 2010.05.17/outbox.cif.g08.bks.cpg/sg39_5_cif.got.tgz:9972.got - 2010.06.03 18:22:40.
