data_PCOD9361460
_publ_section_title
;
Structure prediction by ZEFSAII (Michael W. Deem and Ramdas Pophale) SiO2 
 PCOD9361460
Probable space group: A B M 2
;
_chemical_formula_sum "Si O2"
_cell_formula_units_Z 32
_cell_length_a 7.042723
_cell_length_b 14.052373
_cell_length_c 12.239382
_cell_angle_alpha 90.000000
_cell_angle_beta 90.000000
_cell_angle_gamma 90.000000
_cell_volume 1211.294558
_symmetry_space_group_name_H-M "A B M 2"
_symmetry_group_IT_number 39
_symmetry_cell_setting 'orthorhombic'
loop_
_space_group_symop_operation_xyz
x,y,z
-x,-y,z
-x,1/2+y,z
x,1/2-y,z
x,1/2+y,1/2+z
-x,1/2-y,1/2+z
-x,y,1/2+z
x,-y,1/2+z
loop_
_atom_site_type_symbol
_atom_site_label
_atom_site_fract_x
_atom_site_fract_y
_atom_site_fract_z
Si Si1 0.718565 0.476321 0.333810
Si Si2 0.642733 0.864409 0.610763
Si Si3 0.767262 0.643072 0.181628
Si Si4 0.020571 0.859583 0.974640
O O1 0.500000 0.500000 0.365603
O O2 0.704074 0.409380 0.225472
O O3 0.800113 0.574022 0.282282
O O4 0.863266 0.421193 0.412047
O O5 0.661181 0.750000 0.612205
O O6 0.767291 0.895904 0.506275
O O7 0.418290 0.886836 0.611587
O O8 0.729573 0.750000 0.221012
O O9 0.938787 0.643596 0.098548
O O10 0.022571 0.750000 0.933845
#
# Coordination Sequence:
#
# PCOD9361460 Si02
#       4
#     8   8   8   8
#     4  10  21  39  68  99 133 176 226 282 346 415
#     4   9  19  39  66  96 133 173 219 283 350 408
#     4   9  20  41  65  93 133 177 221 273 339 414
#     4  10  21  41  69  97 127 169 225 286 344 403
#
# _framework density 26.418016999999999
#
# number of rings (size 3 to 8) (size 9 to 14) (size 15 to 20)
#    0.000    2.500    0.000    0.750    0.000    5.000 
#    0.000   15.000    0.000   31.500    0.000    0.000 
#    0.000    0.000    0.000    0.000    0.000    0.000 
#
# Total GULP energy -89610.571420 kJ/mol
# GULP energy per Si atom -5600.660714 kJ/mol
# Density = 2.635789 g / cm^3
# Si number density = 26.418017 Si / 1000 Ang^3
#
#
#
# Elastic Constant Matrix: (Units=GPa)
#
#
# Indices 1 2 3 4 5 6 
#
# 1 176.2961 59.3893 82.6766 0.0000 0.0000 0.0000
# 2 59.3893 118.9959 39.6539 0.0000 0.0000 0.0000
# 3 82.6766 39.6539 112.1008 0.0000 0.0000 0.0000
# 4 0.0000 0.0000 0.0000 45.6945 0.0000 0.0000
# 5 0.0000 0.0000 0.0000 0.0000 61.7483 0.0000
# 6 0.0000 0.0000 0.0000 0.0000 0.0000 41.1592
#
#
#
# Elastic Compliance Matrix: (Units=1/GPa)
#
#
# Indices 1 2 3 4 5 6 
#
# 1 0.009375 -0.002692 -0.005962 0.000000 0.000000 0.000000
# 2 -0.002692 0.010300 -0.001658 0.000000 0.000000 0.000000
# 3 -0.005962 -0.001658 0.013904 0.000000 0.000000 0.000000
# 4 0.000000 0.000000 0.000000 0.021884 0.000000 0.000000
# 5 0.000000 0.000000 0.000000 0.000000 0.016195 0.000000
# 6 0.000000 0.000000 0.000000 0.000000 0.000000 0.024296
#
#
# Mechanical properties :
#
#
# Convention : Reuss Voigt Hill
#
# Bulk Modulus (GPa) = 77.19113 85.64805 81.41959
# Shear Modulus (GPa) = 41.35760 44.76526 43.06143
#
# Velocity S-wave (km/s) = 3.96094 4.12089 4.04171
# Velocity P-wave (km/s) = 7.08529 7.42516 7.25722
#
# Compressibility (1/GPa) = 0.01295486
#
# Stress axis : x y z
#
# Youngs Moduli (GPa) = 106.66406 97.08963 71.92119
#
# Poissons Ratio (x) = 0.26139 0.42880
# Poissons Ratio (y) = 0.28717 0.11923
# Poissons Ratio (z) = 0.63594 0.16095
#
# Static dielectric constant tensor:
#      x y z
#    x 2.081260 0.000000 0.000000 
#    y 0.000000 2.147440 0.000000 
#    z 0.000000 0.000000 2.139450 
# 
# From -- ./inp_files/7893.got.cif
#   From: 2010.05.17/outbox.cif.g08.bks.cpg/sg39_4_cif.got.tgz:7893.got - 2010.06.03 18:22:40.
