data_PCOD9361604
_publ_section_title
;
Structure prediction by ZEFSAII (Michael W. Deem and Ramdas Pophale) SiO2 
 PCOD9361604
Probable space group: A B M 2
;
_chemical_formula_sum "Si O2"
_cell_formula_units_Z 56
_cell_length_a 13.461422
_cell_length_b 15.144356
_cell_length_c 11.412650
_cell_angle_alpha 90.000000
_cell_angle_beta 90.000000
_cell_angle_gamma 90.000000
_cell_volume 2326.634951
_symmetry_space_group_name_H-M "A B M 2"
_symmetry_group_IT_number 39
_symmetry_cell_setting 'orthorhombic'
loop_
_space_group_symop_operation_xyz
x,y,z
-x,-y,z
-x,1/2+y,z
x,1/2-y,z
x,1/2+y,1/2+z
-x,1/2-y,1/2+z
-x,y,1/2+z
x,-y,1/2+z
loop_
_atom_site_type_symbol
_atom_site_label
_atom_site_fract_x
_atom_site_fract_y
_atom_site_fract_z
Si Si1 0.601106 0.502282 0.898120
Si Si2 0.782394 0.039208 0.544435
Si Si3 0.777089 0.151039 0.130320
Si Si4 0.037975 0.846620 0.490647
Si Si5 0.334091 0.146979 0.231191
Si Si6 0.554865 0.652345 0.713534
Si Si7 0.963237 0.601824 0.745585
O O1 0.500000 0.500000 0.473370
O O2 0.639248 0.408560 0.848352
O O3 0.569720 0.567847 0.794374
O O4 0.688966 0.550103 0.962538
O O5 0.880945 0.077856 0.492347
O O6 0.749505 0.090559 0.662928
O O7 0.798861 0.935163 0.555652
O O8 0.803564 0.250000 0.090797
O O9 0.657077 0.150825 0.141042
O O10 0.844439 0.126688 0.245284
O O11 0.084846 0.750000 0.489393
O O12 0.987185 0.858438 0.363214
O O13 0.988966 0.857202 0.618357
O O14 0.306593 0.250000 0.248500
O O15 0.442230 0.147039 0.165136
O O16 0.556283 0.750000 0.773632
O O17 0.000000 0.500000 0.740232
#
# Coordination Sequence:
#
# PCOD9361604 Si02
#       7
#     8   8   8   8   8   8   8
#     4  10  22  37  62  94 137 184 238 292 353 417
#     4  12  25  40  70 104 137 189 237 299 358 434
#     4  11  23  42  69 102 138 184 240 299 364 436
#     4  12  27  49  78 111 149 190 242 303 377 447
#     4  10  22  42  64  97 144 186 234 292 352 423
#     4   9  19  39  66  93 135 187 234 291 356 424
#     4  12  26  51  78 110 145 189 242 309 371 446
#
# _framework density 24.069096999999999
#
# number of rings (size 3 to 8) (size 9 to 14) (size 15 to 20)
#    0.000    1.143    2.857    3.000    2.000    2.857 
#    0.000    0.000    0.000    0.000    0.000    0.000 
#    0.000    0.000    0.000    0.000    0.000    0.000 
#
# Total GULP energy -156079.180698 kJ/mol
# GULP energy per Si atom -5574.256454 kJ/mol
# Density = 2.401431 g / cm^3
# Si number density = 24.069097 Si / 1000 Ang^3
#
#
#
# Elastic Constant Matrix: (Units=GPa)
#
#
# Indices 1 2 3 4 5 6 
#
# 1 41.9279 4.7617 16.2298 0.0000 0.0000 0.0000
# 2 4.7617 171.7172 22.9567 0.0000 0.0000 0.0000
# 3 16.2298 22.9567 93.2493 0.0000 0.0000 0.0000
# 4 0.0000 0.0000 0.0000 10.8261 0.0000 0.0000
# 5 0.0000 0.0000 0.0000 0.0000 28.1730 0.0000
# 6 0.0000 0.0000 0.0000 0.0000 0.0000 35.5085
#
#
#
# Elastic Compliance Matrix: (Units=1/GPa)
#
#
# Indices 1 2 3 4 5 6 
#
# 1 0.025576 -0.000118 -0.004422 0.000000 0.000000 0.000000
# 2 -0.000118 0.006022 -0.001462 0.000000 0.000000 0.000000
# 3 -0.004422 -0.001462 0.011854 0.000000 0.000000 0.000000
# 4 0.000000 0.000000 0.000000 0.092369 0.000000 0.000000
# 5 0.000000 0.000000 0.000000 0.000000 0.035495 0.000000
# 6 0.000000 0.000000 0.000000 0.000000 0.000000 0.028162
#
#
# Mechanical properties :
#
#
# Convention : Reuss Voigt Hill
#
# Bulk Modulus (GPa) = 31.79977 43.86563 37.83270
# Shear Modulus (GPa) = 22.52606 32.43128 27.47867
#
# Velocity S-wave (km/s) = 3.06255 3.67471 3.38251
# Velocity P-wave (km/s) = 5.07407 6.02238 5.56845
#
# Compressibility (1/GPa) = 0.03144677
#
# Stress axis : x y z
#
# Youngs Moduli (GPa) = 39.09958 166.05053 84.36264
#
# Poissons Ratio (x) = 0.01959 0.37308
# Poissons Ratio (y) = 0.00461 0.12334
# Poissons Ratio (z) = 0.17291 0.24278
#
# Static dielectric constant tensor:
#      x y z
#    x 2.111510 0.000000 0.000000 
#    y 0.000000 1.884020 0.000000 
#    z 0.000000 0.000000 1.992420 
# 
# From -- ./inp_files/6474.got.cif
#   From: 2010.05.17/outbox.cif.g08.bks.cpg/sg39_4_cif.got.tgz:6474.got - 2010.06.03 18:22:40.
