data_PCOD9361481
_publ_section_title
;
Structure prediction by ZEFSAII (Michael W. Deem and Ramdas Pophale) SiO2 
 PCOD9361481
Probable space group: A B M 2
;
_chemical_formula_sum "Si O2"
_cell_formula_units_Z 48
_cell_length_a 21.568858
_cell_length_b 11.164414
_cell_length_c 8.562037
_cell_angle_alpha 90.000000
_cell_angle_beta 90.000000
_cell_angle_gamma 90.000000
_cell_volume 2061.769849
_symmetry_space_group_name_H-M "A B M 2"
_symmetry_group_IT_number 39
_symmetry_cell_setting 'orthorhombic'
loop_
_space_group_symop_operation_xyz
x,y,z
-x,-y,z
-x,1/2+y,z
x,1/2-y,z
x,1/2+y,1/2+z
-x,1/2-y,1/2+z
-x,y,1/2+z
x,-y,1/2+z
loop_
_atom_site_type_symbol
_atom_site_label
_atom_site_fract_x
_atom_site_fract_y
_atom_site_fract_z
Si Si1 0.429433 0.967102 0.072810
Si Si2 0.871473 0.966109 0.805960
Si Si3 0.363846 0.616790 0.782850
Si Si4 0.205907 0.879776 0.022958
Si Si5 0.953524 0.886301 0.087156
Si Si6 0.680429 0.622414 0.755282
O O1 0.390688 0.881696 0.190177
O O2 0.500000 0.000000 0.101502
O O3 0.390104 0.088332 0.109980
O O4 0.419564 0.908744 0.904297
O O5 0.844518 0.890660 0.663180
O O6 0.814331 0.015996 0.906996
O O7 0.907997 0.078402 0.729908
O O8 0.915851 0.896309 0.924676
O O9 0.340577 0.750000 0.797641
O O10 0.316647 0.510583 0.825374
O O11 0.200370 0.750000 0.945319
O O12 0.271508 0.882708 0.111908
O O13 0.977933 0.750000 0.104292
O O14 0.000000 0.000000 0.084868
O O15 0.691908 0.750000 0.836478
#
# Coordination Sequence:
#
# PCOD9361481 Si02
#       6
#     8   8   8   8   8   8
#     4  10  22  41  61  91 121 160 205 261 317 384
#     4  10  23  40  63  96 128 167 214 259 312 363
#     4  10  23  40  61  88 119 157 203 253 312 377
#     4  10  21  40  64  88 124 167 211 260 313 374
#     4  11  24  42  66  97 134 171 212 260 309 368
#     4   9  22  41  64  92 124 164 209 261 321 380
#
# _framework density 23.280968000000001
#
# number of rings (size 3 to 8) (size 9 to 14) (size 15 to 20)
#    1.000    1.000    0.000    2.500    2.333    7.333 
#    0.000    4.167    0.000    0.000    0.000    0.000 
#    0.000    0.000    0.000    0.000    0.000    0.000 
#
# Total GULP energy -133681.018044 kJ/mol
# GULP energy per Si atom -5570.042419 kJ/mol
# Density = 2.322798 g / cm^3
# Si number density = 23.280968 Si / 1000 Ang^3
#
#
#
# Elastic Constant Matrix: (Units=GPa)
#
#
# Indices 1 2 3 4 5 6 
#
# 1 97.5048 41.4020 3.7580 0.0000 0.0000 0.0000
# 2 41.4020 191.9442 18.6973 0.0000 0.0000 0.0000
# 3 3.7580 18.6973 47.0449 0.0000 0.0000 0.0000
# 4 0.0000 0.0000 0.0000 3.5002 0.0000 0.0000
# 5 0.0000 0.0000 0.0000 0.0000 24.5341 0.0000
# 6 0.0000 0.0000 0.0000 0.0000 0.0000 10.4674
#
#
#
# Elastic Compliance Matrix: (Units=1/GPa)
#
#
# Indices 1 2 3 4 5 6 
#
# 1 0.011290 -0.002442 0.000069 0.000000 0.000000 0.000000
# 2 -0.002442 0.005948 -0.002169 0.000000 0.000000 0.000000
# 3 0.000069 -0.002169 0.022113 0.000000 0.000000 0.000000
# 4 0.000000 0.000000 0.000000 0.285702 0.000000 0.000000
# 5 0.000000 0.000000 0.000000 0.000000 0.040760 0.000000
# 6 0.000000 0.000000 0.000000 0.000000 0.000000 0.095535
#
#
# Mechanical properties :
#
#
# Convention : Reuss Voigt Hill
#
# Bulk Modulus (GPa) = 33.03982 51.57874 42.30928
# Shear Modulus (GPa) = 10.40539 25.87609 18.14074
#
# Velocity S-wave (km/s) = 2.11641 3.33749 2.79446
# Velocity P-wave (km/s) = 4.49387 6.08726 5.35021
#
# Compressibility (1/GPa) = 0.03026651
#
# Stress axis : x y z
#
# Youngs Moduli (GPa) = 88.57282 168.12831 45.22271
#
# Poissons Ratio (x) = 0.41056 -0.00310
# Poissons Ratio (y) = 0.21629 0.09808
# Poissons Ratio (z) = -0.00608 0.36464
#
# Static dielectric constant tensor:
#      x y z
#    x 1.900190 0.000000 0.000000 
#    y 0.000000 1.922610 0.000000 
#    z 0.000000 0.000000 1.882500 
# 
# From -- ./inp_files/6789.got.cif
#   From: 2010.05.17/outbox.cif.g08.bks.cpg/sg39_4_cif.got.tgz:6789.got - 2010.06.03 18:22:40.
