data_PCOD9361874
_publ_section_title
;
Structure prediction by ZEFSAII (Michael W. Deem and Ramdas Pophale) SiO2 
 PCOD9361874
Probable space group: A B M 2
;
_chemical_formula_sum "Si O2"
_cell_formula_units_Z 48
_cell_length_a 7.802212
_cell_length_b 24.627961
_cell_length_c 11.278136
_cell_angle_alpha 90.000000
_cell_angle_beta 90.000000
_cell_angle_gamma 90.000000
_cell_volume 2167.122849
_symmetry_space_group_name_H-M "A B M 2"
_symmetry_group_IT_number 39
_symmetry_cell_setting 'orthorhombic'
loop_
_space_group_symop_operation_xyz
x,y,z
-x,-y,z
-x,1/2+y,z
x,1/2-y,z
x,1/2+y,1/2+z
-x,1/2-y,1/2+z
-x,y,1/2+z
x,-y,1/2+z
loop_
_atom_site_type_symbol
_atom_site_label
_atom_site_fract_x
_atom_site_fract_y
_atom_site_fract_z
Si Si1 0.201289 0.186787 0.399000
Si Si2 0.683544 0.628699 0.164057
Si Si3 0.801608 0.809646 0.932476
Si Si4 0.828901 0.576697 0.519338
Si Si5 0.778421 0.955204 0.989654
Si Si6 0.691420 0.105858 0.260135
O O1 0.269417 0.250000 0.406588
O O2 0.219097 0.163391 0.265175
O O3 0.258769 0.132182 0.471202
O O4 0.006252 0.191255 0.444916
O O5 0.738974 0.568616 0.120422
O O6 0.491143 0.620355 0.206328
O O7 0.712932 0.660810 0.042012
O O8 0.730333 0.750000 0.927711
O O9 0.769064 0.838763 0.809197
O O10 0.746626 0.519228 0.486735
O O11 0.815294 0.581162 0.661083
O O12 0.024039 0.566370 0.474215
O O13 0.678700 0.930736 0.877647
#
# Coordination Sequence:
#
# PCOD9361874 Si02
#       6
#     8   8   8   8   8   8
#     4  11  24  43  72 101 135 183 236 286 337 406
#     4  11  24  45  65 102 145 180 226 284 351 412
#     4  10  23  44  69  99 137 183 237 281 334 412
#     4  11  24  44  74 101 135 181 235 286 345 409
#     4  10  25  45  71 102 137 181 236 287 340 419
#     4  11  25  44  65 107 142 179 224 283 356 411
#
# _framework density 22.149183000000001
#
# number of rings (size 3 to 8) (size 9 to 14) (size 15 to 20)
#    0.000    1.333    3.333    1.500    7.000    4.000 
#    0.000    0.000    0.000    0.000    0.000    0.000 
#    0.000    0.000    0.000    0.000    0.000    0.000 
#
# Total GULP energy -133728.027837 kJ/mol
# GULP energy per Si atom -5572.001160 kJ/mol
# Density = 2.209877 g / cm^3
# Si number density = 22.149183 Si / 1000 Ang^3
#
#
#
# Elastic Constant Matrix: (Units=GPa)
#
#
# Indices 1 2 3 4 5 6 
#
# 1 53.7289 23.2970 22.3914 0.0000 0.0000 0.0000
# 2 23.2970 181.2379 56.6326 0.0000 0.0000 0.0000
# 3 22.3914 56.6326 94.6408 0.0000 0.0000 0.0000
# 4 0.0000 0.0000 0.0000 30.0809 0.0000 0.0000
# 5 0.0000 0.0000 0.0000 0.0000 16.8099 0.0000
# 6 0.0000 0.0000 0.0000 0.0000 0.0000 1.4006
#
#
#
# Elastic Compliance Matrix: (Units=1/GPa)
#
#
# Indices 1 2 3 4 5 6 
#
# 1 0.020935 -0.001406 -0.004112 0.000000 0.000000 0.000000
# 2 -0.001406 0.006881 -0.003785 0.000000 0.000000 0.000000
# 3 -0.004112 -0.003785 0.013804 0.000000 0.000000 0.000000
# 4 0.000000 0.000000 0.000000 0.033244 0.000000 0.000000
# 5 0.000000 0.000000 0.000000 0.000000 0.059489 0.000000
# 6 0.000000 0.000000 0.000000 0.000000 0.000000 0.713972
#
#
# Mechanical properties :
#
#
# Convention : Reuss Voigt Hill
#
# Bulk Modulus (GPa) = 43.45066 59.36107 51.40587
# Shear Modulus (GPa) = 5.71689 24.81073 15.26381
#
# Velocity S-wave (km/s) = 1.60832 3.35052 2.62799
# Velocity P-wave (km/s) = 4.80716 6.46736 5.69805
#
# Compressibility (1/GPa) = 0.02301461
#
# Stress axis : x y z
#
# Youngs Moduli (GPa) = 47.76636 145.32633 72.44329
#
# Poissons Ratio (x) = 0.20437 0.29786
# Poissons Ratio (y) = 0.06717 0.27419
# Poissons Ratio (z) = 0.19640 0.55004
#
# Static dielectric constant tensor:
#      x y z
#    x 1.894840 0.000000 0.000000 
#    y 0.000000 1.902970 0.000000 
#    z 0.000000 0.000000 1.793630 
# 
# From -- ./inp_files/5265.got.cif
#   From: 2010.05.17/outbox.cif.g08.bks.cpg/sg39_3_cif.got.tgz:5265.got - 2010.06.03 18:22:40.
