data_PCOD9361919
_publ_section_title
;
Structure prediction by ZEFSAII (Michael W. Deem and Ramdas Pophale) SiO2 
 PCOD9361919
Probable space group: A B M 2
;
_chemical_formula_sum "Si O2"
_cell_formula_units_Z 32
_cell_length_a 4.659734
_cell_length_b 8.800761
_cell_length_c 29.464820
_cell_angle_alpha 90.000000
_cell_angle_beta 90.000000
_cell_angle_gamma 90.000000
_cell_volume 1208.328851
_symmetry_space_group_name_H-M "A B M 2"
_symmetry_group_IT_number 39
_symmetry_cell_setting 'orthorhombic'
loop_
_space_group_symop_operation_xyz
x,y,z
-x,-y,z
-x,1/2+y,z
x,1/2-y,z
x,1/2+y,1/2+z
-x,1/2-y,1/2+z
-x,y,1/2+z
x,-y,1/2+z
loop_
_atom_site_type_symbol
_atom_site_label
_atom_site_fract_x
_atom_site_fract_y
_atom_site_fract_z
Si Si1 0.000000 0.000000 0.232911
Si Si2 0.690740 0.250000 0.791001
Si Si3 0.187736 0.750000 0.970277
Si Si4 0.806687 0.250000 0.352436
Si Si5 0.250443 0.250000 0.663499
Si Si6 0.500000 0.500000 0.911538
Si Si7 0.316181 0.750000 0.533075
Si Si8 0.500000 0.500000 0.094314
O O1 0.836327 0.117547 0.200537
O O2 0.210956 0.101944 0.263632
O O3 0.359907 0.250000 0.804398
O O4 0.861966 0.250000 0.839028
O O5 0.352671 0.750000 0.017962
O O6 0.860467 0.750000 0.986250
O O7 0.296974 0.605023 0.942557
O O8 0.700177 0.394630 0.380332
O O9 0.341126 0.381465 0.626569
O O10 0.286888 0.900190 0.563037
#
# Coordination Sequence:
#
# PCOD9361919 Si02
#       8
#     4   4   4   4   4   4   4   4
#     4  10  24  42  70 106 148 196 246 306 370 442
#     4  11  24  43  71 106 146 194 246 303 368 439
#     4  11  26  46  69 104 143 190 247 303 368 438
#     4  11  24  44  70 104 144 190 244 299 366 440
#     4  10  24  46  67 105 148 192 248 304 372 444
#     4  10  25  44  71 102 144 194 244 306 367 436
#     4  11  26  47  75 107 145 190 245 307 374 445
#     4  10  25  46  75 108 148 196 246 308 377 450
#
# _framework density 26.482856999999999
#
# number of rings (size 3 to 8) (size 9 to 14) (size 15 to 20)
#    0.000    1.500    0.000    2.250    0.000   22.000 
#    0.000    3.750    0.000    0.000    0.000    0.000 
#    0.000    0.000    0.000    0.000    0.000    0.000 
#
# Total GULP energy -89400.397140 kJ/mol
# GULP energy per Si atom -5587.524821 kJ/mol
# Density = 2.642258 g / cm^3
# Si number density = 26.482857 Si / 1000 Ang^3
#
#
#
# Elastic Constant Matrix: (Units=GPa)
#
#
# Indices 1 2 3 4 5 6 
#
# 1 76.4195 38.4446 33.7867 0.0000 0.0000 0.0000
# 2 38.4446 250.0697 94.6409 0.0000 0.0000 0.0000
# 3 33.7867 94.6409 153.5149 0.0000 0.0000 0.0000
# 4 0.0000 0.0000 0.0000 -13.8705 0.0000 0.0000
# 5 0.0000 0.0000 0.0000 0.0000 43.9589 0.0000
# 6 0.0000 0.0000 0.0000 0.0000 0.0000 17.8924
#
#
#
# Elastic Compliance Matrix: (Units=1/GPa)
#
#
# Indices 1 2 3 4 5 6 
#
# 1 0.014845 -0.001364 -0.002426 0.000000 0.000000 0.000000
# 2 -0.001364 0.005341 -0.002993 0.000000 0.000000 0.000000
# 3 -0.002426 -0.002993 0.008893 0.000000 0.000000 0.000000
# 4 0.000000 0.000000 0.000000 -0.072095 0.000000 0.000000
# 5 0.000000 0.000000 0.000000 0.000000 0.022749 0.000000
# 6 0.000000 0.000000 0.000000 0.000000 0.000000 0.055890
#
#
# Mechanical properties :
#
#
# Convention : Reuss Voigt Hill
#
# Bulk Modulus (GPa) = 64.46173 90.41647 77.43910
# Shear Modulus (GPa) = 91.98326 30.47163 61.22745
#
# Velocity S-wave (km/s) = 5.89988 3.39575 4.81351
# Velocity P-wave (km/s) = 8.41458 7.04205 7.75873
#
# Compressibility (1/GPa) = 0.01551308
#
# Stress axis : x y z
#
# Youngs Moduli (GPa) = 67.36499 187.22609 112.44885
#
# Poissons Ratio (x) = 0.25536 0.27283
# Poissons Ratio (y) = 0.09188 0.33651
# Poissons Ratio (z) = 0.16344 0.56029
#
# Static dielectric constant tensor:
#      x y z
#    x 2.054830 0.000000 0.000000 
#    y 0.000000 2.005340 0.000000 
#    z 0.000000 0.000000 1.996010 
# 
# From -- ./inp_files/16393.got.cif
#   From: 2010.05.17/outbox.cif.g08.bks.cpg/sg39_9_cif.got.tgz:16393.got - 2010.06.03 18:22:40.
