data_PCOD9361495
_publ_section_title
;
Structure prediction by ZEFSAII (Michael W. Deem and Ramdas Pophale) SiO2 
 PCOD9361495
Probable space group: A B M 2
;
_chemical_formula_sum "Si O2"
_cell_formula_units_Z 48
_cell_length_a 7.219887
_cell_length_b 15.935449
_cell_length_c 18.140143
_cell_angle_alpha 90.000000
_cell_angle_beta 90.000000
_cell_angle_gamma 90.000000
_cell_volume 2087.062292
_symmetry_space_group_name_H-M "A B M 2"
_symmetry_group_IT_number 39
_symmetry_cell_setting 'orthorhombic'
loop_
_space_group_symop_operation_xyz
x,y,z
-x,-y,z
-x,1/2+y,z
x,1/2-y,z
x,1/2+y,1/2+z
-x,1/2-y,1/2+z
-x,y,1/2+z
x,-y,1/2+z
loop_
_atom_site_type_symbol
_atom_site_label
_atom_site_fract_x
_atom_site_fract_y
_atom_site_fract_z
Si Si1 0.190556 0.658410 0.011330
Si Si2 0.199001 0.659739 0.430761
Si Si3 0.696787 0.524179 0.033310
Si Si4 0.927934 0.591805 0.775439
Si Si5 0.353464 0.157610 0.675991
Si Si6 0.206671 0.347057 0.152079
O O1 0.271611 0.750000 0.985565
O O2 0.235218 0.560864 0.994464
O O3 0.246865 0.657079 0.097774
O O4 0.981429 0.663427 0.982866
O O5 0.291425 0.750000 0.429944
O O6 0.329815 0.591619 0.468346
O O7 0.122903 0.637569 0.350697
O O8 0.500000 0.500000 0.068028
O O9 0.815538 0.574071 0.095315
O O10 0.741357 0.589070 0.726834
O O11 0.000000 0.500000 0.793005
O O12 0.080172 0.636800 0.723364
O O13 0.314764 0.250000 0.709408
O O14 0.573113 0.151316 0.667586
O O15 0.169279 0.250000 0.125783
#
# Coordination Sequence:
#
# PCOD9361495 Si02
#       6
#     8   8   8   8   8   8
#     4  10  21  40  66  93 132 173 226 287 351 415
#     4  11  25  46  67  96 136 186 235 286 351 426
#     4  12  23  40  69 101 136 174 231 292 349 415
#     4  12  25  42  69  98 143 185 233 289 353 421
#     4  10  21  41  66  98 133 175 230 290 346 415
#     4  11  24  44  71 103 136 183 235 290 355 420
#
# _framework density 22.998833000000001
#
# number of rings (size 3 to 8) (size 9 to 14) (size 15 to 20)
#    0.000    1.000    1.667    5.500    0.000    2.000 
#    6.000    0.000    0.000    0.000    0.000    0.000 
#    0.000    0.000    0.000    0.000    0.000    0.000 
#
# Total GULP energy -133873.263943 kJ/mol
# GULP energy per Si atom -5578.052664 kJ/mol
# Density = 2.294649 g / cm^3
# Si number density = 22.998833 Si / 1000 Ang^3
#
#
#
# Elastic Constant Matrix: (Units=GPa)
#
#
# Indices 1 2 3 4 5 6 
#
# 1 59.3469 9.0912 36.6817 0.0000 0.0000 0.0000
# 2 9.0912 194.5331 32.0169 0.0000 0.0000 0.0000
# 3 36.6817 32.0169 96.7257 0.0000 0.0000 0.0000
# 4 0.0000 0.0000 0.0000 34.1398 0.0000 0.0000
# 5 0.0000 0.0000 0.0000 0.0000 18.8059 0.0000
# 6 0.0000 0.0000 0.0000 0.0000 0.0000 29.2677
#
#
#
# Elastic Compliance Matrix: (Units=1/GPa)
#
#
# Indices 1 2 3 4 5 6 
#
# 1 0.022034 0.000365 -0.008477 0.000000 0.000000 0.000000
# 2 0.000365 0.005443 -0.001940 0.000000 0.000000 0.000000
# 3 -0.008477 -0.001940 0.014195 0.000000 0.000000 0.000000
# 4 0.000000 0.000000 0.000000 0.029291 0.000000 0.000000
# 5 0.000000 0.000000 0.000000 0.000000 0.053175 0.000000
# 6 0.000000 0.000000 0.000000 0.000000 0.000000 0.034167
#
#
# Mechanical properties :
#
#
# Convention : Reuss Voigt Hill
#
# Bulk Modulus (GPa) = 46.36374 56.24280 51.30327
# Shear Modulus (GPa) = 26.93996 34.63041 30.78519
#
# Velocity S-wave (km/s) = 3.42623 3.88460 3.66259
# Velocity P-wave (km/s) = 5.98790 6.68041 6.34362
#
# Compressibility (1/GPa) = 0.02156858
#
# Stress axis : x y z
#
# Youngs Moduli (GPa) = 45.38540 183.73044 70.44520
#
# Poissons Ratio (x) = -0.06714 0.59715
# Poissons Ratio (y) = -0.01659 0.13668
# Poissons Ratio (z) = 0.38472 0.35647
#
# Static dielectric constant tensor:
#      x y z
#    x 1.842240 0.000000 0.000000 
#    y 0.000000 1.949900 0.000000 
#    z 0.000000 0.000000 1.838870 
# 
# From -- ./inp_files/11590.got.cif
#   From: 2010.05.17/outbox.cif.g08.bks.cpg/sg39_6_cif.got.tgz:11590.got - 2010.06.03 18:22:40.
