data_PCOD9361388
_publ_section_title
;
Structure prediction by ZEFSAII (Michael W. Deem and Ramdas Pophale) SiO2 
 PCOD9361388
Probable space group: A B M 2
;
_chemical_formula_sum "Si O2"
_cell_formula_units_Z 32
_cell_length_a 8.187274
_cell_length_b 18.314007
_cell_length_c 8.923566
_cell_angle_alpha 90.000000
_cell_angle_beta 90.000000
_cell_angle_gamma 90.000000
_cell_volume 1338.015489
_symmetry_space_group_name_H-M "A B M 2"
_symmetry_group_IT_number 39
_symmetry_cell_setting 'orthorhombic'
loop_
_space_group_symop_operation_xyz
x,y,z
-x,-y,z
-x,1/2+y,z
x,1/2-y,z
x,1/2+y,1/2+z
-x,1/2-y,1/2+z
-x,y,1/2+z
x,-y,1/2+z
loop_
_atom_site_type_symbol
_atom_site_label
_atom_site_fract_x
_atom_site_fract_y
_atom_site_fract_z
Si Si1 0.259977 0.987540 0.386000
Si Si2 0.693866 0.101005 0.126199
Si Si3 0.261827 0.250000 0.177584
Si Si4 0.085913 0.903556 0.650256
Si Si5 0.559979 0.250000 0.994133
O O1 0.346281 0.042814 0.498384
O O2 0.157856 0.040914 0.274651
O O3 0.364707 0.933228 0.282455
O O4 0.149174 0.936526 0.493019
O O5 0.627819 0.178456 0.077523
O O6 0.890872 0.102467 0.142994
O O7 0.157307 0.323652 0.180999
O O8 0.367323 0.250000 0.025140
O O9 0.379616 0.250000 0.323221
#
# Coordination Sequence:
#
# PCOD9361388 Si02
#       5
#     8   8   4   8   4
#     4  10  21  38  71 106 131 158 209 276 335 388
#     4  11  21  42  71 101 129 165 214 272 331 389
#     4  12  29  48  62  90 136 182 225 268 318 384
#     4  11  21  42  71 101 129 165 214 272 331 389
#     4  12  29  48  62  90 136 182 225 268 318 384
#
# _framework density 23.916017
#
# number of rings (size 3 to 8) (size 9 to 14) (size 15 to 20)
#    0.000    1.000    2.500    6.750    3.500    0.000 
#    0.000    7.500    0.000    0.000    0.000    0.000 
#    0.000    0.000    0.000    0.000    0.000    0.000 
#
# Total GULP energy -89682.906339 kJ/mol
# GULP energy per Si atom -5605.181646 kJ/mol
# Density = 2.386158 g / cm^3
# Si number density = 23.916017 Si / 1000 Ang^3
#
#
#
# Elastic Constant Matrix: (Units=GPa)
#
#
# Indices 1 2 3 4 5 6 
#
# 1 73.0741 38.1283 26.9052 0.0000 0.0000 0.0000
# 2 38.1283 171.1466 36.9600 0.0000 0.0000 0.0000
# 3 26.9052 36.9600 141.5864 0.0000 0.0000 0.0000
# 4 0.0000 0.0000 0.0000 35.7933 0.0000 0.0000
# 5 0.0000 0.0000 0.0000 0.0000 27.1762 0.0000
# 6 0.0000 0.0000 0.0000 0.0000 0.0000 22.7865
#
#
#
# Elastic Compliance Matrix: (Units=1/GPa)
#
#
# Indices 1 2 3 4 5 6 
#
# 1 0.016137 -0.003108 -0.002255 0.000000 0.000000 0.000000
# 2 -0.003108 0.006791 -0.001182 0.000000 0.000000 0.000000
# 3 -0.002255 -0.001182 0.007800 0.000000 0.000000 0.000000
# 4 0.000000 0.000000 0.000000 0.027938 0.000000 0.000000
# 5 0.000000 0.000000 0.000000 0.000000 0.036797 0.000000
# 6 0.000000 0.000000 0.000000 0.000000 0.000000 0.043886
#
#
# Mechanical properties :
#
#
# Convention : Reuss Voigt Hill
#
# Bulk Modulus (GPa) = 56.69887 65.53269 61.11578
# Shear Modulus (GPa) = 31.58217 36.07211 33.82714
#
# Velocity S-wave (km/s) = 3.63787 3.88787 3.76495
# Velocity P-wave (km/s) = 6.43463 6.90034 6.67155
#
# Compressibility (1/GPa) = 0.01763704
#
# Stress axis : x y z
#
# Youngs Moduli (GPa) = 61.97052 147.26217 128.20655
#
# Poissons Ratio (x) = 0.45769 0.28912
# Poissons Ratio (y) = 0.19260 0.15155
# Poissons Ratio (z) = 0.13975 0.17407
#
# Static dielectric constant tensor:
#      x y z
#    x 1.920540 0.000000 0.000000 
#    y 0.000000 1.862320 0.000000 
#    z 0.000000 0.000000 1.926810 
# 
# From -- ./inp_files/1993.got.cif
#   From: 2010.05.17/outbox.cif.g08.bks.cpg/sg39_1_cif.got.tgz:1993.got - 2010.06.03 18:22:40.
