data_PCOD9361412
_publ_section_title
;
Structure prediction by ZEFSAII (Michael W. Deem and Ramdas Pophale) SiO2 
 PCOD9361412
Probable space group: A B M 2
;
_chemical_formula_sum "Si O2"
_cell_formula_units_Z 64
_cell_length_a 24.267517
_cell_length_b 9.026719
_cell_length_c 15.546131
_cell_angle_alpha 90.000000
_cell_angle_beta 90.000000
_cell_angle_gamma 90.000000
_cell_volume 3405.474155
_symmetry_space_group_name_H-M "A B M 2"
_symmetry_group_IT_number 39
_symmetry_cell_setting 'orthorhombic'
loop_
_space_group_symop_operation_xyz
x,y,z
-x,-y,z
-x,1/2+y,z
x,1/2-y,z
x,1/2+y,1/2+z
-x,1/2-y,1/2+z
-x,y,1/2+z
x,-y,1/2+z
loop_
_atom_site_type_symbol
_atom_site_label
_atom_site_fract_x
_atom_site_fract_y
_atom_site_fract_z
Si Si1 0.058956 0.071971 0.325770
Si Si2 0.362987 0.926047 0.708705
Si Si3 0.121287 0.074169 0.151988
Si Si4 0.761497 0.924825 0.237486
Si Si5 0.247895 0.425723 0.920875
Si Si6 0.440374 0.573038 0.067281
Si Si7 0.860557 0.926420 0.481035
Si Si8 0.636615 0.927522 0.409763
O O1 0.054083 0.250000 0.328643
O O2 0.083295 0.032195 0.232535
O O3 0.103106 0.029400 0.398557
O O4 0.000000 0.000000 0.340694
O O5 0.373238 0.750000 0.699299
O O6 0.297616 0.951614 0.693562
O O7 0.373398 0.965990 0.809333
O O8 0.400644 0.013941 0.642643
O O9 0.114762 0.250000 0.135407
O O10 0.184715 0.049991 0.180847
O O11 0.110104 0.980778 0.067342
O O12 0.762071 0.750000 0.263775
O O13 0.763711 0.023555 0.322724
O O14 0.248132 0.250000 0.929808
O O15 0.198784 0.496211 0.975480
O O16 0.307870 0.492174 0.940624
O O17 0.500000 0.500000 0.074624
O O18 0.444975 0.750000 0.073209
O O19 0.412304 0.536307 0.975275
O O20 0.853613 0.750000 0.479874
O O21 0.645814 0.750000 0.411926
#
# Coordination Sequence:
#
# PCOD9361412 Si02
#       8
#     8   8   8   8   8   8   8   8
#     4  10  23  43  65  85 120 163 203 250 301 354
#     4   9  19  37  61  87 118 156 193 238 297 355
#     4  10  21  39  61  90 122 158 199 246 303 359
#     4   9  18  37  61  85 124 161 192 240 306 363
#     4  11  21  34  59  92 123 157 201 247 297 360
#     4  11  24  41  61  86 118 156 202 247 293 353
#     4  11  23  40  60  88 123 162 201 247 303 357
#     4   9  21  41  61  85 119 160 197 243 303 357
#
# _framework density 18.79327
#
# number of rings (size 3 to 8) (size 9 to 14) (size 15 to 20)
#    0.000    2.000    1.250    2.625    1.750    6.000 
#    0.000    3.750    0.000    0.000    0.000    0.000 
#    0.000    0.000    0.000    0.000    0.000    0.000 
#
# Total GULP energy -178745.099470 kJ/mol
# GULP energy per Si atom -5585.784358 kJ/mol
# Density = 1.875050 g / cm^3
# Si number density = 18.793270 Si / 1000 Ang^3
#
#
#
# Elastic Constant Matrix: (Units=GPa)
#
#
# Indices 1 2 3 4 5 6 
#
# 1 63.3994 22.0198 5.0140 0.0000 0.0000 0.0000
# 2 22.0198 34.9055 16.0461 0.0000 0.0000 0.0000
# 3 5.0140 16.0461 38.1242 0.0000 0.0000 0.0000
# 4 0.0000 0.0000 0.0000 25.7865 0.0000 0.0000
# 5 0.0000 0.0000 0.0000 0.0000 10.0344 0.0000
# 6 0.0000 0.0000 0.0000 0.0000 0.0000 29.4954
#
#
#
# Elastic Compliance Matrix: (Units=1/GPa)
#
#
# Indices 1 2 3 4 5 6 
#
# 1 0.020551 -0.014534 0.003414 0.000000 0.000000 0.000000
# 2 -0.014534 0.045800 -0.017365 0.000000 0.000000 0.000000
# 3 0.003414 -0.017365 0.033090 0.000000 0.000000 0.000000
# 4 0.000000 0.000000 0.000000 0.038780 0.000000 0.000000
# 5 0.000000 0.000000 0.000000 0.000000 0.099657 0.000000
# 6 0.000000 0.000000 0.000000 0.000000 0.000000 0.033904
#
#
# Mechanical properties :
#
#
# Convention : Reuss Voigt Hill
#
# Bulk Modulus (GPa) = 23.54540 24.73212 24.13876
# Shear Modulus (GPa) = 14.58113 19.28653 16.93383
#
# Velocity S-wave (km/s) = 2.78847 3.20698 3.00502
# Velocity P-wave (km/s) = 4.78782 5.18668 4.99124
#
# Compressibility (1/GPa) = 0.04247114
#
# Stress axis : x y z
#
# Youngs Moduli (GPa) = 48.65965 21.83392 30.22069
#
# Poissons Ratio (x) = 0.31733 -0.10318
# Poissons Ratio (y) = 0.70722 0.52479
# Poissons Ratio (z) = -0.16614 0.37915
#
# Static dielectric constant tensor:
#      x y z
#    x 1.627760 0.000000 0.000000 
#    y 0.000000 1.624620 0.000000 
#    z 0.000000 0.000000 1.661080 
# 
# From -- ./inp_files/10590.got.cif
#   From: 2010.05.17/outbox.cif.g08.bks.cpg/sg39_6_cif.got.tgz:10590.got - 2010.06.03 18:22:40.
