data_PCOD9361333
_publ_section_title
;
Structure prediction by ZEFSAII (Michael W. Deem and Ramdas Pophale) SiO2 
 PCOD9361333
Probable space group: A B M 2
;
_chemical_formula_sum "Si O2"
_cell_formula_units_Z 48
_cell_length_a 9.392779
_cell_length_b 8.616144
_cell_length_c 31.522910
_cell_angle_alpha 90.000000
_cell_angle_beta 90.000000
_cell_angle_gamma 90.000000
_cell_volume 2551.134493
_symmetry_space_group_name_H-M "A B M 2"
_symmetry_group_IT_number 39
_symmetry_cell_setting 'orthorhombic'
loop_
_space_group_symop_operation_xyz
x,y,z
-x,-y,z
-x,1/2+y,z
x,1/2-y,z
x,1/2+y,1/2+z
-x,1/2-y,1/2+z
-x,y,1/2+z
x,-y,1/2+z
loop_
_atom_site_type_symbol
_atom_site_label
_atom_site_fract_x
_atom_site_fract_y
_atom_site_fract_z
Si Si1 0.339911 0.435483 0.327300
Si Si2 0.340087 0.935605 0.574609
Si Si3 0.840057 0.063819 0.153378
Si Si4 0.340576 0.935919 0.237041
Si Si5 0.839313 0.564083 0.496163
Si Si6 0.159441 0.064307 0.905156
O O1 0.500000 0.500000 0.330434
O O2 0.339836 0.250000 0.329300
O O3 0.286900 0.490948 0.281100
O O4 0.250923 0.505710 0.365769
O O5 0.342995 0.750000 0.572716
O O6 0.500000 0.000000 0.577470
O O7 0.250069 0.990531 0.615233
O O8 0.261609 0.002373 0.533157
O O9 0.842289 0.250000 0.148268
O O10 0.760947 0.027394 0.197613
O O11 0.000000 0.000000 0.153105
O O12 0.349320 0.750000 0.241867
O O13 0.500000 0.000000 0.229176
O O14 0.843862 0.750000 0.496198
O O15 0.788912 0.503037 0.450253
O O16 0.000000 0.500000 0.502570
O O17 0.157697 0.250000 0.907091
O O18 0.000000 0.000000 0.899873
#
# Coordination Sequence:
#
# PCOD9361333 Si02
#       6
#     8   8   8   8   8   8
#     4  11  22  38  60  87 119 157 199 244 295 349
#     4  12  25  42  63  89 120 155 196 242 293 349
#     4  11  24  41  62  89 120 156 197 242 293 348
#     4  10  21  38  60  86 117 154 197 244 296 351
#     4  11  22  40  63  89 120 156 197 241 293 348
#     4  11  22  39  61  88 120 156 198 243 294 349
#
# _framework density 18.815156999999999
#
# number of rings (size 3 to 8) (size 9 to 14) (size 15 to 20)
#    0.000    1.000    0.000   10.000    0.000    5.333 
#    0.000    5.000    0.000    0.000    0.000    0.000 
#    0.000    0.000    0.000    0.000    0.000    0.000 
#
# Total GULP energy -134279.618281 kJ/mol
# GULP energy per Si atom -5594.984095 kJ/mol
# Density = 1.877233 g / cm^3
# Si number density = 18.815157 Si / 1000 Ang^3
#
#
#
# Elastic Constant Matrix: (Units=GPa)
#
#
# Indices 1 2 3 4 5 6 
#
# 1 112.9939 72.4613 109.9594 0.0000 0.0000 0.0000
# 2 72.4613 195.8220 110.0941 0.0000 0.0000 0.0000
# 3 109.9594 110.0941 202.8068 0.0000 0.0000 0.0000
# 4 0.0000 0.0000 0.0000 34.4508 0.0000 0.0000
# 5 0.0000 0.0000 0.0000 0.0000 42.8937 0.0000
# 6 0.0000 0.0000 0.0000 0.0000 0.0000 36.3899
#
#
#
# Elastic Compliance Matrix: (Units=1/GPa)
#
#
# Indices 1 2 3 4 5 6 
#
# 1 0.019166 -0.001799 -0.009415 0.000000 0.000000 0.000000
# 2 -0.001799 0.007519 -0.003106 0.000000 0.000000 0.000000
# 3 -0.009415 -0.003106 0.011722 0.000000 0.000000 0.000000
# 4 0.000000 0.000000 0.000000 0.029027 0.000000 0.000000
# 5 0.000000 0.000000 0.000000 0.000000 0.023313 0.000000
# 6 0.000000 0.000000 0.000000 0.000000 0.000000 0.027480
#
#
# Mechanical properties :
#
#
# Convention : Reuss Voigt Hill
#
# Bulk Modulus (GPa) = 102.39486 121.85026 112.12256
# Shear Modulus (GPa) = 33.30632 37.35409 35.33021
#
# Velocity S-wave (km/s) = 4.21192 4.46053 4.33801
# Velocity P-wave (km/s) = 8.84270 9.56194 9.20934
#
# Compressibility (1/GPa) = 0.00976612
#
# Stress axis : x y z
#
# Youngs Moduli (GPa) = 52.17676 133.00222 85.31199
#
# Poissons Ratio (x) = 0.23924 0.80320
# Poissons Ratio (y) = 0.09385 0.26500
# Poissons Ratio (z) = 0.49124 0.41314
#
# Static dielectric constant tensor:
#      x y z
#    x 1.606730 0.000000 0.000000 
#    y 0.000000 1.627440 0.000000 
#    z 0.000000 0.000000 1.643670 
# 
# From -- ./inp_files/17613.got.cif
#   From: 2010.05.17/outbox.cif.g08.bks.cpg/sg39_9_cif.got.tgz:17613.got - 2010.06.03 18:22:40.
