data_PCOD9361812
_publ_section_title
;
Structure prediction by ZEFSAII (Michael W. Deem and Ramdas Pophale) SiO2 
 PCOD9361812
Probable space group: A B M 2
;
_chemical_formula_sum "Si O2"
_cell_formula_units_Z 40
_cell_length_a 12.417286
_cell_length_b 26.927066
_cell_length_c 5.289957
_cell_angle_alpha 90.000000
_cell_angle_beta 90.000000
_cell_angle_gamma 90.000000
_cell_volume 1768.755734
_symmetry_space_group_name_H-M "A B M 2"
_symmetry_group_IT_number 39
_symmetry_cell_setting 'orthorhombic'
loop_
_space_group_symop_operation_xyz
x,y,z
-x,-y,z
-x,1/2+y,z
x,1/2-y,z
x,1/2+y,1/2+z
-x,1/2-y,1/2+z
-x,y,1/2+z
x,-y,1/2+z
loop_
_atom_site_type_symbol
_atom_site_label
_atom_site_fract_x
_atom_site_fract_y
_atom_site_fract_z
Si Si1 0.740091 0.395429 0.841530
Si Si2 0.378841 0.480754 0.173934
Si Si3 0.956579 0.943432 0.209246
Si Si4 0.069579 0.250000 0.750174
Si Si5 0.752078 0.832510 0.841464
Si Si6 0.429330 0.750000 0.285948
O O1 0.631364 0.425591 0.781324
O O2 0.835055 0.435771 0.797265
O O3 0.755627 0.354801 0.622989
O O4 0.745281 0.373257 0.119626
O O5 0.500000 0.500000 0.134155
O O6 0.328805 0.514826 0.395371
O O7 0.026097 0.919831 0.434935
O O8 0.000000 0.000000 0.179748
O O9 0.145188 0.202132 0.789239
O O10 0.019238 0.250000 0.471154
O O11 0.647308 0.797706 0.816056
O O12 0.515672 0.750000 0.511741
#
# Coordination Sequence:
#
# PCOD9361812 Si02
#       6
#     8   8   8   4   8   4
#     4  12  24  42  70  97 140 175 236 284 316 406
#     4  10  23  43  63  90 129 178 229 277 344 382
#     4  10  23  38  59  89 127 180 225 270 333 379
#     4  11  24  45  76 100 146 173 210 281 358 406
#     4  11  26  45  69 110 132 177 228 276 341 412
#     4  11  24  51  74 100 146 173 210 281 358 414
#
# _framework density 22.614767000000001
#
# number of rings (size 3 to 8) (size 9 to 14) (size 15 to 20)
#    0.000    1.200    0.000    4.800    5.600    8.000 
#   21.600    0.000    0.000    0.000    0.000    0.000 
#    0.000    0.000    0.000    0.000    0.000    0.000 
#
# Total GULP energy -111782.991801 kJ/mol
# GULP energy per Si atom -5589.149590 kJ/mol
# Density = 2.256330 g / cm^3
# Si number density = 22.614767 Si / 1000 Ang^3
#
#
#
# Elastic Constant Matrix: (Units=GPa)
#
#
# Indices 1 2 3 4 5 6 
#
# 1 61.9148 24.0640 -15.8753 0.0000 0.0000 0.0000
# 2 24.0640 66.1661 -1.7199 0.0000 0.0000 0.0000
# 3 -15.8753 -1.7199 115.7361 0.0000 0.0000 0.0000
# 4 0.0000 0.0000 0.0000 -31.8858 0.0000 0.0000
# 5 0.0000 0.0000 0.0000 0.0000 30.1997 0.0000
# 6 0.0000 0.0000 0.0000 0.0000 0.0000 15.1997
#
#
#
# Elastic Compliance Matrix: (Units=1/GPa)
#
#
# Indices 1 2 3 4 5 6 
#
# 1 0.019549 -0.007043 0.002577 0.000000 0.000000 0.000000
# 2 -0.007043 0.017657 -0.000704 0.000000 0.000000 0.000000
# 3 0.002577 -0.000704 0.008983 0.000000 0.000000 0.000000
# 4 0.000000 0.000000 0.000000 -0.031362 0.000000 0.000000
# 5 0.000000 0.000000 0.000000 0.000000 0.033113 0.000000
# 6 0.000000 0.000000 0.000000 0.000000 0.000000 0.065791
#
#
# Mechanical properties :
#
#
# Convention : Reuss Voigt Hill
#
# Bulk Modulus (GPa) = 27.89413 28.52830 28.21121
# Shear Modulus (GPa) = 36.75923 18.52595 27.64259
#
# Velocity S-wave (km/s) = 4.03606 2.86527 3.49997
# Velocity P-wave (km/s) = 5.83789 4.85681 5.36981
#
# Compressibility (1/GPa) = 0.03584983
#
# Stress axis : x y z
#
# Youngs Moduli (GPa) = 51.15281 56.63598 111.31702
#
# Poissons Ratio (x) = 0.39888 -0.28685
# Poissons Ratio (y) = 0.36026 0.07833
# Poissons Ratio (z) = -0.13181 0.03985
#
# Static dielectric constant tensor:
#      x y z
#    x 1.972400 0.000000 0.000000 
#    y 0.000000 3.028380 0.000000 
#    z 0.000000 0.000000 1.881360 
# 
# From -- ./inp_files/356.got.cif
#   From: 2010.05.17/outbox.cif.g08.bks.cpg/sg39_1_cif.got.tgz:356.got - 2010.06.03 18:22:40.
