data_PCOD9361996
_publ_section_title
;
Structure prediction by ZEFSAII (Michael W. Deem and Ramdas Pophale) SiO2 
 PCOD9361996
Probable space group: A B M 2
;
_chemical_formula_sum "Si O2"
_cell_formula_units_Z 56
_cell_length_a 15.562320
_cell_length_b 14.971687
_cell_length_c 10.096048
_cell_angle_alpha 90.000000
_cell_angle_beta 90.000000
_cell_angle_gamma 90.000000
_cell_volume 2352.320466
_symmetry_space_group_name_H-M "A B M 2"
_symmetry_group_IT_number 39
_symmetry_cell_setting 'orthorhombic'
loop_
_space_group_symop_operation_xyz
x,y,z
-x,-y,z
-x,1/2+y,z
x,1/2-y,z
x,1/2+y,1/2+z
-x,1/2-y,1/2+z
-x,y,1/2+z
x,-y,1/2+z
loop_
_atom_site_type_symbol
_atom_site_label
_atom_site_fract_x
_atom_site_fract_y
_atom_site_fract_z
Si Si1 0.334202 0.847321 0.116960
Si Si2 0.601355 0.362208 0.490047
Si Si3 0.958044 0.098763 0.050414
Si Si4 0.213476 0.149736 0.389540
Si Si5 0.250510 0.962179 0.326508
Si Si6 0.517475 0.352676 0.750006
Si Si7 0.910873 0.652826 0.841091
O O1 0.307243 0.750000 0.170252
O O2 0.280322 0.921415 0.189035
O O3 0.432313 0.855419 0.156944
O O4 0.304791 0.847540 0.966810
O O5 0.612151 0.250000 0.482921
O O6 0.677506 0.422515 0.427760
O O7 0.585939 0.389298 0.643719
O O8 0.520045 0.384228 0.391396
O O9 0.955492 0.126850 0.203051
O O10 0.863557 0.119673 0.988802
O O11 0.000000 0.000000 0.042590
O O12 0.021274 0.154007 0.957853
O O13 0.195868 0.250000 0.339403
O O14 0.228990 0.065127 0.298980
O O15 0.161904 0.918322 0.370896
O O16 0.542260 0.250000 0.772381
O O17 0.870619 0.750000 0.824831
#
# Coordination Sequence:
#
# PCOD9361996 Si02
#       7
#     8   8   8   8   8   8   8
#     4   9  18  37  66  93 125 174 225 269 337 416
#     4   9  17  33  61  98 136 174 223 278 342 406
#     4  12  25  44  68 100 134 178 225 281 336 403
#     4  11  23  42  64  91 129 176 227 280 337 401
#     4  11  21  37  65  97 127 177 227 280 326 406
#     4   8  15  30  58  93 129 170 214 269 336 407
#     4  12  24  42  69 100 137 177 224 276 340 411
#
# _framework density 23.806280000000001
#
# number of rings (size 3 to 8) (size 9 to 14) (size 15 to 20)
#    0.000    1.714    2.857    3.857    0.000    0.000 
#    0.000    2.143    0.000    6.857    0.000   10.000 
#    0.000    0.000    0.000    0.000    0.000    0.000 
#
# Total GULP energy -156175.833989 kJ/mol
# GULP energy per Si atom -5577.708357 kJ/mol
# Density = 2.375210 g / cm^3
# Si number density = 23.806280 Si / 1000 Ang^3
#
#
#
# Elastic Constant Matrix: (Units=GPa)
#
#
# Indices 1 2 3 4 5 6 
#
# 1 60.0110 21.0834 34.9151 0.0000 0.0000 0.0000
# 2 21.0834 161.0692 18.4596 0.0000 0.0000 0.0000
# 3 34.9151 18.4596 72.5522 0.0000 0.0000 0.0000
# 4 0.0000 0.0000 0.0000 9.3553 0.0000 0.0000
# 5 0.0000 0.0000 0.0000 0.0000 15.2612 0.0000
# 6 0.0000 0.0000 0.0000 0.0000 0.0000 20.2249
#
#
#
# Elastic Compliance Matrix: (Units=1/GPa)
#
#
# Indices 1 2 3 4 5 6 
#
# 1 0.023665 -0.001846 -0.010919 0.000000 0.000000 0.000000
# 2 -0.001846 0.006539 -0.000775 0.000000 0.000000 0.000000
# 3 -0.010919 -0.000775 0.019235 0.000000 0.000000 0.000000
# 4 0.000000 0.000000 0.000000 0.106892 0.000000 0.000000
# 5 0.000000 0.000000 0.000000 0.000000 0.065525 0.000000
# 6 0.000000 0.000000 0.000000 0.000000 0.000000 0.049444
#
#
# Mechanical properties :
#
#
# Convention : Reuss Voigt Hill
#
# Bulk Modulus (GPa) = 44.72600 49.17205 46.94903
# Shear Modulus (GPa) = 16.34878 23.57991 19.96434
#
# Velocity S-wave (km/s) = 2.62342 3.15062 2.89903
# Velocity P-wave (km/s) = 5.29195 5.82539 5.56506
#
# Compressibility (1/GPa) = 0.02235836
#
# Stress axis : x y z
#
# Youngs Moduli (GPa) = 42.25663 152.92785 51.98859
#
# Poissons Ratio (x) = 0.28235 0.56765
# Poissons Ratio (y) = 0.07802 0.04030
# Poissons Ratio (z) = 0.46139 0.11855
#
# Static dielectric constant tensor:
#      x y z
#    x 1.963770 0.000000 0.000000 
#    y 0.000000 1.952460 0.000000 
#    z 0.000000 0.000000 1.902260 
# 
# From -- ./inp_files/6495.got.cif
#   From: 2010.05.17/outbox.cif.g08.bks.cpg/sg39_4_cif.got.tgz:6495.got - 2010.06.03 18:22:40.
