data_PCOD9361215
_publ_section_title
;
Structure prediction by ZEFSAII (Michael W. Deem and Ramdas Pophale) SiO2 
 PCOD9361215
Probable space group: A B M 2
;
_chemical_formula_sum "Si O2"
_cell_formula_units_Z 64
_cell_length_a 9.059117
_cell_length_b 19.868012
_cell_length_c 18.773033
_cell_angle_alpha 90.000000
_cell_angle_beta 90.000000
_cell_angle_gamma 90.000000
_cell_volume 3378.895231
_symmetry_space_group_name_H-M "A B M 2"
_symmetry_group_IT_number 39
_symmetry_cell_setting 'orthorhombic'
loop_
_space_group_symop_operation_xyz
x,y,z
-x,-y,z
-x,1/2+y,z
x,1/2-y,z
x,1/2+y,1/2+z
-x,1/2-y,1/2+z
-x,y,1/2+z
x,-y,1/2+z
loop_
_atom_site_type_symbol
_atom_site_label
_atom_site_fract_x
_atom_site_fract_y
_atom_site_fract_z
Si Si1 0.894532 0.329310 0.507230
Si Si2 0.893417 0.936227 0.257322
Si Si3 0.042533 0.175781 0.658743
Si Si4 0.363501 0.447504 0.521420
Si Si5 0.618007 0.175093 0.194694
Si Si6 0.089248 0.569407 0.917298
Si Si7 0.438030 0.172175 0.053516
Si Si8 0.660031 0.029394 0.183976
O O1 0.892319 0.250000 0.487011
O O2 0.726989 0.348731 0.530393
O O3 0.987793 0.336455 0.579366
O O4 0.977858 0.375024 0.449878
O O5 0.863555 0.911191 0.337126
O O6 0.974998 0.880175 0.210281
O O7 0.755698 0.970958 0.218902
O O8 0.000000 0.000000 0.263423
O O9 0.987474 0.250000 0.680948
O O10 0.219656 0.179167 0.659049
O O11 0.500000 0.500000 0.511149
O O12 0.231790 0.446124 0.465483
O O13 0.443415 0.375599 0.517757
O O14 0.295732 0.457018 0.601309
O O15 0.598849 0.250000 0.229833
O O16 0.484500 0.168027 0.137429
O O17 0.640173 0.100044 0.227557
O O18 0.000000 0.500000 0.915084
O O19 0.455278 0.250000 0.034097
O O20 0.500000 0.000000 0.176321
#
# Coordination Sequence:
#
# PCOD9361215 Si02
#       8
#     8   8   8   8   8   8   8   8
#     4  10  21  37  62  91 120 154 202 256 306 361
#     4  11  24  40  57  85 125 160 200 247 313 375
#     4  10  21  36  61  91 116 156 204 254 306 362
#     4  10  21  36  59  88 118 158 206 255 299 363
#     4   9  17  33  55  83 118 151 192 248 305 361
#     4  11  25  39  58  89 121 166 201 248 310 372
#     4   9  18  33  56  89 120 146 188 251 307 357
#     4  10  21  35  58  91 118 160 204 255 312 369
#
# _framework density 18.941102000000001
#
# number of rings (size 3 to 8) (size 9 to 14) (size 15 to 20)
#    0.000    2.000    1.250    2.250    7.000    2.500 
#    0.000    0.000    0.000    0.000    0.000    0.000 
#    0.000    0.000    0.000    0.000    0.000    0.000 
#
# Total GULP energy -178143.939968 kJ/mol
# GULP energy per Si atom -5566.998124 kJ/mol
# Density = 1.889799 g / cm^3
# Si number density = 18.941102 Si / 1000 Ang^3
#
#
#
# Elastic Constant Matrix: (Units=GPa)
#
#
# Indices 1 2 3 4 5 6 
#
# 1 65.9201 17.6903 42.1318 0.0000 0.0000 0.0000
# 2 17.6903 93.1899 43.8651 0.0000 0.0000 0.0000
# 3 42.1318 43.8651 74.0420 0.0000 0.0000 0.0000
# 4 0.0000 0.0000 0.0000 40.9704 0.0000 0.0000
# 5 0.0000 0.0000 0.0000 0.0000 7.1280 0.0000
# 6 0.0000 0.0000 0.0000 0.0000 0.0000 38.6005
#
#
#
# Elastic Compliance Matrix: (Units=1/GPa)
#
#
# Indices 1 2 3 4 5 6 
#
# 1 0.024296 0.002628 -0.015382 0.000000 0.000000 0.000000
# 2 0.002628 0.015165 -0.010480 0.000000 0.000000 0.000000
# 3 -0.015382 -0.010480 0.028467 0.000000 0.000000 0.000000
# 4 0.000000 0.000000 0.000000 0.024408 0.000000 0.000000
# 5 0.000000 0.000000 0.000000 0.000000 0.140292 0.000000
# 6 0.000000 0.000000 0.000000 0.000000 0.000000 0.025906
#
#
# Mechanical properties :
#
#
# Convention : Reuss Voigt Hill
#
# Bulk Modulus (GPa) = 46.59651 48.94738 47.77195
# Shear Modulus (GPa) = 16.01776 25.97078 20.99427
#
# Velocity S-wave (km/s) = 2.91118 3.70690 3.33287
# Velocity P-wave (km/s) = 5.99617 6.64977 6.33141
#
# Compressibility (1/GPa) = 0.02146083
#
# Stress axis : x y z
#
# Youngs Moduli (GPa) = 41.15956 65.94265 35.12825
#
# Poissons Ratio (x) = -0.17332 0.54034
# Poissons Ratio (y) = -0.10818 0.36813
# Poissons Ratio (z) = 0.63312 0.69106
#
# Static dielectric constant tensor:
#      x y z
#    x 1.619470 0.000000 0.000000 
#    y 0.000000 1.696120 0.000000 
#    z 0.000000 0.000000 1.672530 
# 
# From -- ./inp_files/11979.got.cif
#   From: 2010.05.17/outbox.cif.g08.bks.cpg/sg39_6_cif.got.tgz:11979.got - 2010.06.03 18:22:40.
