data_PCOD9361647
_publ_section_title
;
Structure prediction by ZEFSAII (Michael W. Deem and Ramdas Pophale) SiO2 
 PCOD9361647
Probable space group: A B M 2
;
_chemical_formula_sum "Si O2"
_cell_formula_units_Z 40
_cell_length_a 4.784234
_cell_length_b 12.990054
_cell_length_c 27.738230
_cell_angle_alpha 90.000000
_cell_angle_beta 90.000000
_cell_angle_gamma 90.000000
_cell_volume 1723.860484
_symmetry_space_group_name_H-M "A B M 2"
_symmetry_group_IT_number 39
_symmetry_cell_setting 'orthorhombic'
loop_
_space_group_symop_operation_xyz
x,y,z
-x,-y,z
-x,1/2+y,z
x,1/2-y,z
x,1/2+y,1/2+z
-x,1/2-y,1/2+z
-x,y,1/2+z
x,-y,1/2+z
loop_
_atom_site_type_symbol
_atom_site_label
_atom_site_fract_x
_atom_site_fract_y
_atom_site_fract_z
Si Si1 0.911497 0.750000 0.718730
Si Si2 0.240372 0.427276 0.159756
Si Si3 0.752593 0.922187 0.456154
Si Si4 0.547569 0.250000 0.590971
Si Si5 0.259186 0.576086 0.853033
Si Si6 0.617536 0.750000 0.281016
Si Si7 0.059261 0.750000 0.029067
O O1 0.051753 0.851559 0.694336
O O2 0.051167 0.750000 0.770673
O O3 0.582243 0.750000 0.733083
O O4 0.500000 0.500000 0.179066
O O5 0.377096 0.350569 0.121529
O O6 0.000000 0.500000 0.138068
O O7 0.767406 0.864703 0.404059
O O8 0.833539 0.847094 0.499206
O O9 0.500000 0.000000 0.468387
O O10 0.000000 0.000000 0.448877
O O11 0.220996 0.250000 0.579806
O O12 0.733178 0.250000 0.542292
O O13 0.500000 0.500000 0.868115
O O14 0.398772 0.646869 0.812123
O O15 0.000000 0.500000 0.838929
#
# Coordination Sequence:
#
# PCOD9361647 Si02
#       7
#     4   8   8   4   8   4   4
#     4  11  26  42  65 102 122 158 221 262 325 410
#     4  11  24  46  69  89 127 170 205 263 333 397
#     4  10  22  39  60  89 128 174 219 258 312 379
#     4  11  26  40  63 100 124 159 221 261 317 402
#     4  10  22  40  62  91 128 175 221 260 318 389
#     4  12  23  41  66  94 132 162 208 281 325 374
#     4  12  23  39  62  94 132 163 210 276 317 364
#
# _framework density 23.203734000000001
#
# number of rings (size 3 to 8) (size 9 to 14) (size 15 to 20)
#    0.000    1.200    0.000    5.400    0.000   11.200 
#    0.000    8.000    0.000    0.000    0.000    0.000 
#    0.000    0.000    0.000    0.000    0.000    0.000 
#
# Total GULP energy -111364.552654 kJ/mol
# GULP energy per Si atom -5568.227633 kJ/mol
# Density = 2.315092 g / cm^3
# Si number density = 23.203734 Si / 1000 Ang^3
#
#
#
# Elastic Constant Matrix: (Units=GPa)
#
#
# Indices 1 2 3 4 5 6 
#
# 1 96.1369 14.6851 -1.3847 0.0000 0.0000 0.0000
# 2 14.6851 116.3899 24.7631 0.0000 0.0000 0.0000
# 3 -1.3847 24.7631 49.5057 0.0000 0.0000 0.0000
# 4 0.0000 0.0000 0.0000 34.1434 0.0000 0.0000
# 5 0.0000 0.0000 0.0000 0.0000 28.5520 0.0000
# 6 0.0000 0.0000 0.0000 0.0000 0.0000 5.2870
#
#
#
# Elastic Compliance Matrix: (Units=1/GPa)
#
#
# Indices 1 2 3 4 5 6 
#
# 1 0.010658 -0.001576 0.001086 0.000000 0.000000 0.000000
# 2 -0.001576 0.009848 -0.004970 0.000000 0.000000 0.000000
# 3 0.001086 -0.004970 0.022716 0.000000 0.000000 0.000000
# 4 0.000000 0.000000 0.000000 0.029288 0.000000 0.000000
# 5 0.000000 0.000000 0.000000 0.000000 0.035024 0.000000
# 6 0.000000 0.000000 0.000000 0.000000 0.000000 0.189143
#
#
# Mechanical properties :
#
#
# Convention : Reuss Voigt Hill
#
# Bulk Modulus (GPa) = 30.95674 37.57328 34.26501
# Shear Modulus (GPa) = 15.70526 28.52774 22.11650
#
# Velocity S-wave (km/s) = 2.60444 3.51015 3.09065
# Velocity P-wave (km/s) = 4.73438 5.71455 5.24740
#
# Compressibility (1/GPa) = 0.03230315
#
# Stress axis : x y z
#
# Youngs Moduli (GPa) = 93.82445 101.54248 44.02143
#
# Poissons Ratio (x) = 0.16002 -0.04782
# Poissons Ratio (y) = 0.14786 0.21879
# Poissons Ratio (z) = -0.10193 0.50468
#
# Static dielectric constant tensor:
#      x y z
#    x 2.028680 0.000000 0.000000 
#    y 0.000000 1.889760 0.000000 
#    z 0.000000 0.000000 1.950330 
# 
# From -- ./inp_files/16443.got.cif
#   From: 2010.05.17/outbox.cif.g08.bks.cpg/sg39_9_cif.got.tgz:16443.got - 2010.06.03 18:22:40.
