data_PCOD9361231
_publ_section_title
;
Structure prediction by ZEFSAII (Michael W. Deem and Ramdas Pophale) SiO2 
 PCOD9361231
Probable space group: A B M 2
;
_chemical_formula_sum "Si O2"
_cell_formula_units_Z 64
_cell_length_a 28.665784
_cell_length_b 9.317925
_cell_length_c 10.751327
_cell_angle_alpha 90.000000
_cell_angle_beta 90.000000
_cell_angle_gamma 90.000000
_cell_volume 2871.739922
_symmetry_space_group_name_H-M "A B M 2"
_symmetry_group_IT_number 39
_symmetry_cell_setting 'orthorhombic'
loop_
_space_group_symop_operation_xyz
x,y,z
-x,-y,z
-x,1/2+y,z
x,1/2-y,z
x,1/2+y,1/2+z
-x,1/2-y,1/2+z
-x,y,1/2+z
x,-y,1/2+z
loop_
_atom_site_type_symbol
_atom_site_label
_atom_site_fract_x
_atom_site_fract_y
_atom_site_fract_z
Si Si1 0.950089 0.077952 0.051410
Si Si2 0.173014 0.092689 0.175277
Si Si3 0.898576 0.578612 0.820772
Si Si4 0.219614 0.088644 0.498573
Si Si5 0.549747 0.923570 0.195805
Si Si6 0.318791 0.403568 0.614988
Si Si7 0.595727 0.579755 0.459322
Si Si8 0.726144 0.907869 0.283648
O O1 0.953531 0.250000 0.026306
O O2 0.926764 0.062873 0.188856
O O3 0.000000 0.000000 0.057676
O O4 0.923372 0.998290 0.937508
O O5 0.151694 0.250000 0.157985
O O6 0.228142 0.112644 0.198239
O O7 0.148693 0.006221 0.285332
O O8 0.175886 0.991011 0.056022
O O9 0.892110 0.750000 0.842250
O O10 0.204580 0.250000 0.458044
O O11 0.263541 0.110927 0.590574
O O12 0.248410 0.004862 0.392655
O O13 0.545999 0.750000 0.186229
O O14 0.579672 0.958561 0.320446
O O15 0.500000 0.000000 0.213465
O O16 0.570878 0.989081 0.068590
O O17 0.335825 0.250000 0.663560
O O18 0.349576 0.437746 0.494892
O O19 0.317757 0.527626 0.715350
O O20 0.584750 0.750000 0.474037
O O21 0.713125 0.750000 0.332151
#
# Coordination Sequence:
#
# PCOD9361231 Si02
#       8
#     8   8   8   8   8   8   8   8
#     4  11  25  45  69  97 129 164 207 257 315 378
#     4  10  21  36  54  85 121 157 207 258 305 363
#     4  11  25  43  67  97 130 169 212 260 314 373
#     4   9  18  34  56  78 113 159 200 247 306 362
#     4  11  24  42  66  92 123 161 202 251 312 372
#     4   9  19  35  54  81 115 153 197 246 299 360
#     4  10  23  41  63  94 127 159 204 254 305 369
#     4   9  19  34  55  80 114 156 200 251 303 359
#
# _framework density 22.286142000000002
#
# number of rings (size 3 to 8) (size 9 to 14) (size 15 to 20)
#    0.000    2.000    0.000    2.250    3.500    6.500 
#    0.000    0.000    0.000    0.000    0.000    0.000 
#    0.000    0.000    0.000    0.000    0.000    0.000 
#
# Total GULP energy -178224.294872 kJ/mol
# GULP energy per Si atom -5569.509215 kJ/mol
# Density = 2.223542 g / cm^3
# Si number density = 22.286142 Si / 1000 Ang^3
#
#
#
# Elastic Constant Matrix: (Units=GPa)
#
#
# Indices 1 2 3 4 5 6 
#
# 1 87.9752 38.3828 31.1717 0.0000 0.0000 0.0000
# 2 38.3828 106.3587 48.8714 0.0000 0.0000 0.0000
# 3 31.1717 48.8714 108.3698 0.0000 0.0000 0.0000
# 4 0.0000 0.0000 0.0000 43.4023 0.0000 0.0000
# 5 0.0000 0.0000 0.0000 0.0000 43.2392 0.0000
# 6 0.0000 0.0000 0.0000 0.0000 0.0000 84.3621
#
#
#
# Elastic Compliance Matrix: (Units=1/GPa)
#
#
# Indices 1 2 3 4 5 6 
#
# 1 0.013891 -0.004007 -0.002188 0.000000 0.000000 0.000000
# 2 -0.004007 0.013016 -0.004717 0.000000 0.000000 0.000000
# 3 -0.002188 -0.004717 0.011984 0.000000 0.000000 0.000000
# 4 0.000000 0.000000 0.000000 0.023040 0.000000 0.000000
# 5 0.000000 0.000000 0.000000 0.000000 0.023127 0.000000
# 6 0.000000 0.000000 0.000000 0.000000 0.000000 0.011854
#
#
# Mechanical properties :
#
#
# Convention : Reuss Voigt Hill
#
# Bulk Modulus (GPa) = 58.59834 59.95062 59.27448
# Shear Modulus (GPa) = 40.18467 46.48590 43.33529
#
# Velocity S-wave (km/s) = 4.25093 4.57208 4.41443
# Velocity P-wave (km/s) = 7.10243 7.40478 7.25518
#
# Compressibility (1/GPa) = 0.01706533
#
# Stress axis : x y z
#
# Youngs Moduli (GPa) = 71.99135 76.82992 83.44209
#
# Poissons Ratio (x) = 0.30788 0.18260
# Poissons Ratio (y) = 0.28849 0.39360
# Poissons Ratio (z) = 0.15754 0.36241
#
# Static dielectric constant tensor:
#      x y z
#    x 1.863610 0.000000 0.000000 
#    y 0.000000 1.926650 0.000000 
#    z 0.000000 0.000000 1.898220 
# 
# From -- ./inp_files/7091.got.cif
#   From: 2010.05.17/outbox.cif.g08.bks.cpg/sg39_4_cif.got.tgz:7091.got - 2010.06.03 18:22:40.
