data_PCOD9361252
_publ_section_title
;
Structure prediction by ZEFSAII (Michael W. Deem and Ramdas Pophale) SiO2 
 PCOD9361252
Probable space group: A B M 2
;
_chemical_formula_sum "Si O2"
_cell_formula_units_Z 40
_cell_length_a 9.409840
_cell_length_b 13.748646
_cell_length_c 14.659753
_cell_angle_alpha 90.000000
_cell_angle_beta 90.000000
_cell_angle_gamma 90.000000
_cell_volume 1896.569761
_symmetry_space_group_name_H-M "A B M 2"
_symmetry_group_IT_number 39
_symmetry_cell_setting 'orthorhombic'
loop_
_space_group_symop_operation_xyz
x,y,z
-x,-y,z
-x,1/2+y,z
x,1/2-y,z
x,1/2+y,1/2+z
-x,1/2-y,1/2+z
-x,y,1/2+z
x,-y,1/2+z
loop_
_atom_site_type_symbol
_atom_site_label
_atom_site_fract_x
_atom_site_fract_y
_atom_site_fract_z
Si Si1 0.922871 0.364502 0.125000
Si Si2 0.663301 0.000030 0.575145
Si Si3 0.034922 0.860094 0.422100
Si Si4 0.236977 0.465676 0.375479
Si Si5 0.217917 0.135632 0.204635
O O1 0.888758 0.250000 0.131374
O O2 0.779339 0.427309 0.121785
O O3 0.047593 0.386030 0.197485
O O4 0.003904 0.381249 0.028689
O O5 0.671884 0.974601 0.467239
O O6 0.500000 0.000000 0.602849
O O7 0.718665 0.105596 0.606325
O O8 0.081248 0.750000 0.409153
O O9 0.876637 0.878151 0.385723
O O10 0.143579 0.936073 0.378470
O O11 0.296500 0.434443 0.277824
O O12 0.237017 0.250000 0.220529
#
# Coordination Sequence:
#
# PCOD9361252 Si02
#       5
#     8   8   8   8   8
#     4   9  19  38  64  94 127 164 216 274 326 380
#     4  11  24  41  63  93 136 178 216 264 330 401
#     4   9  17  33  58  91 123 156 201 262 323 374
#     4  10  21  36  60  92 128 165 212 268 328 383
#     4  11  23  41  67  96 127 169 221 278 332 385
#
# _framework density 21.090710000000001
#
# number of rings (size 3 to 8) (size 9 to 14) (size 15 to 20)
#    0.000    2.000    2.000    1.200    5.600    2.400 
#    0.000    0.000    0.000    2.400    0.000    0.000 
#    0.000    0.000    0.000    0.000    0.000    0.000 
#
# Total GULP energy -111432.544122 kJ/mol
# GULP energy per Si atom -5571.627206 kJ/mol
# Density = 2.104271 g / cm^3
# Si number density = 21.090710 Si / 1000 Ang^3
#
#
#
# Elastic Constant Matrix: (Units=GPa)
#
#
# Indices 1 2 3 4 5 6 
#
# 1 103.5747 43.2875 21.6444 0.0000 0.0000 0.0000
# 2 43.2875 141.1437 33.2797 0.0000 0.0000 0.0000
# 3 21.6444 33.2797 100.5320 0.0000 0.0000 0.0000
# 4 0.0000 0.0000 0.0000 30.5283 0.0000 0.0000
# 5 0.0000 0.0000 0.0000 0.0000 17.2270 0.0000
# 6 0.0000 0.0000 0.0000 0.0000 0.0000 10.5841
#
#
#
# Elastic Compliance Matrix: (Units=1/GPa)
#
#
# Indices 1 2 3 4 5 6 
#
# 1 0.011250 -0.003123 -0.001388 0.000000 0.000000 0.000000
# 2 -0.003123 0.008552 -0.002159 0.000000 0.000000 0.000000
# 3 -0.001388 -0.002159 0.010961 0.000000 0.000000 0.000000
# 4 0.000000 0.000000 0.000000 0.032756 0.000000 0.000000
# 5 0.000000 0.000000 0.000000 0.000000 0.058048 0.000000
# 6 0.000000 0.000000 0.000000 0.000000 0.000000 0.094481
#
#
# Mechanical properties :
#
#
# Convention : Reuss Voigt Hill
#
# Bulk Modulus (GPa) = 57.39628 60.18595 58.79111
# Shear Modulus (GPa) = 21.25886 28.13714 24.69800
#
# Velocity S-wave (km/s) = 3.17830 3.65650 3.42575
# Velocity P-wave (km/s) = 6.38294 6.81361 6.60179
#
# Compressibility (1/GPa) = 0.01742273
#
# Stress axis : x y z
#
# Youngs Moduli (GPa) = 88.88731 116.93552 91.23631
#
# Poissons Ratio (x) = 0.36519 0.12667
# Poissons Ratio (y) = 0.27759 0.19694
# Poissons Ratio (z) = 0.12341 0.25241
#
# Static dielectric constant tensor:
#      x y z
#    x 1.741320 0.000000 0.000000 
#    y 0.000000 1.747920 0.000000 
#    z 0.000000 0.000000 1.959520 
# 
# From -- ./inp_files/8071.got.cif
#   From: 2010.05.17/outbox.cif.g08.bks.cpg/sg39_5_cif.got.tgz:8071.got - 2010.06.03 18:22:40.
