data_PCOD9361772
_publ_section_title
;
Structure prediction by ZEFSAII (Michael W. Deem and Ramdas Pophale) SiO2 
 PCOD9361772
Probable space group: A B M 2
;
_chemical_formula_sum "Si O2"
_cell_formula_units_Z 64
_cell_length_a 13.089942
_cell_length_b 23.259946
_cell_length_c 9.698146
_cell_angle_alpha 90.000000
_cell_angle_beta 90.000000
_cell_angle_gamma 90.000000
_cell_volume 2952.807548
_symmetry_space_group_name_H-M "A B M 2"
_symmetry_group_IT_number 39
_symmetry_cell_setting 'orthorhombic'
loop_
_space_group_symop_operation_xyz
x,y,z
-x,-y,z
-x,1/2+y,z
x,1/2-y,z
x,1/2+y,1/2+z
-x,1/2-y,1/2+z
-x,y,1/2+z
x,-y,1/2+z
loop_
_atom_site_type_symbol
_atom_site_label
_atom_site_fract_x
_atom_site_fract_y
_atom_site_fract_z
Si Si1 0.618743 0.510021 0.090050
Si Si2 0.254965 0.976273 0.329297
Si Si3 0.228329 0.314019 0.650225
Si Si4 0.617722 0.856947 0.075544
Si Si5 0.178203 0.350967 0.944081
Si Si6 0.559905 0.681887 0.771507
Si Si7 0.024746 0.378016 0.578243
Si Si8 0.064429 0.053617 0.321476
O O1 0.500000 0.500000 0.106557
O O2 0.689309 0.469546 0.183723
O O3 0.657612 0.505043 0.934789
O O4 0.631517 0.577391 0.122190
O O5 0.201116 0.917999 0.390196
O O6 0.178002 0.029429 0.311804
O O7 0.231097 0.250000 0.590405
O O8 0.193488 0.313569 0.809356
O O9 0.345560 0.334732 0.669471
O O10 0.136722 0.350014 0.582897
O O11 0.733145 0.835334 0.052287
O O12 0.570490 0.850795 0.918925
O O13 0.543814 0.828087 0.186725
O O14 0.066408 0.343760 0.004972
O O15 0.571175 0.750000 0.801556
O O16 0.975679 0.395296 0.724771
O O17 0.039612 0.432670 0.479175
O O18 0.000000 0.000000 0.271600
#
# Coordination Sequence:
#
# PCOD9361772 Si02
#       8
#     8   8   8   8   8   8   8   8
#     4  11  26  40  62  94 135 177 214 258 328 388
#     4  11  24  41  62  96 133 173 218 262 321 394
#     4  10  23  43  67  92 129 173 217 276 342 394
#     4  10  23  41  67  95 133 166 220 273 326 392
#     4  10  22  43  65  95 132 173 218 269 332 395
#     4  10  22  44  72  96 125 172 224 278 336 395
#     4  12  23  42  63 100 127 169 222 266 327 389
#     4  12  24  37  66  92 132 168 214 265 314 385
#
# _framework density 21.674287
#
# number of rings (size 3 to 8) (size 9 to 14) (size 15 to 20)
#    0.000    1.250    2.500    2.625   10.500    1.000 
#    2.250    0.000    0.000    0.000    0.000    0.000 
#    0.000    0.000    0.000    0.000    0.000    0.000 
#
# Total GULP energy -178504.911331 kJ/mol
# GULP energy per Si atom -5578.278479 kJ/mol
# Density = 2.162496 g / cm^3
# Si number density = 21.674287 Si / 1000 Ang^3
#
#
#
# Elastic Constant Matrix: (Units=GPa)
#
#
# Indices 1 2 3 4 5 6 
#
# 1 72.3570 12.5368 0.9649 0.0000 0.0000 0.0000
# 2 12.5368 41.6965 14.5598 0.0000 0.0000 0.0000
# 3 0.9649 14.5598 44.0817 0.0000 0.0000 0.0000
# 4 0.0000 0.0000 0.0000 20.2931 0.0000 0.0000
# 5 0.0000 0.0000 0.0000 0.0000 34.2440 0.0000
# 6 0.0000 0.0000 0.0000 0.0000 0.0000 21.3714
#
#
#
# Elastic Compliance Matrix: (Units=1/GPa)
#
#
# Indices 1 2 3 4 5 6 
#
# 1 0.014644 -0.004850 0.001282 0.000000 0.000000 0.000000
# 2 -0.004850 0.028716 -0.009378 0.000000 0.000000 0.000000
# 3 0.001282 -0.009378 0.025755 0.000000 0.000000 0.000000
# 4 0.000000 0.000000 0.000000 0.049278 0.000000 0.000000
# 5 0.000000 0.000000 0.000000 0.000000 0.029202 0.000000
# 6 0.000000 0.000000 0.000000 0.000000 0.000000 0.046792
#
#
# Mechanical properties :
#
#
# Convention : Reuss Voigt Hill
#
# Bulk Modulus (GPa) = 23.13759 23.80646 23.47202
# Shear Modulus (GPa) = 21.30497 23.85329 22.57913
#
# Velocity S-wave (km/s) = 3.13862 3.32103 3.23111
# Velocity P-wave (km/s) = 4.88189 5.07082 4.97725
#
# Compressibility (1/GPa) = 0.04321972
#
# Stress axis : x y z
#
# Youngs Moduli (GPa) = 68.28899 34.82379 38.82785
#
# Poissons Ratio (x) = 0.16891 -0.04976
# Poissons Ratio (y) = 0.33122 0.36415
# Poissons Ratio (z) = -0.08751 0.32659
#
# Static dielectric constant tensor:
#      x y z
#    x 1.792240 0.000000 0.000000 
#    y 0.000000 1.825550 0.000000 
#    z 0.000000 0.000000 1.768710 
# 
# From -- ./inp_files/3508.got.cif
#   From: 2010.05.17/outbox.cif.g08.bks.cpg/sg39_2_cif.got.tgz:3508.got - 2010.06.03 18:22:40.
