data_PCOD9361449
_publ_section_title
;
Structure prediction by ZEFSAII (Michael W. Deem and Ramdas Pophale) SiO2 
 PCOD9361449
Probable space group: A B M 2
;
_chemical_formula_sum "Si O2"
_cell_formula_units_Z 64
_cell_length_a 18.278412
_cell_length_b 16.483976
_cell_length_c 9.533181
_cell_angle_alpha 90.000000
_cell_angle_beta 90.000000
_cell_angle_gamma 90.000000
_cell_volume 2872.356060
_symmetry_space_group_name_H-M "A B M 2"
_symmetry_group_IT_number 39
_symmetry_cell_setting 'orthorhombic'
loop_
_space_group_symop_operation_xyz
x,y,z
-x,-y,z
-x,1/2+y,z
x,1/2-y,z
x,1/2+y,1/2+z
-x,1/2-y,1/2+z
-x,y,1/2+z
x,-y,1/2+z
loop_
_atom_site_type_symbol
_atom_site_label
_atom_site_fract_x
_atom_site_fract_y
_atom_site_fract_z
Si Si1 0.290536 0.340315 0.728050
Si Si2 0.501527 0.841119 0.189631
Si Si3 0.020286 0.155996 0.898088
Si Si4 0.053494 0.575038 0.125322
Si Si5 0.346505 0.340153 0.024427
Si Si6 0.712908 0.009152 0.015766
Si Si7 0.558377 0.434270 0.957467
Si Si8 0.163689 0.427055 0.850850
O O1 0.294588 0.250000 0.665305
O O2 0.348839 0.347962 0.854830
O O3 0.284831 0.416755 0.624515
O O4 0.215258 0.350382 0.817616
O O5 0.488870 0.750000 0.239381
O O6 0.522855 0.896659 0.319649
O O7 0.437879 0.870747 0.085789
O O8 0.025341 0.250000 0.933045
O O9 0.951383 0.112991 0.971764
O O10 0.021272 0.143247 0.730997
O O11 0.093397 0.103920 0.938430
O O12 0.128282 0.549434 0.200903
O O13 0.000000 0.500000 0.132792
O O14 0.315516 0.250000 0.055279
O O15 0.303128 0.419191 0.078752
O O16 0.426521 0.341374 0.090769
O O17 0.638099 0.029016 0.930229
O O18 0.784600 0.994126 0.921228
O O19 0.500000 0.500000 0.010853
#
# Coordination Sequence:
#
# PCOD9361449 Si02
#       8
#     8   8   8   8   8   8   8   8
#     4  10  22  41  69  97 130 181 233 281 348 432
#     4  11  25  43  65  96 137 175 227 299 366 427
#     4  10  21  39  66 100 137 178 232 288 345 414
#     4  10  22  39  66  99 139 179 222 281 345 415
#     4   9  21  40  62  93 132 179 225 280 351 419
#     4  11  24  42  69  98 137 182 239 290 349 424
#     4  12  26  42  68  98 134 177 235 295 354 422
#     4   9  24  39  66  94 141 179 226 279 353 411
#
# _framework density 22.281358999999998
#
# number of rings (size 3 to 8) (size 9 to 14) (size 15 to 20)
#    0.750    1.000    1.250    1.875    7.000    1.500 
#    0.000    0.000    0.000    0.750    0.000    0.000 
#    0.000    0.000    0.000    0.000    0.000    0.000 
#
# Total GULP energy -178478.156125 kJ/mol
# GULP energy per Si atom -5577.442379 kJ/mol
# Density = 2.223065 g / cm^3
# Si number density = 22.281359 Si / 1000 Ang^3
#
#
#
# Elastic Constant Matrix: (Units=GPa)
#
#
# Indices 1 2 3 4 5 6 
#
# 1 65.7136 29.6533 10.4416 0.0000 0.0000 0.0000
# 2 29.6533 146.8471 30.7107 0.0000 0.0000 0.0000
# 3 10.4416 30.7107 57.3174 0.0000 0.0000 0.0000
# 4 0.0000 0.0000 0.0000 42.7810 0.0000 0.0000
# 5 0.0000 0.0000 0.0000 0.0000 33.7277 0.0000
# 6 0.0000 0.0000 0.0000 0.0000 0.0000 8.1873
#
#
#
# Elastic Compliance Matrix: (Units=1/GPa)
#
#
# Indices 1 2 3 4 5 6 
#
# 1 0.016843 -0.003108 -0.001403 0.000000 0.000000 0.000000
# 2 -0.003108 0.008243 -0.003850 0.000000 0.000000 0.000000
# 3 -0.001403 -0.003850 0.019765 0.000000 0.000000 0.000000
# 4 0.000000 0.000000 0.000000 0.023375 0.000000 0.000000
# 5 0.000000 0.000000 0.000000 0.000000 0.029649 0.000000
# 6 0.000000 0.000000 0.000000 0.000000 0.000000 0.122140
#
#
# Mechanical properties :
#
#
# Convention : Reuss Voigt Hill
#
# Bulk Modulus (GPa) = 35.55113 45.72103 40.63608
# Shear Modulus (GPa) = 20.31588 30.21071 25.26330
#
# Velocity S-wave (km/s) = 3.02286 3.68621 3.37089
# Velocity P-wave (km/s) = 5.30790 6.21948 5.78168
#
# Compressibility (1/GPa) = 0.02812850
#
# Stress axis : x y z
#
# Youngs Moduli (GPa) = 59.37235 121.32143 50.59376
#
# Poissons Ratio (x) = 0.37703 0.07099
# Poissons Ratio (y) = 0.18451 0.19480
# Poissons Ratio (z) = 0.08331 0.46712
#
# Static dielectric constant tensor:
#      x y z
#    x 1.934020 0.000000 0.000000 
#    y 0.000000 1.828510 0.000000 
#    z 0.000000 0.000000 1.841630 
# 
# From -- ./inp_files/6910.got.cif
#   From: 2010.05.17/outbox.cif.g08.bks.cpg/sg39_4_cif.got.tgz:6910.got - 2010.06.03 18:22:40.
