data_PCOD9361680
_publ_section_title
;
Structure prediction by ZEFSAII (Michael W. Deem and Ramdas Pophale) SiO2 
 PCOD9361680
Probable space group: A B M 2
;
_chemical_formula_sum "Si O2"
_cell_formula_units_Z 40
_cell_length_a 5.585184
_cell_length_b 14.400900
_cell_length_c 22.991715
_cell_angle_alpha 90.000000
_cell_angle_beta 90.000000
_cell_angle_gamma 90.000000
_cell_volume 1849.262178
_symmetry_space_group_name_H-M "A B M 2"
_symmetry_group_IT_number 39
_symmetry_cell_setting 'orthorhombic'
loop_
_space_group_symop_operation_xyz
x,y,z
-x,-y,z
-x,1/2+y,z
x,1/2-y,z
x,1/2+y,1/2+z
-x,1/2-y,1/2+z
-x,y,1/2+z
x,-y,1/2+z
loop_
_atom_site_type_symbol
_atom_site_label
_atom_site_fract_x
_atom_site_fract_y
_atom_site_fract_z
Si Si1 0.749872 0.462607 0.030840
Si Si2 0.638854 0.855482 0.225889
Si Si3 0.246553 0.750000 0.428921
Si Si4 0.745982 0.750000 0.500491
Si Si5 0.000000 0.000000 0.255685
Si Si6 0.380292 0.091644 0.840663
Si Si7 0.500000 0.000000 0.141633
O O1 0.500000 0.500000 0.002389
O O2 0.717237 0.505160 0.095643
O O3 0.000000 0.500000 0.005187
O O4 0.752151 0.350405 0.032310
O O5 0.669857 0.750000 0.209013
O O6 0.560676 0.861229 0.293756
O O7 0.869858 0.920100 0.220297
O O8 0.463635 0.911383 0.183040
O O9 0.486404 0.750000 0.468528
O O10 0.275234 0.661143 0.387191
O O11 0.988691 0.750000 0.460712
O O12 0.819633 0.052314 0.298030
O O13 0.500000 0.000000 0.867303
#
# Coordination Sequence:
#
# PCOD9361680 Si02
#       7
#     8   8   4   4   4   8   4
#     4  10  25  48  75 101 142 175 241 303 352 424
#     4  11  22  40  67  99 146 184 227 279 345 430
#     4  12  28  44  75 104 135 188 240 290 365 415
#     4  12  28  50  73 102 137 184 248 300 361 411
#     4  10  22  40  60  96 146 186 226 280 328 424
#     4  10  23  41  63  99 146 180 233 280 344 425
#     4  10  24  42  70 102 140 180 236 272 378 412
#
# _framework density 21.630248999999999
#
# number of rings (size 3 to 8) (size 9 to 14) (size 15 to 20)
#    0.600    0.800    4.000    1.200    9.800    2.400 
#    1.800    0.000    0.000    0.000    0.000    0.000 
#    0.000    0.000    0.000    0.000    0.000    0.000 
#
# Total GULP energy -111472.492461 kJ/mol
# GULP energy per Si atom -5573.624623 kJ/mol
# Density = 2.158102 g / cm^3
# Si number density = 21.630249 Si / 1000 Ang^3
#
#
#
# Elastic Constant Matrix: (Units=GPa)
#
#
# Indices 1 2 3 4 5 6 
#
# 1 110.5081 24.6332 9.6900 0.0000 0.0000 0.0000
# 2 24.6332 151.3127 14.7418 0.0000 0.0000 0.0000
# 3 9.6900 14.7418 62.8502 0.0000 0.0000 0.0000
# 4 0.0000 0.0000 0.0000 33.5857 0.0000 0.0000
# 5 0.0000 0.0000 0.0000 0.0000 34.2436 0.0000
# 6 0.0000 0.0000 0.0000 0.0000 0.0000 23.6390
#
#
#
# Elastic Compliance Matrix: (Units=1/GPa)
#
#
# Indices 1 2 3 4 5 6 
#
# 1 0.009467 -0.001432 -0.001124 0.000000 0.000000 0.000000
# 2 -0.001432 0.006980 -0.001416 0.000000 0.000000 0.000000
# 3 -0.001124 -0.001416 0.016416 0.000000 0.000000 0.000000
# 4 0.000000 0.000000 0.000000 0.029775 0.000000 0.000000
# 5 0.000000 0.000000 0.000000 0.000000 0.029203 0.000000
# 6 0.000000 0.000000 0.000000 0.000000 0.000000 0.042303
#
#
# Mechanical properties :
#
#
# Convention : Reuss Voigt Hill
#
# Bulk Modulus (GPa) = 40.12955 46.97790 43.55373
# Shear Modulus (GPa) = 33.24616 36.66738 34.95677
#
# Velocity S-wave (km/s) = 3.92474 4.12173 4.02444
# Velocity P-wave (km/s) = 6.25547 6.66464 6.46329
#
# Compressibility (1/GPa) = 0.02491929
#
# Stress axis : x y z
#
# Youngs Moduli (GPa) = 105.63252 143.26851 60.91496
#
# Poissons Ratio (x) = 0.20511 0.06845
# Poissons Ratio (y) = 0.15123 0.08628
# Poissons Ratio (z) = 0.11870 0.20293
#
# Static dielectric constant tensor:
#      x y z
#    x 1.837740 0.000000 0.000000 
#    y 0.000000 1.757250 0.000000 
#    z 0.000000 0.000000 1.779340 
# 
# From -- ./inp_files/15228.got.cif
#   From: 2010.05.17/outbox.cif.g08.bks.cpg/sg39_8_cif.got.tgz:15228.got - 2010.06.03 18:22:40.
