data_PCOD9361798
_publ_section_title
;
Structure prediction by ZEFSAII (Michael W. Deem and Ramdas Pophale) SiO2 
 PCOD9361798
Probable space group: A B M 2
;
_chemical_formula_sum "Si O2"
_cell_formula_units_Z 48
_cell_length_a 11.761897
_cell_length_b 16.072897
_cell_length_c 12.211716
_cell_angle_alpha 90.000000
_cell_angle_beta 90.000000
_cell_angle_gamma 90.000000
_cell_volume 2308.597543
_symmetry_space_group_name_H-M "A B M 2"
_symmetry_group_IT_number 39
_symmetry_cell_setting 'orthorhombic'
loop_
_space_group_symop_operation_xyz
x,y,z
-x,-y,z
-x,1/2+y,z
x,1/2-y,z
x,1/2+y,1/2+z
-x,1/2-y,1/2+z
-x,y,1/2+z
x,-y,1/2+z
loop_
_atom_site_type_symbol
_atom_site_label
_atom_site_fract_x
_atom_site_fract_y
_atom_site_fract_z
Si Si1 0.287161 0.151362 0.722670
Si Si2 0.928136 0.850875 0.585548
Si Si3 0.178793 0.349822 0.164132
Si Si4 0.440214 0.154210 0.531419
Si Si5 0.325979 0.087645 0.962331
Si Si6 0.231888 0.593737 0.904981
O O1 0.287590 0.250000 0.704669
O O2 0.168256 0.120851 0.672126
O O3 0.391248 0.120736 0.647152
O O4 0.300095 0.134399 0.849269
O O5 0.927700 0.750000 0.578586
O O6 0.884193 0.885580 0.469807
O O7 0.052638 0.875637 0.624909
O O8 0.178888 0.250000 0.182778
O O9 0.214132 0.394286 0.276518
O O10 0.262786 0.372781 0.065930
O O11 0.481124 0.250000 0.542385
O O12 0.540672 0.097959 0.485745
O O13 0.330869 0.153594 0.451702
O O14 0.278590 0.995861 0.940580
#
# Coordination Sequence:
#
# PCOD9361798 Si02
#       6
#     8   8   8   8   8   8
#     4   9  20  41  68  95 130 176 226 277 335 405
#     4   9  21  44  70  93 127 179 229 274 332 406
#     4  11  25  44  71 100 133 182 237 280 329 414
#     4  10  22  44  71  94 131 182 227 275 336 414
#     4  12  26  41  65 104 138 173 223 284 347 402
#     4  11  25  44  66 102 139 177 219 285 352 398
#
# _framework density 20.791844999999999
#
# number of rings (size 3 to 8) (size 9 to 14) (size 15 to 20)
#    0.000    1.667    0.000    4.500    9.333    0.667 
#    0.000    0.000    0.000    0.000    0.000    0.000 
#    0.000    0.000    0.000    0.000    0.000    0.000 
#
# Total GULP energy -134129.902897 kJ/mol
# GULP energy per Si atom -5588.745954 kJ/mol
# Density = 2.074452 g / cm^3
# Si number density = 20.791845 Si / 1000 Ang^3
#
#
#
# Elastic Constant Matrix: (Units=GPa)
#
#
# Indices 1 2 3 4 5 6 
#
# 1 84.9930 23.1553 49.7096 0.0000 0.0000 0.0000
# 2 23.1553 43.5848 4.5296 0.0000 0.0000 0.0000
# 3 49.7096 4.5296 158.2182 0.0000 0.0000 0.0000
# 4 0.0000 0.0000 0.0000 17.2324 0.0000 0.0000
# 5 0.0000 0.0000 0.0000 0.0000 21.1957 0.0000
# 6 0.0000 0.0000 0.0000 0.0000 0.0000 28.8318
#
#
#
# Elastic Compliance Matrix: (Units=1/GPa)
#
#
# Indices 1 2 3 4 5 6 
#
# 1 0.017092 -0.008548 -0.005125 0.000000 0.000000 0.000000
# 2 -0.008548 0.027287 0.001904 0.000000 0.000000 0.000000
# 3 -0.005125 0.001904 0.007876 0.000000 0.000000 0.000000
# 4 0.000000 0.000000 0.000000 0.058030 0.000000 0.000000
# 5 0.000000 0.000000 0.000000 0.000000 0.047179 0.000000
# 6 0.000000 0.000000 0.000000 0.000000 0.000000 0.034684
#
#
# Mechanical properties :
#
#
# Convention : Reuss Voigt Hill
#
# Bulk Modulus (GPa) = 34.82171 49.06502 41.94337
# Shear Modulus (GPa) = 22.19669 27.41210 24.80439
#
# Velocity S-wave (km/s) = 3.27091 3.63493 3.45771
# Velocity P-wave (km/s) = 5.57219 6.42389 6.01314
#
# Compressibility (1/GPa) = 0.02871771
#
# Stress axis : x y z
#
# Youngs Moduli (GPa) = 58.50665 36.64740 126.96540
#
# Poissons Ratio (x) = 0.31326 0.65074
# Poissons Ratio (y) = 0.50011 -0.24179
# Poissons Ratio (z) = 0.29987 -0.06979
#
# Static dielectric constant tensor:
#      x y z
#    x 1.733220 0.000000 0.000000 
#    y 0.000000 1.800360 0.000000 
#    z 0.000000 0.000000 1.710220 
# 
# From -- ./inp_files/5803.got.cif
#   From: 2010.05.17/outbox.cif.g08.bks.cpg/sg39_3_cif.got.tgz:5803.got - 2010.06.03 18:22:40.
