data_PCOD9361514
_publ_section_title
;
Structure prediction by ZEFSAII (Michael W. Deem and Ramdas Pophale) SiO2 
 PCOD9361514
Probable space group: A B M 2
;
_chemical_formula_sum "Si O2"
_cell_formula_units_Z 40
_cell_length_a 13.211353
_cell_length_b 25.998080
_cell_length_c 5.025657
_cell_angle_alpha 90.000000
_cell_angle_beta 90.000000
_cell_angle_gamma 90.000000
_cell_volume 1726.161466
_symmetry_space_group_name_H-M "A B M 2"
_symmetry_group_IT_number 39
_symmetry_cell_setting 'orthorhombic'
loop_
_space_group_symop_operation_xyz
x,y,z
-x,-y,z
-x,1/2+y,z
x,1/2-y,z
x,1/2+y,1/2+z
-x,1/2-y,1/2+z
-x,y,1/2+z
x,-y,1/2+z
loop_
_atom_site_type_symbol
_atom_site_label
_atom_site_fract_x
_atom_site_fract_y
_atom_site_fract_z
Si Si1 0.276178 0.691711 0.029570
Si Si2 0.758110 0.966959 0.435264
Si Si3 0.944599 0.911836 0.182844
Si Si4 0.134994 0.808023 0.519551
Si Si5 0.432599 0.100400 0.520632
O O1 0.306626 0.750000 0.104686
O O2 0.193494 0.674962 0.251716
O O3 0.219909 0.693958 0.748313
O O4 0.369981 0.653550 0.008903
O O5 0.839097 0.926905 0.317614
O O6 0.647165 0.942623 0.430150
O O7 0.770701 0.984927 0.737712
O O8 0.942454 0.850626 0.125324
O O9 0.027593 0.931930 0.391385
O O10 0.093751 0.750000 0.482383
O O11 0.473943 0.096675 0.819104
#
# Coordination Sequence:
#
# PCOD9361514 Si02
#       5
#     8   8   8   8   8
#     4  10  21  40  68  99 140 186 224 271 337 411
#     4  12  28  48  71  96 137 180 228 296 356 406
#     4  12  26  43  72 104 136 178 232 283 344 419
#     4  10  21  40  68  99 140 186 224 271 337 411
#     4  12  26  43  72 104 136 178 232 283 344 419
#
# _framework density 23.172805
#
# number of rings (size 3 to 8) (size 9 to 14) (size 15 to 20)
#    0.000    0.800    2.000    4.800    2.800    6.400 
#    0.000    0.000    0.000    0.000    0.000    0.000 
#    0.000    0.000    0.000    0.000    0.000    0.000 
#
# Total GULP energy -111877.402686 kJ/mol
# GULP energy per Si atom -5593.870134 kJ/mol
# Density = 2.312006 g / cm^3
# Si number density = 23.172805 Si / 1000 Ang^3
#
#
#
# Elastic Constant Matrix: (Units=GPa)
#
#
# Indices 1 2 3 4 5 6 
#
# 1 69.6504 28.0740 21.0709 0.0000 0.0000 0.0000
# 2 28.0740 59.9805 13.4044 0.0000 0.0000 0.0000
# 3 21.0709 13.4044 97.1142 0.0000 0.0000 0.0000
# 4 0.0000 0.0000 0.0000 30.4633 0.0000 0.0000
# 5 0.0000 0.0000 0.0000 0.0000 45.3068 0.0000
# 6 0.0000 0.0000 0.0000 0.0000 0.0000 15.4314
#
#
#
# Elastic Compliance Matrix: (Units=1/GPa)
#
#
# Indices 1 2 3 4 5 6 
#
# 1 0.018456 -0.007990 -0.002902 0.000000 0.000000 0.000000
# 2 -0.007990 0.020662 -0.001118 0.000000 0.000000 0.000000
# 3 -0.002902 -0.001118 0.011081 0.000000 0.000000 0.000000
# 4 0.000000 0.000000 0.000000 0.032826 0.000000 0.000000
# 5 0.000000 0.000000 0.000000 0.000000 0.022072 0.000000
# 6 0.000000 0.000000 0.000000 0.000000 0.000000 0.064803
#
#
# Mechanical properties :
#
#
# Convention : Reuss Voigt Hill
#
# Bulk Modulus (GPa) = 38.19840 39.09374 38.64607
# Shear Modulus (GPa) = 24.67369 29.18669 26.93019
#
# Velocity S-wave (km/s) = 3.26662 3.55283 3.41273
# Velocity P-wave (km/s) = 5.54506 5.80838 5.67824
#
# Compressibility (1/GPa) = 0.02617911
#
# Stress axis : x y z
#
# Youngs Moduli (GPa) = 54.18392 48.39884 90.24413
#
# Poissons Ratio (x) = 0.38670 0.26185
# Poissons Ratio (y) = 0.43292 0.10092
# Poissons Ratio (z) = 0.15722 0.05413
#
# Static dielectric constant tensor:
#      x y z
#    x 1.830690 0.000000 0.000000 
#    y 0.000000 1.924090 0.000000 
#    z 0.000000 0.000000 1.818950 
# 
# From -- ./inp_files/347.got.cif
#   From: 2010.05.17/outbox.cif.g08.bks.cpg/sg39_1_cif.got.tgz:347.got - 2010.06.03 18:22:40.
