data_PCOD9361342
_publ_section_title
;
Structure prediction by ZEFSAII (Michael W. Deem and Ramdas Pophale) SiO2 
 PCOD9361342
Probable space group: A B M 2
;
_chemical_formula_sum "Si O2"
_cell_formula_units_Z 64
_cell_length_a 11.401459
_cell_length_b 17.971453
_cell_length_c 15.843491
_cell_angle_alpha 90.000000
_cell_angle_beta 90.000000
_cell_angle_gamma 90.000000
_cell_volume 3246.343736
_symmetry_space_group_name_H-M "A B M 2"
_symmetry_group_IT_number 39
_symmetry_cell_setting 'orthorhombic'
loop_
_space_group_symop_operation_xyz
x,y,z
-x,-y,z
-x,1/2+y,z
x,1/2-y,z
x,1/2+y,1/2+z
-x,1/2-y,1/2+z
-x,y,1/2+z
x,-y,1/2+z
loop_
_atom_site_type_symbol
_atom_site_label
_atom_site_fract_x
_atom_site_fract_y
_atom_site_fract_z
Si Si1 0.551961 0.584280 0.017370
Si Si2 0.688891 0.883202 0.587785
Si Si3 0.594020 0.167888 0.765695
Si Si4 0.938142 0.924474 0.271923
Si Si5 0.283538 0.950983 0.655216
Si Si6 0.838399 0.834047 0.737573
Si Si7 0.784309 0.163153 0.909253
Si Si8 0.640103 0.164301 0.354669
O O1 0.500000 0.500000 0.012743
O O2 0.447765 0.629795 0.064229
O O3 0.675010 0.585820 0.067517
O O4 0.583115 0.615356 0.926728
O O5 0.758867 0.833329 0.654015
O O6 0.756304 0.877157 0.497824
O O7 0.695384 0.962921 0.635003
O O8 0.626263 0.250000 0.727926
O O9 0.630609 0.093458 0.717898
O O10 0.664469 0.165155 0.854186
O O11 0.456473 0.167074 0.781111
O O12 0.841534 0.941003 0.199573
O O13 0.876324 0.879629 0.348543
O O14 0.042027 0.877896 0.229434
O O15 0.000000 0.000000 0.302486
O O16 0.867209 0.750000 0.760870
O O17 0.759141 0.865783 0.813977
O O18 0.817922 0.250000 0.923566
O O19 0.656384 0.250000 0.383538
#
# Coordination Sequence:
#
# PCOD9361342 Si02
#       8
#     8   8   8   8   8   8   8   8
#     4  10  22  37  61  96 133 165 203 264 326 393
#     4  11  21  40  65  95 129 162 210 262 329 392
#     4   9  18  36  63  92 126 168 212 258 322 388
#     4  11  23  45  65  88 126 175 220 270 315 380
#     4  10  22  39  61  94 127 163 216 262 318 386
#     4  11  24  41  63  91 126 170 220 268 315 375
#     4  10  21  39  68  96 124 166 215 265 319 383
#     4  10  21  38  60  92 131 167 210 264 322 387
#
# _framework density 19.714486999999998
#
# number of rings (size 3 to 8) (size 9 to 14) (size 15 to 20)
#    0.000    1.750    2.500    1.500    0.000    4.500 
#    4.500    0.000    0.000    0.000    0.000    0.000 
#    0.000    0.000    0.000    0.000    0.000    0.000 
#
# Total GULP energy -178305.547805 kJ/mol
# GULP energy per Si atom -5572.048369 kJ/mol
# Density = 1.966962 g / cm^3
# Si number density = 19.714487 Si / 1000 Ang^3
#
#
#
# Elastic Constant Matrix: (Units=GPa)
#
#
# Indices 1 2 3 4 5 6 
#
# 1 84.2840 29.4424 27.0110 0.0000 0.0000 0.0000
# 2 29.4424 79.3311 42.6033 0.0000 0.0000 0.0000
# 3 27.0110 42.6033 77.4336 0.0000 0.0000 0.0000
# 4 0.0000 0.0000 0.0000 35.8384 0.0000 0.0000
# 5 0.0000 0.0000 0.0000 0.0000 28.8278 0.0000
# 6 0.0000 0.0000 0.0000 0.0000 0.0000 14.9006
#
#
#
# Elastic Compliance Matrix: (Units=1/GPa)
#
#
# Indices 1 2 3 4 5 6 
#
# 1 0.014073 -0.003671 -0.002889 0.000000 0.000000 0.000000
# 2 -0.003671 0.018850 -0.009090 0.000000 0.000000 0.000000
# 3 -0.002889 -0.009090 0.018923 0.000000 0.000000 0.000000
# 4 0.000000 0.000000 0.000000 0.027903 0.000000 0.000000
# 5 0.000000 0.000000 0.000000 0.000000 0.034689 0.000000
# 6 0.000000 0.000000 0.000000 0.000000 0.000000 0.067111
#
#
# Mechanical properties :
#
#
# Convention : Reuss Voigt Hill
#
# Bulk Modulus (GPa) = 48.67437 48.79578 48.73508
# Shear Modulus (GPa) = 22.75841 25.37950 24.06895
#
# Velocity S-wave (km/s) = 3.40133 3.59186 3.49790
# Velocity P-wave (km/s) = 6.33788 6.48128 6.40998
#
# Compressibility (1/GPa) = 0.02054469
#
# Stress axis : x y z
#
# Youngs Moduli (GPa) = 71.05779 53.05113 52.84451
#
# Poissons Ratio (x) = 0.19478 0.15267
# Poissons Ratio (y) = 0.26089 0.48037
# Poissons Ratio (z) = 0.20529 0.48225
#
# Static dielectric constant tensor:
#      x y z
#    x 1.691910 0.000000 0.000000 
#    y 0.000000 1.726640 0.000000 
#    z 0.000000 0.000000 1.701630 
# 
# From -- ./inp_files/9434.got.cif
#   From: 2010.05.17/outbox.cif.g08.bks.cpg/sg39_5_cif.got.tgz:9434.got - 2010.06.03 18:22:40.
