data_PCOD9361509
_publ_section_title
;
Structure prediction by ZEFSAII (Michael W. Deem and Ramdas Pophale) SiO2 
 PCOD9361509
Probable space group: A B M 2
;
_chemical_formula_sum "Si O2"
_cell_formula_units_Z 64
_cell_length_a 15.443045
_cell_length_b 17.123347
_cell_length_c 9.964157
_cell_angle_alpha 90.000000
_cell_angle_beta 90.000000
_cell_angle_gamma 90.000000
_cell_volume 2634.887981
_symmetry_space_group_name_H-M "A B M 2"
_symmetry_group_IT_number 39
_symmetry_cell_setting 'orthorhombic'
loop_
_space_group_symop_operation_xyz
x,y,z
-x,-y,z
-x,1/2+y,z
x,1/2-y,z
x,1/2+y,1/2+z
-x,1/2-y,1/2+z
-x,y,1/2+z
x,-y,1/2+z
loop_
_atom_site_type_symbol
_atom_site_label
_atom_site_fract_x
_atom_site_fract_y
_atom_site_fract_z
Si Si1 0.278245 0.478498 0.856650
Si Si2 0.095296 0.491232 0.743491
Si Si3 0.137398 0.659340 0.056654
Si Si4 0.673401 0.136359 0.724751
Si Si5 0.542118 0.166503 0.948683
Si Si6 0.427157 0.552469 0.531578
Si Si7 0.324014 0.837423 0.176463
Si Si8 0.869341 0.335848 0.734740
O O1 0.174035 0.481875 0.850664
O O2 0.307936 0.546323 0.758682
O O3 0.307327 0.397352 0.794230
O O4 0.339641 0.489927 0.984949
O O5 0.101175 0.414598 0.644652
O O6 0.106158 0.578294 0.676857
O O7 0.000000 0.500000 0.805411
O O8 0.114383 0.750000 0.098843
O O9 0.241090 0.652781 0.077347
O O10 0.118796 0.655156 0.896960
O O11 0.606343 0.130101 0.604783
O O12 0.767405 0.170146 0.702817
O O13 0.622698 0.169798 0.848826
O O14 0.497292 0.250000 0.939412
O O15 0.485472 0.091095 0.914516
O O16 0.587825 0.155462 0.093227
O O17 0.500000 0.500000 0.603226
O O18 0.319373 0.750000 0.229796
O O19 0.907809 0.250000 0.696416
#
# Coordination Sequence:
#
# PCOD9361509 Si02
#       8
#     8   8   8   8   8   8   8   8
#     4  10  23  40  63  89 128 175 221 269 340 406
#     4  10  23  40  67 104 139 171 225 292 351 409
#     4   9  18  38  66  93 128 176 222 271 338 419
#     4  11  23  39  62  88 126 166 221 277 322 386
#     4  11  23  37  59  88 122 164 218 271 320 384
#     4  12  26  40  60  90 130 174 225 270 335 399
#     4   9  18  36  61  88 118 162 221 273 324 395
#     4  10  21  40  68  96 130 177 229 277 341 415
#
# _framework density 24.289459000000001
#
# number of rings (size 3 to 8) (size 9 to 14) (size 15 to 20)
#    0.000    1.750    2.500    1.125    3.500    5.500 
#    0.000    0.000    0.000    3.750    0.000    0.000 
#    0.000    0.000    0.000    0.000    0.000    0.000 
#
# Total GULP energy -178379.049995 kJ/mol
# GULP energy per Si atom -5574.345312 kJ/mol
# Density = 2.423418 g / cm^3
# Si number density = 24.289459 Si / 1000 Ang^3
#
#
#
# Elastic Constant Matrix: (Units=GPa)
#
#
# Indices 1 2 3 4 5 6 
#
# 1 135.6346 37.2501 23.6758 0.0000 0.0000 0.0000
# 2 37.2501 192.9670 17.0429 0.0000 0.0000 0.0000
# 3 23.6758 17.0429 37.0189 0.0000 0.0000 0.0000
# 4 0.0000 0.0000 0.0000 17.4525 0.0000 0.0000
# 5 0.0000 0.0000 0.0000 0.0000 16.4757 0.0000
# 6 0.0000 0.0000 0.0000 0.0000 0.0000 1.9852
#
#
#
# Elastic Compliance Matrix: (Units=1/GPa)
#
#
# Indices 1 2 3 4 5 6 
#
# 1 0.008566 -0.001219 -0.004917 0.000000 0.000000 0.000000
# 2 -0.001219 0.005575 -0.001787 0.000000 0.000000 0.000000
# 3 -0.004917 -0.001787 0.030981 0.000000 0.000000 0.000000
# 4 0.000000 0.000000 0.000000 0.057298 0.000000 0.000000
# 5 0.000000 0.000000 0.000000 0.000000 0.060696 0.000000
# 6 0.000000 0.000000 0.000000 0.000000 0.000000 0.503736
#
#
# Mechanical properties :
#
#
# Convention : Reuss Voigt Hill
#
# Bulk Modulus (GPa) = 34.15854 57.95090 46.05472
# Shear Modulus (GPa) = 7.22067 26.35945 16.79006
#
# Velocity S-wave (km/s) = 1.72604 3.29784 2.63201
# Velocity P-wave (km/s) = 4.25040 6.19768 5.31400
#
# Compressibility (1/GPa) = 0.02927526
#
# Stress axis : x y z
#
# Youngs Moduli (GPa) = 116.74183 179.35826 32.27817
#
# Poissons Ratio (x) = 0.21869 0.15871
# Poissons Ratio (y) = 0.14234 0.05768
# Poissons Ratio (z) = 0.57403 0.32052
#
# Static dielectric constant tensor:
#      x y z
#    x 2.079660 0.000000 0.000000 
#    y 0.000000 2.016220 0.000000 
#    z 0.000000 0.000000 2.016280 
# 
# From -- ./inp_files/6672.got.cif
#   From: 2010.05.17/outbox.cif.g08.bks.cpg/sg39_4_cif.got.tgz:6672.got - 2010.06.03 18:22:40.
