data_PCOD9361809
_publ_section_title
;
Structure prediction by ZEFSAII (Michael W. Deem and Ramdas Pophale) SiO2 
 PCOD9361809
Probable space group: A B M 2
;
_chemical_formula_sum "Si O2"
_cell_formula_units_Z 40
_cell_length_a 6.637393
_cell_length_b 23.440685
_cell_length_c 11.370109
_cell_angle_alpha 90.000000
_cell_angle_beta 90.000000
_cell_angle_gamma 90.000000
_cell_volume 1769.018847
_symmetry_space_group_name_H-M "A B M 2"
_symmetry_group_IT_number 39
_symmetry_cell_setting 'orthorhombic'
loop_
_space_group_symop_operation_xyz
x,y,z
-x,-y,z
-x,1/2+y,z
x,1/2-y,z
x,1/2+y,1/2+z
-x,1/2-y,1/2+z
-x,y,1/2+z
x,-y,1/2+z
loop_
_atom_site_type_symbol
_atom_site_label
_atom_site_fract_x
_atom_site_fract_y
_atom_site_fract_z
Si Si1 0.114016 0.689820 0.961320
Si Si2 0.365686 0.447253 0.886399
Si Si3 0.790106 0.750000 0.797975
Si Si4 0.848276 0.890792 0.099567
Si Si5 0.557864 0.841580 0.278614
Si Si6 0.000000 0.000000 0.743059
O O1 0.124562 0.750000 0.031649
O O2 0.941908 0.701511 0.862410
O O3 0.321955 0.678523 0.895202
O O4 0.043059 0.639366 0.043949
O O5 0.500000 0.500000 0.926866
O O6 0.484379 0.406149 0.797920
O O7 0.172242 0.473318 0.823594
O O8 0.296880 0.409187 0.994575
O O9 0.628328 0.699946 0.758925
O O10 0.726070 0.845253 0.177479
O O11 0.911398 0.947824 0.167563
#
# Coordination Sequence:
#
# PCOD9361809 Si02
#       6
#     8   8   4   8   8   4
#     4  10  24  48  68 109 150 185 237 308 356 432
#     4  12  27  49  71 104 148 187 244 310 355 428
#     4  10  22  48  72 100 156 186 234 312 362 416
#     4  12  27  44  77 106 142 199 247 288 378 434
#     4  12  25  48  74 105 147 193 247 302 362 437
#     4  12  28  50  72 110 152 190 238 310 362 426
#
# _framework density 22.611405999999999
#
# number of rings (size 3 to 8) (size 9 to 14) (size 15 to 20)
#    0.600    0.000    5.000    1.800    7.000    0.000 
#    0.000    0.000    0.000    0.000    0.000    0.000 
#    0.000    0.000    0.000    0.000    0.000    0.000 
#
# Total GULP energy -111440.515768 kJ/mol
# GULP energy per Si atom -5572.025788 kJ/mol
# Density = 2.255994 g / cm^3
# Si number density = 22.611406 Si / 1000 Ang^3
#
#
#
# Elastic Constant Matrix: (Units=GPa)
#
#
# Indices 1 2 3 4 5 6 
#
# 1 68.7123 17.5500 11.6452 0.0000 0.0000 0.0000
# 2 17.5500 94.9129 3.7458 0.0000 0.0000 0.0000
# 3 11.6452 3.7458 31.9925 0.0000 0.0000 0.0000
# 4 0.0000 0.0000 0.0000 32.8819 0.0000 0.0000
# 5 0.0000 0.0000 0.0000 0.0000 -70.6666 0.0000
# 6 0.0000 0.0000 0.0000 0.0000 0.0000 3104.2522
#
#
#
# Elastic Compliance Matrix: (Units=1/GPa)
#
#
# Indices 1 2 3 4 5 6 
#
# 1 0.016207 -0.002777 -0.005574 0.000000 0.000000 0.000000
# 2 -0.002777 0.011061 -0.000284 0.000000 0.000000 0.000000
# 3 -0.005574 -0.000284 0.033320 0.000000 0.000000 0.000000
# 4 0.000000 0.000000 0.000000 0.030412 0.000000 0.000000
# 5 0.000000 0.000000 0.000000 0.000000 -0.014151 0.000000
# 6 0.000000 0.000000 0.000000 0.000000 0.000000 0.000322
#
#
# Mechanical properties :
#
#
# Convention : Reuss Voigt Hill
#
# Bulk Modulus (GPa) = 23.08570 29.05552 26.07061
# Shear Modulus (GPa) = 45.92184 624.13861 335.03023
#
# Velocity S-wave (km/s) = 4.51146 16.63212 12.18566
# Velocity P-wave (km/s) = 6.11307 19.53751 14.47557
#
# Compressibility (1/GPa) = 0.04331685
#
# Stress axis : x y z
#
# Youngs Moduli (GPa) = 61.70022 90.41064 30.01228
#
# Poissons Ratio (x) = 0.25106 0.16730
# Poissons Ratio (y) = 0.17133 0.00853
# Poissons Ratio (z) = 0.34394 0.02570
#
# Static dielectric constant tensor:
#      x y z
#    x 2.659080 0.000000 0.000000 
#    y 0.000000 1.841640 0.000000 
#    z 0.000000 0.000000 1.890160 
# 
# From -- ./inp_files/4551.got.cif
#   From: 2010.05.17/outbox.cif.g08.bks.cpg/sg39_3_cif.got.tgz:4551.got - 2010.06.03 18:22:40.
