data_PCOD9361226
_publ_section_title
;
Structure prediction by ZEFSAII (Michael W. Deem and Ramdas Pophale) SiO2 
 PCOD9361226
Probable space group: A B M 2
;
_chemical_formula_sum "Si O2"
_cell_formula_units_Z 48
_cell_length_a 23.641125
_cell_length_b 19.505288
_cell_length_c 5.205930
_cell_angle_alpha 90.000000
_cell_angle_beta 90.000000
_cell_angle_gamma 90.000000
_cell_volume 2400.594632
_symmetry_space_group_name_H-M "A B M 2"
_symmetry_group_IT_number 39
_symmetry_cell_setting 'orthorhombic'
loop_
_space_group_symop_operation_xyz
x,y,z
-x,-y,z
-x,1/2+y,z
x,1/2-y,z
x,1/2+y,1/2+z
-x,1/2-y,1/2+z
-x,y,1/2+z
x,-y,1/2+z
loop_
_atom_site_type_symbol
_atom_site_label
_atom_site_fract_x
_atom_site_fract_y
_atom_site_fract_z
Si Si1 0.562637 0.029073 0.592730
Si Si2 0.594663 0.674138 0.947729
Si Si3 0.961681 0.171362 0.114381
Si Si4 0.118357 0.956178 0.033064
Si Si5 0.253657 0.456966 0.553804
Si Si6 0.670356 0.326724 0.949064
O O1 0.557959 0.107705 0.511082
O O2 0.500000 0.000000 0.637284
O O3 0.591603 0.986015 0.364986
O O4 0.568011 0.750000 0.971318
O O5 0.643505 0.669996 0.165040
O O6 0.621221 0.667631 0.665048
O O7 0.940478 0.250000 0.097672
O O8 0.913974 0.114698 0.074524
O O9 0.992166 0.162752 0.388399
O O10 0.186018 0.945692 0.041756
O O11 0.103537 0.008532 0.262829
O O12 0.267728 0.511849 0.331550
O O13 0.285851 0.386794 0.498354
O O14 0.694834 0.250000 0.981440
#
# Coordination Sequence:
#
# PCOD9361226 Si02
#       6
#     8   8   8   8   8   8
#     4  10  21  37  55  80 108 137 177 218 257 311
#     4  10  21  37  56  80 110 141 176 220 265 311
#     4  10  21  36  54  78 106 138 181 228 272 319
#     4  10  21  36  54  78 108 141 179 221 268 324
#     4  10  21  36  54  80 111 142 177 219 268 319
#     4  10  21  36  56  82 109 141 180 218 263 320
#
# _framework density 19.995045000000001
#
# number of rings (size 3 to 8) (size 9 to 14) (size 15 to 20)
#    0.000    2.000    0.000    3.000    0.000    6.667 
#    0.000    3.333    0.000   12.000    0.000    0.000 
#    0.000    0.000    0.000    0.000    0.000    0.000 
#
# Total GULP energy -134075.118513 kJ/mol
# GULP energy per Si atom -5586.463271 kJ/mol
# Density = 1.994954 g / cm^3
# Si number density = 19.995045 Si / 1000 Ang^3
#
#
#
# Elastic Constant Matrix: (Units=GPa)
#
#
# Indices 1 2 3 4 5 6 
#
# 1 30.2084 29.9041 -16.0554 0.0000 0.0000 0.0000
# 2 29.9041 116.5253 -28.2706 0.0000 0.0000 0.0000
# 3 -16.0554 -28.2706 75.5322 0.0000 0.0000 0.0000
# 4 0.0000 0.0000 0.0000 29.8806 0.0000 0.0000
# 5 0.0000 0.0000 0.0000 0.0000 12.2091 0.0000
# 6 0.0000 0.0000 0.0000 0.0000 0.0000 -24.5719
#
#
#
# Elastic Compliance Matrix: (Units=1/GPa)
#
#
# Indices 1 2 3 4 5 6 
#
# 1 0.046715 -0.010536 0.005986 0.000000 0.000000 0.000000
# 2 -0.010536 0.011815 0.002183 0.000000 0.000000 0.000000
# 3 0.005986 0.002183 0.015329 0.000000 0.000000 0.000000
# 4 0.000000 0.000000 0.000000 0.033466 0.000000 0.000000
# 5 0.000000 0.000000 0.000000 0.000000 0.081906 0.000000
# 6 0.000000 0.000000 0.000000 0.000000 0.000000 -0.040697
#
#
# Mechanical properties :
#
#
# Convention : Reuss Voigt Hill
#
# Bulk Modulus (GPa) = 14.46658 21.49136 17.97897
# Shear Modulus (GPa) = 28.35902 19.28276 23.82089
#
# Velocity S-wave (km/s) = 3.77012 3.10881 3.45532
# Velocity P-wave (km/s) = 5.11884 4.86394 4.99302
#
# Compressibility (1/GPa) = 0.06912484
#
# Stress axis : x y z
#
# Youngs Moduli (GPa) = 21.40637 84.63592 65.23659
#
# Poissons Ratio (x) = 0.89174 -0.39053
# Poissons Ratio (y) = 0.22554 -0.14239
# Poissons Ratio (z) = -0.12815 -0.18473
#
# Static dielectric constant tensor:
#      x y z
#    x 1.752970 0.000000 0.000000 
#    y 0.000000 1.705290 0.000000 
#    z 0.000000 0.000000 1.765120 
# 
# From -- ./inp_files/1253.got.cif
#   From: 2010.05.17/outbox.cif.g08.bks.cpg/sg39_1_cif.got.tgz:1253.got - 2010.06.03 18:22:40.
