data_PCOD9361551
_publ_section_title
;
Structure prediction by ZEFSAII (Michael W. Deem and Ramdas Pophale) SiO2 
 PCOD9361551
Probable space group: A B M 2
;
_chemical_formula_sum "Si O2"
_cell_formula_units_Z 64
_cell_length_a 8.838973
_cell_length_b 29.372077
_cell_length_c 12.339987
_cell_angle_alpha 90.000000
_cell_angle_beta 90.000000
_cell_angle_gamma 90.000000
_cell_volume 3203.695030
_symmetry_space_group_name_H-M "A B M 2"
_symmetry_group_IT_number 39
_symmetry_cell_setting 'orthorhombic'
loop_
_space_group_symop_operation_xyz
x,y,z
-x,-y,z
-x,1/2+y,z
x,1/2-y,z
x,1/2+y,1/2+z
-x,1/2-y,1/2+z
-x,y,1/2+z
x,-y,1/2+z
loop_
_atom_site_type_symbol
_atom_site_label
_atom_site_fract_x
_atom_site_fract_y
_atom_site_fract_z
Si Si1 0.975707 0.197855 0.740600
Si Si2 0.767842 0.336985 0.926702
Si Si3 0.547481 0.125342 0.738730
Si Si4 0.619392 0.964826 0.708853
Si Si5 0.154605 0.106036 0.154865
Si Si6 0.870606 0.429868 0.040927
Si Si7 0.852837 0.973733 0.321415
Si Si8 0.685944 0.199557 0.155522
O O1 0.931012 0.250000 0.713248
O O2 0.155524 0.195135 0.720919
O O3 0.905053 0.185780 0.858314
O O4 0.910384 0.156810 0.668034
O O5 0.640287 0.351674 0.838133
O O6 0.819193 0.382486 0.988063
O O7 0.714412 0.305799 0.026554
O O8 0.466042 0.077602 0.763806
O O9 0.666734 0.112918 0.642392
O O10 0.426560 0.160949 0.695478
O O11 0.749695 0.943813 0.632169
O O12 0.500000 0.000000 0.653863
O O13 0.707510 0.997141 0.791627
O O14 0.147966 0.075586 0.264401
O O15 0.043218 0.078474 0.077585
O O16 0.863522 0.467102 0.948297
O O17 0.000000 0.000000 0.279754
O O18 0.624487 0.250000 0.177137
#
# Coordination Sequence:
#
# PCOD9361551 Si02
#       8
#     8   8   8   8   8   8   8   8
#     4  10  21  41  71  98 129 173 224 281 333 398
#     4  11  22  44  72 100 133 180 231 275 343 406
#     4  11  24  43  69 101 142 176 222 288 343 407
#     4  12  24  43  66  97 141 175 224 275 344 412
#     4  11  22  44  65  96 131 171 227 274 340 400
#     4  12  24  43  69  95 129 179 227 281 337 401
#     4  12  26  42  66  97 130 173 225 280 331 397
#     4  11  24  45  70 101 141 181 221 283 350 408
#
# _framework density 19.976932999999999
#
# number of rings (size 3 to 8) (size 9 to 14) (size 15 to 20)
#    0.000    0.750    7.500    0.375    1.750    4.000 
#    4.500    0.000    0.000    0.000    0.000    0.000 
#    0.000    0.000    0.000    0.000    0.000    0.000 
#
# Total GULP energy -178468.680208 kJ/mol
# GULP energy per Si atom -5577.146257 kJ/mol
# Density = 1.993146 g / cm^3
# Si number density = 19.976933 Si / 1000 Ang^3
#
#
#
# Elastic Constant Matrix: (Units=GPa)
#
#
# Indices 1 2 3 4 5 6 
#
# 1 105.3560 61.4659 40.6424 0.0000 0.0000 0.0000
# 2 61.4659 136.0695 34.1083 0.0000 0.0000 0.0000
# 3 40.6424 34.1083 78.9050 0.0000 0.0000 0.0000
# 4 0.0000 0.0000 0.0000 21.0419 0.0000 0.0000
# 5 0.0000 0.0000 0.0000 0.0000 24.3315 0.0000
# 6 0.0000 0.0000 0.0000 0.0000 0.0000 39.9943
#
#
#
# Elastic Compliance Matrix: (Units=1/GPa)
#
#
# Indices 1 2 3 4 5 6 
#
# 1 0.014590 -0.005279 -0.005233 0.000000 0.000000 0.000000
# 2 -0.005279 0.010152 -0.001669 0.000000 0.000000 0.000000
# 3 -0.005233 -0.001669 0.016091 0.000000 0.000000 0.000000
# 4 0.000000 0.000000 0.000000 0.047524 0.000000 0.000000
# 5 0.000000 0.000000 0.000000 0.000000 0.041099 0.000000
# 6 0.000000 0.000000 0.000000 0.000000 0.000000 0.025004
#
#
# Mechanical properties :
#
#
# Convention : Reuss Voigt Hill
#
# Bulk Modulus (GPa) = 60.71665 65.86261 63.28963
# Shear Modulus (GPa) = 27.12778 29.34781 28.23779
#
# Velocity S-wave (km/s) = 3.68904 3.83702 3.76376
# Velocity P-wave (km/s) = 6.97171 7.25749 7.11604
#
# Compressibility (1/GPa) = 0.01646995
#
# Stress axis : x y z
#
# Youngs Moduli (GPa) = 68.53924 98.49989 62.14798
#
# Poissons Ratio (x) = 0.51998 0.32523
# Poissons Ratio (y) = 0.36182 0.10375
# Poissons Ratio (z) = 0.35868 0.16444
#
# Static dielectric constant tensor:
#      x y z
#    x 1.741730 0.000000 0.000000 
#    y 0.000000 1.718500 0.000000 
#    z 0.000000 0.000000 1.707100 
# 
# From -- ./inp_files/5402.got.cif
#   From: 2010.05.17/outbox.cif.g08.bks.cpg/sg39_3_cif.got.tgz:5402.got - 2010.06.03 18:22:40.
