data_PCOD9361592
_publ_section_title
;
Structure prediction by ZEFSAII (Michael W. Deem and Ramdas Pophale) SiO2 
 PCOD9361592
Probable space group: A B M 2
;
_chemical_formula_sum "Si O2"
_cell_formula_units_Z 48
_cell_length_a 9.273614
_cell_length_b 8.104463
_cell_length_c 32.648224
_cell_angle_alpha 90.000000
_cell_angle_beta 90.000000
_cell_angle_gamma 90.000000
_cell_volume 2453.764169
_symmetry_space_group_name_H-M "A B M 2"
_symmetry_group_IT_number 39
_symmetry_cell_setting 'orthorhombic'
loop_
_space_group_symop_operation_xyz
x,y,z
-x,-y,z
-x,1/2+y,z
x,1/2-y,z
x,1/2+y,1/2+z
-x,1/2-y,1/2+z
-x,y,1/2+z
x,-y,1/2+z
loop_
_atom_site_type_symbol
_atom_site_label
_atom_site_fract_x
_atom_site_fract_y
_atom_site_fract_z
Si Si1 0.334383 0.946839 0.047710
Si Si2 0.332512 0.449807 0.208576
Si Si3 0.834826 0.946772 0.128724
Si Si4 0.667400 0.449589 0.886884
Si Si5 0.834218 0.050411 0.967329
Si Si6 0.667886 0.948832 0.297756
O O1 0.329992 0.750000 0.046227
O O2 0.500000 0.000000 0.048070
O O3 0.253428 0.000895 0.088758
O O4 0.252497 0.010524 0.007194
O O5 0.500000 0.500000 0.204249
O O6 0.328254 0.250000 0.208508
O O7 0.240681 0.512099 0.170174
O O8 0.276387 0.507081 0.253424
O O9 0.830736 0.750000 0.130728
O O10 0.000000 0.000000 0.125770
O O11 0.500000 0.500000 0.891201
O O12 0.671707 0.250000 0.886882
O O13 0.759240 0.509507 0.925457
O O14 0.723624 0.507307 0.842078
O O15 0.827190 0.250000 0.967196
O O16 0.000000 0.000000 0.969480
O O17 0.677474 0.750000 0.297770
O O18 0.500000 0.000000 0.297753
#
# Coordination Sequence:
#
# PCOD9361592 Si02
#       6
#     8   8   8   8   8   8
#     4  11  23  39  59  82 106 134 172 215 260 310
#     4   9  18  32  52  77 103 134 172 214 258 305
#     4  11  23  38  55  77 107 141 176 215 262 312
#     4   9  17  31  52  77 103 133 171 213 256 303
#     4  10  22  37  53  76 106 139 172 209 255 306
#     4   8  14  27  48  73 101 131 166 210 256 300
#
# _framework density 19.561782999999998
#
# number of rings (size 3 to 8) (size 9 to 14) (size 15 to 20)
#    0.000    2.333    0.000    2.500    0.000    6.000 
#    0.000    0.833    0.000    0.000    0.000    0.000 
#    0.000    0.000    0.000    0.000    0.000    0.000 
#
# Total GULP energy -133876.676892 kJ/mol
# GULP energy per Si atom -5578.194870 kJ/mol
# Density = 1.951726 g / cm^3
# Si number density = 19.561783 Si / 1000 Ang^3
#
#
#
# Elastic Constant Matrix: (Units=GPa)
#
#
# Indices 1 2 3 4 5 6 
#
# 1 130.1591 6.8331 115.2711 0.0000 0.0000 0.0000
# 2 6.8331 18.7828 21.3320 0.0000 0.0000 0.0000
# 3 115.2711 21.3320 257.2720 0.0000 0.0000 0.0000
# 4 0.0000 0.0000 0.0000 27.2788 0.0000 0.0000
# 5 0.0000 0.0000 0.0000 0.0000 -6.1151 0.0000
# 6 0.0000 0.0000 0.0000 0.0000 0.0000 28.3575
#
#
#
# Elastic Compliance Matrix: (Units=1/GPa)
#
#
# Indices 1 2 3 4 5 6 
#
# 1 0.012808 0.002051 -0.005909 0.000000 0.000000 0.000000
# 2 0.002051 0.059103 -0.005820 0.000000 0.000000 0.000000
# 3 -0.005909 -0.005820 0.007017 0.000000 0.000000 0.000000
# 4 0.000000 0.000000 0.000000 0.036659 0.000000 0.000000
# 5 0.000000 0.000000 0.000000 0.000000 -0.163529 0.000000
# 6 0.000000 0.000000 0.000000 0.000000 0.000000 0.035264
#
#
# Mechanical properties :
#
#
# Convention : Reuss Voigt Hill
#
# Bulk Modulus (GPa) = 16.78585 77.00959 46.89772
# Shear Modulus (GPa) = 188.43435 27.42275 107.92855
#
# Velocity S-wave (km/s) = 9.82532 3.74819 7.43592
# Velocity P-wave (km/s) = 11.71817 7.62790 9.88687
#
# Compressibility (1/GPa) = 0.05957397
#
# Stress axis : x y z
#
# Youngs Moduli (GPa) = 78.07537 16.91948 142.51272
#
# Poissons Ratio (x) = -0.03470 0.84208
# Poissons Ratio (y) = -0.16015 0.82938
# Poissons Ratio (z) = 0.46133 0.09847
#
# Static dielectric constant tensor:
#      x y z
#    x 1.616200 0.000000 0.000000 
#    y 0.000000 1.706230 0.000000 
#    z 0.000000 0.000000 1.748130 
# 
# From -- ./inp_files/17578.got.cif
#   From: 2010.05.17/outbox.cif.g08.bks.cpg/sg39_9_cif.got.tgz:17578.got - 2010.06.03 18:22:40.
