data_PCOD9361170
_publ_section_title
;
Structure prediction by ZEFSAII (Michael W. Deem and Ramdas Pophale) SiO2 
 PCOD9361170
Probable space group: A B M 2
;
_chemical_formula_sum "Si O2"
_cell_formula_units_Z 36
_cell_length_a 13.287421
_cell_length_b 23.417622
_cell_length_c 5.411963
_cell_angle_alpha 90.000000
_cell_angle_beta 90.000000
_cell_angle_gamma 90.000000
_cell_volume 1683.985337
_symmetry_space_group_name_H-M "A B M 2"
_symmetry_group_IT_number 39
_symmetry_cell_setting 'orthorhombic'
loop_
_space_group_symop_operation_xyz
x,y,z
-x,-y,z
-x,1/2+y,z
x,1/2-y,z
x,1/2+y,1/2+z
-x,1/2-y,1/2+z
-x,y,1/2+z
x,-y,1/2+z
loop_
_atom_site_type_symbol
_atom_site_label
_atom_site_fract_x
_atom_site_fract_y
_atom_site_fract_z
Si Si1 0.541757 0.064525 0.420820
Si Si2 0.246170 0.314801 0.444338
Si Si3 0.252869 0.116394 0.946510
Si Si4 0.054718 0.750000 0.002766
Si Si5 0.884791 0.522530 0.046386
O O1 0.493563 0.092126 0.664418
O O2 0.661321 0.067795 0.444042
O O3 0.500000 0.000000 0.411452
O O4 0.288444 0.250000 0.452528
O O5 0.266927 0.348601 0.695131
O O6 0.125631 0.303908 0.445045
O O7 0.271213 0.346184 0.190540
O O8 0.143352 0.086406 0.964213
O O9 0.029895 0.750000 0.292937
O O10 0.841205 0.514866 0.320985
O O11 0.000000 0.500000 0.070940
#
# Coordination Sequence:
#
# PCOD9361170 Si02
#       5
#     8   8   8   4   8
#     4  10  23  39  64  98 129 169 224 275 336 417
#     4  10  24  42  65 100 124 177 228 266 330 400
#     4  12  22  42  72  91 137 183 208 284 349 379
#     4  10  20  42  62  94 140 162 228 290 314 370
#     4  10  23  41  55  91 131 172 215 259 321 410
#
# _framework density 21.377856999999999
#
# number of rings (size 3 to 8) (size 9 to 14) (size 15 to 20)
#    0.667    0.889    0.000    4.667    6.222    0.000 
#   24.000    0.000    0.000   13.333    0.000    0.000 
#    0.000    0.000    0.000    0.000    0.000    0.000 
#
# Total GULP energy -100244.016956 kJ/mol
# GULP energy per Si atom -5569.112053 kJ/mol
# Density = 2.132920 g / cm^3
# Si number density = 21.377857 Si / 1000 Ang^3
#
#
#
# Elastic Constant Matrix: (Units=GPa)
#
#
# Indices 1 2 3 4 5 6 
#
# 1 77.1498 31.9169 11.4320 0.0000 0.0000 0.0000
# 2 31.9169 83.8444 24.0225 0.0000 0.0000 0.0000
# 3 11.4320 24.0225 155.6763 0.0000 0.0000 0.0000
# 4 0.0000 0.0000 0.0000 32.1124 0.0000 0.0000
# 5 0.0000 0.0000 0.0000 0.0000 20.1851 0.0000
# 6 0.0000 0.0000 0.0000 0.0000 0.0000 28.0493
#
#
#
# Elastic Compliance Matrix: (Units=1/GPa)
#
#
# Indices 1 2 3 4 5 6 
#
# 1 0.015393 -0.005792 -0.000237 0.000000 0.000000 0.000000
# 2 -0.005792 0.014658 -0.001837 0.000000 0.000000 0.000000
# 3 -0.000237 -0.001837 0.006724 0.000000 0.000000 0.000000
# 4 0.000000 0.000000 0.000000 0.031141 0.000000 0.000000
# 5 0.000000 0.000000 0.000000 0.000000 0.049542 0.000000
# 6 0.000000 0.000000 0.000000 0.000000 0.000000 0.035652
#
#
# Mechanical properties :
#
#
# Convention : Reuss Voigt Hill
#
# Bulk Modulus (GPa) = 47.51686 50.15701 48.83693
# Shear Modulus (GPa) = 28.43273 32.68931 30.56102
#
# Velocity S-wave (km/s) = 3.65088 3.91464 3.78506
# Velocity P-wave (km/s) = 6.32830 6.62915 6.48047
#
# Compressibility (1/GPa) = 0.02104516
#
# Stress axis : x y z
#
# Youngs Moduli (GPa) = 64.96489 68.22311 148.71308
#
# Poissons Ratio (x) = 0.39513 0.03519
# Poissons Ratio (y) = 0.37626 0.27312
# Poissons Ratio (z) = 0.01537 0.12529
#
# Static dielectric constant tensor:
#      x y z
#    x 1.757750 0.000000 0.000000 
#    y 0.000000 1.755070 0.000000 
#    z 0.000000 0.000000 1.805530 
# 
# From -- ./inp_files/307.got.cif
#   From: 2010.05.17/outbox.cif.g08.bks.cpg/sg39_1_cif.got.tgz:307.got - 2010.06.03 18:22:40.
