data_PCOD9361482
_publ_section_title
;
Structure prediction by ZEFSAII (Michael W. Deem and Ramdas Pophale) SiO2 
 PCOD9361482
Probable space group: A B M 2
;
_chemical_formula_sum "Si O2"
_cell_formula_units_Z 48
_cell_length_a 5.446145
_cell_length_b 29.158825
_cell_length_c 13.316476
_cell_angle_alpha 90.000000
_cell_angle_beta 90.000000
_cell_angle_gamma 90.000000
_cell_volume 2114.698855
_symmetry_space_group_name_H-M "A B M 2"
_symmetry_group_IT_number 39
_symmetry_cell_setting 'orthorhombic'
loop_
_space_group_symop_operation_xyz
x,y,z
-x,-y,z
-x,1/2+y,z
x,1/2-y,z
x,1/2+y,1/2+z
-x,1/2-y,1/2+z
-x,y,1/2+z
x,-y,1/2+z
loop_
_atom_site_type_symbol
_atom_site_label
_atom_site_fract_x
_atom_site_fract_y
_atom_site_fract_z
Si Si1 0.441392 0.950969 0.168340
Si Si2 0.058216 0.952485 0.793631
Si Si3 0.019287 0.303818 0.747599
Si Si4 0.010204 0.863406 0.422294
Si Si5 0.310689 0.140790 0.114587
Si Si6 0.682284 0.800408 0.538153
O O1 0.161956 0.950791 0.209924
O O2 0.493071 0.900237 0.123839
O O3 0.665413 0.952808 0.250090
O O4 0.500000 0.000000 0.112548
O O5 0.026609 0.909871 0.864417
O O6 0.000000 0.000000 0.848567
O O7 0.953973 0.250000 0.763593
O O8 0.806449 0.340646 0.717436
O O9 0.140277 0.327197 0.845683
O O10 0.181715 0.304821 0.646034
O O11 0.128829 0.875979 0.528851
O O12 0.769155 0.836342 0.456491
O O13 0.407226 0.187979 0.066194
O O14 0.724187 0.750000 0.499360
#
# Coordination Sequence:
#
# PCOD9361482 Si02
#       6
#     8   8   8   8   8   8
#     4  10  22  43  70  98 132 178 223 275 335 400
#     4  10  22  43  69  96 132 176 222 272 333 400
#     4  10  21  40  64  88 126 175 222 272 336 403
#     4  11  23  39  63  95 131 172 217 285 335 401
#     4  11  23  39  63  93 132 174 223 282 334 406
#     4  10  23  40  61  92 129 171 224 277 336 403
#
# _framework density 22.698267000000001
#
# number of rings (size 3 to 8) (size 9 to 14) (size 15 to 20)
#    0.000    1.667    1.667    2.000    4.667    3.333 
#    3.000    1.667    0.000    0.000    0.000    0.000 
#    0.000    0.000    0.000    0.000    0.000    0.000 
#
# Total GULP energy -133661.788377 kJ/mol
# GULP energy per Si atom -5569.241182 kJ/mol
# Density = 2.264660 g / cm^3
# Si number density = 22.698267 Si / 1000 Ang^3
#
#
#
# Elastic Constant Matrix: (Units=GPa)
#
#
# Indices 1 2 3 4 5 6 
#
# 1 50.6882 2.8401 4.0978 0.0000 0.0000 0.0000
# 2 2.8401 161.9778 41.5275 0.0000 0.0000 0.0000
# 3 4.0978 41.5275 60.9825 0.0000 0.0000 0.0000
# 4 0.0000 0.0000 0.0000 4.6630 0.0000 0.0000
# 5 0.0000 0.0000 0.0000 0.0000 6.1619 0.0000
# 6 0.0000 0.0000 0.0000 0.0000 0.0000 24.5626
#
#
#
# Elastic Compliance Matrix: (Units=1/GPa)
#
#
# Indices 1 2 3 4 5 6 
#
# 1 0.019836 -0.000007 -0.001328 0.000000 0.000000 0.000000
# 2 -0.000007 0.007480 -0.005093 0.000000 0.000000 0.000000
# 3 -0.001328 -0.005093 0.019955 0.000000 0.000000 0.000000
# 4 0.000000 0.000000 0.000000 0.214456 0.000000 0.000000
# 5 0.000000 0.000000 0.000000 0.000000 0.162287 0.000000
# 6 0.000000 0.000000 0.000000 0.000000 0.000000 0.040712
#
#
# Mechanical properties :
#
#
# Convention : Reuss Voigt Hill
#
# Bulk Modulus (GPa) = 29.05712 41.17547 35.11629
# Shear Modulus (GPa) = 10.22381 22.08970 16.15676
#
# Velocity S-wave (km/s) = 2.12462 3.12298 2.67086
# Velocity P-wave (km/s) = 4.34142 5.58424 5.00158
#
# Compressibility (1/GPa) = 0.03441497
#
# Stress axis : x y z
#
# Youngs Moduli (GPa) = 50.41278 133.69857 50.11152
#
# Poissons Ratio (x) = 0.00098 0.06654
# Poissons Ratio (y) = 0.00037 0.25521
# Poissons Ratio (z) = 0.06694 0.68091
#
# Static dielectric constant tensor:
#      x y z
#    x 1.917940 0.000000 0.000000 
#    y 0.000000 1.874200 0.000000 
#    z 0.000000 0.000000 1.911980 
# 
# From -- ./inp_files/7544.got.cif
#   From: 2010.05.17/outbox.cif.g08.bks.cpg/sg39_4_cif.got.tgz:7544.got - 2010.06.03 18:22:40.
