data_PCOD9361851
_publ_section_title
;
Structure prediction by ZEFSAII (Michael W. Deem and Ramdas Pophale) SiO2 
 PCOD9361851
Probable space group: A B M 2
;
_chemical_formula_sum "Si O2"
_cell_formula_units_Z 60
_cell_length_a 17.494322
_cell_length_b 26.018170
_cell_length_c 5.204023
_cell_angle_alpha 90.000000
_cell_angle_beta 90.000000
_cell_angle_gamma 90.000000
_cell_volume 2368.716418
_symmetry_space_group_name_H-M "A B M 2"
_symmetry_group_IT_number 39
_symmetry_cell_setting 'orthorhombic'
loop_
_space_group_symop_operation_xyz
x,y,z
-x,-y,z
-x,1/2+y,z
x,1/2-y,z
x,1/2+y,1/2+z
-x,1/2-y,1/2+z
-x,y,1/2+z
x,-y,1/2+z
loop_
_atom_site_type_symbol
_atom_site_label
_atom_site_fract_x
_atom_site_fract_y
_atom_site_fract_z
Si Si1 0.973092 0.559059 0.601060
Si Si2 0.806313 0.412877 0.249149
Si Si3 0.955723 0.188079 0.783973
Si Si4 0.326354 0.531773 0.006454
Si Si5 0.785559 0.189124 0.915078
Si Si6 0.446840 0.638463 0.295969
Si Si7 0.454208 0.250000 0.878896
Si Si8 0.687370 0.384837 0.634852
O O1 0.893356 0.569995 0.741960
O O2 0.000000 0.500000 0.558468
O O3 0.966389 0.579301 0.310583
O O4 0.763096 0.412623 0.522401
O O5 0.761927 0.454001 0.069622
O O6 0.793017 0.354674 0.137988
O O7 0.963532 0.250000 0.787995
O O8 0.865167 0.180696 0.761764
O O9 0.008991 0.170460 0.552878
O O10 0.349969 0.493986 0.773762
O O11 0.349344 0.585721 0.875942
O O12 0.781092 0.250000 0.987418
O O13 0.715058 0.170253 0.739075
O O14 0.492252 0.631740 0.031064
O O15 0.416678 0.697225 0.300913
O O16 0.371994 0.610921 0.402542
O O17 0.472521 0.250000 0.182492
#
# Coordination Sequence:
#
# PCOD9361851 Si02
#       8
#     8   8   8   8   8   8   4   8
#     4  10  25  42  67 101 140 178 232 301 371 433
#     4  11  26  44  70 105 148 191 250 299 376 446
#     4   9  19  37  61  83 117 175 237 287 336 396
#     4  11  24  43  74 101 138 181 234 289 369 439
#     4  10  25  44  65 102 148 197 249 301 360 438
#     4  10  23  42  71 102 144 190 243 299 361 434
#     4   8  16  36  60  98 134 182 232 282 350 424
#     4  11  26  45  72 109 145 192 246 303 378 451
#
# _framework density 25.330172000000001
#
# number of rings (size 3 to 8) (size 9 to 14) (size 15 to 20)
#    0.000    1.867    1.333    0.000   14.000    1.600 
#    0.000    0.000    0.000    2.400    0.000    0.000 
#    0.000    0.000    0.000    0.000    0.000    0.000 
#
# Total GULP energy -167327.295280 kJ/mol
# GULP energy per Si atom -5577.576509 kJ/mol
# Density = 2.527252 g / cm^3
# Si number density = 25.330172 Si / 1000 Ang^3
#
#
#
# Elastic Constant Matrix: (Units=GPa)
#
#
# Indices 1 2 3 4 5 6 
#
# 1 46.4561 33.3500 8.0440 0.0000 0.0000 0.0000
# 2 33.3500 105.2398 21.2440 0.0000 0.0000 0.0000
# 3 8.0440 21.2440 134.2168 0.0000 0.0000 0.0000
# 4 0.0000 0.0000 0.0000 35.6027 0.0000 0.0000
# 5 0.0000 0.0000 0.0000 0.0000 31.2882 0.0000
# 6 0.0000 0.0000 0.0000 0.0000 0.0000 22.5171
#
#
#
# Elastic Compliance Matrix: (Units=1/GPa)
#
#
# Indices 1 2 3 4 5 6 
#
# 1 0.027875 -0.008777 -0.000281 0.000000 0.000000 0.000000
# 2 -0.008777 0.012579 -0.001465 0.000000 0.000000 0.000000
# 3 -0.000281 -0.001465 0.007699 0.000000 0.000000 0.000000
# 4 0.000000 0.000000 0.000000 0.028088 0.000000 0.000000
# 5 0.000000 0.000000 0.000000 0.000000 0.031961 0.000000
# 6 0.000000 0.000000 0.000000 0.000000 0.000000 0.044411
#
#
# Mechanical properties :
#
#
# Convention : Reuss Voigt Hill
#
# Bulk Modulus (GPa) = 36.89049 45.68763 41.28906
# Shear Modulus (GPa) = 27.36803 32.76658 30.06730
#
# Velocity S-wave (km/s) = 3.29059 3.60054 3.44905
# Velocity P-wave (km/s) = 5.38821 5.94652 5.67424
#
# Compressibility (1/GPa) = 0.02710726
#
# Stress axis : x y z
#
# Youngs Moduli (GPa) = 35.87445 79.49684 129.88046
#
# Poissons Ratio (x) = 0.69771 0.03656
# Poissons Ratio (y) = 0.31486 0.19028
# Poissons Ratio (z) = 0.01010 0.11646
#
# Static dielectric constant tensor:
#      x y z
#    x 1.975490 0.000000 0.000000 
#    y 0.000000 2.196950 0.000000 
#    z 0.000000 0.000000 2.135660 
# 
# From -- ./inp_files/882.got.cif
#   From: 2010.05.17/outbox.cif.g08.bks.cpg/sg39_1_cif.got.tgz:882.got - 2010.06.03 18:22:40.
