data_PCOD9361067
_publ_section_title
;
Structure prediction by ZEFSAII (Michael W. Deem and Ramdas Pophale) SiO2 
 PCOD9361067
Probable space group: A B M 2
;
_chemical_formula_sum "Si O2"
_cell_formula_units_Z 64
_cell_length_a 13.019158
_cell_length_b 15.177189
_cell_length_c 14.752236
_cell_angle_alpha 90.000000
_cell_angle_beta 90.000000
_cell_angle_gamma 90.000000
_cell_volume 2914.956589
_symmetry_space_group_name_H-M "A B M 2"
_symmetry_group_IT_number 39
_symmetry_cell_setting 'orthorhombic'
loop_
_space_group_symop_operation_xyz
x,y,z
-x,-y,z
-x,1/2+y,z
x,1/2-y,z
x,1/2+y,1/2+z
-x,1/2-y,1/2+z
-x,y,1/2+z
x,-y,1/2+z
loop_
_atom_site_type_symbol
_atom_site_label
_atom_site_fract_x
_atom_site_fract_y
_atom_site_fract_z
Si Si1 0.662267 0.643365 0.814500
Si Si2 0.054602 0.858333 0.764798
Si Si3 0.467018 0.642390 0.924520
Si Si4 0.871333 0.924451 0.893530
Si Si5 0.047493 0.654463 0.568023
Si Si6 0.276966 0.653583 0.825030
Si Si7 0.353936 0.856939 0.107939
Si Si8 0.169193 0.105544 0.498092
O O1 0.676292 0.750000 0.818615
O O2 0.579425 0.617003 0.890730
O O3 0.770488 0.598235 0.836495
O O4 0.622591 0.622762 0.712757
O O5 0.044869 0.750000 0.778725
O O6 0.970788 0.901214 0.832152
O O7 0.035435 0.893647 0.663413
O O8 0.175113 0.882445 0.777609
O O9 0.462018 0.750000 0.920160
O O10 0.385131 0.608548 0.848359
O O11 0.433720 0.618397 0.027166
O O12 0.879133 0.868205 0.985675
O O13 0.862450 0.019272 0.941831
O O14 0.080286 0.750000 0.599336
O O15 0.934213 0.651768 0.527005
O O16 0.297314 0.750000 0.784053
O O17 0.234309 0.661370 0.927276
O O18 0.339970 0.750000 0.103899
O O19 0.246705 0.904325 0.081586
#
# Coordination Sequence:
#
# PCOD9361067 Si02
#       8
#     8   8   8   8   8   8   8   8
#     4  10  20  38  64  92 124 163 204 252 309 362
#     4  10  21  38  62  86 114 159 205 248 304 365
#     4   8  16  33  61  93 119 149 202 264 303 344
#     4  12  24  38  54  90 128 156 195 249 310 366
#     4  11  22  39  60  85 116 157 203 249 303 362
#     4   9  17  35  60  82 109 150 203 252 293 343
#     4   9  18  37  66  93 115 158 215 253 295 359
#     4  11  21  36  56  86 119 160 197 243 295 359
#
# _framework density 21.955729000000002
#
# number of rings (size 3 to 8) (size 9 to 14) (size 15 to 20)
#    0.000    2.000    1.250    4.125    0.000    2.000 
#    9.000    2.500    0.000    3.000    0.000    0.000 
#    0.000    0.000    0.000    0.000    0.000    0.000 
#
# Total GULP energy -178169.629607 kJ/mol
# GULP energy per Si atom -5567.800925 kJ/mol
# Density = 2.190576 g / cm^3
# Si number density = 21.955729 Si / 1000 Ang^3
#
#
#
# Elastic Constant Matrix: (Units=GPa)
#
#
# Indices 1 2 3 4 5 6 
#
# 1 88.1781 1.7824 42.3875 0.0000 0.0000 0.0000
# 2 1.7824 36.4051 21.0946 0.0000 0.0000 0.0000
# 3 42.3875 21.0946 126.9265 0.0000 0.0000 0.0000
# 4 0.0000 0.0000 0.0000 92.6596 0.0000 0.0000
# 5 0.0000 0.0000 0.0000 0.0000 28.6163 0.0000
# 6 0.0000 0.0000 0.0000 0.0000 0.0000 35.4926
#
#
#
# Elastic Compliance Matrix: (Units=1/GPa)
#
#
# Indices 1 2 3 4 5 6 
#
# 1 0.013665 0.002186 -0.004927 0.000000 0.000000 0.000000
# 2 0.002186 0.030745 -0.005840 0.000000 0.000000 0.000000
# 3 -0.004927 -0.005840 0.010494 0.000000 0.000000 0.000000
# 4 0.000000 0.000000 0.000000 0.010792 0.000000 0.000000
# 5 0.000000 0.000000 0.000000 0.000000 0.034945 0.000000
# 6 0.000000 0.000000 0.000000 0.000000 0.000000 0.028175
#
#
# Mechanical properties :
#
#
# Convention : Reuss Voigt Hill
#
# Bulk Modulus (GPa) = 26.49479 42.44877 34.47178
# Shear Modulus (GPa) = 31.53399 43.77006 37.65203
#
# Velocity S-wave (km/s) = 3.79391 4.46977 4.14564
# Velocity P-wave (km/s) = 5.59332 6.78338 6.21689
#
# Compressibility (1/GPa) = 0.03774327
#
# Stress axis : x y z
#
# Youngs Moduli (GPa) = 73.18100 32.52516 95.28926
#
# Poissons Ratio (x) = -0.07109 0.46946
# Poissons Ratio (y) = -0.15995 0.55646
# Poissons Ratio (z) = 0.36054 0.18994
#
# Static dielectric constant tensor:
#      x y z
#    x 1.819710 0.000000 0.000000 
#    y 0.000000 1.881510 0.000000 
#    z 0.000000 0.000000 1.856590 
# 
# From -- ./inp_files/9499.got.cif
#   From: 2010.05.17/outbox.cif.g08.bks.cpg/sg39_5_cif.got.tgz:9499.got - 2010.06.03 18:22:40.
