data_PCOD9361348
_publ_section_title
;
Structure prediction by ZEFSAII (Michael W. Deem and Ramdas Pophale) SiO2 
 PCOD9361348
Probable space group: A B M 2
;
_chemical_formula_sum "Si O2"
_cell_formula_units_Z 64
_cell_length_a 9.632008
_cell_length_b 24.281722
_cell_length_c 13.382470
_cell_angle_alpha 90.000000
_cell_angle_beta 90.000000
_cell_angle_gamma 90.000000
_cell_volume 3129.915377
_symmetry_space_group_name_H-M "A B M 2"
_symmetry_group_IT_number 39
_symmetry_cell_setting 'orthorhombic'
loop_
_space_group_symop_operation_xyz
x,y,z
-x,-y,z
-x,1/2+y,z
x,1/2-y,z
x,1/2+y,1/2+z
-x,1/2-y,1/2+z
-x,y,1/2+z
x,-y,1/2+z
loop_
_atom_site_type_symbol
_atom_site_label
_atom_site_fract_x
_atom_site_fract_y
_atom_site_fract_z
Si Si1 0.302430 0.585143 0.301850
Si Si2 0.709235 0.036590 0.079607
Si Si3 0.183612 0.185913 0.277243
Si Si4 0.426602 0.915709 0.568114
Si Si5 0.381073 0.592287 0.804945
Si Si6 0.122491 0.186130 0.837891
Si Si7 0.252796 0.188198 0.044439
Si Si8 0.844546 0.991192 0.393350
O O1 0.276450 0.554170 0.195141
O O2 0.461547 0.581268 0.338887
O O3 0.241641 0.646524 0.294293
O O4 0.214963 0.552517 0.383971
O O5 0.587703 0.076810 0.040136
O O6 0.646183 0.975492 0.064477
O O7 0.839581 0.034871 0.004894
O O8 0.196329 0.250000 0.304426
O O9 0.303860 0.149538 0.327000
O O10 0.195833 0.181723 0.156716
O O11 0.030285 0.166196 0.307564
O O12 0.413057 0.905378 0.686868
O O13 0.357246 0.861601 0.523039
O O14 0.267307 0.545941 0.832706
O O15 0.138126 0.250000 0.805441
O O16 0.138408 0.185320 0.957776
O O17 0.315241 0.250000 0.038312
O O18 0.000000 0.000000 0.355226
#
# Coordination Sequence:
#
# PCOD9361348 Si02
#       8
#     8   8   8   8   8   8   8   8
#     4  11  23  42  63  90 125 160 206 262 307 365
#     4  10  22  38  59  86 121 160 202 247 310 369
#     4   9  19  39  62  87 125 163 198 252 311 371
#     4   9  18  37  61  86 117 158 198 251 308 356
#     4  10  21  38  61  88 120 157 205 252 307 364
#     4  10  21  38  62  92 123 162 206 251 310 372
#     4   9  18  34  62  94 120 157 207 250 304 369
#     4  12  25  39  59  91 126 163 206 250 310 374
#
# _framework density 20.447837
#
# number of rings (size 3 to 8) (size 9 to 14) (size 15 to 20)
#    0.000    2.000    1.250    1.875    5.250    1.000 
#    9.000    1.875    0.000    0.000    0.000    0.000 
#    0.000    0.000    0.000    0.000    0.000    0.000 
#
# Total GULP energy -178282.392684 kJ/mol
# GULP energy per Si atom -5571.324771 kJ/mol
# Density = 2.040130 g / cm^3
# Si number density = 20.447837 Si / 1000 Ang^3
#
#
#
# Elastic Constant Matrix: (Units=GPa)
#
#
# Indices 1 2 3 4 5 6 
#
# 1 121.9863 52.3983 8.2793 0.0000 0.0000 0.0000
# 2 52.3983 97.4982 12.5524 0.0000 0.0000 0.0000
# 3 8.2793 12.5524 51.3379 0.0000 0.0000 0.0000
# 4 0.0000 0.0000 0.0000 25.4227 0.0000 0.0000
# 5 0.0000 0.0000 0.0000 0.0000 19.8699 0.0000
# 6 0.0000 0.0000 0.0000 0.0000 0.0000 34.3706
#
#
#
# Elastic Compliance Matrix: (Units=1/GPa)
#
#
# Indices 1 2 3 4 5 6 
#
# 1 0.010663 -0.005688 -0.000329 0.000000 0.000000 0.000000
# 2 -0.005688 0.013625 -0.002414 0.000000 0.000000 0.000000
# 3 -0.000329 -0.002414 0.020122 0.000000 0.000000 0.000000
# 4 0.000000 0.000000 0.000000 0.039335 0.000000 0.000000
# 5 0.000000 0.000000 0.000000 0.000000 0.050327 0.000000
# 6 0.000000 0.000000 0.000000 0.000000 0.000000 0.029095
#
#
# Mechanical properties :
#
#
# Convention : Reuss Voigt Hill
#
# Bulk Modulus (GPa) = 36.30085 46.36473 41.33279
# Shear Modulus (GPa) = 26.42541 29.10547 27.76544
#
# Velocity S-wave (km/s) = 3.59880 3.77689 3.68892
# Velocity P-wave (km/s) = 5.92115 6.46094 6.19692
#
# Compressibility (1/GPa) = 0.02754756
#
# Stress axis : x y z
#
# Youngs Moduli (GPa) = 93.77868 73.39703 49.69676
#
# Poissons Ratio (x) = 0.41752 0.01634
# Poissons Ratio (y) = 0.53346 0.11996
# Poissons Ratio (z) = 0.03084 0.17717
#
# Static dielectric constant tensor:
#      x y z
#    x 1.747900 0.000000 0.000000 
#    y 0.000000 1.746400 0.000000 
#    z 0.000000 0.000000 1.802180 
# 
# From -- ./inp_files/8783.got.cif
#   From: 2010.05.17/outbox.cif.g08.bks.cpg/sg39_5_cif.got.tgz:8783.got - 2010.06.03 18:22:40.
