data_PCOD9361818
_publ_section_title
;
Structure prediction by ZEFSAII (Michael W. Deem and Ramdas Pophale) SiO2 
 PCOD9361818
Probable space group: A B M 2
;
_chemical_formula_sum "Si O2"
_cell_formula_units_Z 48
_cell_length_a 9.115923
_cell_length_b 8.668424
_cell_length_c 31.556618
_cell_angle_alpha 90.000000
_cell_angle_beta 90.000000
_cell_angle_gamma 90.000000
_cell_volume 2493.625593
_symmetry_space_group_name_H-M "A B M 2"
_symmetry_group_IT_number 39
_symmetry_cell_setting 'orthorhombic'
loop_
_space_group_symop_operation_xyz
x,y,z
-x,-y,z
-x,1/2+y,z
x,1/2-y,z
x,1/2+y,1/2+z
-x,1/2-y,1/2+z
-x,y,1/2+z
x,-y,1/2+z
loop_
_atom_site_type_symbol
_atom_site_label
_atom_site_fract_x
_atom_site_fract_y
_atom_site_fract_z
Si Si1 0.835505 0.434643 0.889170
Si Si2 0.835982 0.434810 0.221574
Si Si3 0.163985 0.435827 0.055824
Si Si4 0.335696 0.435220 0.808141
Si Si5 0.335702 0.064530 0.140693
Si Si6 0.335441 0.935883 0.470425
O O1 0.839005 0.250000 0.889984
O O2 0.750132 0.492663 0.847657
O O3 0.751485 0.497622 0.930365
O O4 0.000000 0.500000 0.888656
O O5 0.841302 0.250000 0.217611
O O6 0.748913 0.473124 0.264643
O O7 0.751294 0.503974 0.181453
O O8 0.000000 0.500000 0.223510
O O9 0.156445 0.250000 0.056206
O O10 0.250856 0.484809 0.097994
O O11 0.000000 0.500000 0.055476
O O12 0.252063 0.481733 0.013628
O O13 0.500000 0.500000 0.806659
O O14 0.339513 0.250000 0.812720
O O15 0.340532 0.250000 0.141720
O O16 0.500000 0.000000 0.140660
O O17 0.338612 0.750000 0.467891
O O18 0.500000 0.000000 0.470708
#
# Coordination Sequence:
#
# PCOD9361818 Si02
#       6
#     8   8   8   8   8   8
#     4  12  25  42  64  91 123 159 201 249 302 359
#     4  11  24  41  63  91 123 160 202 249 301 358
#     4  10  23  40  61  89 121 159 202 249 300 357
#     4  11  24  42  64  91 123 160 202 248 300 357
#     4  11  23  40  62  90 123 160 203 250 302 358
#     4  11  23  41  63  90 123 160 203 249 301 357
#
# _framework density 19.249081
#
# number of rings (size 3 to 8) (size 9 to 14) (size 15 to 20)
#    0.000    1.000    0.000    6.500    0.000   10.667 
#    0.000    0.000    0.000    0.000    0.000    0.000 
#    0.000    0.000    0.000    0.000    0.000    0.000 
#
# Total GULP energy -134351.651075 kJ/mol
# GULP energy per Si atom -5597.985461 kJ/mol
# Density = 1.920527 g / cm^3
# Si number density = 19.249081 Si / 1000 Ang^3
#
#
#
# Elastic Constant Matrix: (Units=GPa)
#
#
# Indices 1 2 3 4 5 6 
#
# 1 245.4365 79.2555 144.9230 0.0000 0.0000 0.0000
# 2 79.2555 90.7800 90.8415 0.0000 0.0000 0.0000
# 3 144.9230 90.8415 233.3921 0.0000 0.0000 0.0000
# 4 0.0000 0.0000 0.0000 29.7587 0.0000 0.0000
# 5 0.0000 0.0000 0.0000 0.0000 38.1360 0.0000
# 6 0.0000 0.0000 0.0000 0.0000 0.0000 43.5207
#
#
#
# Elastic Compliance Matrix: (Units=1/GPa)
#
#
# Indices 1 2 3 4 5 6 
#
# 1 0.006848 -0.002823 -0.003153 0.000000 0.000000 0.000000
# 2 -0.002823 0.019207 -0.005723 0.000000 0.000000 0.000000
# 3 -0.003153 -0.005723 0.008470 0.000000 0.000000 0.000000
# 4 0.000000 0.000000 0.000000 0.033604 0.000000 0.000000
# 5 0.000000 0.000000 0.000000 0.000000 0.026222 0.000000
# 6 0.000000 0.000000 0.000000 0.000000 0.000000 0.022978
#
#
# Mechanical properties :
#
#
# Convention : Reuss Voigt Hill
#
# Bulk Modulus (GPa) = 89.87508 133.29428 111.58468
# Shear Modulus (GPa) = 34.61744 39.25566 36.93655
#
# Velocity S-wave (km/s) = 4.24535 4.52082 4.38525
# Velocity P-wave (km/s) = 8.41562 9.83096 9.15069
#
# Compressibility (1/GPa) = 0.01112656
#
# Stress axis : x y z
#
# Youngs Moduli (GPa) = 146.02847 52.06411 118.06143
#
# Poissons Ratio (x) = 0.14698 0.37229
# Poissons Ratio (y) = 0.41225 0.67565
# Poissons Ratio (z) = 0.46048 0.29795
#
# Static dielectric constant tensor:
#      x y z
#    x 1.617900 0.000000 0.000000 
#    y 0.000000 1.649820 0.000000 
#    z 0.000000 0.000000 1.644330 
# 
# From -- ./inp_files/17593.got.cif
#   From: 2010.05.17/outbox.cif.g08.bks.cpg/sg39_9_cif.got.tgz:17593.got - 2010.06.03 18:22:40.
