data_PCOD9361099
_publ_section_title
;
Structure prediction by ZEFSAII (Michael W. Deem and Ramdas Pophale) SiO2 
 PCOD9361099
Probable space group: A B M 2
;
_chemical_formula_sum "Si O2"
_cell_formula_units_Z 40
_cell_length_a 7.233031
_cell_length_b 17.589390
_cell_length_c 15.586028
_cell_angle_alpha 90.000000
_cell_angle_beta 90.000000
_cell_angle_gamma 90.000000
_cell_volume 1982.926227
_symmetry_space_group_name_H-M "A B M 2"
_symmetry_group_IT_number 39
_symmetry_cell_setting 'orthorhombic'
loop_
_space_group_symop_operation_xyz
x,y,z
-x,-y,z
-x,1/2+y,z
x,1/2-y,z
x,1/2+y,1/2+z
-x,1/2-y,1/2+z
-x,y,1/2+z
x,-y,1/2+z
loop_
_atom_site_type_symbol
_atom_site_label
_atom_site_fract_x
_atom_site_fract_y
_atom_site_fract_z
Si Si1 0.183475 0.916488 0.304320
Si Si2 0.277773 0.011635 0.472859
Si Si3 0.714098 0.528546 0.158454
Si Si4 0.436144 0.166013 0.258521
Si Si5 0.857266 0.335549 0.904313
O O1 0.364044 0.867045 0.282235
O O2 0.017327 0.863943 0.338585
O O3 0.214384 0.972144 0.385279
O O4 0.177171 0.971365 0.221254
O O5 0.196227 0.097338 0.470615
O O6 0.500000 0.000000 0.470583
O O7 0.215794 0.972882 0.561396
O O8 0.500000 0.500000 0.156740
O O9 0.686159 0.611271 0.198757
O O10 0.452953 0.250000 0.220829
O O11 0.326124 0.169426 0.347187
O O12 0.899988 0.250000 0.937170
#
# Coordination Sequence:
#
# PCOD9361099 Si02
#       5
#     8   8   8   8   8
#     4  11  20  41  63  87 122 168 211 253 312 380
#     4  11  20  40  65  92 125 169 211 254 314 382
#     4   9  20  37  64  92 120 166 214 252 309 383
#     4  10  20  39  63  89 123 159 203 262 312 360
#     4  11  23  39  61  91 123 160 205 259 315 364
#
# _framework density 20.172208999999999
#
# number of rings (size 3 to 8) (size 9 to 14) (size 15 to 20)
#    0.000    1.600    4.000    1.800    0.000    0.000 
#    7.200   12.000    0.000    0.000    0.000    0.000 
#    0.000    0.000    0.000    0.000    0.000    0.000 
#
# Total GULP energy -111486.826127 kJ/mol
# GULP energy per Si atom -5574.341306 kJ/mol
# Density = 2.012630 g / cm^3
# Si number density = 20.172209 Si / 1000 Ang^3
#
#
#
# Elastic Constant Matrix: (Units=GPa)
#
#
# Indices 1 2 3 4 5 6 
#
# 1 86.3788 10.7658 -17.9135 0.0000 0.0000 0.0000
# 2 10.7658 129.1566 10.5698 0.0000 0.0000 0.0000
# 3 -17.9135 10.5698 76.6030 0.0000 0.0000 0.0000
# 4 0.0000 0.0000 0.0000 8.8586 0.0000 0.0000
# 5 0.0000 0.0000 0.0000 0.0000 -8.1559 0.0000
# 6 0.0000 0.0000 0.0000 0.0000 0.0000 22.4650
#
#
#
# Elastic Compliance Matrix: (Units=1/GPa)
#
#
# Indices 1 2 3 4 5 6 
#
# 1 0.012374 -0.001283 0.003071 0.000000 0.000000 0.000000
# 2 -0.001283 0.007964 -0.001399 0.000000 0.000000 0.000000
# 3 0.003071 -0.001399 0.013965 0.000000 0.000000 0.000000
# 4 0.000000 0.000000 0.000000 0.112884 0.000000 0.000000
# 5 0.000000 0.000000 0.000000 0.000000 -0.122610 0.000000
# 6 0.000000 0.000000 0.000000 0.000000 0.000000 0.044514
#
#
# Mechanical properties :
#
#
# Convention : Reuss Voigt Hill
#
# Bulk Modulus (GPa) = 28.50555 33.22029 30.86292
# Shear Modulus (GPa) = 62.49503 23.88130 43.18817
#
# Velocity S-wave (km/s) = 5.57207 3.44448 4.63209
# Velocity P-wave (km/s) = 7.45380 5.68536 6.62882
#
# Compressibility (1/GPa) = 0.03508089
#
# Stress axis : x y z
#
# Youngs Moduli (GPa) = 80.81756 125.56613 71.60569
#
# Poissons Ratio (x) = 0.16106 -0.21987
# Poissons Ratio (y) = 0.10366 0.10016
# Poissons Ratio (z) = -0.24815 0.17565
#
# Static dielectric constant tensor:
#      x y z
#    x 1.783510 0.000000 0.000000 
#    y 0.000000 1.779520 0.000000 
#    z 0.000000 0.000000 1.686200 
# 
# From -- ./inp_files/8187.got.cif
#   From: 2010.05.17/outbox.cif.g08.bks.cpg/sg39_5_cif.got.tgz:8187.got - 2010.06.03 18:22:40.
