data_PCOD9361993
_publ_section_title
;
Structure prediction by ZEFSAII (Michael W. Deem and Ramdas Pophale) SiO2 
 PCOD9361993
Probable space group: A B M 2
;
_chemical_formula_sum "Si O2"
_cell_formula_units_Z 32
_cell_length_a 8.751988
_cell_length_b 19.877241
_cell_length_c 9.596058
_cell_angle_alpha 90.000000
_cell_angle_beta 90.000000
_cell_angle_gamma 90.000000
_cell_volume 1669.381826
_symmetry_space_group_name_H-M "A B M 2"
_symmetry_group_IT_number 39
_symmetry_cell_setting 'orthorhombic'
loop_
_space_group_symop_operation_xyz
x,y,z
-x,-y,z
-x,1/2+y,z
x,1/2-y,z
x,1/2+y,1/2+z
-x,1/2-y,1/2+z
-x,y,1/2+z
x,-y,1/2+z
loop_
_atom_site_type_symbol
_atom_site_label
_atom_site_fract_x
_atom_site_fract_y
_atom_site_fract_z
Si Si1 0.158632 0.965894 0.217770
Si Si2 0.341576 0.036304 0.446917
Si Si3 0.789758 0.673290 0.373161
Si Si4 0.959312 0.173441 0.159749
O O1 0.133117 0.886388 0.231522
O O2 0.208660 0.001704 0.357496
O O3 0.292440 0.974097 0.105810
O O4 0.000000 0.000000 0.168994
O O5 0.331251 0.115085 0.406137
O O6 0.500000 0.000000 0.417419
O O7 0.732226 0.750000 0.383076
O O8 0.920532 0.666189 0.495104
O O9 0.870564 0.664631 0.222632
O O10 0.915317 0.250000 0.197435
#
# Coordination Sequence:
#
# PCOD9361993 Si02
#       4
#     8   8   8   8
#     4  11  21  36  59  82 110 145 192 232 274 332
#     4  11  23  37  55  83 118 150 183 230 284 334
#     4   9  18  34  56  81 111 144 182 230 279 331
#     4   9  18  32  54  83 109 138 183 236 276 319
#
# _framework density 19.168773000000002
#
# number of rings (size 3 to 8) (size 9 to 14) (size 15 to 20)
#    0.000    2.000    2.500    1.500    3.500    0.000 
#    0.000    1.250    0.000    6.000    0.000    0.000 
#    0.000    0.000    0.000    0.000    0.000    0.000 
#
# Total GULP energy -89135.760351 kJ/mol
# GULP energy per Si atom -5570.985022 kJ/mol
# Density = 1.912514 g / cm^3
# Si number density = 19.168773 Si / 1000 Ang^3
#
#
#
# Elastic Constant Matrix: (Units=GPa)
#
#
# Indices 1 2 3 4 5 6 
#
# 1 69.8156 43.0604 11.4464 0.0000 0.0000 0.0000
# 2 43.0604 108.0479 31.0054 0.0000 0.0000 0.0000
# 3 11.4464 31.0054 32.9214 0.0000 0.0000 0.0000
# 4 0.0000 0.0000 0.0000 21.4251 0.0000 0.0000
# 5 0.0000 0.0000 0.0000 0.0000 19.9824 0.0000
# 6 0.0000 0.0000 0.0000 0.0000 0.0000 26.7576
#
#
#
# Elastic Compliance Matrix: (Units=1/GPa)
#
#
# Indices 1 2 3 4 5 6 
#
# 1 0.019004 -0.007780 0.000720 0.000000 0.000000 0.000000
# 2 -0.007780 0.015868 -0.012239 0.000000 0.000000 0.000000
# 3 0.000720 -0.012239 0.041652 0.000000 0.000000 0.000000
# 4 0.000000 0.000000 0.000000 0.046674 0.000000 0.000000
# 5 0.000000 0.000000 0.000000 0.000000 0.050044 0.000000
# 6 0.000000 0.000000 0.000000 0.000000 0.000000 0.037373
#
#
# Mechanical properties :
#
#
# Convention : Reuss Voigt Hill
#
# Bulk Modulus (GPa) = 26.36797 42.42324 34.39560
# Shear Modulus (GPa) = 19.09447 21.98456 20.53951
#
# Velocity S-wave (km/s) = 3.15957 3.39026 3.27694
# Velocity P-wave (km/s) = 5.20539 6.12410 5.68334
#
# Compressibility (1/GPa) = 0.03792480
#
# Stress axis : x y z
#
# Youngs Moduli (GPa) = 52.62022 63.01962 24.00842
#
# Poissons Ratio (x) = 0.49031 -0.01729
# Poissons Ratio (y) = 0.40940 0.29385
# Poissons Ratio (z) = -0.03789 0.77132
#
# Static dielectric constant tensor:
#      x y z
#    x 1.637780 0.000000 0.000000 
#    y 0.000000 1.687460 0.000000 
#    z 0.000000 0.000000 1.664070 
# 
# From -- ./inp_files/1970.got.cif
#   From: 2010.05.17/outbox.cif.g08.bks.cpg/sg39_1_cif.got.tgz:1970.got - 2010.06.03 18:22:40.
