data_PCOD9361011
_publ_section_title
;
Structure prediction by ZEFSAII (Michael W. Deem and Ramdas Pophale) SiO2 
 PCOD9361011
Probable space group: A B M 2
;
_chemical_formula_sum "Si O2"
_cell_formula_units_Z 48
_cell_length_a 9.552300
_cell_length_b 15.291371
_cell_length_c 15.900063
_cell_angle_alpha 90.000000
_cell_angle_beta 90.000000
_cell_angle_gamma 90.000000
_cell_volume 2322.486637
_symmetry_space_group_name_H-M "A B M 2"
_symmetry_group_IT_number 39
_symmetry_cell_setting 'orthorhombic'
loop_
_space_group_symop_operation_xyz
x,y,z
-x,-y,z
-x,1/2+y,z
x,1/2-y,z
x,1/2+y,1/2+z
-x,1/2-y,1/2+z
-x,y,1/2+z
x,-y,1/2+z
loop_
_atom_site_type_symbol
_atom_site_label
_atom_site_fract_x
_atom_site_fract_y
_atom_site_fract_z
Si Si1 0.554345 0.750000 0.266110
Si Si2 0.068775 0.086908 0.821021
Si Si3 0.884249 0.057881 0.515471
Si Si4 0.801476 0.750000 0.073454
Si Si5 0.371575 0.938242 0.061876
Si Si6 0.874160 0.250000 0.769959
Si Si7 0.390107 0.924070 0.264939
Si Si8 0.511013 0.750000 0.562408
O O1 0.712547 0.750000 0.303420
O O2 0.472376 0.836766 0.290106
O O3 0.530445 0.750000 0.163017
O O4 0.233431 0.084990 0.799881
O O5 0.972015 0.167642 0.792874
O O6 0.064938 0.079037 0.921602
O O7 0.000000 0.000000 0.783508
O O8 0.858501 0.154075 0.550685
O O9 0.755296 0.990497 0.520105
O O10 0.000000 0.000000 0.562512
O O11 0.831326 0.750000 0.172678
O O12 0.647585 0.750000 0.029624
O O13 0.365541 0.936106 0.164129
O O14 0.404513 0.837520 0.039411
O O15 0.500000 0.000000 0.039375
O O16 0.500000 0.000000 0.290329
#
# Coordination Sequence:
#
# PCOD9361011 Si02
#       8
#     4   8   8   4   8   4   8   4
#     4   9  19  37  60  98 127 157 214 278 329 370
#     4  11  25  43  64  93 138 175 212 273 334 406
#     4  11  26  43  63  95 138 175 218 276 340 408
#     4  11  23  40  69  96 129 172 223 277 330 394
#     4  10  20  37  66  95 127 174 226 279 334 398
#     4  11  24  40  71  96 127 173 225 274 329 392
#     4  10  21  37  64  94 130 165 219 275 320 398
#     4   9  18  37  62 100 131 160 220 285 324 386
#
# _framework density 20.667504000000001
#
# number of rings (size 3 to 8) (size 9 to 14) (size 15 to 20)
#    0.000    1.667    1.667    2.000    7.000    1.333 
#    0.000    0.833    7.333    0.000    0.000    0.000 
#    0.000    0.000    0.000    0.000    0.000    0.000 
#
# Total GULP energy -133621.906018 kJ/mol
# GULP energy per Si atom -5567.579417 kJ/mol
# Density = 2.062046 g / cm^3
# Si number density = 20.667504 Si / 1000 Ang^3
#
#
#
# Elastic Constant Matrix: (Units=GPa)
#
#
# Indices 1 2 3 4 5 6 
#
# 1 131.4562 81.7906 2.7684 0.0000 0.0000 0.0000
# 2 81.7906 230.2867 19.7698 0.0000 0.0000 0.0000
# 3 2.7684 19.7698 25.3080 0.0000 0.0000 0.0000
# 4 0.0000 0.0000 0.0000 60.0244 0.0000 0.0000
# 5 0.0000 0.0000 0.0000 0.0000 -410.0912 0.0000
# 6 0.0000 0.0000 0.0000 0.0000 0.0000 46.8198
#
#
#
# Elastic Compliance Matrix: (Units=1/GPa)
#
#
# Indices 1 2 3 4 5 6 
#
# 1 0.009839 -0.003647 0.001772 0.000000 0.000000 0.000000
# 2 -0.003647 0.006006 -0.004293 0.000000 0.000000 0.000000
# 3 0.001772 -0.004293 0.042673 0.000000 0.000000 0.000000
# 4 0.000000 0.000000 0.000000 0.016660 0.000000 0.000000
# 5 0.000000 0.000000 0.000000 0.000000 -0.002438 0.000000
# 6 0.000000 0.000000 0.000000 0.000000 0.000000 0.021358
#
#
# Mechanical properties :
#
#
# Convention : Reuss Voigt Hill
#
# Bulk Modulus (GPa) = 21.65285 66.18983 43.92134
# Shear Modulus (GPa) = 41.04218 -41.80126 -0.37954
#
# Velocity S-wave (km/s) = 4.46110 -4.50217 -0.42900
# Velocity P-wave (km/s) = 6.08562 2.25157 4.58826
#
# Compressibility (1/GPa) = 0.04618330
#
# Stress axis : x y z
#
# Youngs Moduli (GPa) = 101.64051 166.49797 23.43415
#
# Poissons Ratio (x) = 0.60714 -0.04153
# Poissons Ratio (y) = 0.37063 0.10060
# Poissons Ratio (z) = -0.18014 0.71475
#
# Static dielectric constant tensor:
#      x y z
#    x 51.686420 0.000000 0.000000 
#    y 0.000000 1.752730 0.000000 
#    z 0.000000 0.000000 1.781780 
# 
# From -- ./inp_files/11665.got.cif
#   From: 2010.05.17/outbox.cif.g08.bks.cpg/sg39_6_cif.got.tgz:11665.got - 2010.06.03 18:22:40.
