data_PCOD9361565
_publ_section_title
;
Structure prediction by ZEFSAII (Michael W. Deem and Ramdas Pophale) SiO2 
 PCOD9361565
Probable space group: A B M 2
;
_chemical_formula_sum "Si O2"
_cell_formula_units_Z 56
_cell_length_a 12.590898
_cell_length_b 15.966591
_cell_length_c 11.382056
_cell_angle_alpha 90.000000
_cell_angle_beta 90.000000
_cell_angle_gamma 90.000000
_cell_volume 2288.177044
_symmetry_space_group_name_H-M "A B M 2"
_symmetry_group_IT_number 39
_symmetry_cell_setting 'orthorhombic'
loop_
_space_group_symop_operation_xyz
x,y,z
-x,-y,z
-x,1/2+y,z
x,1/2-y,z
x,1/2+y,1/2+z
-x,1/2-y,1/2+z
-x,y,1/2+z
x,-y,1/2+z
loop_
_atom_site_type_symbol
_atom_site_label
_atom_site_fract_x
_atom_site_fract_y
_atom_site_fract_z
Si Si1 0.235239 0.649838 0.255280
Si Si2 0.815534 0.152562 0.643415
Si Si3 0.288139 0.047985 0.973072
Si Si4 0.539451 0.149892 0.170177
Si Si5 0.438255 0.903446 0.917668
Si Si6 0.044346 0.655591 0.116173
Si Si7 0.799415 0.122693 0.912330
O O1 0.229816 0.750000 0.244829
O O2 0.264783 0.623663 0.385514
O O3 0.336413 0.621234 0.178336
O O4 0.122830 0.614116 0.211452
O O5 0.790097 0.250000 0.615445
O O6 0.726569 0.087348 0.600611
O O7 0.832031 0.142782 0.781256
O O8 0.927708 0.122934 0.587910
O O9 0.394517 0.998260 0.937620
O O10 0.203070 0.975778 0.943596
O O11 0.533692 0.250000 0.183247
O O12 0.484745 0.112390 0.287473
O O13 0.504138 0.127189 0.037626
O O14 0.324878 0.852505 0.920274
O O15 0.020077 0.750000 0.159067
O O16 0.119687 0.660984 0.003783
#
# Coordination Sequence:
#
# PCOD9361565 Si02
#       7
#     8   8   8   8   8   8   8
#     4  10  21  42  71  99 140 188 241 303 373 453
#     4  11  25  44  73 108 146 198 258 309 374 470
#     4  10  25  45  66 103 146 189 240 307 386 435
#     4  11  23  44  76 110 139 193 255 311 382 464
#     4  10  25  45  74 107 150 194 250 318 384 456
#     4  10  22  42  70 103 143 193 246 307 376 453
#     4  10  24  44  70 103 148 192 243 309 385 443
#
# _framework density 24.473631000000001
#
# number of rings (size 3 to 8) (size 9 to 14) (size 15 to 20)
#    0.857    0.857    1.429    1.286    6.000    4.000 
#    0.000    1.429    0.000    0.000    0.000    2.000 
#    0.000    0.000    0.000    0.000    0.000    0.000 
#
# Total GULP energy -156345.034944 kJ/mol
# GULP energy per Si atom -5583.751248 kJ/mol
# Density = 2.441793 g / cm^3
# Si number density = 24.473631 Si / 1000 Ang^3
#
#
#
# Elastic Constant Matrix: (Units=GPa)
#
#
# Indices 1 2 3 4 5 6 
#
# 1 104.8034 33.2042 28.2811 0.0000 0.0000 0.0000
# 2 33.2042 83.3565 40.5494 0.0000 0.0000 0.0000
# 3 28.2811 40.5494 122.5984 0.0000 0.0000 0.0000
# 4 0.0000 0.0000 0.0000 33.0113 0.0000 0.0000
# 5 0.0000 0.0000 0.0000 0.0000 39.5378 0.0000
# 6 0.0000 0.0000 0.0000 0.0000 0.0000 27.7059
#
#
#
# Elastic Compliance Matrix: (Units=1/GPa)
#
#
# Indices 1 2 3 4 5 6 
#
# 1 0.011093 -0.003783 -0.001308 0.000000 0.000000 0.000000
# 2 -0.003783 0.015587 -0.004283 0.000000 0.000000 0.000000
# 3 -0.001308 -0.004283 0.009875 0.000000 0.000000 0.000000
# 4 0.000000 0.000000 0.000000 0.030293 0.000000 0.000000
# 5 0.000000 0.000000 0.000000 0.000000 0.025292 0.000000
# 6 0.000000 0.000000 0.000000 0.000000 0.000000 0.036093
#
#
# Mechanical properties :
#
#
# Convention : Reuss Voigt Hill
#
# Bulk Modulus (GPa) = 56.15341 57.20307 56.67824
# Shear Modulus (GPa) = 32.69780 33.96592 33.33186
#
# Velocity S-wave (km/s) = 3.65916 3.72944 3.69446
# Velocity P-wave (km/s) = 6.39115 6.47835 6.43490
#
# Compressibility (1/GPa) = 0.01780836
#
# Stress axis : x y z
#
# Youngs Moduli (GPa) = 90.14694 64.15694 101.26654
#
# Poissons Ratio (x) = 0.24268 0.13244
# Poissons Ratio (y) = 0.34099 0.43370
# Poissons Ratio (z) = 0.11790 0.27477
#
# Static dielectric constant tensor:
#      x y z
#    x 2.085130 0.000000 0.000000 
#    y 0.000000 1.966890 0.000000 
#    z 0.000000 0.000000 1.908960 
# 
# From -- ./inp_files/5957.got.cif
#   From: 2010.05.17/outbox.cif.g08.bks.cpg/sg39_3_cif.got.tgz:5957.got - 2010.06.03 18:22:40.
