data_PCOD9361808
_publ_section_title
;
Structure prediction by ZEFSAII (Michael W. Deem and Ramdas Pophale) SiO2 
 PCOD9361808
Probable space group: A B M 2
;
_chemical_formula_sum "Si O2"
_cell_formula_units_Z 32
_cell_length_a 9.696039
_cell_length_b 13.718511
_cell_length_c 8.843823
_cell_angle_alpha 90.000000
_cell_angle_beta 90.000000
_cell_angle_gamma 90.000000
_cell_volume 1176.363041
_symmetry_space_group_name_H-M "A B M 2"
_symmetry_group_IT_number 39
_symmetry_cell_setting 'orthorhombic'
loop_
_space_group_symop_operation_xyz
x,y,z
-x,-y,z
-x,1/2+y,z
x,1/2-y,z
x,1/2+y,1/2+z
-x,1/2-y,1/2+z
-x,y,1/2+z
x,-y,1/2+z
loop_
_atom_site_type_symbol
_atom_site_label
_atom_site_fract_x
_atom_site_fract_y
_atom_site_fract_z
Si Si1 0.627599 0.951953 0.891320
Si Si2 0.200552 0.436157 0.179733
Si Si3 0.283424 0.250000 0.452194
Si Si4 0.527413 0.250000 0.242630
Si Si5 0.910137 0.351925 0.162756
O O1 0.589950 0.850820 0.809099
O O2 0.500000 0.000000 0.980506
O O3 0.668821 0.044287 0.786686
O O4 0.742809 0.929477 0.012157
O O5 0.137154 0.543322 0.212672
O O6 0.074517 0.360919 0.176744
O O7 0.362399 0.250000 0.290390
O O8 0.414402 0.250000 0.569276
O O9 0.175531 0.163644 0.503375
O O10 0.872308 0.250000 0.242983
#
# Coordination Sequence:
#
# PCOD9361808 Si02
#       5
#     8   8   4   4   8
#     4  12  27  47  73 114 151 198 256 315 390 454
#     4  11  24  46  74 107 148 200 247 319 373 462
#     4  10  22  47  77 115 139 200 246 318 372 466
#     4  12  26  47  81 101 163 188 256 312 392 458
#     4   9  21  45  73 105 151 189 250 305 383 452
#
# _framework density 27.202487000000001
#
# number of rings (size 3 to 8) (size 9 to 14) (size 15 to 20)
#    0.750    0.500    2.500    2.250    5.250    4.000 
#    2.250    2.500    0.000    0.000    0.000    0.000 
#    0.000    0.000    0.000    0.000    0.000    0.000 
#
# Total GULP energy -89118.082428 kJ/mol
# GULP energy per Si atom -5569.880152 kJ/mol
# Density = 2.714057 g / cm^3
# Si number density = 27.202487 Si / 1000 Ang^3
#
#
#
# Elastic Constant Matrix: (Units=GPa)
#
#
# Indices 1 2 3 4 5 6 
#
# 1 137.8300 48.9633 45.9572 0.0000 0.0000 0.0000
# 2 48.9633 158.9576 -7.8576 0.0000 0.0000 0.0000
# 3 45.9572 -7.8576 75.0579 0.0000 0.0000 0.0000
# 4 0.0000 0.0000 0.0000 19.5195 0.0000 0.0000
# 5 0.0000 0.0000 0.0000 0.0000 13.2109 0.0000
# 6 0.0000 0.0000 0.0000 0.0000 0.0000 51.2971
#
#
#
# Elastic Compliance Matrix: (Units=1/GPa)
#
#
# Indices 1 2 3 4 5 6 
#
# 1 0.010940 -0.003720 -0.007088 0.000000 0.000000 0.000000
# 2 -0.003720 0.007589 0.003072 0.000000 0.000000 0.000000
# 3 -0.007088 0.003072 0.017985 0.000000 0.000000 0.000000
# 4 0.000000 0.000000 0.000000 0.051231 0.000000 0.000000
# 5 0.000000 0.000000 0.000000 0.000000 0.075695 0.000000
# 6 0.000000 0.000000 0.000000 0.000000 0.000000 0.019494
#
#
# Mechanical properties :
#
#
# Convention : Reuss Voigt Hill
#
# Bulk Modulus (GPa) = 47.52473 60.66347 54.09410
# Shear Modulus (GPa) = 24.34037 35.79101 30.06569
#
# Velocity S-wave (km/s) = 2.99454 3.63123 3.32814
# Velocity P-wave (km/s) = 5.42817 6.31904 5.89047
#
# Compressibility (1/GPa) = 0.02104168
#
# Stress axis : x y z
#
# Youngs Moduli (GPa) = 91.40468 131.77287 55.60288
#
# Poissons Ratio (x) = 0.49024 0.39412
# Poissons Ratio (y) = 0.34005 -0.17083
# Poissons Ratio (z) = 0.64789 -0.40485
#
# Static dielectric constant tensor:
#      x y z
#    x 2.360610 0.000000 0.000000 
#    y 0.000000 2.207390 0.000000 
#    z 0.000000 0.000000 2.173750 
# 
# From -- ./inp_files/4859.got.cif
#   From: 2010.05.17/outbox.cif.g08.bks.cpg/sg39_3_cif.got.tgz:4859.got - 2010.06.03 18:22:40.
