data_PCOD9361750
_publ_section_title
;
Structure prediction by ZEFSAII (Michael W. Deem and Ramdas Pophale) SiO2 
 PCOD9361750
Probable space group: A B M 2
;
_chemical_formula_sum "Si O2"
_cell_formula_units_Z 40
_cell_length_a 14.565520
_cell_length_b 10.035990
_cell_length_c 10.920776
_cell_angle_alpha 90.000000
_cell_angle_beta 90.000000
_cell_angle_gamma 90.000000
_cell_volume 1596.392626
_symmetry_space_group_name_H-M "A B M 2"
_symmetry_group_IT_number 39
_symmetry_cell_setting 'orthorhombic'
loop_
_space_group_symop_operation_xyz
x,y,z
-x,-y,z
-x,1/2+y,z
x,1/2-y,z
x,1/2+y,1/2+z
-x,1/2-y,1/2+z
-x,y,1/2+z
x,-y,1/2+z
loop_
_atom_site_type_symbol
_atom_site_label
_atom_site_fract_x
_atom_site_fract_y
_atom_site_fract_z
Si Si1 0.111601 0.497323 0.180650
Si Si2 0.597524 0.529455 0.991611
Si Si3 0.634253 0.750000 0.168455
Si Si4 0.774520 0.750000 0.677135
Si Si5 0.309753 0.750000 0.931594
Si Si6 0.086558 0.903132 0.929649
Si Si7 0.429207 0.750000 0.284676
O O1 0.168165 0.626022 0.225737
O O2 0.129997 0.398389 0.293384
O O3 0.000000 0.500000 0.168031
O O4 0.137873 0.509663 0.035989
O O5 0.500000 0.500000 0.053181
O O6 0.652164 0.620622 0.086072
O O7 0.638994 0.387983 0.960300
O O8 0.576553 0.620738 0.873150
O O9 0.694882 0.750000 0.287260
O O10 0.526140 0.750000 0.212519
O O11 0.773061 0.750000 0.527527
O O12 0.666703 0.750000 0.710546
O O13 0.056862 0.750000 0.964241
O O14 0.000000 0.000000 0.908815
#
# Coordination Sequence:
#
# PCOD9361750 Si02
#       7
#     8   8   4   4   4   8   4
#     4  10  24  46  76 103 151 192 253 322 401 472
#     4  11  23  45  72 111 152 211 262 303 381 455
#     4  11  25  46  74 108 158 211 255 300 383 467
#     4  12  27  47  74 116 152 198 265 332 388 461
#     4  12  27  43  76 107 157 193 253 327 369 457
#     4  10  22  41  74 111 143 187 251 311 391 486
#     4  11  25  44  74 109 157 204 257 323 374 457
#
# _framework density 25.056493
#
# number of rings (size 3 to 8) (size 9 to 14) (size 15 to 20)
#    0.000    1.200    3.000    1.800   11.200    2.400 
#    0.000    0.000    2.200    0.000    0.000    0.000 
#    0.000    0.000    0.000    0.000    0.000    0.000 
#
# Total GULP energy -111459.308747 kJ/mol
# GULP energy per Si atom -5572.965437 kJ/mol
# Density = 2.499946 g / cm^3
# Si number density = 25.056493 Si / 1000 Ang^3
#
#
#
# Elastic Constant Matrix: (Units=GPa)
#
#
# Indices 1 2 3 4 5 6 
#
# 1 117.5801 31.6687 6.1723 0.0000 0.0000 0.0000
# 2 31.6687 141.9321 53.6575 0.0000 0.0000 0.0000
# 3 6.1723 53.6575 162.4750 0.0000 0.0000 0.0000
# 4 0.0000 0.0000 0.0000 9.1017 0.0000 0.0000
# 5 0.0000 0.0000 0.0000 0.0000 7.4611 0.0000
# 6 0.0000 0.0000 0.0000 0.0000 0.0000 -38.0131
#
#
#
# Elastic Compliance Matrix: (Units=1/GPa)
#
#
# Indices 1 2 3 4 5 6 
#
# 1 0.009068 -0.002163 0.000370 0.000000 0.000000 0.000000
# 2 -0.002163 0.008567 -0.002747 0.000000 0.000000 0.000000
# 3 0.000370 -0.002747 0.007048 0.000000 0.000000 0.000000
# 4 0.000000 0.000000 0.000000 0.109870 0.000000 0.000000
# 5 0.000000 0.000000 0.000000 0.000000 0.134029 0.000000
# 6 0.000000 0.000000 0.000000 0.000000 0.000000 -0.026307
#
#
# Mechanical properties :
#
#
# Convention : Reuss Voigt Hill
#
# Bulk Modulus (GPa) = 64.09338 67.22046 65.65692
# Shear Modulus (GPa) = 19.48894 17.74251 18.61573
#
# Velocity S-wave (km/s) = 2.79193 2.66390 2.72867
# Velocity P-wave (km/s) = 6.00235 6.02890 6.01564
#
# Compressibility (1/GPa) = 0.01560223
#
# Stress axis : x y z
#
# Youngs Moduli (GPa) = 110.27741 116.72990 141.88531
#
# Poissons Ratio (x) = 0.25250 -0.05248
# Poissons Ratio (y) = 0.23855 0.38976
# Poissons Ratio (z) = -0.04079 0.32066
#
# Static dielectric constant tensor:
#      x y z
#    x 2.066060 0.000000 0.000000 
#    y 0.000000 2.050030 0.000000 
#    z 0.000000 0.000000 2.077950 
# 
# From -- ./inp_files/6747.got.cif
#   From: 2010.05.17/outbox.cif.g08.bks.cpg/sg39_4_cif.got.tgz:6747.got - 2010.06.03 18:22:40.
