data_PCOD9361329
_publ_section_title
;
Structure prediction by ZEFSAII (Michael W. Deem and Ramdas Pophale) SiO2 
 PCOD9361329
Probable space group: A B M 2
;
_chemical_formula_sum "Si O2"
_cell_formula_units_Z 64
_cell_length_a 9.886801
_cell_length_b 23.670382
_cell_length_c 13.760737
_cell_angle_alpha 90.000000
_cell_angle_beta 90.000000
_cell_angle_gamma 90.000000
_cell_volume 3220.347620
_symmetry_space_group_name_H-M "A B M 2"
_symmetry_group_IT_number 39
_symmetry_cell_setting 'orthorhombic'
loop_
_space_group_symop_operation_xyz
x,y,z
-x,-y,z
-x,1/2+y,z
x,1/2-y,z
x,1/2+y,1/2+z
-x,1/2-y,1/2+z
-x,y,1/2+z
x,-y,1/2+z
loop_
_atom_site_type_symbol
_atom_site_label
_atom_site_fract_x
_atom_site_fract_y
_atom_site_fract_z
Si Si1 0.078655 0.866532 0.108490
Si Si2 0.261807 0.077810 0.304161
Si Si3 0.829476 0.961009 0.756777
Si Si4 0.622653 0.314753 0.492311
Si Si5 0.186345 0.684872 0.679002
Si Si6 0.974660 0.559706 0.441088
Si Si7 0.631287 0.185235 0.129722
Si Si8 0.429971 0.894089 0.310952
O O1 0.115408 0.922916 0.169594
O O2 0.221719 0.835797 0.096320
O O3 0.972194 0.826526 0.162097
O O4 0.005726 0.887720 0.010913
O O5 0.230053 0.138520 0.257620
O O6 0.422137 0.078467 0.319988
O O7 0.178383 0.067047 0.402748
O O8 0.196117 0.027528 0.238233
O O9 0.928290 0.946142 0.847304
O O10 0.682158 0.940448 0.788581
O O11 0.644498 0.250000 0.458020
O O12 0.730130 0.325309 0.579015
O O13 0.476241 0.318033 0.543257
O O14 0.618447 0.358757 0.404675
O O15 0.212167 0.750000 0.707314
O O16 0.000000 0.500000 0.493479
O O17 0.640021 0.250000 0.162047
O O18 0.576066 0.147731 0.218390
#
# Coordination Sequence:
#
# PCOD9361329 Si02
#       8
#     8   8   8   8   8   8   8   8
#     4  11  22  39  64  86 124 162 202 253 310 356
#     4  11  22  41  62  88 128 155 206 251 304 361
#     4  10  23  40  62  91 121 165 200 256 304 367
#     4  10  21  38  62  92 122 161 207 250 303 363
#     4  11  23  39  62  89 121 161 203 251 301 361
#     4  10  22  38  62  93 117 158 204 246 303 368
#     4  10  21  38  59  89 124 164 207 249 305 363
#     4  11  21  38  63  88 125 163 204 254 306 356
#
# _framework density 19.873629999999999
#
# number of rings (size 3 to 8) (size 9 to 14) (size 15 to 20)
#    0.000    1.500    2.500    2.625    1.750    0.500 
#    0.000    1.250    2.750    0.000    0.000    0.000 
#    0.000    0.000    0.000    0.000    0.000    0.000 
#
# Total GULP energy -178552.299044 kJ/mol
# GULP energy per Si atom -5579.759345 kJ/mol
# Density = 1.982840 g / cm^3
# Si number density = 19.873630 Si / 1000 Ang^3
#
#
#
# Elastic Constant Matrix: (Units=GPa)
#
#
# Indices 1 2 3 4 5 6 
#
# 1 117.2680 36.5176 11.0804 0.0000 0.0000 0.0000
# 2 36.5176 89.1678 20.6184 0.0000 0.0000 0.0000
# 3 11.0804 20.6184 26.2458 0.0000 0.0000 0.0000
# 4 0.0000 0.0000 0.0000 25.5520 0.0000 0.0000
# 5 0.0000 0.0000 0.0000 0.0000 18.0121 0.0000
# 6 0.0000 0.0000 0.0000 0.0000 0.0000 26.0553
#
#
#
# Elastic Compliance Matrix: (Units=1/GPa)
#
#
# Indices 1 2 3 4 5 6 
#
# 1 0.009805 -0.003737 -0.001204 0.000000 0.000000 0.000000
# 2 -0.003737 0.015129 -0.010307 0.000000 0.000000 0.000000
# 3 -0.001204 -0.010307 0.046707 0.000000 0.000000 0.000000
# 4 0.000000 0.000000 0.000000 0.039136 0.000000 0.000000
# 5 0.000000 0.000000 0.000000 0.000000 0.055518 0.000000
# 6 0.000000 0.000000 0.000000 0.000000 0.000000 0.038380
#
#
# Mechanical properties :
#
#
# Convention : Reuss Voigt Hill
#
# Bulk Modulus (GPa) = 24.30462 41.01272 32.65867
# Shear Modulus (GPa) = 20.08960 24.88822 22.48891
#
# Velocity S-wave (km/s) = 3.18286 3.54266 3.36757
# Velocity P-wave (km/s) = 5.07579 6.11682 5.62046
#
# Compressibility (1/GPa) = 0.04114445
#
# Stress axis : x y z
#
# Youngs Moduli (GPa) = 101.98908 66.09960 21.41025
#
# Poissons Ratio (x) = 0.24703 0.02577
# Poissons Ratio (y) = 0.38115 0.22068
# Poissons Ratio (z) = 0.12275 0.68130
#
# Static dielectric constant tensor:
#      x y z
#    x 1.696710 0.000000 0.000000 
#    y 0.000000 1.713390 0.000000 
#    z 0.000000 0.000000 1.702740 
# 
# From -- ./inp_files/8759.got.cif
#   From: 2010.05.17/outbox.cif.g08.bks.cpg/sg39_5_cif.got.tgz:8759.got - 2010.06.03 18:22:40.
