data_PCOD9361395
_publ_section_title
;
Structure prediction by ZEFSAII (Michael W. Deem and Ramdas Pophale) SiO2 
 PCOD9361395
Probable space group: A B M 2
;
_chemical_formula_sum "Si O2"
_cell_formula_units_Z 48
_cell_length_a 5.090828
_cell_length_b 27.100835
_cell_length_c 14.631609
_cell_angle_alpha 90.000000
_cell_angle_beta 90.000000
_cell_angle_gamma 90.000000
_cell_volume 2018.660026
_symmetry_space_group_name_H-M "A B M 2"
_symmetry_group_IT_number 39
_symmetry_cell_setting 'orthorhombic'
loop_
_space_group_symop_operation_xyz
x,y,z
-x,-y,z
-x,1/2+y,z
x,1/2-y,z
x,1/2+y,1/2+z
-x,1/2-y,1/2+z
-x,y,1/2+z
x,-y,1/2+z
loop_
_atom_site_type_symbol
_atom_site_label
_atom_site_fract_x
_atom_site_fract_y
_atom_site_fract_z
Si Si1 0.742742 0.966930 0.011950
Si Si2 0.524355 0.399721 0.154420
Si Si3 0.940172 0.194738 0.300658
Si Si4 0.895749 0.384101 0.002149
Si Si5 0.161259 0.306121 0.104378
Si Si6 0.449703 0.132387 0.346542
O O1 0.634145 0.943093 0.105287
O O2 0.500000 0.000000 0.973924
O O3 0.000000 0.000000 0.026801
O O4 0.884497 0.920347 0.961440
O O5 0.383530 0.346874 0.129939
O O6 0.522857 0.403692 0.263466
O O7 0.806310 0.399684 0.104673
O O8 0.993816 0.250000 0.332746
O O9 0.666952 0.174675 0.338195
O O10 0.960250 0.196061 0.190093
O O11 0.169149 0.157314 0.325520
O O12 0.627812 0.388057 0.945313
O O13 0.011450 0.329646 0.018001
O O14 0.258266 0.250000 0.090373
#
# Coordination Sequence:
#
# PCOD9361395 Si02
#       6
#     8   8   8   8   8   8
#     4  11  23  43  75  97 127 172 217 279 352 416
#     4  10  22  43  66  96 132 179 225 275 343 399
#     4  10  21  39  59  88 131 182 233 280 327 383
#     4  11  23  41  67 101 135 181 227 278 348 406
#     4   9  20  37  61  94 135 183 234 282 332 398
#     4  11  24  39  64  93 136 176 223 281 333 399
#
# _framework density 23.778147000000001
#
# number of rings (size 3 to 8) (size 9 to 14) (size 15 to 20)
#    0.000    1.667    3.333    0.500    4.667    2.667 
#    0.000    0.833    3.667    0.000    0.000    0.000 
#    0.000    0.000    0.000    0.000    0.000    0.000 
#
# Total GULP energy -133975.344896 kJ/mol
# GULP energy per Si atom -5582.306037 kJ/mol
# Density = 2.372403 g / cm^3
# Si number density = 23.778147 Si / 1000 Ang^3
#
#
#
# Elastic Constant Matrix: (Units=GPa)
#
#
# Indices 1 2 3 4 5 6 
#
# 1 104.1692 30.9908 5.4249 0.0000 0.0000 0.0000
# 2 30.9908 104.9862 2.1758 0.0000 0.0000 0.0000
# 3 5.4249 2.1758 72.4946 0.0000 0.0000 0.0000
# 4 0.0000 0.0000 0.0000 18.8326 0.0000 0.0000
# 5 0.0000 0.0000 0.0000 0.0000 39.2406 0.0000
# 6 0.0000 0.0000 0.0000 0.0000 0.0000 40.6851
#
#
#
# Elastic Compliance Matrix: (Units=1/GPa)
#
#
# Indices 1 2 3 4 5 6 
#
# 1 0.010559 -0.003102 -0.000697 0.000000 0.000000 0.000000
# 2 -0.003102 0.010443 -0.000081 0.000000 0.000000 0.000000
# 3 -0.000697 -0.000081 0.013849 0.000000 0.000000 0.000000
# 4 0.000000 0.000000 0.000000 0.053099 0.000000 0.000000
# 5 0.000000 0.000000 0.000000 0.000000 0.025484 0.000000
# 6 0.000000 0.000000 0.000000 0.000000 0.000000 0.024579
#
#
# Mechanical properties :
#
#
# Convention : Reuss Voigt Hill
#
# Bulk Modulus (GPa) = 36.91558 39.87033 38.39295
# Shear Modulus (GPa) = 32.29896 35.95555 34.12726
#
# Velocity S-wave (km/s) = 3.68957 3.89282 3.79256
# Velocity P-wave (km/s) = 5.80597 6.08354 5.94638
#
# Compressibility (1/GPa) = 0.02708883
#
# Stress axis : x y z
#
# Youngs Moduli (GPa) = 94.70530 95.76190 72.20874
#
# Poissons Ratio (x) = 0.29710 0.05033
# Poissons Ratio (y) = 0.29382 0.00587
# Poissons Ratio (z) = 0.06601 0.00778
#
# Static dielectric constant tensor:
#      x y z
#    x 1.896030 0.000000 0.000000 
#    y 0.000000 1.984490 0.000000 
#    z 0.000000 0.000000 2.055840 
# 
# From -- ./inp_files/11094.got.cif
#   From: 2010.05.17/outbox.cif.g08.bks.cpg/sg39_6_cif.got.tgz:11094.got - 2010.06.03 18:22:40.
