data_PCOD9361428
_publ_section_title
;
Structure prediction by ZEFSAII (Michael W. Deem and Ramdas Pophale) SiO2 
 PCOD9361428
Probable space group: A B M 2
;
_chemical_formula_sum "Si O2"
_cell_formula_units_Z 48
_cell_length_a 16.561390
_cell_length_b 16.245898
_cell_length_c 9.644436
_cell_angle_alpha 90.000000
_cell_angle_beta 90.000000
_cell_angle_gamma 90.000000
_cell_volume 2594.880378
_symmetry_space_group_name_H-M "A B M 2"
_symmetry_group_IT_number 39
_symmetry_cell_setting 'orthorhombic'
loop_
_space_group_symop_operation_xyz
x,y,z
-x,-y,z
-x,1/2+y,z
x,1/2-y,z
x,1/2+y,1/2+z
-x,1/2-y,1/2+z
-x,y,1/2+z
x,-y,1/2+z
loop_
_atom_site_type_symbol
_atom_site_label
_atom_site_fract_x
_atom_site_fract_y
_atom_site_fract_z
Si Si1 0.041327 0.587400 0.117930
Si Si2 0.573381 0.345293 0.635907
Si Si3 0.906073 0.655030 0.915003
Si Si4 0.808690 0.508081 0.464102
Si Si5 0.445266 0.920455 0.338789
Si Si6 0.299595 0.980758 0.715337
O O1 0.065464 0.634053 0.258247
O O2 0.118727 0.562252 0.025475
O O3 0.000000 0.500000 0.158220
O O4 0.979215 0.637330 0.021855
O O5 0.587194 0.250000 0.660053
O O6 0.563600 0.365151 0.473948
O O7 0.493662 0.375119 0.717102
O O8 0.646963 0.400209 0.691653
O O9 0.880211 0.750000 0.924568
O O10 0.839221 0.586231 0.951794
O O11 0.734498 0.512285 0.570070
O O12 0.776701 0.534613 0.314379
O O13 0.500000 0.000000 0.377476
O O14 0.359443 0.953233 0.285097
#
# Coordination Sequence:
#
# PCOD9361428 Si02
#       6
#     8   8   8   8   8   8
#     4  10  21  39  63  87 115 161 200 238 287 362
#     4  11  23  39  61  90 121 152 197 249 296 341
#     4  11  23  39  61  90 121 153 197 249 296 341
#     4  11  22  40  64  87 116 158 203 239 288 361
#     4  10  21  39  63  87 115 161 199 237 285 362
#     4  11  22  40  64  87 116 159 202 238 290 359
#
# _framework density 18.497962000000001
#
# number of rings (size 3 to 8) (size 9 to 14) (size 15 to 20)
#    0.000    1.333    3.333    4.000    4.667    0.667 
#    0.000    1.667    0.000    0.000    0.000    0.000 
#    0.000    0.000    0.000    0.000    0.000    0.000 
#
# Total GULP energy -134095.488852 kJ/mol
# GULP energy per Si atom -5587.312035 kJ/mol
# Density = 1.845586 g / cm^3
# Si number density = 18.497962 Si / 1000 Ang^3
#
#
#
# Elastic Constant Matrix: (Units=GPa)
#
#
# Indices 1 2 3 4 5 6 
#
# 1 53.9438 9.3278 3.4940 0.0000 0.0000 0.0000
# 2 9.3278 39.4805 14.9753 0.0000 0.0000 0.0000
# 3 3.4940 14.9753 68.0494 0.0000 0.0000 0.0000
# 4 0.0000 0.0000 0.0000 -28.1406 0.0000 0.0000
# 5 0.0000 0.0000 0.0000 0.0000 34.0323 0.0000
# 6 0.0000 0.0000 0.0000 0.0000 0.0000 3.2615
#
#
#
# Elastic Compliance Matrix: (Units=1/GPa)
#
#
# Indices 1 2 3 4 5 6 
#
# 1 0.019327 -0.004572 0.000014 0.000000 0.000000 0.000000
# 2 -0.004572 0.028717 -0.006085 0.000000 0.000000 0.000000
# 3 0.000014 -0.006085 0.016034 0.000000 0.000000 0.000000
# 4 0.000000 0.000000 0.000000 -0.035536 0.000000 0.000000
# 5 0.000000 0.000000 0.000000 0.000000 0.029384 0.000000
# 6 0.000000 0.000000 0.000000 0.000000 0.000000 0.306608
#
#
# Mechanical properties :
#
#
# Convention : Reuss Voigt Hill
#
# Bulk Modulus (GPa) = 23.36856 24.11867 23.74361
# Shear Modulus (GPa) = 12.49737 10.74241 11.61989
#
# Velocity S-wave (km/s) = 2.60207 2.41246 2.50905
# Velocity P-wave (km/s) = 4.65705 4.56364 4.61058
#
# Compressibility (1/GPa) = 0.04279253
#
# Stress axis : x y z
#
# Youngs Moduli (GPa) = 51.73998 34.82240 62.36909
#
# Poissons Ratio (x) = 0.15919 -0.00085
# Poissons Ratio (y) = 0.23653 0.37951
# Poissons Ratio (z) = -0.00071 0.21189
#
# Static dielectric constant tensor:
#      x y z
#    x 1.637530 0.000000 0.000000 
#    y 0.000000 1.602810 0.000000 
#    z 0.000000 0.000000 1.636880 
# 
# From -- ./inp_files/3239.got.cif
#   From: 2010.05.17/outbox.cif.g08.bks.cpg/sg39_2_cif.got.tgz:3239.got - 2010.06.03 18:22:40.
