data_PCOD9361032
_publ_section_title
;
Structure prediction by ZEFSAII (Michael W. Deem and Ramdas Pophale) SiO2 
 PCOD9361032
Probable space group: A B M 2
;
_chemical_formula_sum "Si O2"
_cell_formula_units_Z 40
_cell_length_a 9.423054
_cell_length_b 17.908820
_cell_length_c 9.340552
_cell_angle_alpha 90.000000
_cell_angle_beta 90.000000
_cell_angle_gamma 90.000000
_cell_volume 1576.272119
_symmetry_space_group_name_H-M "A B M 2"
_symmetry_group_IT_number 39
_symmetry_cell_setting 'orthorhombic'
loop_
_space_group_symop_operation_xyz
x,y,z
-x,-y,z
-x,1/2+y,z
x,1/2-y,z
x,1/2+y,1/2+z
-x,1/2-y,1/2+z
-x,y,1/2+z
x,-y,1/2+z
loop_
_atom_site_type_symbol
_atom_site_label
_atom_site_fract_x
_atom_site_fract_y
_atom_site_fract_z
Si Si1 0.079114 0.927122 0.028760
Si Si2 0.249998 0.393826 0.787682
Si Si3 0.420884 0.072878 0.046604
Si Si4 0.551505 0.164503 0.806433
Si Si5 0.948492 0.164503 0.768930
O O1 0.196933 0.941315 0.151362
O O2 0.962918 0.880768 0.122016
O O3 0.131853 0.876900 0.897653
O O4 0.000000 0.000000 0.972006
O O5 0.303063 0.441314 0.924004
O O6 0.385814 0.342734 0.755499
O O7 0.114184 0.342732 0.819863
O O8 0.537080 0.119232 0.953347
O O9 0.368147 0.123099 0.177712
O O10 0.500000 0.000000 0.103356
O O11 0.590770 0.250000 0.825276
O O12 0.909226 0.250000 0.750088
#
# Coordination Sequence:
#
# PCOD9361032 Si02
#       5
#     8   8   8   8   8
#     4  10  21  39  60  86 117 154 194 240 288 343
#     4   8  23  38  62  80 127 148 190 238 307 320
#     4  10  21  39  60  86 117 154 194 240 288 343
#     4  10  20  38  61  85 116 155 193 237 289 345
#     4  10  20  38  61  85 116 155 193 237 289 345
#
# _framework density 25.376329999999999
#
# number of rings (size 3 to 8) (size 9 to 14) (size 15 to 20)
#    2.400    0.000    0.000    3.000    0.000    1.600 
#    0.000    0.000    0.000    4.800    0.000    0.000 
#    0.000    0.000    0.000    0.000    0.000    0.000 
#
# Total GULP energy -111644.763453 kJ/mol
# GULP energy per Si atom -5582.238173 kJ/mol
# Density = 2.531857 g / cm^3
# Si number density = 25.376330 Si / 1000 Ang^3
#
#
#
# Elastic Constant Matrix: (Units=GPa)
#
#
# Indices 1 2 3 4 5 6 
#
# 1 88.2889 -19.2912 -6.0560 0.0000 0.0000 0.0000
# 2 -19.2912 132.6912 26.7682 0.0000 0.0000 0.0000
# 3 -6.0560 26.7682 131.9861 0.0000 0.0000 0.0000
# 4 0.0000 0.0000 0.0000 33.3509 0.0000 0.0000
# 5 0.0000 0.0000 0.0000 0.0000 55.4729 0.0000
# 6 0.0000 0.0000 0.0000 0.0000 0.0000 2.1765
#
#
#
# Elastic Compliance Matrix: (Units=1/GPa)
#
#
# Indices 1 2 3 4 5 6 
#
# 1 0.011703 0.001661 0.000200 0.000000 0.000000 0.000000
# 2 0.001661 0.008094 -0.001565 0.000000 0.000000 0.000000
# 3 0.000200 -0.001565 0.007903 0.000000 0.000000 0.000000
# 4 0.000000 0.000000 0.000000 0.029984 0.000000 0.000000
# 5 0.000000 0.000000 0.000000 0.000000 0.018027 0.000000
# 6 0.000000 0.000000 0.000000 0.000000 0.000000 0.459456
#
#
# Mechanical properties :
#
#
# Convention : Reuss Voigt Hill
#
# Bulk Modulus (GPa) = 35.34602 39.53425 37.44013
# Shear Modulus (GPa) = 9.19109 41.63639 25.41374
#
# Velocity S-wave (km/s) = 1.90520 4.05502 3.16804
# Velocity P-wave (km/s) = 4.33574 6.12677 5.30735
#
# Compressibility (1/GPa) = 0.02829173
#
# Stress axis : x y z
#
# Youngs Moduli (GPa) = 85.44729 123.55509 126.53122
#
# Poissons Ratio (x) = -0.20524 -0.02532
# Poissons Ratio (y) = -0.14194 0.19805
# Poissons Ratio (z) = -0.01710 0.19339
#
# Static dielectric constant tensor:
#      x y z
#    x 2.125080 0.000000 0.000000 
#    y 0.000000 1.921240 0.000000 
#    z 0.000000 0.000000 1.943340 
# 
# From -- ./inp_files/3070.got.cif
#   From: 2010.05.17/outbox.cif.g08.bks.cpg/sg39_2_cif.got.tgz:3070.got - 2010.06.03 18:22:40.
