data_PCOD9361698
_publ_section_title
;
Structure prediction by ZEFSAII (Michael W. Deem and Ramdas Pophale) SiO2 
 PCOD9361698
Probable space group: A B M 2
;
_chemical_formula_sum "Si O2"
_cell_formula_units_Z 40
_cell_length_a 7.587269
_cell_length_b 9.703891
_cell_length_c 25.169081
_cell_angle_alpha 90.000000
_cell_angle_beta 90.000000
_cell_angle_gamma 90.000000
_cell_volume 1853.099547
_symmetry_space_group_name_H-M "A B M 2"
_symmetry_group_IT_number 39
_symmetry_cell_setting 'orthorhombic'
loop_
_space_group_symop_operation_xyz
x,y,z
-x,-y,z
-x,1/2+y,z
x,1/2-y,z
x,1/2+y,1/2+z
-x,1/2-y,1/2+z
-x,y,1/2+z
x,-y,1/2+z
loop_
_atom_site_type_symbol
_atom_site_label
_atom_site_fract_x
_atom_site_fract_y
_atom_site_fract_z
Si Si1 0.234038 0.750000 0.971241
Si Si2 0.173852 0.090090 0.800968
Si Si3 0.979590 0.250000 0.569228
Si Si4 0.703601 0.025805 0.415656
Si Si5 0.000000 0.500000 0.643716
Si Si6 0.354332 0.250000 0.003177
Si Si7 0.339133 0.416243 0.212260
O O1 0.217495 0.618513 0.933461
O O2 0.429540 0.750000 0.000362
O O3 0.081477 0.750000 0.014042
O O4 0.162603 0.250000 0.782473
O O5 0.211799 0.089705 0.863624
O O6 0.312128 0.999758 0.767474
O O7 0.000000 0.000000 0.793125
O O8 0.042515 0.122503 0.603923
O O9 0.767808 0.250000 0.555969
O O10 0.702872 0.120009 0.467737
O O11 0.500000 0.000000 0.401644
O O12 0.161806 0.552694 0.679290
O O13 0.500000 0.500000 0.185462
O O14 0.364887 0.250000 0.217688
#
# Coordination Sequence:
#
# PCOD9361698 Si02
#       7
#     4   8   4   8   4   4   8
#     4  10  24  40  69 101 140 187 241 292 351 426
#     4  12  26  42  70 107 149 190 239 291 355 437
#     4  12  26  44  74  98 138 190 238 306 366 420
#     4  10  22  40  64  99 146 187 231 284 348 426
#     4  12  28  50  72 106 146 180 248 310 368 434
#     4  10  22  44  63  99 142 183 239 292 345 422
#     4  12  28  50  80 109 146 190 239 298 371 440
#
# _framework density 21.585457000000002
#
# number of rings (size 3 to 8) (size 9 to 14) (size 15 to 20)
#    0.000    0.800    3.000    3.000    8.400    1.600 
#    0.000    0.000    0.000    0.000    0.000    0.000 
#    0.000    0.000    0.000    0.000    0.000    0.000 
#
# Total GULP energy -111715.648037 kJ/mol
# GULP energy per Si atom -5585.782402 kJ/mol
# Density = 2.153633 g / cm^3
# Si number density = 21.585457 Si / 1000 Ang^3
#
#
#
# Elastic Constant Matrix: (Units=GPa)
#
#
# Indices 1 2 3 4 5 6 
#
# 1 87.6501 35.5137 19.7539 0.0000 0.0000 0.0000
# 2 35.5137 204.3598 23.5473 0.0000 0.0000 0.0000
# 3 19.7539 23.5473 55.3831 0.0000 0.0000 0.0000
# 4 0.0000 0.0000 0.0000 -32.4263 0.0000 0.0000
# 5 0.0000 0.0000 0.0000 0.0000 -19.9526 0.0000
# 6 0.0000 0.0000 0.0000 0.0000 0.0000 22.0947
#
#
#
# Elastic Compliance Matrix: (Units=1/GPa)
#
#
# Indices 1 2 3 4 5 6 
#
# 1 0.013017 -0.001816 -0.003871 0.000000 0.000000 0.000000
# 2 -0.001816 0.005399 -0.001648 0.000000 0.000000 0.000000
# 3 -0.003871 -0.001648 0.020137 0.000000 0.000000 0.000000
# 4 0.000000 0.000000 0.000000 -0.030839 0.000000 0.000000
# 5 0.000000 0.000000 0.000000 0.000000 -0.050119 0.000000
# 6 0.000000 0.000000 0.000000 0.000000 0.000000 0.045260
#
#
# Mechanical properties :
#
#
# Convention : Reuss Voigt Hill
#
# Bulk Modulus (GPa) = 41.86886 56.11365 48.99125
# Shear Modulus (GPa) = 196.19157 11.84838 104.01998
#
# Velocity S-wave (km/s) = 9.54400 2.34542 6.94942
# Velocity P-wave (km/s) = 11.86969 5.77816 9.33479
#
# Compressibility (1/GPa) = 0.02388410
#
# Stress axis : x y z
#
# Youngs Moduli (GPa) = 76.82128 185.22687 49.65939
#
# Poissons Ratio (x) = 0.33640 0.19222
# Poissons Ratio (y) = 0.13952 0.08182
# Poissons Ratio (z) = 0.29736 0.30519
#
# Static dielectric constant tensor:
#      x y z
#    x 1.909780 0.000000 0.000000 
#    y 0.000000 1.790970 0.000000 
#    z 0.000000 0.000000 1.771600 
# 
# From -- ./inp_files/15481.got.cif
#   From: 2010.05.17/outbox.cif.g08.bks.cpg/sg39_8_cif.got.tgz:15481.got - 2010.06.03 18:22:40.
