data_PCOD9361016
_publ_section_title
;
Structure prediction by ZEFSAII (Michael W. Deem and Ramdas Pophale) SiO2 
 PCOD9361016
Probable space group: A B M 2
;
_chemical_formula_sum "Si O2"
_cell_formula_units_Z 44
_cell_length_a 16.411211
_cell_length_b 9.227059
_cell_length_c 14.962085
_cell_angle_alpha 90.000000
_cell_angle_beta 90.000000
_cell_angle_gamma 90.000000
_cell_volume 2265.666820
_symmetry_space_group_name_H-M "A B M 2"
_symmetry_group_IT_number 39
_symmetry_cell_setting 'orthorhombic'
loop_
_space_group_symop_operation_xyz
x,y,z
-x,-y,z
-x,1/2+y,z
x,1/2-y,z
x,1/2+y,1/2+z
-x,1/2-y,1/2+z
-x,y,1/2+z
x,-y,1/2+z
loop_
_atom_site_type_symbol
_atom_site_label
_atom_site_fract_x
_atom_site_fract_y
_atom_site_fract_z
Si Si1 0.288649 0.075947 0.990060
Si Si2 0.586322 0.424856 0.856294
Si Si3 0.000000 0.500000 0.092085
Si Si4 0.872834 0.921915 0.246678
Si Si5 0.304997 0.074853 0.194119
Si Si6 0.124660 0.585608 0.946789
O O1 0.293925 0.250000 0.977708
O O2 0.346838 0.989566 0.923458
O O3 0.314208 0.037598 0.090994
O O4 0.196119 0.022163 0.976700
O O5 0.500000 0.500000 0.872272
O O6 0.581037 0.250000 0.863783
O O7 0.621335 0.465768 0.758478
O O8 0.931784 0.551189 0.163083
O O9 0.946464 0.410623 0.020376
O O10 0.865286 0.750000 0.249712
O O11 0.782219 0.983365 0.229329
O O12 0.901766 0.963055 0.346621
O O13 0.300244 0.250000 0.198135
O O14 0.158155 0.750000 0.940104
#
# Coordination Sequence:
#
# PCOD9361016 Si02
#       6
#     8   8   4   8   8   8
#     4  11  22  40  66  94 125 166 209 254 309 373
#     4  11  23  43  68  96 127 162 204 255 311 374
#     4  12  22  36  60  92 122 162 218 268 308 370
#     4  10  20  38  58  83 123 166 205 254 316 370
#     4   9  19  38  64  87 121 167 205 249 313 370
#     4  11  23  39  61  89 124 166 211 262 318 372
#
# _framework density 19.420331000000001
#
# number of rings (size 3 to 8) (size 9 to 14) (size 15 to 20)
#    0.000    1.455    3.636    2.182    0.000    1.455 
#    0.000    9.091    0.000    0.000    0.000    0.000 
#    0.000    0.000    0.000    0.000    0.000    0.000 
#
# Total GULP energy -122594.071502 kJ/mol
# GULP energy per Si atom -5572.457796 kJ/mol
# Density = 1.937613 g / cm^3
# Si number density = 19.420331 Si / 1000 Ang^3
#
#
#
# Elastic Constant Matrix: (Units=GPa)
#
#
# Indices 1 2 3 4 5 6 
#
# 1 79.0490 31.1508 21.6686 0.0000 0.0000 0.0000
# 2 31.1508 67.1141 33.3933 0.0000 0.0000 0.0000
# 3 21.6686 33.3933 136.9246 0.0000 0.0000 0.0000
# 4 0.0000 0.0000 0.0000 17.7906 0.0000 0.0000
# 5 0.0000 0.0000 0.0000 0.0000 27.7144 0.0000
# 6 0.0000 0.0000 0.0000 0.0000 0.0000 10.3707
#
#
#
# Elastic Compliance Matrix: (Units=1/GPa)
#
#
# Indices 1 2 3 4 5 6 
#
# 1 0.015558 -0.006824 -0.000798 0.000000 0.000000 0.000000
# 2 -0.006824 0.019951 -0.003786 0.000000 0.000000 0.000000
# 3 -0.000798 -0.003786 0.008353 0.000000 0.000000 0.000000
# 4 0.000000 0.000000 0.000000 0.056210 0.000000 0.000000
# 5 0.000000 0.000000 0.000000 0.000000 0.036082 0.000000
# 6 0.000000 0.000000 0.000000 0.000000 0.000000 0.096426
#
#
# Mechanical properties :
#
#
# Convention : Reuss Voigt Hill
#
# Bulk Modulus (GPa) = 47.51396 50.61256 49.06326
# Shear Modulus (GPa) = 19.05408 24.30014 21.67711
#
# Velocity S-wave (km/s) = 3.13571 3.54117 3.34459
# Velocity P-wave (km/s) = 6.13429 6.54508 6.34301
#
# Compressibility (1/GPa) = 0.02104645
#
# Stress axis : x y z
#
# Youngs Moduli (GPa) = 64.27415 50.12245 119.72017
#
# Poissons Ratio (x) = 0.34206 0.09551
# Poissons Ratio (y) = 0.43863 0.45323
# Poissons Ratio (z) = 0.05128 0.18975
#
# Static dielectric constant tensor:
#      x y z
#    x 1.676390 0.000000 0.000000 
#    y 0.000000 1.677330 0.000000 
#    z 0.000000 0.000000 1.702170 
# 
# From -- ./inp_files/10004.got.cif
#   From: 2010.05.17/outbox.cif.g08.bks.cpg/sg39_6_cif.got.tgz:10004.got - 2010.06.03 18:22:40.
