data_PCOD9361501
_publ_section_title
;
Structure prediction by ZEFSAII (Michael W. Deem and Ramdas Pophale) SiO2 
 PCOD9361501
Probable space group: A B M 2
;
_chemical_formula_sum "Si O2"
_cell_formula_units_Z 60
_cell_length_a 15.984351
_cell_length_b 14.280503
_cell_length_c 12.801397
_cell_angle_alpha 90.000000
_cell_angle_beta 90.000000
_cell_angle_gamma 90.000000
_cell_volume 2922.105412
_symmetry_space_group_name_H-M "A B M 2"
_symmetry_group_IT_number 39
_symmetry_cell_setting 'orthorhombic'
loop_
_space_group_symop_operation_xyz
x,y,z
-x,-y,z
-x,1/2+y,z
x,1/2-y,z
x,1/2+y,1/2+z
-x,1/2-y,1/2+z
-x,y,1/2+z
x,-y,1/2+z
loop_
_atom_site_type_symbol
_atom_site_label
_atom_site_fract_x
_atom_site_fract_y
_atom_site_fract_z
Si Si1 0.000000 0.000000 0.761190
Si Si2 0.391142 0.990576 0.042101
Si Si3 0.035041 0.355617 0.576853
Si Si4 0.206193 0.549581 0.063517
Si Si5 0.475348 0.638785 0.658034
Si Si6 0.888932 0.585310 0.925971
Si Si7 0.577950 0.141797 0.364390
Si Si8 0.238792 0.649142 0.264883
O O1 0.009580 0.084280 0.678640
O O2 0.077116 0.009079 0.841948
O O3 0.396711 0.071234 0.132890
O O4 0.300400 0.946794 0.020455
O O5 0.451856 0.908031 0.084520
O O6 0.418478 0.055630 0.944607
O O7 0.031680 0.250000 0.609829
O O8 0.128948 0.380873 0.540244
O O9 0.969996 0.373412 0.483028
O O10 0.219713 0.565677 0.186021
O O11 0.167480 0.454775 0.019241
O O12 0.464099 0.750000 0.639896
O O13 0.507726 0.628203 0.776232
O O14 0.828564 0.648376 0.856832
O O15 0.568356 0.250000 0.405993
O O16 0.668259 0.140754 0.308737
O O17 0.233826 0.750000 0.208519
#
# Coordination Sequence:
#
# PCOD9361501 Si02
#       8
#     4   8   8   8   8   8   8   8
#     4  12  22  42  62  92 130 170 220 266 332 380
#     4  11  23  39  68  98 130 172 212 276 336 386
#     4  12  25  41  65  97 135 176 223 277 332 391
#     4  12  22  39  61  97 131 166 222 272 326 388
#     4  10  23  43  66  97 132 168 218 271 326 400
#     4  12  22  42  63  92 132 178 221 278 324 391
#     4  10  21  40  66  97 130 170 219 264 326 406
#     4  11  22  38  65  93 124 172 222 265 321 398
#
# _framework density 20.533138999999998
#
# number of rings (size 3 to 8) (size 9 to 14) (size 15 to 20)
#    0.000    0.800    6.667    1.200    0.000    3.200 
#    0.000    0.000    0.000    0.800    0.000    0.000 
#    0.000    0.000    0.000    0.000    0.000    0.000 
#
# Total GULP energy -167094.952958 kJ/mol
# GULP energy per Si atom -5569.831765 kJ/mol
# Density = 2.048640 g / cm^3
# Si number density = 20.533139 Si / 1000 Ang^3
#
#
#
# Elastic Constant Matrix: (Units=GPa)
#
#
# Indices 1 2 3 4 5 6 
#
# 1 68.0317 11.9783 18.5611 0.0000 0.0000 0.0000
# 2 11.9783 97.1264 30.3644 0.0000 0.0000 0.0000
# 3 18.5611 30.3644 88.3298 0.0000 0.0000 0.0000
# 4 0.0000 0.0000 0.0000 -6.1364 0.0000 0.0000
# 5 0.0000 0.0000 0.0000 0.0000 33.6486 0.0000
# 6 0.0000 0.0000 0.0000 0.0000 0.0000 38.6677
#
#
#
# Elastic Compliance Matrix: (Units=1/GPa)
#
#
# Indices 1 2 3 4 5 6 
#
# 1 0.015681 -0.001013 -0.002947 0.000000 0.000000 0.000000
# 2 -0.001013 0.011601 -0.003775 0.000000 0.000000 0.000000
# 3 -0.002947 -0.003775 0.013238 0.000000 0.000000 0.000000
# 4 0.000000 0.000000 0.000000 -0.162962 0.000000 0.000000
# 5 0.000000 0.000000 0.000000 0.000000 0.029719 0.000000
# 6 0.000000 0.000000 0.000000 0.000000 0.000000 0.025861
#
#
# Mechanical properties :
#
#
# Convention : Reuss Voigt Hill
#
# Bulk Modulus (GPa) = 39.91884 41.69952 40.80918
# Shear Modulus (GPa) = -116.16693 26.07492 -45.04601
#
# Velocity S-wave (km/s) = -7.52982 3.56742 -4.68890
# Velocity P-wave (km/s) = 7.49094 6.10911 3.06537
#
# Compressibility (1/GPa) = 0.02505083
#
# Stress axis : x y z
#
# Youngs Moduli (GPa) = 63.76993 86.19964 75.53858
#
# Poissons Ratio (x) = 0.08729 0.22262
# Poissons Ratio (y) = 0.06457 0.28517
# Poissons Ratio (z) = 0.18794 0.32542
#
# Static dielectric constant tensor:
#      x y z
#    x 1.801660 0.000000 0.000000 
#    y 0.000000 1.612780 0.000000 
#    z 0.000000 0.000000 1.765890 
# 
# From -- ./inp_files/6851.got.cif
#   From: 2010.05.17/outbox.cif.g08.bks.cpg/sg39_4_cif.got.tgz:6851.got - 2010.06.03 18:22:40.
