data_PCOD9361868
_publ_section_title
;
Structure prediction by ZEFSAII (Michael W. Deem and Ramdas Pophale) SiO2 
 PCOD9361868
Probable space group: A B M 2
;
_chemical_formula_sum "Si O2"
_cell_formula_units_Z 48
_cell_length_a 11.428935
_cell_length_b 16.513452
_cell_length_c 12.120468
_cell_angle_alpha 90.000000
_cell_angle_beta 90.000000
_cell_angle_gamma 90.000000
_cell_volume 2287.510101
_symmetry_space_group_name_H-M "A B M 2"
_symmetry_group_IT_number 39
_symmetry_cell_setting 'orthorhombic'
loop_
_space_group_symop_operation_xyz
x,y,z
-x,-y,z
-x,1/2+y,z
x,1/2-y,z
x,1/2+y,1/2+z
-x,1/2-y,1/2+z
-x,y,1/2+z
x,-y,1/2+z
loop_
_atom_site_type_symbol
_atom_site_label
_atom_site_fract_x
_atom_site_fract_y
_atom_site_fract_z
Si Si1 0.320953 0.343483 0.824800
Si Si2 0.730940 0.406469 0.082985
Si Si3 0.226081 0.655569 0.759412
Si Si4 0.440472 0.912065 0.886007
Si Si5 0.823486 0.915228 0.026770
Si Si6 0.058355 0.657644 0.953155
O O1 0.284869 0.250000 0.817888
O O2 0.297078 0.386556 0.708469
O O3 0.457434 0.350261 0.855327
O O4 0.251716 0.388162 0.921846
O O5 0.784814 0.495380 0.062872
O O6 0.615555 0.399735 0.006776
O O7 0.830431 0.347644 0.034261
O O8 0.253844 0.750000 0.781072
O O9 0.332249 0.600742 0.803064
O O10 0.202421 0.640982 0.631903
O O11 0.111841 0.636367 0.833411
O O12 0.500000 0.000000 0.878202
O O13 0.957591 0.902145 0.992615
O O14 0.013121 0.750000 0.950667
#
# Coordination Sequence:
#
# PCOD9361868 Si02
#       6
#     8   8   8   8   8   8
#     4  12  27  44  73 107 141 185 241 296 351 423
#     4  11  26  46  70 103 143 185 233 291 359 416
#     4  10  23  43  71 101 139 183 230 291 357 417
#     4  11  23  46  69  98 140 185 236 287 356 418
#     4  12  25  45  72 104 140 184 240 288 354 425
#     4  10  23  45  71 101 142 185 230 289 354 422
#
# _framework density 20.983515000000001
#
# number of rings (size 3 to 8) (size 9 to 14) (size 15 to 20)
#    0.000    1.000    1.667    4.000    7.000    2.667 
#    0.000    0.000    0.000    0.000    0.000    0.000 
#    0.000    0.000    0.000    0.000    0.000    0.000 
#
# Total GULP energy -134289.142687 kJ/mol
# GULP energy per Si atom -5595.380945 kJ/mol
# Density = 2.093576 g / cm^3
# Si number density = 20.983515 Si / 1000 Ang^3
#
#
#
# Elastic Constant Matrix: (Units=GPa)
#
#
# Indices 1 2 3 4 5 6 
#
# 1 91.0410 39.2481 63.7661 0.0000 0.0000 0.0000
# 2 39.2481 106.5311 43.4485 0.0000 0.0000 0.0000
# 3 63.7661 43.4485 166.1522 0.0000 0.0000 0.0000
# 4 0.0000 0.0000 0.0000 14.6762 0.0000 0.0000
# 5 0.0000 0.0000 0.0000 0.0000 12.7520 0.0000
# 6 0.0000 0.0000 0.0000 0.0000 0.0000 29.7492
#
#
#
# Elastic Compliance Matrix: (Units=1/GPa)
#
#
# Indices 1 2 3 4 5 6 
#
# 1 0.016336 -0.003875 -0.005256 0.000000 0.000000 0.000000
# 2 -0.003875 0.011427 -0.001501 0.000000 0.000000 0.000000
# 3 -0.005256 -0.001501 0.008428 0.000000 0.000000 0.000000
# 4 0.000000 0.000000 0.000000 0.068137 0.000000 0.000000
# 5 0.000000 0.000000 0.000000 0.000000 0.078419 0.000000
# 6 0.000000 0.000000 0.000000 0.000000 0.000000 0.033614
#
#
# Mechanical properties :
#
#
# Convention : Reuss Voigt Hill
#
# Bulk Modulus (GPa) = 66.99248 72.96106 69.97677
# Shear Modulus (GPa) = 20.60997 25.91961 23.26479
#
# Velocity S-wave (km/s) = 3.13740 3.51841 3.33335
# Velocity P-wave (km/s) = 6.71714 7.16601 6.94520
#
# Compressibility (1/GPa) = 0.01492705
#
# Stress axis : x y z
#
# Youngs Moduli (GPa) = 61.21463 87.51485 118.64771
#
# Poissons Ratio (x) = 0.33910 0.62364
# Poissons Ratio (y) = 0.23719 0.17809
# Poissons Ratio (z) = 0.32176 0.13136
#
# Static dielectric constant tensor:
#      x y z
#    x 1.742680 0.000000 0.000000 
#    y 0.000000 1.780950 0.000000 
#    z 0.000000 0.000000 1.716360 
# 
# From -- ./inp_files/5822.got.cif
#   From: 2010.05.17/outbox.cif.g08.bks.cpg/sg39_3_cif.got.tgz:5822.got - 2010.06.03 18:22:40.
