data_PCOD9361884
_publ_section_title
;
Structure prediction by ZEFSAII (Michael W. Deem and Ramdas Pophale) SiO2 
 PCOD9361884
Probable space group: A B M 2
;
_chemical_formula_sum "Si O2"
_cell_formula_units_Z 48
_cell_length_a 22.201392
_cell_length_b 10.876262
_cell_length_c 9.079597
_cell_angle_alpha 90.000000
_cell_angle_beta 90.000000
_cell_angle_gamma 90.000000
_cell_volume 2192.433546
_symmetry_space_group_name_H-M "A B M 2"
_symmetry_group_IT_number 39
_symmetry_cell_setting 'orthorhombic'
loop_
_space_group_symop_operation_xyz
x,y,z
-x,-y,z
-x,1/2+y,z
x,1/2-y,z
x,1/2+y,1/2+z
-x,1/2-y,1/2+z
-x,y,1/2+z
x,-y,1/2+z
loop_
_atom_site_type_symbol
_atom_site_label
_atom_site_fract_x
_atom_site_fract_y
_atom_site_fract_z
Si Si1 0.201522 0.392528 0.740500
Si Si2 0.072016 0.250000 0.107111
Si Si3 0.413891 0.750000 0.100137
Si Si4 0.377481 0.615186 0.554238
Si Si5 0.942172 0.750000 0.457319
Si Si6 0.133478 0.497302 0.499764
Si Si7 0.537956 0.250000 0.757669
Si Si8 0.664448 0.950264 0.761185
O O1 0.184815 0.250000 0.738208
O O2 0.194149 0.452166 0.580877
O O3 0.153711 0.466752 0.836819
O O4 0.269657 0.401921 0.796510
O O5 0.059196 0.250000 0.280640
O O6 0.106699 0.376324 0.065698
O O7 0.009384 0.250000 0.019171
O O8 0.467742 0.750000 0.221199
O O9 0.372050 0.634499 0.145191
O O10 0.440595 0.750000 0.930315
O O11 0.364942 0.750000 0.492299
O O12 0.435203 0.635322 0.660547
O O13 0.328001 0.575806 0.671946
O O14 0.375442 0.536257 0.407220
O O15 0.909787 0.622119 0.505976
#
# Coordination Sequence:
#
# PCOD9361884 Si02
#       8
#     8   4   4   8   4   8   4   8
#     4  12  25  45  71 104 141 190 235 301 351 424
#     4  12  28  47  75 106 142 191 233 299 348 423
#     4  12  22  42  72 101 137 189 233 293 374 425
#     4  10  23  45  63 103 134 178 234 294 351 434
#     4  12  28  47  73 111 141 188 240 293 352 423
#     4  12  26  47  73 105 148 183 243 289 361 421
#     4  10  24  42  66 106 140 176 244 299 356 443
#     4  12  23  44  73  97 143 185 237 291 361 425
#
# _framework density 21.89348
#
# number of rings (size 3 to 8) (size 9 to 14) (size 15 to 20)
#    0.500    0.000    5.000    3.500    2.333    2.000 
#    3.000    3.333    0.000    0.000    0.000    0.000 
#    0.000    0.000    0.000    0.000    0.000    0.000 
#
# Total GULP energy -133768.584689 kJ/mol
# GULP energy per Si atom -5573.691029 kJ/mol
# Density = 2.184365 g / cm^3
# Si number density = 21.893480 Si / 1000 Ang^3
#
#
#
# Elastic Constant Matrix: (Units=GPa)
#
#
# Indices 1 2 3 4 5 6 
#
# 1 73.6804 32.3266 12.8434 0.0000 0.0000 0.0000
# 2 32.3266 92.5452 31.0736 0.0000 0.0000 0.0000
# 3 12.8434 31.0736 115.4457 0.0000 0.0000 0.0000
# 4 0.0000 0.0000 0.0000 32.7577 0.0000 0.0000
# 5 0.0000 0.0000 0.0000 0.0000 29.6530 0.0000
# 6 0.0000 0.0000 0.0000 0.0000 0.0000 32.5783
#
#
#
# Elastic Compliance Matrix: (Units=1/GPa)
#
#
# Indices 1 2 3 4 5 6 
#
# 1 0.016038 -0.005500 -0.000304 0.000000 0.000000 0.000000
# 2 -0.005500 0.013765 -0.003093 0.000000 0.000000 0.000000
# 3 -0.000304 -0.003093 0.009528 0.000000 0.000000 0.000000
# 4 0.000000 0.000000 0.000000 0.030527 0.000000 0.000000
# 5 0.000000 0.000000 0.000000 0.000000 0.033723 0.000000
# 6 0.000000 0.000000 0.000000 0.000000 0.000000 0.030695
#
#
# Mechanical properties :
#
#
# Convention : Reuss Voigt Hill
#
# Bulk Modulus (GPa) = 46.43050 48.23984 47.33517
# Shear Modulus (GPa) = 31.39684 32.69299 32.04491
#
# Velocity S-wave (km/s) = 3.79102 3.86848 3.82995
# Velocity P-wave (km/s) = 6.35736 6.48346 6.42072
#
# Compressibility (1/GPa) = 0.02153757
#
# Stress axis : x y z
#
# Youngs Moduli (GPa) = 62.35082 72.64585 104.94880
#
# Poissons Ratio (x) = 0.39957 0.03188
# Poissons Ratio (y) = 0.34295 0.32463
# Poissons Ratio (z) = 0.01894 0.22471
#
# Static dielectric constant tensor:
#      x y z
#    x 1.790620 0.000000 0.000000 
#    y 0.000000 1.933960 0.000000 
#    z 0.000000 0.000000 1.772820 
# 
# From -- ./inp_files/4063.got.cif
#   From: 2010.05.17/outbox.cif.g08.bks.cpg/sg39_3_cif.got.tgz:4063.got - 2010.06.03 18:22:40.
