data_PCOD9361263
_publ_section_title
;
Structure prediction by ZEFSAII (Michael W. Deem and Ramdas Pophale) SiO2 
 PCOD9361263
Probable space group: A B M 2
;
_chemical_formula_sum "Si O2"
_cell_formula_units_Z 48
_cell_length_a 13.983217
_cell_length_b 18.483207
_cell_length_c 8.134101
_cell_angle_alpha 90.000000
_cell_angle_beta 90.000000
_cell_angle_gamma 90.000000
_cell_volume 2102.296588
_symmetry_space_group_name_H-M "A B M 2"
_symmetry_group_IT_number 39
_symmetry_cell_setting 'orthorhombic'
loop_
_space_group_symop_operation_xyz
x,y,z
-x,-y,z
-x,1/2+y,z
x,1/2-y,z
x,1/2+y,1/2+z
-x,1/2-y,1/2+z
-x,y,1/2+z
x,-y,1/2+z
loop_
_atom_site_type_symbol
_atom_site_label
_atom_site_fract_x
_atom_site_fract_y
_atom_site_fract_z
Si Si1 0.118956 0.833637 0.821160
Si Si2 0.294082 0.091527 0.423155
Si Si3 0.216678 0.558655 0.287158
Si Si4 0.460685 0.335081 0.588530
Si Si5 0.350658 0.666530 0.438489
Si Si6 0.975403 0.920394 0.617521
O O1 0.095266 0.750000 0.801961
O O2 0.232177 0.845620 0.838211
O O3 0.070086 0.881863 0.682237
O O4 0.073079 0.867366 0.986502
O O5 0.254400 0.079683 0.607392
O O6 0.401667 0.115517 0.461045
O O7 0.262548 0.018651 0.330729
O O8 0.260660 0.614827 0.417006
O O9 0.102902 0.565259 0.262792
O O10 0.454151 0.250000 0.539253
O O11 0.572613 0.354272 0.577529
O O12 0.412066 0.339780 0.767666
O O13 0.321655 0.750000 0.456612
O O14 0.000000 0.000000 0.553304
#
# Coordination Sequence:
#
# PCOD9361263 Si02
#       6
#     8   8   8   8   8   8
#     4  11  23  38  60  88 116 151 197 244 291 348
#     4  10  21  37  56  81 113 148 189 233 290 348
#     4  10  22  36  58  81 112 151 187 233 290 346
#     4   9  18  35  57  79 109 146 185 235 286 337
#     4   9  19  36  57  82 110 147 191 233 285 344
#     4  11  22  39  61  84 118 156 193 241 295 349
#
# _framework density 22.832173999999998
#
# number of rings (size 3 to 8) (size 9 to 14) (size 15 to 20)
#    0.000    2.000    1.667    1.500    2.333    6.667 
#    0.000    3.333    0.000    5.000    0.000    0.000 
#    0.000    0.000    0.000    0.000    0.000    0.000 
#
# Total GULP energy -134124.062693 kJ/mol
# GULP energy per Si atom -5588.502612 kJ/mol
# Density = 2.278021 g / cm^3
# Si number density = 22.832174 Si / 1000 Ang^3
#
#
#
# Elastic Constant Matrix: (Units=GPa)
#
#
# Indices 1 2 3 4 5 6 
#
# 1 66.1098 10.7922 3.4798 0.0000 0.0000 0.0000
# 2 10.7922 104.9674 10.5468 0.0000 0.0000 0.0000
# 3 3.4798 10.5468 47.1990 0.0000 0.0000 0.0000
# 4 0.0000 0.0000 0.0000 10.2348 0.0000 0.0000
# 5 0.0000 0.0000 0.0000 0.0000 31.2475 0.0000
# 6 0.0000 0.0000 0.0000 0.0000 0.0000 31.0634
#
#
#
# Elastic Compliance Matrix: (Units=1/GPa)
#
#
# Indices 1 2 3 4 5 6 
#
# 1 0.015414 -0.001504 -0.000800 0.000000 0.000000 0.000000
# 2 -0.001504 0.009892 -0.002100 0.000000 0.000000 0.000000
# 3 -0.000800 -0.002100 0.021715 0.000000 0.000000 0.000000
# 4 0.000000 0.000000 0.000000 0.097706 0.000000 0.000000
# 5 0.000000 0.000000 0.000000 0.000000 0.032003 0.000000
# 6 0.000000 0.000000 0.000000 0.000000 0.000000 0.032192
#
#
# Mechanical properties :
#
#
# Convention : Reuss Voigt Hill
#
# Bulk Modulus (GPa) = 26.16909 29.76822 27.96865
# Shear Modulus (GPa) = 21.69498 27.40632 24.55065
#
# Velocity S-wave (km/s) = 3.08586 3.46835 3.28268
# Velocity P-wave (km/s) = 4.91763 5.39494 5.16181
#
# Compressibility (1/GPa) = 0.03821303
#
# Stress axis : x y z
#
# Youngs Moduli (GPa) = 64.87587 101.08774 46.05104
#
# Poissons Ratio (x) = 0.15207 0.03685
# Poissons Ratio (y) = 0.09760 0.09669
# Poissons Ratio (z) = 0.05192 0.21224
#
# Static dielectric constant tensor:
#      x y z
#    x 1.922590 0.000000 0.000000 
#    y 0.000000 1.810980 0.000000 
#    z 0.000000 0.000000 1.893180 
# 
# From -- ./inp_files/3211.got.cif
#   From: 2010.05.17/outbox.cif.g08.bks.cpg/sg39_2_cif.got.tgz:3211.got - 2010.06.03 18:22:40.
