data_PCOD9361581
_publ_section_title
;
Structure prediction by ZEFSAII (Michael W. Deem and Ramdas Pophale) SiO2 
 PCOD9361581
Probable space group: A B M 2
;
_chemical_formula_sum "Si O2"
_cell_formula_units_Z 48
_cell_length_a 8.481087
_cell_length_b 9.731975
_cell_length_c 29.434005
_cell_angle_alpha 90.000000
_cell_angle_beta 90.000000
_cell_angle_gamma 90.000000
_cell_volume 2429.415859
_symmetry_space_group_name_H-M "A B M 2"
_symmetry_group_IT_number 39
_symmetry_cell_setting 'orthorhombic'
loop_
_space_group_symop_operation_xyz
x,y,z
-x,-y,z
-x,1/2+y,z
x,1/2-y,z
x,1/2+y,1/2+z
-x,1/2-y,1/2+z
-x,y,1/2+z
x,-y,1/2+z
loop_
_atom_site_type_symbol
_atom_site_label
_atom_site_fract_x
_atom_site_fract_y
_atom_site_fract_z
Si Si1 0.050393 0.250000 0.768930
Si Si2 0.141707 0.592495 0.988176
Si Si3 0.659309 0.410161 0.661792
Si Si4 0.000000 0.500000 0.704032
Si Si5 0.654429 0.411933 0.552301
Si Si6 0.848123 0.250000 0.368565
Si Si7 0.193480 0.250000 0.342321
Si Si8 0.318010 0.522846 0.900187
O O1 0.059967 0.380073 0.737034
O O2 0.163834 0.250000 0.813188
O O3 0.877154 0.250000 0.792412
O O4 0.103309 0.750000 0.000863
O O5 0.262433 0.592909 0.946512
O O6 0.000000 0.500000 0.970048
O O7 0.207469 0.500437 0.029492
O O8 0.500000 0.500000 0.674767
O O9 0.636481 0.250000 0.675672
O O10 0.664974 0.414082 0.606825
O O11 0.836989 0.456276 0.677838
O O12 0.500000 0.500000 0.539258
O O13 0.649755 0.250000 0.538063
O O14 0.773225 0.382541 0.390832
O O15 0.036572 0.250000 0.374168
O O16 0.286995 0.117082 0.356522
O O17 0.500000 0.500000 0.904627
#
# Coordination Sequence:
#
# PCOD9361581 Si02
#       8
#     4   8   8   4   8   4   4   8
#     4  10  24  42  72  96 126 178 220 278 348 410
#     4  12  26  42  63  96 134 181 232 279 327 400
#     4  10  24  44  71 106 143 183 229 281 342 411
#     4  12  22  46  72 102 134 184 226 284 348 426
#     4  10  22  43  67  98 139 181 221 279 336 392
#     4  10  23  41  70  87 126 171 217 271 333 403
#     4  10  21  45  64  89 128 169 217 267 331 405
#     4  12  24  40  65  98 131 172 221 274 334 395
#
# _framework density 19.757836000000001
#
# number of rings (size 3 to 8) (size 9 to 14) (size 15 to 20)
#    0.500    0.667    1.667    4.500    4.667    0.667 
#    0.000    5.000    0.000    0.000    0.000    0.000 
#    0.000    0.000    0.000    0.000    0.000    0.000 
#
# Total GULP energy -133777.017581 kJ/mol
# GULP energy per Si atom -5574.042399 kJ/mol
# Density = 1.971287 g / cm^3
# Si number density = 19.757836 Si / 1000 Ang^3
#
#
#
# Elastic Constant Matrix: (Units=GPa)
#
#
# Indices 1 2 3 4 5 6 
#
# 1 119.9385 45.6653 20.0276 0.0000 0.0000 0.0000
# 2 45.6653 177.0249 35.1743 0.0000 0.0000 0.0000
# 3 20.0276 35.1743 45.9787 0.0000 0.0000 0.0000
# 4 0.0000 0.0000 0.0000 38.8592 0.0000 0.0000
# 5 0.0000 0.0000 0.0000 0.0000 13.3752 0.0000
# 6 0.0000 0.0000 0.0000 0.0000 0.0000 24.8123
#
#
#
# Elastic Compliance Matrix: (Units=1/GPa)
#
#
# Indices 1 2 3 4 5 6 
#
# 1 0.009516 -0.001924 -0.002674 0.000000 0.000000 0.000000
# 2 -0.001924 0.007050 -0.004556 0.000000 0.000000 0.000000
# 3 -0.002674 -0.004556 0.026399 0.000000 0.000000 0.000000
# 4 0.000000 0.000000 0.000000 0.025734 0.000000 0.000000
# 5 0.000000 0.000000 0.000000 0.000000 0.074765 0.000000
# 6 0.000000 0.000000 0.000000 0.000000 0.000000 0.040303
#
#
# Mechanical properties :
#
#
# Convention : Reuss Voigt Hill
#
# Bulk Modulus (GPa) = 40.55173 60.51962 50.53568
# Shear Modulus (GPa) = 23.77631 31.54766 27.66198
#
# Velocity S-wave (km/s) = 3.47275 4.00023 3.74579
# Velocity P-wave (km/s) = 6.05383 7.21339 6.65890
#
# Compressibility (1/GPa) = 0.02465986
#
# Stress axis : x y z
#
# Youngs Moduli (GPa) = 105.08124 141.83707 37.88026
#
# Poissons Ratio (x) = 0.27284 0.10128
# Poissons Ratio (y) = 0.20214 0.17257
# Poissons Ratio (z) = 0.28095 0.64617
#
# Static dielectric constant tensor:
#      x y z
#    x 1.775420 0.000000 0.000000 
#    y 0.000000 1.398540 0.000000 
#    z 0.000000 0.000000 1.665610 
# 
# From -- ./inp_files/17701.got.cif
#   From: 2010.05.17/outbox.cif.g08.bks.cpg/sg39_9_cif.got.tgz:17701.got - 2010.06.03 18:22:40.
