data_PCOD9361554
_publ_section_title
;
Structure prediction by ZEFSAII (Michael W. Deem and Ramdas Pophale) SiO2 
 PCOD9361554
Probable space group: A B M 2
;
_chemical_formula_sum "Si O2"
_cell_formula_units_Z 40
_cell_length_a 5.340667
_cell_length_b 20.350997
_cell_length_c 15.717172
_cell_angle_alpha 90.000000
_cell_angle_beta 90.000000
_cell_angle_gamma 90.000000
_cell_volume 1708.266389
_symmetry_space_group_name_H-M "A B M 2"
_symmetry_group_IT_number 39
_symmetry_cell_setting 'orthorhombic'
loop_
_space_group_symop_operation_xyz
x,y,z
-x,-y,z
-x,1/2+y,z
x,1/2-y,z
x,1/2+y,1/2+z
-x,1/2-y,1/2+z
-x,y,1/2+z
x,-y,1/2+z
loop_
_atom_site_type_symbol
_atom_site_label
_atom_site_fract_x
_atom_site_fract_y
_atom_site_fract_z
Si Si1 0.411904 0.928806 0.969360
Si Si2 0.866579 0.322111 0.202113
Si Si3 0.755075 0.959194 0.645136
Si Si4 0.211294 0.321604 0.036335
Si Si5 0.834974 0.679530 0.376598
O O1 0.330831 0.884145 0.890948
O O2 0.500000 0.000000 0.940632
O O3 0.211997 0.943524 0.044113
O O4 0.612685 0.883174 0.018355
O O5 0.739828 0.250000 0.194722
O O6 0.070183 0.325446 0.126085
O O7 0.001313 0.324543 0.292544
O O8 0.716806 0.389199 0.190683
O O9 0.500000 0.000000 0.652794
O O10 0.000000 0.000000 0.674104
O O11 0.344882 0.250000 0.034249
O O12 0.010527 0.319974 0.959968
O O13 0.696751 0.750000 0.373368
#
# Coordination Sequence:
#
# PCOD9361554 Si02
#       5
#     8   8   8   8   8
#     4  11  23  39  68  95 139 185 234 289 365 430
#     4  10  21  43  72 101 137 188 242 295 358 433
#     4  11  24  45  71 101 143 184 235 298 361 426
#     4  10  21  42  67  94 133 181 235 298 360 423
#     4  10  22  42  66  96 136 177 239 298 352 428
#
# _framework density 23.415552999999999
#
# number of rings (size 3 to 8) (size 9 to 14) (size 15 to 20)
#    0.000    1.600    2.000    3.000    0.000    0.800 
#   10.800    2.000    0.000    0.000    0.000    0.000 
#    0.000    0.000    0.000    0.000    0.000    0.000 
#
# Total GULP energy -111817.671476 kJ/mol
# GULP energy per Si atom -5590.883574 kJ/mol
# Density = 2.336226 g / cm^3
# Si number density = 23.415553 Si / 1000 Ang^3
#
#
#
# Elastic Constant Matrix: (Units=GPa)
#
#
# Indices 1 2 3 4 5 6 
#
# 1 49.2991 54.3451 11.5247 0.0000 0.0000 0.0000
# 2 54.3451 268.3972 34.1359 0.0000 0.0000 0.0000
# 3 11.5247 34.1359 94.3303 0.0000 0.0000 0.0000
# 4 0.0000 0.0000 0.0000 24.5270 0.0000 0.0000
# 5 0.0000 0.0000 0.0000 0.0000 21.6582 0.0000
# 6 0.0000 0.0000 0.0000 0.0000 0.0000 -2.0699
#
#
#
# Elastic Compliance Matrix: (Units=1/GPa)
#
#
# Indices 1 2 3 4 5 6 
#
# 1 0.026275 -0.005149 -0.001347 0.000000 0.000000 0.000000
# 2 -0.005149 0.004915 -0.001149 0.000000 0.000000 0.000000
# 3 -0.001347 -0.001149 0.011182 0.000000 0.000000 0.000000
# 4 0.000000 0.000000 0.000000 0.040771 0.000000 0.000000
# 5 0.000000 0.000000 0.000000 0.000000 0.046172 0.000000
# 6 0.000000 0.000000 0.000000 0.000000 0.000000 -0.483120
#
#
# Mechanical properties :
#
#
# Convention : Reuss Voigt Hill
#
# Bulk Modulus (GPa) = 36.92644 68.00423 52.46534
# Shear Modulus (GPa) = -15.17504 29.62447 7.22471
#
# Velocity S-wave (km/s) = -2.54849 3.56077 1.75845
# Velocity P-wave (km/s) = 2.67292 6.78313 5.15535
#
# Compressibility (1/GPa) = 0.02708086
#
# Stress axis : x y z
#
# Youngs Moduli (GPa) = 38.05884 203.47729 89.43314
#
# Poissons Ratio (x) = 1.04768 0.12046
# Poissons Ratio (y) = 0.19596 0.10279
# Poissons Ratio (z) = 0.05126 0.23388
#
# Static dielectric constant tensor:
#      x y z
#    x 1.914540 0.000000 0.000000 
#    y 0.000000 1.943750 0.000000 
#    z 0.000000 0.000000 1.854010 
# 
# From -- ./inp_files/10907.got.cif
#   From: 2010.05.17/outbox.cif.g08.bks.cpg/sg39_6_cif.got.tgz:10907.got - 2010.06.03 18:22:40.
