data_PCOD9361897
_publ_section_title
;
Structure prediction by ZEFSAII (Michael W. Deem and Ramdas Pophale) SiO2 
 PCOD9361897
Probable space group: A B M 2
;
_chemical_formula_sum "Si O2"
_cell_formula_units_Z 28
_cell_length_a 14.652335
_cell_length_b 8.167992
_cell_length_c 10.690437
_cell_angle_alpha 90.000000
_cell_angle_beta 90.000000
_cell_angle_gamma 90.000000
_cell_volume 1279.433158
_symmetry_space_group_name_H-M "A B M 2"
_symmetry_group_IT_number 39
_symmetry_cell_setting 'orthorhombic'
loop_
_space_group_symop_operation_xyz
x,y,z
-x,-y,z
-x,1/2+y,z
x,1/2-y,z
x,1/2+y,1/2+z
-x,1/2-y,1/2+z
-x,y,1/2+z
x,-y,1/2+z
loop_
_atom_site_type_symbol
_atom_site_label
_atom_site_fract_x
_atom_site_fract_y
_atom_site_fract_z
Si Si1 0.217874 0.250000 0.862031
Si Si2 0.776497 0.750000 0.590518
Si Si3 0.102547 0.561705 0.934885
Si Si4 0.500000 0.500000 0.474723
Si Si5 0.637357 0.750000 0.085535
Si Si6 0.634339 0.250000 0.863131
O O1 0.265798 0.250000 0.726655
O O2 0.157350 0.415448 0.868670
O O3 0.286870 0.250000 0.977768
O O4 0.843003 0.904275 0.564552
O O5 0.705953 0.750000 0.476341
O O6 0.898512 0.750000 0.380170
O O7 0.000000 0.500000 0.952576
O O8 0.568930 0.399911 0.561571
O O9 0.567006 0.599909 0.385644
O O10 0.675702 0.750000 0.225415
#
# Coordination Sequence:
#
# PCOD9361897 Si02
#       6
#     4   4   8   4   4   4
#     4  12  24  46  71 106 142 191 228 291 358 411
#     4  10  26  42  67 106 142 181 238 283 348 433
#     4  10  23  47  69 102 143 184 234 287 351 419
#     4  10  24  42  68 102 132 176 238 286 340 414
#     4  11  25  42  73  95 137 187 225 288 349 410
#     4  11  23  46  67 101 137 179 231 284 345 414
#
# _framework density 21.884692000000001
#
# number of rings (size 3 to 8) (size 9 to 14) (size 15 to 20)
#    0.857    0.571    1.429    2.571    0.000   14.857 
#    2.571    0.000    0.000    0.000    0.000    0.000 
#    0.000    0.000    0.000    0.000    0.000    0.000 
#
# Total GULP energy -78071.968523 kJ/mol
# GULP energy per Si atom -5576.569180 kJ/mol
# Density = 2.183488 g / cm^3
# Si number density = 21.884692 Si / 1000 Ang^3
#
#
#
# Elastic Constant Matrix: (Units=GPa)
#
#
# Indices 1 2 3 4 5 6 
#
# 1 147.3838 46.5964 76.2386 0.0000 0.0000 0.0000
# 2 46.5964 134.7780 42.5291 0.0000 0.0000 0.0000
# 3 76.2386 42.5291 188.6496 0.0000 0.0000 0.0000
# 4 0.0000 0.0000 0.0000 32.4009 0.0000 0.0000
# 5 0.0000 0.0000 0.0000 0.0000 10.8775 0.0000
# 6 0.0000 0.0000 0.0000 0.0000 0.0000 17.5643
#
#
#
# Elastic Compliance Matrix: (Units=1/GPa)
#
#
# Indices 1 2 3 4 5 6 
#
# 1 0.009119 -0.002142 -0.003202 0.000000 0.000000 0.000000
# 2 -0.002142 0.008491 -0.001049 0.000000 0.000000 0.000000
# 3 -0.003202 -0.001049 0.006831 0.000000 0.000000 0.000000
# 4 0.000000 0.000000 0.000000 0.030863 0.000000 0.000000
# 5 0.000000 0.000000 0.000000 0.000000 0.091933 0.000000
# 6 0.000000 0.000000 0.000000 0.000000 0.000000 0.056934
#
#
# Mechanical properties :
#
#
# Convention : Reuss Voigt Hill
#
# Bulk Modulus (GPa) = 85.79747 89.05995 87.42871
# Shear Modulus (GPa) = 22.64063 32.53170 27.58616
#
# Velocity S-wave (km/s) = 3.21992 3.85970 3.55424
# Velocity P-wave (km/s) = 7.28789 7.78759 7.54188
#
# Compressibility (1/GPa) = 0.01165536
#
# Stress axis : x y z
#
# Youngs Moduli (GPa) = 109.66499 117.77090 146.38484
#
# Poissons Ratio (x) = 0.25228 0.46875
# Poissons Ratio (y) = 0.23492 0.15349
# Poissons Ratio (z) = 0.35117 0.12349
#
# Static dielectric constant tensor:
#      x y z
#    x 1.784450 0.000000 0.000000 
#    y 0.000000 2.176730 0.000000 
#    z 0.000000 0.000000 1.780980 
# 
# From -- ./inp_files/6179.got.cif
#   From: 2010.05.17/outbox.cif.g08.bks.cpg/sg39_4_cif.got.tgz:6179.got - 2010.06.03 18:22:40.
