data_PCOD9361904
_publ_section_title
;
Structure prediction by ZEFSAII (Michael W. Deem and Ramdas Pophale) SiO2 
 PCOD9361904
Probable space group: A B M 2
;
_chemical_formula_sum "Si O2"
_cell_formula_units_Z 28
_cell_length_a 12.006041
_cell_length_b 12.849847
_cell_length_c 7.795991
_cell_angle_alpha 90.000000
_cell_angle_beta 90.000000
_cell_angle_gamma 90.000000
_cell_volume 1202.732670
_symmetry_space_group_name_H-M "A B M 2"
_symmetry_group_IT_number 39
_symmetry_cell_setting 'orthorhombic'
loop_
_space_group_symop_operation_xyz
x,y,z
-x,-y,z
-x,1/2+y,z
x,1/2-y,z
x,1/2+y,1/2+z
-x,1/2-y,1/2+z
-x,y,1/2+z
x,-y,1/2+z
loop_
_atom_site_type_symbol
_atom_site_label
_atom_site_fract_x
_atom_site_fract_y
_atom_site_fract_z
Si Si1 0.853812 0.912588 0.782910
Si Si2 0.101486 0.636035 0.889439
Si Si3 0.500000 0.500000 0.726569
Si Si4 0.629845 0.367192 0.479628
O O1 0.861102 0.875189 0.586911
O O2 0.748984 0.874159 0.889401
O O3 0.967818 0.876546 0.875459
O O4 0.852703 0.038180 0.785497
O O5 0.133662 0.750000 0.823949
O O6 0.604035 0.456399 0.618568
O O7 0.459228 0.402099 0.835961
O O8 0.610959 0.250000 0.541426
#
# Coordination Sequence:
#
# PCOD9361904 Si02
#       4
#     8   8   4   8
#     4  11  23  38  62  89 119 157 200 233 287 357
#     4  11  22  39  58  87 124 158 192 239 284 343
#     4  10  24  40  62  90 114 148 204 246 292 354
#     4  11  22  42  63  86 118 155 193 247 297 341
#
# _framework density 23.280317
#
# number of rings (size 3 to 8) (size 9 to 14) (size 15 to 20)
#    0.000    1.143    0.000    8.571    0.000    0.000 
#    0.000   15.714    0.000    0.000    0.000    0.000 
#    0.000    0.000    0.000    0.000    0.000    0.000 
#
# Total GULP energy -78355.532336 kJ/mol
# GULP energy per Si atom -5596.823738 kJ/mol
# Density = 2.322733 g / cm^3
# Si number density = 23.280317 Si / 1000 Ang^3
#
#
#
# Elastic Constant Matrix: (Units=GPa)
#
#
# Indices 1 2 3 4 5 6 
#
# 1 70.6322 -6.3286 -1.0763 0.0000 0.0000 0.0000
# 2 -6.3286 182.6598 -0.4179 0.0000 0.0000 0.0000
# 3 -1.0763 -0.4179 27.8477 0.0000 0.0000 0.0000
# 4 0.0000 0.0000 0.0000 33.5170 0.0000 0.0000
# 5 0.0000 0.0000 0.0000 0.0000 27.1991 0.0000
# 6 0.0000 0.0000 0.0000 0.0000 0.0000 13.6893
#
#
#
# Elastic Compliance Matrix: (Units=1/GPa)
#
#
# Indices 1 2 3 4 5 6 
#
# 1 0.014211 0.000494 0.000557 0.000000 0.000000 0.000000
# 2 0.000494 0.005492 0.000101 0.000000 0.000000 0.000000
# 3 0.000557 0.000101 0.035933 0.000000 0.000000 0.000000
# 4 0.000000 0.000000 0.000000 0.029836 0.000000 0.000000
# 5 0.000000 0.000000 0.000000 0.000000 0.036766 0.000000
# 6 0.000000 0.000000 0.000000 0.000000 0.000000 0.073050
#
#
# Mechanical properties :
#
#
# Convention : Reuss Voigt Hill
#
# Bulk Modulus (GPa) = 17.25962 29.49934 23.37948
# Shear Modulus (GPa) = 23.55205 34.14526 28.84865
#
# Velocity S-wave (km/s) = 3.18413 3.83391 3.52403
# Velocity P-wave (km/s) = 4.57692 5.68307 5.15972
#
# Compressibility (1/GPa) = 0.05793871
#
# Stress axis : x y z
#
# Youngs Moduli (GPa) = 70.37023 182.08327 27.82986
#
# Poissons Ratio (x) = -0.08988 -0.01549
# Poissons Ratio (y) = -0.03474 -0.00282
# Poissons Ratio (z) = -0.03917 -0.01848
#
# Static dielectric constant tensor:
#      x y z
#    x 1.870590 0.000000 0.000000 
#    y 0.000000 1.852530 0.000000 
#    z 0.000000 0.000000 1.885660 
# 
# From -- ./inp_files/2397.got.cif
#   From: 2010.05.17/outbox.cif.g08.bks.cpg/sg39_2_cif.got.tgz:2397.got - 2010.06.03 18:22:40.
