data_PCOD9361901
_publ_section_title
;
Structure prediction by ZEFSAII (Michael W. Deem and Ramdas Pophale) SiO2 
 PCOD9361901
Probable space group: A B M 2
;
_chemical_formula_sum "Si O2"
_cell_formula_units_Z 36
_cell_length_a 9.034411
_cell_length_b 19.863892
_cell_length_c 8.843483
_cell_angle_alpha 90.000000
_cell_angle_beta 90.000000
_cell_angle_gamma 90.000000
_cell_volume 1587.038763
_symmetry_space_group_name_H-M "A B M 2"
_symmetry_group_IT_number 39
_symmetry_cell_setting 'orthorhombic'
loop_
_space_group_symop_operation_xyz
x,y,z
-x,-y,z
-x,1/2+y,z
x,1/2-y,z
x,1/2+y,1/2+z
-x,1/2-y,1/2+z
-x,y,1/2+z
x,-y,1/2+z
loop_
_atom_site_type_symbol
_atom_site_label
_atom_site_fract_x
_atom_site_fract_y
_atom_site_fract_z
Si Si1 0.500000 0.000000 0.497661
Si Si2 0.082417 0.129274 0.632801
Si Si3 0.291170 0.750000 0.213177
Si Si4 0.708956 0.026551 0.248700
Si Si5 0.790386 0.372244 0.794450
Si Si6 0.415628 0.750000 0.877855
O O1 0.388958 0.956376 0.394992
O O2 0.605201 0.956808 0.605745
O O3 0.184908 0.185884 0.708006
O O4 0.122654 0.126321 0.455741
O O5 0.912224 0.143355 0.667052
O O6 0.136048 0.061359 0.716981
O O7 0.411552 0.750000 0.343555
O O8 0.381359 0.750000 0.055644
O O9 0.727480 0.946293 0.261391
O O10 0.665019 0.315848 0.808879
#
# Coordination Sequence:
#
# PCOD9361901 Si02
#       6
#     4   8   4   8   8   4
#     4  10  24  38  62  96 136 162 202 268 316 374
#     4  11  25  43  65  94 130 168 211 261 315 377
#     4  10  25  44  66  94 126 164 213 260 316 375
#     4  11  23  40  66  94 130 164 214 256 322 368
#     4  11  25  43  65  94 130 168 211 261 315 377
#     4  10  25  44  66  94 126 164 213 260 316 375
#
# _framework density 22.683754
#
# number of rings (size 3 to 8) (size 9 to 14) (size 15 to 20)
#    0.000    1.333    2.222    1.333    9.333    3.556 
#    0.000    0.000    0.000    0.000    0.000    0.000 
#    0.000    0.000    0.000    0.000    0.000    0.000 
#
# Total GULP energy -100704.074692 kJ/mol
# GULP energy per Si atom -5594.670816 kJ/mol
# Density = 2.263212 g / cm^3
# Si number density = 22.683754 Si / 1000 Ang^3
#
#
#
# Elastic Constant Matrix: (Units=GPa)
#
#
# Indices 1 2 3 4 5 6 
#
# 1 60.9319 1.0540 6.5336 0.0000 0.0000 0.0000
# 2 1.0540 99.2690 0.6572 0.0000 0.0000 0.0000
# 3 6.5336 0.6572 55.2421 0.0000 0.0000 0.0000
# 4 0.0000 0.0000 0.0000 16.9697 0.0000 0.0000
# 5 0.0000 0.0000 0.0000 0.0000 44.6435 0.0000
# 6 0.0000 0.0000 0.0000 0.0000 0.0000 24.0443
#
#
#
# Elastic Compliance Matrix: (Units=1/GPa)
#
#
# Indices 1 2 3 4 5 6 
#
# 1 0.016625 -0.000164 -0.001964 0.000000 0.000000 0.000000
# 2 -0.000164 0.010076 -0.000101 0.000000 0.000000 0.000000
# 3 -0.001964 -0.000101 0.018336 0.000000 0.000000 0.000000
# 4 0.000000 0.000000 0.000000 0.058929 0.000000 0.000000
# 5 0.000000 0.000000 0.000000 0.000000 0.022400 0.000000
# 6 0.000000 0.000000 0.000000 0.000000 0.000000 0.041590
#
#
# Mechanical properties :
#
#
# Convention : Reuss Voigt Hill
#
# Bulk Modulus (GPa) = 24.64262 25.77031 25.20647
# Shear Modulus (GPa) = 26.89059 30.94472 28.91765
#
# Velocity S-wave (km/s) = 3.44678 3.69749 3.57433
# Velocity P-wave (km/s) = 5.16987 5.44187 5.30761
#
# Compressibility (1/GPa) = 0.04058010
#
# Stress axis : x y z
#
# Youngs Moduli (GPa) = 60.14958 99.24537 54.53853
#
# Poissons Ratio (x) = 0.01623 0.10713
# Poissons Ratio (y) = 0.00984 0.00548
# Poissons Ratio (z) = 0.11815 0.00998
#
# Static dielectric constant tensor:
#      x y z
#    x 1.815940 0.000000 0.000000 
#    y 0.000000 1.883560 0.000000 
#    z 0.000000 0.000000 1.854090 
# 
# From -- ./inp_files/2052.got.cif
#   From: 2010.05.17/outbox.cif.g08.bks.cpg/sg39_2_cif.got.tgz:2052.got - 2010.06.03 18:22:40.
