data_PCOD9361147
_publ_section_title
;
Structure prediction by ZEFSAII (Michael W. Deem and Ramdas Pophale) SiO2 
 PCOD9361147
Probable space group: A B M 2
;
_chemical_formula_sum "Si O2"
_cell_formula_units_Z 56
_cell_length_a 14.809681
_cell_length_b 17.744114
_cell_length_c 9.242323
_cell_angle_alpha 90.000000
_cell_angle_beta 90.000000
_cell_angle_gamma 90.000000
_cell_volume 2428.740781
_symmetry_space_group_name_H-M "A B M 2"
_symmetry_group_IT_number 39
_symmetry_cell_setting 'orthorhombic'
loop_
_space_group_symop_operation_xyz
x,y,z
-x,-y,z
-x,1/2+y,z
x,1/2-y,z
x,1/2+y,1/2+z
-x,1/2-y,1/2+z
-x,y,1/2+z
x,-y,1/2+z
loop_
_atom_site_type_symbol
_atom_site_label
_atom_site_fract_x
_atom_site_fract_y
_atom_site_fract_z
Si Si1 0.805080 0.113242 0.355080
Si Si2 0.833070 0.091521 0.876152
Si Si3 0.505183 0.383804 0.582886
Si Si4 0.931095 0.750000 0.808980
Si Si5 0.378029 0.958521 0.839115
Si Si6 0.384318 0.641641 0.326337
Si Si7 0.884337 0.250000 0.972261
Si Si8 0.152768 0.014196 0.113795
O O1 0.886422 0.171938 0.365423
O O2 0.718527 0.162910 0.319524
O O3 0.815239 0.051070 0.226969
O O4 0.789089 0.067987 0.505819
O O5 0.726311 0.068787 0.854388
O O6 0.830889 0.174551 0.936933
O O7 0.884330 0.075728 0.725286
O O8 0.887496 0.039057 0.990212
O O9 0.572275 0.427737 0.694216
O O10 0.436909 0.430865 0.477361
O O11 0.566596 0.337706 0.473225
O O12 0.441460 0.337169 0.688260
O O13 0.917847 0.750000 0.636641
O O14 0.032326 0.750000 0.862746
O O15 0.382019 0.049009 0.829104
#
# Coordination Sequence:
#
# PCOD9361147 Si02
#       8
#     8   8   8   4   8   8   4   8
#     4  11  23  42  74  98 141 184 227 278 339 409
#     4  11  23  42  74  98 141 184 227 278 339 409
#     4  10  21  28  48  95 138 175 220 285 326 369
#     4  12  30  54  74 103 135 174 222 275 349 430
#     4  11  18  31  55  90 137 176 227 273 329 380
#     4  11  18  31  55  90 137 176 227 273 329 380
#     4  12  30  54  74 103 135 174 222 275 349 430
#     4  10  20  40  69 107 130 174 232 284 326 393
#
# _framework density 23.057214999999999
#
# number of rings (size 3 to 8) (size 9 to 14) (size 15 to 20)
#    0.000    1.143    4.286    5.143    2.000    0.000 
#    0.000    4.286    0.000    5.143    0.000    0.000 
#    0.000    0.000    0.000    0.000    0.000    0.000 
#
# Total GULP energy -156060.427143 kJ/mol
# GULP energy per Si atom -5573.586684 kJ/mol
# Density = 2.300474 g / cm^3
# Si number density = 23.057215 Si / 1000 Ang^3
#
#
#
# Elastic Constant Matrix: (Units=GPa)
#
#
# Indices 1 2 3 4 5 6 
#
# 1 43.8659 14.5474 -1.9715 0.0000 0.0000 0.0000
# 2 14.5474 97.6771 11.7839 0.0000 0.0000 0.0000
# 3 -1.9715 11.7839 148.7307 0.0000 0.0000 0.0000
# 4 0.0000 0.0000 0.0000 13.4776 0.0000 0.0000
# 5 0.0000 0.0000 0.0000 0.0000 14.7697 0.0000
# 6 0.0000 0.0000 0.0000 0.0000 0.0000 14.5872
#
#
#
# Elastic Compliance Matrix: (Units=1/GPa)
#
#
# Indices 1 2 3 4 5 6 
#
# 1 0.024036 -0.003653 0.000608 0.000000 0.000000 0.000000
# 2 -0.003653 0.010892 -0.000911 0.000000 0.000000 0.000000
# 3 0.000608 -0.000911 0.006804 0.000000 0.000000 0.000000
# 4 0.000000 0.000000 0.000000 0.074197 0.000000 0.000000
# 5 0.000000 0.000000 0.000000 0.000000 0.067706 0.000000
# 6 0.000000 0.000000 0.000000 0.000000 0.000000 0.068553
#
#
# Mechanical properties :
#
#
# Convention : Reuss Voigt Hill
#
# Bulk Modulus (GPa) = 29.56970 37.66592 33.61781
# Shear Modulus (GPa) = 18.42478 26.29449 22.35964
#
# Velocity S-wave (km/s) = 2.82988 3.38065 3.11745
# Velocity P-wave (km/s) = 4.85077 5.62225 5.25070
#
# Compressibility (1/GPa) = 0.03381841
#
# Stress axis : x y z
#
# Youngs Moduli (GPa) = 41.60505 91.81200 146.97607
#
# Poissons Ratio (x) = 0.33539 -0.08937
# Poissons Ratio (y) = 0.15198 0.13395
# Poissons Ratio (z) = -0.02530 0.08368
#
# Static dielectric constant tensor:
#      x y z
#    x 1.911190 0.000000 0.000000 
#    y 0.000000 1.865580 0.000000 
#    z 0.000000 0.000000 1.870220 
# 
# From -- ./inp_files/3449.got.cif
#   From: 2010.05.17/outbox.cif.g08.bks.cpg/sg39_2_cif.got.tgz:3449.got - 2010.06.03 18:22:40.
