data_PCOD9361203
_publ_section_title
;
Structure prediction by ZEFSAII (Michael W. Deem and Ramdas Pophale) SiO2 
 PCOD9361203
Probable space group: A B M 2
;
_chemical_formula_sum "Si O2"
_cell_formula_units_Z 56
_cell_length_a 34.340029
_cell_length_b 14.106325
_cell_length_c 5.282737
_cell_angle_alpha 90.000000
_cell_angle_beta 90.000000
_cell_angle_gamma 90.000000
_cell_volume 2559.019133
_symmetry_space_group_name_H-M "A B M 2"
_symmetry_group_IT_number 39
_symmetry_cell_setting 'orthorhombic'
loop_
_space_group_symop_operation_xyz
x,y,z
-x,-y,z
-x,1/2+y,z
x,1/2-y,z
x,1/2+y,1/2+z
-x,1/2-y,1/2+z
-x,y,1/2+z
x,-y,1/2+z
loop_
_atom_site_type_symbol
_atom_site_label
_atom_site_fract_x
_atom_site_fract_y
_atom_site_fract_z
Si Si1 0.107998 0.404864 0.102980
Si Si2 0.399872 0.058859 0.965901
Si Si3 0.207427 0.250000 0.474146
Si Si4 0.139159 0.884884 0.101433
Si Si5 0.741823 0.250000 0.474922
Si Si6 0.519135 0.361811 0.620967
Si Si7 0.024244 0.136482 0.958672
Si Si8 0.311490 0.564743 0.523351
O O1 0.132281 0.502396 0.133260
O O2 0.109261 0.358307 0.378135
O O3 0.128947 0.349195 0.879327
O O4 0.064151 0.418736 0.009913
O O5 0.436796 0.121960 0.034558
O O6 0.356593 0.098779 0.010225
O O7 0.402347 0.974464 0.174858
O O8 0.179955 0.342173 0.514349
O O9 0.226200 0.250000 0.197972
O O10 0.239027 0.250000 0.697360
O O11 0.716280 0.344882 0.507329
O O12 0.512196 0.250000 0.640734
O O13 0.490913 0.399889 0.399478
O O14 0.033077 0.250000 0.969420
O O15 0.005492 0.116366 0.687119
O O16 0.305774 0.494637 0.282674
#
# Coordination Sequence:
#
# PCOD9361203 Si02
#       8
#     8   8   4   8   4   8   8   8
#     4  10  21  42  63  92 125 174 208 250 325 363
#     4  10  21  37  61  88 121 165 216 269 323 392
#     4  12  26  46  68 104 130 160 226 258 330 416
#     4  10  23  41  62  91 123 159 208 259 302 390
#     4  12  26  48  74 104 134 182 206 282 356 404
#     4  10  21  35  52  83 123 167 218 268 326 381
#     4  10  21  36  59  93 126 164 214 268 311 358
#     4  10  23  46  69 103 137 174 227 275 339 421
#
# _framework density 21.883386999999999
#
# number of rings (size 3 to 8) (size 9 to 14) (size 15 to 20)
#    0.000    1.714    0.000    3.429    3.000    1.714 
#   15.429    8.571    0.000    0.000    0.000    0.000 
#    0.000    0.000    0.000    0.000    0.000    0.000 
#
# Total GULP energy -156379.222578 kJ/mol
# GULP energy per Si atom -5584.972235 kJ/mol
# Density = 2.183358 g / cm^3
# Si number density = 21.883387 Si / 1000 Ang^3
#
#
#
# Elastic Constant Matrix: (Units=GPa)
#
#
# Indices 1 2 3 4 5 6 
#
# 1 68.7164 22.0207 -0.8137 0.0000 0.0000 0.0000
# 2 22.0207 93.9468 0.4086 0.0000 0.0000 0.0000
# 3 -0.8137 0.4086 81.6979 0.0000 0.0000 0.0000
# 4 0.0000 0.0000 0.0000 0.1275 0.0000 0.0000
# 5 0.0000 0.0000 0.0000 0.0000 40.1301 0.0000
# 6 0.0000 0.0000 0.0000 0.0000 0.0000 -8.9025
#
#
#
# Elastic Compliance Matrix: (Units=1/GPa)
#
#
# Indices 1 2 3 4 5 6 
#
# 1 0.015737 -0.003689 0.000175 0.000000 0.000000 0.000000
# 2 -0.003689 0.011510 -0.000094 0.000000 0.000000 0.000000
# 3 0.000175 -0.000094 0.012242 0.000000 0.000000 0.000000
# 4 0.000000 0.000000 0.000000 7.841888 0.000000 0.000000
# 5 0.000000 0.000000 0.000000 0.000000 0.024919 0.000000
# 6 0.000000 0.000000 0.000000 0.000000 0.000000 -0.112328
#
#
# Mechanical properties :
#
#
# Convention : Reuss Voigt Hill
#
# Bulk Modulus (GPa) = 30.98681 31.95470 31.47075
# Shear Modulus (GPa) = 0.64005 21.12074 10.88039
#
# Velocity S-wave (km/s) = 0.54140 3.11006 2.23221
# Velocity P-wave (km/s) = 3.81858 5.24696 4.58869
#
# Compressibility (1/GPa) = 0.03227180
#
# Stress axis : x y z
#
# Youngs Moduli (GPa) = 63.54474 86.88462 81.68311
#
# Poissons Ratio (x) = 0.32056 -0.01431
# Poissons Ratio (y) = 0.23444 0.00770
# Poissons Ratio (z) = -0.01113 0.00819
#
# Static dielectric constant tensor:
#      x y z
#    x 1.773340 0.000000 0.000000 
#    y 0.000000 1.897900 0.000000 
#    z 0.000000 0.000000 1.833630 
# 
# From -- ./inp_files/1505.got.cif
#   From: 2010.05.17/outbox.cif.g08.bks.cpg/sg39_1_cif.got.tgz:1505.got - 2010.06.03 18:22:40.
