data_PCOD9361248
_publ_section_title
;
Structure prediction by ZEFSAII (Michael W. Deem and Ramdas Pophale) SiO2 
 PCOD9361248
Probable space group: A B M 2
;
_chemical_formula_sum "Si O2"
_cell_formula_units_Z 56
_cell_length_a 13.179464
_cell_length_b 20.733954
_cell_length_c 9.216817
_cell_angle_alpha 90.000000
_cell_angle_beta 90.000000
_cell_angle_gamma 90.000000
_cell_volume 2518.609537
_symmetry_space_group_name_H-M "A B M 2"
_symmetry_group_IT_number 39
_symmetry_cell_setting 'orthorhombic'
loop_
_space_group_symop_operation_xyz
x,y,z
-x,-y,z
-x,1/2+y,z
x,1/2-y,z
x,1/2+y,1/2+z
-x,1/2-y,1/2+z
-x,y,1/2+z
x,-y,1/2+z
loop_
_atom_site_type_symbol
_atom_site_label
_atom_site_fract_x
_atom_site_fract_y
_atom_site_fract_z
Si Si1 0.885899 0.615771 0.533170
Si Si2 0.547385 0.174137 0.837733
Si Si3 0.689096 0.823862 0.905528
Si Si4 0.296409 0.322651 0.582418
Si Si5 0.744783 0.992743 0.416319
Si Si6 0.944874 0.434818 0.320340
Si Si7 0.658428 0.918976 0.135988
O O1 0.813900 0.676316 0.508359
O O2 0.800390 0.559699 0.517570
O O3 0.929335 0.614837 0.692642
O O4 0.977585 0.596888 0.431348
O O5 0.570307 0.250000 0.796671
O O6 0.433554 0.173920 0.896509
O O7 0.567411 0.122094 0.710155
O O8 0.622066 0.152561 0.967726
O O9 0.724117 0.750000 0.916755
O O10 0.714572 0.850768 0.744536
O O11 0.719682 0.863059 0.049014
O O12 0.332552 0.250000 0.611346
O O13 0.710962 0.957078 0.268823
O O14 0.837910 0.041356 0.383276
O O15 0.654609 0.028206 0.505163
O O16 0.000000 0.500000 0.262475
#
# Coordination Sequence:
#
# PCOD9361248 Si02
#       7
#     8   8   8   8   8   8   8
#     4  11  21  38  59  88 125 166 217 265 327 388
#     4  10  21  41  69  96 125 170 227 278 329 391
#     4  10  22  41  68  98 127 171 227 280 331 391
#     4  10  21  39  64  93 129 167 217 282 337 383
#     4  11  23  38  60  93 129 169 212 267 327 396
#     4  10  21  36  60  87 117 161 217 264 318 391
#     4  12  23  39  65  92 134 172 219 274 324 393
#
# _framework density 22.234490000000001
#
# number of rings (size 3 to 8) (size 9 to 14) (size 15 to 20)
#    0.000    1.429    2.857    3.429    2.000    2.286 
#    0.000    2.857    0.000    1.714    0.000    0.000 
#    0.000    0.000    0.000    0.000    0.000    0.000 
#
# Total GULP energy -155998.711607 kJ/mol
# GULP energy per Si atom -5571.382557 kJ/mol
# Density = 2.218388 g / cm^3
# Si number density = 22.234490 Si / 1000 Ang^3
#
#
#
# Elastic Constant Matrix: (Units=GPa)
#
#
# Indices 1 2 3 4 5 6 
#
# 1 71.5952 24.2159 27.2832 0.0000 0.0000 0.0000
# 2 24.2159 62.5698 45.8789 0.0000 0.0000 0.0000
# 3 27.2832 45.8789 102.8029 0.0000 0.0000 0.0000
# 4 0.0000 0.0000 0.0000 39.2167 0.0000 0.0000
# 5 0.0000 0.0000 0.0000 0.0000 28.8785 0.0000
# 6 0.0000 0.0000 0.0000 0.0000 0.0000 32.2222
#
#
#
# Elastic Compliance Matrix: (Units=1/GPa)
#
#
# Indices 1 2 3 4 5 6 
#
# 1 0.016417 -0.004696 -0.002261 0.000000 0.000000 0.000000
# 2 -0.004696 0.025099 -0.009955 0.000000 0.000000 0.000000
# 3 -0.002261 -0.009955 0.014770 0.000000 0.000000 0.000000
# 4 0.000000 0.000000 0.000000 0.025499 0.000000 0.000000
# 5 0.000000 0.000000 0.000000 0.000000 0.034628 0.000000
# 6 0.000000 0.000000 0.000000 0.000000 0.000000 0.031034
#
#
# Mechanical properties :
#
#
# Convention : Reuss Voigt Hill
#
# Bulk Modulus (GPa) = 44.51899 47.96935 46.24417
# Shear Modulus (GPa) = 26.48867 29.36947 27.92907
#
# Velocity S-wave (km/s) = 3.45531 3.63836 3.54802
# Velocity P-wave (km/s) = 5.99874 6.26668 6.13417
#
# Compressibility (1/GPa) = 0.02246232
#
# Stress axis : x y z
#
# Youngs Moduli (GPa) = 60.91074 39.84240 67.70375
#
# Poissons Ratio (x) = 0.18709 0.15311
# Poissons Ratio (y) = 0.28602 0.67399
# Poissons Ratio (z) = 0.13775 0.39663
#
# Static dielectric constant tensor:
#      x y z
#    x 1.821590 0.000000 0.000000 
#    y 0.000000 1.963900 0.000000 
#    z 0.000000 0.000000 1.861770 
# 
# From -- ./inp_files/3417.got.cif
#   From: 2010.05.17/outbox.cif.g08.bks.cpg/sg39_2_cif.got.tgz:3417.got - 2010.06.03 18:22:40.
