data_PCOD9361968
_publ_section_title
;
Structure prediction by ZEFSAII (Michael W. Deem and Ramdas Pophale) SiO2 
 PCOD9361968
Probable space group: A B M 2
;
_chemical_formula_sum "Si O2"
_cell_formula_units_Z 40
_cell_length_a 8.174617
_cell_length_b 20.172308
_cell_length_c 10.435710
_cell_angle_alpha 90.000000
_cell_angle_beta 90.000000
_cell_angle_gamma 90.000000
_cell_volume 1720.857887
_symmetry_space_group_name_H-M "A B M 2"
_symmetry_group_IT_number 39
_symmetry_cell_setting 'orthorhombic'
loop_
_space_group_symop_operation_xyz
x,y,z
-x,-y,z
-x,1/2+y,z
x,1/2-y,z
x,1/2+y,1/2+z
-x,1/2-y,1/2+z
-x,y,1/2+z
x,-y,1/2+z
loop_
_atom_site_type_symbol
_atom_site_label
_atom_site_fract_x
_atom_site_fract_y
_atom_site_fract_z
Si Si1 0.822113 0.998099 0.620490
Si Si2 0.644618 0.750000 0.747433
Si Si3 0.500000 0.500000 0.446091
Si Si4 0.722358 0.250000 0.759319
Si Si5 0.871278 0.250000 0.031415
Si Si6 0.128605 0.363196 0.104700
Si Si7 0.275631 0.103777 0.833358
O O1 0.660866 0.987977 0.533720
O O2 0.811582 0.940261 0.725571
O O3 0.837419 0.070104 0.687438
O O4 0.000000 0.000000 0.551506
O O5 0.462706 0.750000 0.799794
O O6 0.693129 0.750000 0.597430
O O7 0.713023 0.819997 0.793996
O O8 0.444899 0.563762 0.362526
O O9 0.847301 0.250000 0.878528
O O10 0.748251 0.187746 0.668327
O O11 0.970683 0.315664 0.079302
O O12 0.180910 0.390457 0.966710
#
# Coordination Sequence:
#
# PCOD9361968 Si02
#       7
#     8   4   4   4   4   8   8
#     4  11  25  47  75 111 152 200 259 312 390 472
#     4  12  28  43  73 112 145 201 255 306 395 460
#     4  10  26  48  72 112 156 204 250 332 388 462
#     4  11  28  46  76 105 154 193 258 316 382 455
#     4  11  26  49  81 109 157 198 255 332 377 467
#     4  10  26  49  74 108 146 201 254 312 387 453
#     4  11  26  46  78 107 159 197 261 323 388 467
#
# _framework density 23.244221
#
# number of rings (size 3 to 8) (size 9 to 14) (size 15 to 20)
#    0.000    1.200    0.000    3.000   19.600    4.800 
#    3.600    0.000    0.000    0.000    0.000    0.000 
#    0.000    0.000    0.000    0.000    0.000    0.000 
#
# Total GULP energy -111426.539423 kJ/mol
# GULP energy per Si atom -5571.326971 kJ/mol
# Density = 2.319132 g / cm^3
# Si number density = 23.244221 Si / 1000 Ang^3
#
#
#
# Elastic Constant Matrix: (Units=GPa)
#
#
# Indices 1 2 3 4 5 6 
#
# 1 128.9937 49.5119 42.8682 0.0000 0.0000 0.0000
# 2 49.5119 226.7659 45.7625 0.0000 0.0000 0.0000
# 3 42.8682 45.7625 73.5868 0.0000 0.0000 0.0000
# 4 0.0000 0.0000 0.0000 3.6742 0.0000 0.0000
# 5 0.0000 0.0000 0.0000 0.0000 26.6160 0.0000
# 6 0.0000 0.0000 0.0000 0.0000 0.0000 -0.5136
#
#
#
# Elastic Compliance Matrix: (Units=1/GPa)
#
#
# Indices 1 2 3 4 5 6 
#
# 1 0.009863 -0.001137 -0.005039 0.000000 0.000000 0.000000
# 2 -0.001137 0.005174 -0.002555 0.000000 0.000000 0.000000
# 3 -0.005039 -0.002555 0.018114 0.000000 0.000000 0.000000
# 4 0.000000 0.000000 0.000000 0.272168 0.000000 0.000000
# 5 0.000000 0.000000 0.000000 0.000000 0.037571 0.000000
# 6 0.000000 0.000000 0.000000 0.000000 0.000000 -1.947172
#
#
# Mechanical properties :
#
#
# Convention : Reuss Voigt Hill
#
# Bulk Modulus (GPa) = 63.73877 78.40351 71.07114
# Shear Modulus (GPa) = -3.16137 25.36893 11.10378
#
# Velocity S-wave (km/s) = -1.16749 3.30723 2.18801
# Velocity P-wave (km/s) = 5.06592 6.95609 6.08485
#
# Compressibility (1/GPa) = 0.01568904
#
# Stress axis : x y z
#
# Youngs Moduli (GPa) = 101.38719 193.28634 55.20611
#
# Poissons Ratio (x) = 0.21969 0.27818
# Poissons Ratio (y) = 0.11524 0.14107
# Poissons Ratio (z) = 0.51089 0.49390
#
# Static dielectric constant tensor:
#      x y z
#    x 1.915120 0.000000 0.000000 
#    y 0.000000 2.022750 0.000000 
#    z 0.000000 0.000000 1.874840 
# 
# From -- ./inp_files/5098.got.cif
#   From: 2010.05.17/outbox.cif.g08.bks.cpg/sg39_3_cif.got.tgz:5098.got - 2010.06.03 18:22:40.
