data_PCOD9361443
_publ_section_title
;
Structure prediction by ZEFSAII (Michael W. Deem and Ramdas Pophale) SiO2 
 PCOD9361443
Probable space group: A B M 2
;
_chemical_formula_sum "Si O2"
_cell_formula_units_Z 56
_cell_length_a 15.859748
_cell_length_b 8.644463
_cell_length_c 20.781256
_cell_angle_alpha 90.000000
_cell_angle_beta 90.000000
_cell_angle_gamma 90.000000
_cell_volume 2849.089516
_symmetry_space_group_name_H-M "A B M 2"
_symmetry_group_IT_number 39
_symmetry_cell_setting 'orthorhombic'
loop_
_space_group_symop_operation_xyz
x,y,z
-x,-y,z
-x,1/2+y,z
x,1/2-y,z
x,1/2+y,1/2+z
-x,1/2-y,1/2+z
-x,y,1/2+z
x,-y,1/2+z
loop_
_atom_site_type_symbol
_atom_site_label
_atom_site_fract_x
_atom_site_fract_y
_atom_site_fract_z
Si Si1 0.910416 0.437188 0.380040
Si Si2 0.589648 0.067685 0.823351
Si Si3 0.823641 0.935758 0.004407
Si Si4 0.367761 0.934746 0.460404
Si Si5 0.232367 0.565128 0.278699
Si Si6 0.772501 0.062293 0.643164
Si Si7 0.414358 0.435141 0.103666
O O1 0.912178 0.250000 0.380340
O O2 0.890796 0.493943 0.452770
O O3 0.833068 0.484516 0.334129
O O4 0.000000 0.500000 0.357767
O O5 0.588808 0.250000 0.813773
O O6 0.500000 0.000000 0.800971
O O7 0.599369 0.025468 0.899008
O O8 0.673970 0.000059 0.790995
O O9 0.833360 0.750000 0.008846
O O10 0.819661 0.991463 0.078035
O O11 0.731762 0.960278 0.972362
O O12 0.380113 0.750000 0.449719
O O13 0.408672 0.980022 0.528307
O O14 0.237707 0.750000 0.280259
O O15 0.198532 0.507941 0.210025
O O16 0.775823 0.250000 0.645562
O O17 0.674004 0.016585 0.634625
O O18 0.500000 0.500000 0.132609
O O19 0.416649 0.250000 0.105996
#
# Coordination Sequence:
#
# PCOD9361443 Si02
#       7
#     8   8   8   8   8   8   8
#     4  10  21  39  65  92 118 152 193 240 298 355
#     4  12  24  36  54  82 116 157 203 248 295 347
#     4   8  15  34  61  84 112 151 187 231 291 348
#     4   9  16  32  54  78 111 149 190 238 292 344
#     4  11  23  41  61  84 120 160 197 244 297 350
#     4   9  19  36  58  81 110 154 198 235 289 349
#     4   9  18  30  49  75 108 150 193 239 287 341
#
# _framework density 19.655401999999999
#
# number of rings (size 3 to 8) (size 9 to 14) (size 15 to 20)
#    0.000    2.286    1.429    3.857    0.000    4.000 
#    0.000    5.000    0.000    3.429    0.000    0.000 
#    0.000    0.000    0.000    0.000    0.000    0.000 
#
# Total GULP energy -156254.577611 kJ/mol
# GULP energy per Si atom -5580.520629 kJ/mol
# Density = 1.961067 g / cm^3
# Si number density = 19.655402 Si / 1000 Ang^3
#
#
#
# Elastic Constant Matrix: (Units=GPa)
#
#
# Indices 1 2 3 4 5 6 
#
# 1 81.0870 23.3415 47.0814 0.0000 0.0000 0.0000
# 2 23.3415 33.6759 29.0367 0.0000 0.0000 0.0000
# 3 47.0814 29.0367 120.8839 0.0000 0.0000 0.0000
# 4 0.0000 0.0000 0.0000 23.1579 0.0000 0.0000
# 5 0.0000 0.0000 0.0000 0.0000 -5.1520 0.0000
# 6 0.0000 0.0000 0.0000 0.0000 0.0000 23.9515
#
#
#
# Elastic Compliance Matrix: (Units=1/GPa)
#
#
# Indices 1 2 3 4 5 6 
#
# 1 0.017444 -0.007861 -0.004906 0.000000 0.000000 0.000000
# 2 -0.007861 0.040994 -0.006785 0.000000 0.000000 0.000000
# 3 -0.004906 -0.006785 0.011813 0.000000 0.000000 0.000000
# 4 0.000000 0.000000 0.000000 0.043182 0.000000 0.000000
# 5 0.000000 0.000000 0.000000 0.000000 -0.194099 0.000000
# 6 0.000000 0.000000 0.000000 0.000000 0.000000 0.041751
#
#
# Mechanical properties :
#
#
# Convention : Reuss Voigt Hill
#
# Bulk Modulus (GPa) = 32.10589 48.28512 40.19550
# Shear Modulus (GPa) = 473.04391 17.47061 245.25726
#
# Velocity S-wave (km/s) = 15.53033 2.98459 11.18255
# Velocity P-wave (km/s) = 18.38363 6.04120 13.68309
#
# Compressibility (1/GPa) = 0.03114694
#
# Stress axis : x y z
#
# Youngs Moduli (GPa) = 57.32777 24.39399 84.65315
#
# Poissons Ratio (x) = 0.19175 0.41528
# Poissons Ratio (y) = 0.45063 0.57440
# Poissons Ratio (z) = 0.28123 0.16552
#
# Static dielectric constant tensor:
#      x y z
#    x 1.708030 0.000000 0.000000 
#    y 0.000000 1.664080 0.000000 
#    z 0.000000 0.000000 1.716710 
# 
# From -- ./inp_files/14770.got.cif
#   From: 2010.05.17/outbox.cif.g08.bks.cpg/sg39_8_cif.got.tgz:14770.got - 2010.06.03 18:22:40.
