data_PCOD9361115
_publ_section_title
;
Structure prediction by ZEFSAII (Michael W. Deem and Ramdas Pophale) SiO2 
 PCOD9361115
Probable space group: A B M 2
;
_chemical_formula_sum "Si O2"
_cell_formula_units_Z 64
_cell_length_a 9.248246
_cell_length_b 23.471310
_cell_length_c 14.245816
_cell_angle_alpha 90.000000
_cell_angle_beta 90.000000
_cell_angle_gamma 90.000000
_cell_volume 3092.317181
_symmetry_space_group_name_H-M "A B M 2"
_symmetry_group_IT_number 39
_symmetry_cell_setting 'orthorhombic'
loop_
_space_group_symop_operation_xyz
x,y,z
-x,-y,z
-x,1/2+y,z
x,1/2-y,z
x,1/2+y,1/2+z
-x,1/2-y,1/2+z
-x,y,1/2+z
x,-y,1/2+z
loop_
_atom_site_type_symbol
_atom_site_label
_atom_site_fract_x
_atom_site_fract_y
_atom_site_fract_z
Si Si1 0.230339 0.021459 0.200560
Si Si2 0.367559 0.818273 0.444196
Si Si3 0.097531 0.904382 0.959441
Si Si4 0.338177 0.492894 0.397128
Si Si5 0.035497 0.910483 0.253479
Si Si6 0.325729 0.817740 0.027949
Si Si7 0.738242 0.682908 0.733009
Si Si8 0.207018 0.921391 0.518544
O O1 0.279439 0.036482 0.095839
O O2 0.117652 0.854096 0.224048
O O3 0.138276 0.963664 0.221202
O O4 0.340812 0.022003 0.286638
O O5 0.350012 0.750000 0.460757
O O6 0.532538 0.834652 0.469131
O O7 0.334632 0.828771 0.333878
O O8 0.264426 0.856882 0.510174
O O9 0.009527 0.901735 0.862237
O O10 0.228998 0.948174 0.944774
O O11 0.180037 0.848318 0.993335
O O12 0.967210 0.924321 0.026461
O O13 0.500000 0.500000 0.431924
O O14 0.258924 0.551894 0.419640
O O15 0.879194 0.925936 0.214112
O O16 0.309192 0.750000 0.018288
O O17 0.351135 0.830754 0.138477
O O18 0.769768 0.750000 0.731083
#
# Coordination Sequence:
#
# PCOD9361115 Si02
#       8
#     8   8   8   8   8   8   8   8
#     4  10  23  39  63  89 129 171 207 271 328 390
#     4  10  22  44  67  94 132 174 222 279 340 409
#     4  11  22  39  67  93 130 173 216 280 323 396
#     4  11  24  42  60  92 134 167 219 263 329 405
#     4  10  20  40  61  92 126 168 212 262 334 385
#     4  10  23  41  65  98 131 175 226 273 342 415
#     4  10  20  39  68  93 129 174 214 271 339 398
#     4  12  23  41  66  97 126 172 224 270 338 392
#
# _framework density 20.696453999999999
#
# number of rings (size 3 to 8) (size 9 to 14) (size 15 to 20)
#    0.000    1.500    2.500    1.875    5.250    1.500 
#    9.000    0.625    0.000    0.000    0.000    0.000 
#    0.000    0.000    0.000    0.000    0.000    0.000 
#
# Total GULP energy -178301.726035 kJ/mol
# GULP energy per Si atom -5571.928939 kJ/mol
# Density = 2.064935 g / cm^3
# Si number density = 20.696454 Si / 1000 Ang^3
#
#
#
# Elastic Constant Matrix: (Units=GPa)
#
#
# Indices 1 2 3 4 5 6 
#
# 1 126.4874 40.7456 29.9223 0.0000 0.0000 0.0000
# 2 40.7456 62.5609 44.5631 0.0000 0.0000 0.0000
# 3 29.9223 44.5631 102.5443 0.0000 0.0000 0.0000
# 4 0.0000 0.0000 0.0000 21.6974 0.0000 0.0000
# 5 0.0000 0.0000 0.0000 0.0000 10.4598 0.0000
# 6 0.0000 0.0000 0.0000 0.0000 0.0000 31.8311
#
#
#
# Elastic Compliance Matrix: (Units=1/GPa)
#
#
# Indices 1 2 3 4 5 6 
#
# 1 0.010006 -0.006426 -0.000127 0.000000 0.000000 0.000000
# 2 -0.006426 0.027278 -0.009979 0.000000 0.000000 0.000000
# 3 -0.000127 -0.009979 0.014126 0.000000 0.000000 0.000000
# 4 0.000000 0.000000 0.000000 0.046088 0.000000 0.000000
# 5 0.000000 0.000000 0.000000 0.000000 0.095604 0.000000
# 6 0.000000 0.000000 0.000000 0.000000 0.000000 0.031416
#
#
# Mechanical properties :
#
#
# Convention : Reuss Voigt Hill
#
# Bulk Modulus (GPa) = 54.51165 58.00610 56.25887
# Shear Modulus (GPa) = 18.96104 24.55510 21.75807
#
# Velocity S-wave (km/s) = 3.03008 3.44821 3.24588
# Velocity P-wave (km/s) = 6.21592 6.62884 6.42570
#
# Compressibility (1/GPa) = 0.01834470
#
# Stress axis : x y z
#
# Youngs Moduli (GPa) = 99.93861 36.65917 70.79318
#
# Poissons Ratio (x) = 0.23559 0.00899
# Poissons Ratio (y) = 0.64225 0.70646
# Poissons Ratio (z) = 0.01269 0.36583
#
# Static dielectric constant tensor:
#      x y z
#    x 1.718530 0.000000 0.000000 
#    y 0.000000 1.770700 0.000000 
#    z 0.000000 0.000000 1.865810 
# 
# From -- ./inp_files/8774.got.cif
#   From: 2010.05.17/outbox.cif.g08.bks.cpg/sg39_5_cif.got.tgz:8774.got - 2010.06.03 18:22:40.
