data_PCOD9361368
_publ_section_title
;
Structure prediction by ZEFSAII (Michael W. Deem and Ramdas Pophale) SiO2 
 PCOD9361368
Probable space group: A B M 2
;
_chemical_formula_sum "Si O2"
_cell_formula_units_Z 48
_cell_length_a 5.140308
_cell_length_b 20.128026
_cell_length_c 17.319574
_cell_angle_alpha 90.000000
_cell_angle_beta 90.000000
_cell_angle_gamma 90.000000
_cell_volume 1791.956787
_symmetry_space_group_name_H-M "A B M 2"
_symmetry_group_IT_number 39
_symmetry_cell_setting 'orthorhombic'
loop_
_space_group_symop_operation_xyz
x,y,z
-x,-y,z
-x,1/2+y,z
x,1/2-y,z
x,1/2+y,1/2+z
-x,1/2-y,1/2+z
-x,y,1/2+z
x,-y,1/2+z
loop_
_atom_site_type_symbol
_atom_site_label
_atom_site_fract_x
_atom_site_fract_y
_atom_site_fract_z
Si Si1 0.595357 0.067339 0.859690
Si Si2 0.853527 0.321993 0.958835
Si Si3 0.517837 0.173080 0.584002
Si Si4 0.792813 0.321348 0.317456
Si Si5 0.805872 0.607046 0.214156
Si Si6 0.769690 0.541899 0.061595
O O1 0.735781 0.113274 0.920125
O O2 0.379553 0.113946 0.822060
O O3 0.759792 0.054646 0.782870
O O4 0.500000 0.000000 0.896224
O O5 0.721400 0.250000 0.939873
O O6 0.107120 0.316104 0.905992
O O7 0.774976 0.327766 0.049160
O O8 0.611425 0.250000 0.579130
O O9 0.566032 0.145270 0.670128
O O10 0.676692 0.116242 0.535015
O O11 0.673460 0.250000 0.297283
O O12 0.022034 0.337377 0.256728
O O13 0.905099 0.564975 0.141934
O O14 0.500000 0.500000 0.072478
O O15 0.000000 0.500000 0.020381
#
# Coordination Sequence:
#
# PCOD9361368 Si02
#       6
#     8   8   8   8   8   8
#     4  11  23  37  61  92 128 175 223 278 346 414
#     4   9  20  42  62  88 129 171 224 281 340 408
#     4   9  20  40  68  98 133 177 233 289 349 419
#     4  10  21  38  62  94 132 179 226 283 348 418
#     4   9  22  35  64  92 137 167 230 279 350 409
#     4  10  23  42  66  99 142 185 226 288 361 419
#
# _framework density 26.786359999999998
#
# number of rings (size 3 to 8) (size 9 to 14) (size 15 to 20)
#    1.000    1.333    0.000    1.500    4.667    4.667 
#    3.000    0.833    0.000    0.000    0.000    0.000 
#    0.000    0.000    0.000    0.000    0.000    0.000 
#
# Total GULP energy -133615.466996 kJ/mol
# GULP energy per Si atom -5567.311125 kJ/mol
# Density = 2.672539 g / cm^3
# Si number density = 26.786360 Si / 1000 Ang^3
#
#
#
# Elastic Constant Matrix: (Units=GPa)
#
#
# Indices 1 2 3 4 5 6 
#
# 1 57.6417 34.3714 8.8402 0.0000 0.0000 0.0000
# 2 34.3714 215.1824 22.9606 0.0000 0.0000 0.0000
# 3 8.8402 22.9606 97.9658 0.0000 0.0000 0.0000
# 4 0.0000 0.0000 0.0000 20.3091 0.0000 0.0000
# 5 0.0000 0.0000 0.0000 0.0000 29.7854 0.0000
# 6 0.0000 0.0000 0.0000 0.0000 0.0000 -110.1461
#
#
#
# Elastic Compliance Matrix: (Units=1/GPa)
#
#
# Indices 1 2 3 4 5 6 
#
# 1 0.019278 -0.002968 -0.001044 0.000000 0.000000 0.000000
# 2 -0.002968 0.005223 -0.000956 0.000000 0.000000 0.000000
# 3 -0.001044 -0.000956 0.010526 0.000000 0.000000 0.000000
# 4 0.000000 0.000000 0.000000 0.049239 0.000000 0.000000
# 5 0.000000 0.000000 0.000000 0.000000 0.033574 0.000000
# 6 0.000000 0.000000 0.000000 0.000000 0.000000 -0.009079
#
#
# Mechanical properties :
#
#
# Convention : Reuss Voigt Hill
#
# Bulk Modulus (GPa) = 39.85487 55.90381 47.87934
# Shear Modulus (GPa) = 39.35089 8.29753 23.82421
#
# Velocity S-wave (km/s) = 3.83700 1.76193 2.98554
# Velocity P-wave (km/s) = 5.87717 5.00547 5.45875
#
# Compressibility (1/GPa) = 0.02509103
#
# Stress axis : x y z
#
# Youngs Moduli (GPa) = 51.87134 191.44806 95.00280
#
# Poissons Ratio (x) = 0.56821 0.09919
# Poissons Ratio (y) = 0.15395 0.09086
# Poissons Ratio (z) = 0.05415 0.18310
#
# Static dielectric constant tensor:
#      x y z
#    x 2.324260 0.000000 0.000000 
#    y 0.000000 0.945850 0.000000 
#    z 0.000000 0.000000 2.105300 
# 
# From -- ./inp_files/13498.got.cif
#   From: 2010.05.17/outbox.cif.g08.bks.cpg/sg39_7_cif.got.tgz:13498.got - 2010.06.03 18:22:40.
