data_PCOD9361546
_publ_section_title
;
Structure prediction by ZEFSAII (Michael W. Deem and Ramdas Pophale) SiO2 
 PCOD9361546
Probable space group: A B M 2
;
_chemical_formula_sum "Si O2"
_cell_formula_units_Z 60
_cell_length_a 6.714309
_cell_length_b 25.772287
_cell_length_c 17.061110
_cell_angle_alpha 90.000000
_cell_angle_beta 90.000000
_cell_angle_gamma 90.000000
_cell_volume 2952.307339
_symmetry_space_group_name_H-M "A B M 2"
_symmetry_group_IT_number 39
_symmetry_cell_setting 'orthorhombic'
loop_
_space_group_symop_operation_xyz
x,y,z
-x,-y,z
-x,1/2+y,z
x,1/2-y,z
x,1/2+y,1/2+z
-x,1/2-y,1/2+z
-x,y,1/2+z
x,-y,1/2+z
loop_
_atom_site_type_symbol
_atom_site_label
_atom_site_fract_x
_atom_site_fract_y
_atom_site_fract_z
Si Si1 0.684754 0.620541 0.424010
Si Si2 0.500000 0.000000 0.658929
Si Si3 0.957252 0.306845 0.376533
Si Si4 0.155902 0.457606 0.546035
Si Si5 0.370882 0.190886 0.011697
Si Si6 0.594414 0.893545 0.246147
Si Si7 0.923532 0.135848 0.631376
Si Si8 0.735528 0.690972 0.710836
O O1 0.887763 0.649703 0.401012
O O2 0.731024 0.569981 0.474893
O O3 0.556448 0.658500 0.479267
O O4 0.584500 0.608602 0.340258
O O5 0.313250 0.015334 0.604185
O O6 0.544468 0.050166 0.711695
O O7 0.059424 0.250000 0.376338
O O8 0.782281 0.306079 0.439609
O O9 0.853427 0.313426 0.292908
O O10 0.000000 0.500000 0.516636
O O11 0.028854 0.413620 0.591808
O O12 0.422123 0.250000 0.035116
O O13 0.249071 0.160175 0.077829
O O14 0.812435 0.879430 0.212000
O O15 0.439430 0.851015 0.212984
O O16 0.100072 0.176745 0.646115
O O17 0.662685 0.750000 0.703374
#
# Coordination Sequence:
#
# PCOD9361546 Si02
#       8
#     8   4   8   8   8   8   8   8
#     4  12  25  45  69 104 139 182 238 292 354 427
#     4  12  26  50  72 100 134 182 238 302 362 408
#     4  10  21  41  68  96 140 185 222 276 346 423
#     4  12  27  48  73  94 136 188 236 299 361 419
#     4  11  24  42  68 103 143 183 225 280 350 431
#     4  12  26  45  72 104 138 181 236 298 355 421
#     4  12  24  46  70 101 140 181 232 290 353 425
#     4  11  24  43  71 106 142 183 229 285 355 428
#
# _framework density 20.323087999999998
#
# number of rings (size 3 to 8) (size 9 to 14) (size 15 to 20)
#    0.000    0.533    6.667    1.600    0.000    2.133 
#    4.800    0.000    0.000    0.000    0.000    0.000 
#    0.000    0.000    0.000    0.000    0.000    0.000 
#
# Total GULP energy -167784.438839 kJ/mol
# GULP energy per Si atom -5592.814628 kJ/mol
# Density = 2.027683 g / cm^3
# Si number density = 20.323088 Si / 1000 Ang^3
#
#
#
# Elastic Constant Matrix: (Units=GPa)
#
#
# Indices 1 2 3 4 5 6 
#
# 1 82.2074 59.6561 38.4922 0.0000 0.0000 0.0000
# 2 59.6561 151.1462 39.7850 0.0000 0.0000 0.0000
# 3 38.4922 39.7850 82.5479 0.0000 0.0000 0.0000
# 4 0.0000 0.0000 0.0000 30.5422 0.0000 0.0000
# 5 0.0000 0.0000 0.0000 0.0000 37.9668 0.0000
# 6 0.0000 0.0000 0.0000 0.0000 0.0000 42.3058
#
#
#
# Elastic Compliance Matrix: (Units=1/GPa)
#
#
# Indices 1 2 3 4 5 6 
#
# 1 0.019434 -0.006053 -0.006145 0.000000 0.000000 0.000000
# 2 -0.006053 0.009463 -0.001738 0.000000 0.000000 0.000000
# 3 -0.006145 -0.001738 0.015817 0.000000 0.000000 0.000000
# 4 0.000000 0.000000 0.000000 0.032742 0.000000 0.000000
# 5 0.000000 0.000000 0.000000 0.000000 0.026339 0.000000
# 6 0.000000 0.000000 0.000000 0.000000 0.000000 0.023637
#
#
# Mechanical properties :
#
#
# Convention : Reuss Voigt Hill
#
# Bulk Modulus (GPa) = 59.37506 65.75200 62.56353
# Shear Modulus (GPa) = 31.07177 34.02751 32.54964
#
# Velocity S-wave (km/s) = 3.91434 4.09629 4.00635
# Velocity P-wave (km/s) = 7.05042 7.40246 7.22858
#
# Compressibility (1/GPa) = 0.01684209
#
# Stress axis : x y z
#
# Youngs Moduli (GPa) = 51.45596 105.67812 63.22223
#
# Poissons Ratio (x) = 0.63967 0.38849
# Poissons Ratio (y) = 0.31146 0.10989
# Poissons Ratio (z) = 0.31619 0.18368
#
# Static dielectric constant tensor:
#      x y z
#    x 1.698690 0.000000 0.000000 
#    y 0.000000 1.706120 0.000000 
#    z 0.000000 0.000000 1.722050 
# 
# From -- ./inp_files/11149.got.cif
#   From: 2010.05.17/outbox.cif.g08.bks.cpg/sg39_6_cif.got.tgz:11149.got - 2010.06.03 18:22:40.
