data_PCOD9361669
_publ_section_title
;
Structure prediction by ZEFSAII (Michael W. Deem and Ramdas Pophale) SiO2 
 PCOD9361669
Probable space group: A B M 2
;
_chemical_formula_sum "Si O2"
_cell_formula_units_Z 64
_cell_length_a 22.774966
_cell_length_b 17.225893
_cell_length_c 8.351016
_cell_angle_alpha 90.000000
_cell_angle_beta 90.000000
_cell_angle_gamma 90.000000
_cell_volume 3276.263310
_symmetry_space_group_name_H-M "A B M 2"
_symmetry_group_IT_number 39
_symmetry_cell_setting 'orthorhombic'
loop_
_space_group_symop_operation_xyz
x,y,z
-x,-y,z
-x,1/2+y,z
x,1/2-y,z
x,1/2+y,1/2+z
-x,1/2-y,1/2+z
-x,y,1/2+z
x,-y,1/2+z
loop_
_atom_site_type_symbol
_atom_site_label
_atom_site_fract_x
_atom_site_fract_y
_atom_site_fract_z
Si Si1 0.065763 0.844430 0.229920
Si Si2 0.366730 0.550952 0.732406
Si Si3 0.579023 0.836937 0.970806
Si Si4 0.064790 0.344411 0.103124
Si Si5 0.725413 0.337486 0.896017
Si Si6 0.862271 0.344007 0.916261
Si Si7 0.641067 0.125065 0.165788
Si Si8 0.533711 0.573668 0.479280
O O1 0.069288 0.750000 0.235654
O O2 0.074598 0.870415 0.416716
O O3 0.000596 0.864075 0.165545
O O4 0.108892 0.870960 0.085106
O O5 0.397117 0.606210 0.605033
O O6 0.346465 0.467011 0.675484
O O7 0.312735 0.599676 0.801226
O O8 0.419422 0.536591 0.857893
O O9 0.569585 0.750000 0.029905
O O10 0.517370 0.872475 0.909946
O O11 0.628776 0.839196 0.836406
O O12 0.068337 0.250000 0.097694
O O13 0.107501 0.370718 0.248945
O O14 0.721995 0.250000 0.826248
O O15 0.692173 0.336301 0.065909
O O16 0.793063 0.360069 0.911622
O O17 0.869355 0.250000 0.917267
O O18 0.577175 0.127364 0.081155
O O19 0.500000 0.500000 0.557398
#
# Coordination Sequence:
#
# PCOD9361669 Si02
#       8
#     8   8   8   8   8   8   8   8
#     4   9  14  22  41  70 105 147 189 227 278 346
#     4  11  22  39  61  78 108 150 190 230 279 345
#     4  12  24  35  56  90 115 133 177 239 290 340
#     4   9  14  22  41  70 105 147 189 227 278 346
#     4  10  22  40  57  77 114 154 190 233 290 344
#     4   9  17  30  46  70 109 152 188 233 291 346
#     4  11  22  39  61  78 108 150 190 230 279 345
#     4  11  21  37  60  83 107 141 180 225 286 350
#
# _framework density 19.534448000000001
#
# number of rings (size 3 to 8) (size 9 to 14) (size 15 to 20)
#    0.000    1.750    3.750    2.250    0.000    4.000 
#    2.250    0.000    0.000    0.000    0.000    0.000 
#    0.000    3.000    0.000    0.000    0.000    0.000 
#
# Total GULP energy -178281.110996 kJ/mol
# GULP energy per Si atom -5571.284719 kJ/mol
# Density = 1.948999 g / cm^3
# Si number density = 19.534448 Si / 1000 Ang^3
#
#
#
# Elastic Constant Matrix: (Units=GPa)
#
#
# Indices 1 2 3 4 5 6 
#
# 1 143.4646 29.5095 68.3971 0.0000 0.0000 0.0000
# 2 29.5095 64.8870 12.6563 0.0000 0.0000 0.0000
# 3 68.3971 12.6563 116.6832 0.0000 0.0000 0.0000
# 4 0.0000 0.0000 0.0000 -1.3502 0.0000 0.0000
# 5 0.0000 0.0000 0.0000 0.0000 14.0449 0.0000
# 6 0.0000 0.0000 0.0000 0.0000 0.0000 1.1107
#
#
#
# Elastic Compliance Matrix: (Units=1/GPa)
#
#
# Indices 1 2 3 4 5 6 
#
# 1 0.010451 -0.003635 -0.005732 0.000000 0.000000 0.000000
# 2 -0.003635 0.017009 0.000286 0.000000 0.000000 0.000000
# 3 -0.005732 0.000286 0.011899 0.000000 0.000000 0.000000
# 4 0.000000 0.000000 0.000000 -0.740606 0.000000 0.000000
# 5 0.000000 0.000000 0.000000 0.000000 0.071200 0.000000
# 6 0.000000 0.000000 0.000000 0.000000 0.000000 0.900335
#
#
# Mechanical properties :
#
#
# Convention : Reuss Voigt Hill
#
# Bulk Modulus (GPa) = 47.17673 60.68451 53.93062
# Shear Modulus (GPa) = 16.91967 17.05921 16.98944
#
# Velocity S-wave (km/s) = 2.94623 2.95835 2.95230
# Velocity P-wave (km/s) = 5.98136 6.54232 6.26812
#
# Compressibility (1/GPa) = 0.02119689
#
# Stress axis : x y z
#
# Youngs Moduli (GPa) = 95.68847 58.79346 84.04084
#
# Poissons Ratio (x) = 0.21370 0.48169
# Poissons Ratio (y) = 0.34781 -0.02401
# Poissons Ratio (z) = 0.54845 -0.01680
#
# Static dielectric constant tensor:
#      x y z
#    x 1.658630 0.000000 0.000000 
#    y 0.000000 1.700750 0.000000 
#    z 0.000000 0.000000 1.765810 
# 
# From -- ./inp_files/4003.got.cif
#   From: 2010.05.17/outbox.cif.g08.bks.cpg/sg39_3_cif.got.tgz:4003.got - 2010.06.03 18:22:40.
