data_PCOD9361446
_publ_section_title
;
Structure prediction by ZEFSAII (Michael W. Deem and Ramdas Pophale) SiO2 
 PCOD9361446
Probable space group: A B M 2
;
_chemical_formula_sum "Si O2"
_cell_formula_units_Z 48
_cell_length_a 7.607955
_cell_length_b 25.008720
_cell_length_c 10.154625
_cell_angle_alpha 90.000000
_cell_angle_beta 90.000000
_cell_angle_gamma 90.000000
_cell_volume 1932.071923
_symmetry_space_group_name_H-M "A B M 2"
_symmetry_group_IT_number 39
_symmetry_cell_setting 'orthorhombic'
loop_
_space_group_symop_operation_xyz
x,y,z
-x,-y,z
-x,1/2+y,z
x,1/2-y,z
x,1/2+y,1/2+z
-x,1/2-y,1/2+z
-x,y,1/2+z
x,-y,1/2+z
loop_
_atom_site_type_symbol
_atom_site_label
_atom_site_fract_x
_atom_site_fract_y
_atom_site_fract_z
Si Si1 0.728932 0.868684 0.654700
Si Si2 0.964023 0.250000 0.305026
Si Si3 0.669527 0.750000 0.635365
Si Si4 0.677054 0.019462 0.228696
Si Si5 0.311577 0.250000 0.027962
Si Si6 0.226807 0.072840 0.395033
Si Si7 0.000000 0.500000 0.033603
Si Si8 0.132725 0.841764 0.700840
O O1 0.642629 0.811481 0.685275
O O2 0.680260 0.917086 0.750881
O O3 0.687014 0.892749 0.510800
O O4 0.940810 0.860981 0.653434
O O5 0.884361 0.250000 0.153735
O O6 0.792668 0.250000 0.392476
O O7 0.080500 0.301973 0.321980
O O8 0.522963 0.750000 0.519720
O O9 0.500000 0.000000 0.161177
O O10 0.690087 0.983738 0.358543
O O11 0.836980 0.004173 0.133027
O O12 0.242451 0.303106 0.105157
O O13 0.227090 0.107985 0.263702
O O14 0.032427 0.052338 0.442304
#
# Coordination Sequence:
#
# PCOD9361446 Si02
#       8
#     8   4   4   8   4   8   4   8
#     4  10  23  44  64  95 137 178 220 290 345 407
#     4   9  21  41  60  92 134 179 215 291 350 400
#     4  10  24  44  64  96 140 172 236 284 338 418
#     4  11  25  43  67 102 141 180 234 290 346 427
#     4  11  23  39  68  96 130 183 231 281 352 414
#     4  11  21  38  69  98 131 185 226 287 353 412
#     4  10  22  44  66  96 138 184 230 280 356 420
#     4  10  21  39  65  96 130 170 236 284 337 425
#
# _framework density 24.843793999999999
#
# number of rings (size 3 to 8) (size 9 to 14) (size 15 to 20)
#    0.000    1.667    0.000    5.000    2.333    5.333 
#    3.000    1.667    0.000    0.000    0.000    0.000 
#    0.000    0.000    0.000    0.000    0.000    0.000 
#
# Total GULP energy -133749.886544 kJ/mol
# GULP energy per Si atom -5572.911939 kJ/mol
# Density = 2.478725 g / cm^3
# Si number density = 24.843794 Si / 1000 Ang^3
#
#
#
# Elastic Constant Matrix: (Units=GPa)
#
#
# Indices 1 2 3 4 5 6 
#
# 1 88.5825 14.3829 -1.7239 0.0000 0.0000 0.0000
# 2 14.3829 220.0288 43.5302 0.0000 0.0000 0.0000
# 3 -1.7239 43.5302 69.7721 0.0000 0.0000 0.0000
# 4 0.0000 0.0000 0.0000 22.5592 0.0000 0.0000
# 5 0.0000 0.0000 0.0000 0.0000 23.1327 0.0000
# 6 0.0000 0.0000 0.0000 0.0000 0.0000 18.8961
#
#
#
# Elastic Compliance Matrix: (Units=1/GPa)
#
#
# Indices 1 2 3 4 5 6 
#
# 1 0.011455 -0.000918 0.000856 0.000000 0.000000 0.000000
# 2 -0.000918 0.005258 -0.003303 0.000000 0.000000 0.000000
# 3 0.000856 -0.003303 0.016414 0.000000 0.000000 0.000000
# 4 0.000000 0.000000 0.000000 0.044328 0.000000 0.000000
# 5 0.000000 0.000000 0.000000 0.000000 0.043229 0.000000
# 6 0.000000 0.000000 0.000000 0.000000 0.000000 0.052921
#
#
# Mechanical properties :
#
#
# Convention : Reuss Voigt Hill
#
# Bulk Modulus (GPa) = 37.88420 54.52908 46.20664
# Shear Modulus (GPa) = 26.43612 34.39721 30.41667
#
# Velocity S-wave (km/s) = 3.26558 3.72498 3.50282
# Velocity P-wave (km/s) = 5.43146 6.36373 5.91599
#
# Compressibility (1/GPa) = 0.02639623
#
# Stress axis : x y z
#
# Youngs Moduli (GPa) = 87.30091 190.17176 60.92191
#
# Poissons Ratio (x) = 0.17459 -0.05214
# Poissons Ratio (y) = 0.08015 0.20125
# Poissons Ratio (z) = -0.07471 0.62821
#
# Static dielectric constant tensor:
#      x y z
#    x 2.013030 0.000000 0.000000 
#    y 0.000000 2.008350 0.000000 
#    z 0.000000 0.000000 2.091200 
# 
# From -- ./inp_files/5242.got.cif
#   From: 2010.05.17/outbox.cif.g08.bks.cpg/sg39_3_cif.got.tgz:5242.got - 2010.06.03 18:22:40.
