data_PCOD9361634
_publ_section_title
;
Structure prediction by ZEFSAII (Michael W. Deem and Ramdas Pophale) SiO2 
 PCOD9361634
Probable space group: A B M 2
;
_chemical_formula_sum "Si O2"
_cell_formula_units_Z 64
_cell_length_a 14.438493
_cell_length_b 24.298414
_cell_length_c 8.864199
_cell_angle_alpha 90.000000
_cell_angle_beta 90.000000
_cell_angle_gamma 90.000000
_cell_volume 3109.848922
_symmetry_space_group_name_H-M "A B M 2"
_symmetry_group_IT_number 39
_symmetry_cell_setting 'orthorhombic'
loop_
_space_group_symop_operation_xyz
x,y,z
-x,-y,z
-x,1/2+y,z
x,1/2-y,z
x,1/2+y,1/2+z
-x,1/2-y,1/2+z
-x,y,1/2+z
x,-y,1/2+z
loop_
_atom_site_type_symbol
_atom_site_label
_atom_site_fract_x
_atom_site_fract_y
_atom_site_fract_z
Si Si1 0.217564 0.997833 0.712440
Si Si2 0.119179 0.100444 0.105375
Si Si3 0.961357 0.557699 0.826745
Si Si4 0.366685 0.812966 0.948510
Si Si5 0.431838 0.134393 0.962755
Si Si6 0.523329 0.561714 0.246562
Si Si7 0.725892 0.188025 0.621987
Si Si8 0.687665 0.567340 0.481746
O O1 0.130300 0.037782 0.739037
O O2 0.297576 0.033400 0.634475
O O3 0.187504 0.951776 0.592429
O O4 0.242986 0.961150 0.859403
O O5 0.184501 0.150643 0.145249
O O6 0.042241 0.082416 0.225191
O O7 0.067280 0.102877 0.947583
O O8 0.000000 0.500000 0.897333
O O9 0.348581 0.750000 0.002496
O O10 0.339423 0.813757 0.770867
O O11 0.309280 0.866518 0.007679
O O12 0.475758 0.827413 0.969595
O O13 0.433198 0.092237 0.103877
O O14 0.337796 0.167507 0.984631
O O15 0.441012 0.099804 0.809751
O O16 0.500000 0.500000 0.207075
O O17 0.591596 0.559900 0.391406
O O18 0.755271 0.250000 0.597691
#
# Coordination Sequence:
#
# PCOD9361634 Si02
#       8
#     8   8   8   8   8   8   8   8
#     4  11  21  37  63  96 132 166 207 263 330 405
#     4  11  22  40  63  96 129 167 215 264 340 396
#     4  10  22  38  65  97 129 166 205 263 331 414
#     4  10  22  41  64  91 125 174 230 273 319 380
#     4  11  21  44  61  90 123 174 220 264 321 389
#     4  11  25  35  58  92 135 171 211 261 330 396
#     4  11  23  43  67  91 123 171 228 281 329 389
#     4  11  23  38  60  95 134 172 213 271 334 390
#
# _framework density 20.579778000000001
#
# number of rings (size 3 to 8) (size 9 to 14) (size 15 to 20)
#    0.000    1.250    5.000    1.875    8.750    0.000 
#    0.000    0.625    0.000    0.750    0.000    0.000 
#    0.000    0.000    0.000    0.000    0.000    0.000 
#
# Total GULP energy -178616.979542 kJ/mol
# GULP energy per Si atom -5581.780611 kJ/mol
# Density = 2.053294 g / cm^3
# Si number density = 20.579778 Si / 1000 Ang^3
#
#
#
# Elastic Constant Matrix: (Units=GPa)
#
#
# Indices 1 2 3 4 5 6 
#
# 1 99.3215 54.1551 21.2017 0.0000 0.0000 0.0000
# 2 54.1551 148.8234 28.2983 0.0000 0.0000 0.0000
# 3 21.2017 28.2983 20.0291 0.0000 0.0000 0.0000
# 4 0.0000 0.0000 0.0000 16.9974 0.0000 0.0000
# 5 0.0000 0.0000 0.0000 0.0000 31.1313 0.0000
# 6 0.0000 0.0000 0.0000 0.0000 0.0000 25.7411
#
#
#
# Elastic Compliance Matrix: (Units=1/GPa)
#
#
# Indices 1 2 3 4 5 6 
#
# 1 0.013986 -0.003110 -0.010412 0.000000 0.000000 0.000000
# 2 -0.003110 0.009879 -0.010666 0.000000 0.000000 0.000000
# 3 -0.010412 -0.010666 0.076018 0.000000 0.000000 0.000000
# 4 0.000000 0.000000 0.000000 0.058832 0.000000 0.000000
# 5 0.000000 0.000000 0.000000 0.000000 0.032122 0.000000
# 6 0.000000 0.000000 0.000000 0.000000 0.000000 0.038848
#
#
# Mechanical properties :
#
#
# Convention : Reuss Voigt Hill
#
# Bulk Modulus (GPa) = 19.41418 52.83159 36.12289
# Shear Modulus (GPa) = 16.93594 25.74189 21.33891
#
# Velocity S-wave (km/s) = 2.87181 3.54055 3.22357
# Velocity P-wave (km/s) = 4.52222 6.51470 5.60766
#
# Compressibility (1/GPa) = 0.05150873
#
# Stress axis : x y z
#
# Youngs Moduli (GPa) = 71.49786 101.22425 13.15484
#
# Poissons Ratio (x) = 0.31478 0.13696
# Poissons Ratio (y) = 0.22234 0.14031
# Poissons Ratio (z) = 0.74441 1.07964
#
# Static dielectric constant tensor:
#      x y z
#    x 1.788930 0.000000 0.000000 
#    y 0.000000 1.748190 0.000000 
#    z 0.000000 0.000000 1.770880 
# 
# From -- ./inp_files/3532.got.cif
#   From: 2010.05.17/outbox.cif.g08.bks.cpg/sg39_2_cif.got.tgz:3532.got - 2010.06.03 18:22:40.
