data_PCOD9361601
_publ_section_title
;
Structure prediction by ZEFSAII (Michael W. Deem and Ramdas Pophale) SiO2 
 PCOD9361601
Probable space group: A B M 2
;
_chemical_formula_sum "Si O2"
_cell_formula_units_Z 60
_cell_length_a 12.183239
_cell_length_b 25.072430
_cell_length_c 9.110541
_cell_angle_alpha 90.000000
_cell_angle_beta 90.000000
_cell_angle_gamma 90.000000
_cell_volume 2782.936893
_symmetry_space_group_name_H-M "A B M 2"
_symmetry_group_IT_number 39
_symmetry_cell_setting 'orthorhombic'
loop_
_space_group_symop_operation_xyz
x,y,z
-x,-y,z
-x,1/2+y,z
x,1/2-y,z
x,1/2+y,1/2+z
-x,1/2-y,1/2+z
-x,y,1/2+z
x,-y,1/2+z
loop_
_atom_site_type_symbol
_atom_site_label
_atom_site_fract_x
_atom_site_fract_y
_atom_site_fract_z
Si Si1 0.355312 0.189660 0.891130
Si Si2 0.771984 0.488025 0.255780
Si Si3 0.059076 0.612587 0.777748
Si Si4 0.461873 0.653325 0.674269
Si Si5 0.284060 0.108726 0.352826
Si Si6 0.563932 0.448719 0.079845
Si Si7 0.150701 0.887837 0.440476
Si Si8 0.000000 0.000000 0.215578
O O1 0.316136 0.250000 0.876980
O O2 0.428603 0.172709 0.752794
O O3 0.256936 0.149396 0.926661
O O4 0.440068 0.183853 0.025378
O O5 0.746074 0.550124 0.285527
O O6 0.658694 0.467620 0.188858
O O7 0.805563 0.446735 0.387011
O O8 0.881004 0.484350 0.150047
O O9 0.161252 0.630740 0.876652
O O10 0.097063 0.613849 0.605389
O O11 0.033950 0.550392 0.811075
O O12 0.941879 0.634896 0.827963
O O13 0.348993 0.653978 0.764488
O O14 0.475056 0.589612 0.652060
O O15 0.369786 0.090718 0.474665
O O16 0.500000 0.500000 0.015450
#
# Coordination Sequence:
#
# PCOD9361601 Si02
#       8
#     8   8   8   8   8   8   8   4
#     4  12  27  49  73  97 128 172 229 292 352 406
#     4  10  22  37  58  91 137 182 215 257 317 401
#     4  10  23  40  64  93 134 179 223 272 330 398
#     4  12  24  45  68  99 133 176 219 277 339 403
#     4  11  24  37  62  98 139 181 223 263 325 402
#     4  12  25  35  61 101 146 180 221 265 328 405
#     4  11  24  43  68  95 134 175 222 283 339 398
#     4   8  20  36  52  86 122 172 212 242 302 378
#
# _framework density 21.559957000000001
#
# number of rings (size 3 to 8) (size 9 to 14) (size 15 to 20)
#    0.000    1.067    5.333    0.400   11.200    2.133 
#    0.000    0.667    0.000    0.000    0.000    0.000 
#    0.000    0.000    0.000    0.000    0.000    0.000 
#
# Total GULP energy -167026.544672 kJ/mol
# GULP energy per Si atom -5567.551489 kJ/mol
# Density = 2.151089 g / cm^3
# Si number density = 21.559957 Si / 1000 Ang^3
#
#
#
# Elastic Constant Matrix: (Units=GPa)
#
#
# Indices 1 2 3 4 5 6 
#
# 1 122.5841 9.6087 33.7109 0.0000 0.0000 0.0000
# 2 9.6087 55.0687 13.6717 0.0000 0.0000 0.0000
# 3 33.7109 13.6717 73.1032 0.0000 0.0000 0.0000
# 4 0.0000 0.0000 0.0000 146.8935 0.0000 0.0000
# 5 0.0000 0.0000 0.0000 0.0000 27.3934 0.0000
# 6 0.0000 0.0000 0.0000 0.0000 0.0000 6.3458
#
#
#
# Elastic Compliance Matrix: (Units=1/GPa)
#
#
# Indices 1 2 3 4 5 6 
#
# 1 0.009361 -0.000589 -0.004206 0.000000 0.000000 0.000000
# 2 -0.000589 0.019080 -0.003297 0.000000 0.000000 0.000000
# 3 -0.004206 -0.003297 0.016236 0.000000 0.000000 0.000000
# 4 0.000000 0.000000 0.000000 0.006808 0.000000 0.000000
# 5 0.000000 0.000000 0.000000 0.000000 0.036505 0.000000
# 6 0.000000 0.000000 0.000000 0.000000 0.000000 0.157585
#
#
# Mechanical properties :
#
#
# Convention : Reuss Voigt Hill
#
# Bulk Modulus (GPa) = 35.09730 40.52651 37.81190
# Shear Modulus (GPa) = 18.43276 49.04419 33.73847
#
# Velocity S-wave (km/s) = 2.92713 4.77464 3.96013
# Velocity P-wave (km/s) = 5.26673 7.01671 6.20373
#
# Compressibility (1/GPa) = 0.02849222
#
# Stress axis : x y z
#
# Youngs Moduli (GPa) = 106.83073 52.40980 61.59304
#
# Poissons Ratio (x) = 0.03087 0.25909
# Poissons Ratio (y) = 0.06292 0.20306
# Poissons Ratio (z) = 0.44937 0.17278
#
# Static dielectric constant tensor:
#      x y z
#    x 1.879190 0.000000 0.000000 
#    y 0.000000 1.761990 0.000000 
#    z 0.000000 0.000000 1.898220 
# 
# From -- ./inp_files/2841.got.cif
#   From: 2010.05.17/outbox.cif.g08.bks.cpg/sg39_2_cif.got.tgz:2841.got - 2010.06.03 18:22:40.
