data_PCOD9361104
_publ_section_title
;
Structure prediction by ZEFSAII (Michael W. Deem and Ramdas Pophale) SiO2 
 PCOD9361104
Probable space group: A B M 2
;
_chemical_formula_sum "Si O2"
_cell_formula_units_Z 60
_cell_length_a 11.292547
_cell_length_b 14.510281
_cell_length_c 18.738396
_cell_angle_alpha 90.000000
_cell_angle_beta 90.000000
_cell_angle_gamma 90.000000
_cell_volume 3070.436657
_symmetry_space_group_name_H-M "A B M 2"
_symmetry_group_IT_number 39
_symmetry_cell_setting 'orthorhombic'
loop_
_space_group_symop_operation_xyz
x,y,z
-x,-y,z
-x,1/2+y,z
x,1/2-y,z
x,1/2+y,1/2+z
-x,1/2-y,1/2+z
-x,y,1/2+z
x,-y,1/2+z
loop_
_atom_site_type_symbol
_atom_site_label
_atom_site_fract_x
_atom_site_fract_y
_atom_site_fract_z
Si Si1 0.500000 0.000000 0.255750
Si Si2 0.136038 0.519717 0.831059
Si Si3 0.881724 0.859619 0.605650
Si Si4 0.747998 0.358240 0.414080
Si Si5 0.766115 0.859998 0.454400
Si Si6 0.748749 0.011053 0.688114
Si Si7 0.478771 0.641214 0.883416
Si Si8 0.156702 0.640516 0.570718
O O1 0.384822 0.984823 0.207568
O O2 0.523347 0.915599 0.310156
O O3 0.202026 0.425718 0.854084
O O4 0.153376 0.589311 0.896454
O O5 0.195987 0.555683 0.759234
O O6 0.000000 0.500000 0.818575
O O7 0.871304 0.750000 0.619603
O O8 0.807315 0.882553 0.534083
O O9 0.827673 0.922293 0.667526
O O10 0.019567 0.879899 0.589421
O O11 0.767322 0.250000 0.398064
O O12 0.606878 0.373612 0.419080
O O13 0.812573 0.380255 0.488553
O O14 0.778592 0.750000 0.447112
O O15 0.631277 0.885647 0.433798
O O16 0.761928 0.081747 0.623202
O O17 0.467657 0.750000 0.868729
O O18 0.175072 0.750000 0.580341
#
# Coordination Sequence:
#
# PCOD9361104 Si02
#       8
#     4   8   8   8   8   8   8   8
#     4  12  24  42  60  86 124 162 200 248 300 356
#     4  12  23  36  60  89 120 159 205 250 296 356
#     4  10  22  41  63  90 125 160 198 248 302 358
#     4  10  21  39  65  91 118 156 202 252 304 354
#     4  10  21  39  65  91 118 156 202 252 304 354
#     4  12  25  40  60  87 123 165 202 242 300 360
#     4  10  20  39  65  91 121 153 196 256 306 350
#     4  10  22  41  63  90 125 160 198 248 302 358
#
# _framework density 19.541194999999998
#
# number of rings (size 3 to 8) (size 9 to 14) (size 15 to 20)
#    0.000    1.333    2.667    2.800    0.000    4.800 
#    0.000    1.333    0.000    0.000    0.000    0.000 
#    0.000    0.000    0.000    0.000    0.000    0.000 
#
# Total GULP energy -167687.297319 kJ/mol
# GULP energy per Si atom -5589.576577 kJ/mol
# Density = 1.949672 g / cm^3
# Si number density = 19.541195 Si / 1000 Ang^3
#
#
#
# Elastic Constant Matrix: (Units=GPa)
#
#
# Indices 1 2 3 4 5 6 
#
# 1 92.6681 -3.1468 11.3620 0.0000 0.0000 0.0000
# 2 -3.1468 39.7840 16.1996 0.0000 0.0000 0.0000
# 3 11.3620 16.1996 55.1348 0.0000 0.0000 0.0000
# 4 0.0000 0.0000 0.0000 11.3766 0.0000 0.0000
# 5 0.0000 0.0000 0.0000 0.0000 40.9476 0.0000
# 6 0.0000 0.0000 0.0000 0.0000 0.0000 23.9420
#
#
#
# Elastic Compliance Matrix: (Units=1/GPa)
#
#
# Indices 1 2 3 4 5 6 
#
# 1 0.011220 0.002078 -0.002923 0.000000 0.000000 0.000000
# 2 0.002078 0.028936 -0.008930 0.000000 0.000000 0.000000
# 3 -0.002923 -0.008930 0.021363 0.000000 0.000000 0.000000
# 4 0.000000 0.000000 0.000000 0.087900 0.000000 0.000000
# 5 0.000000 0.000000 0.000000 0.000000 0.024421 0.000000
# 6 0.000000 0.000000 0.000000 0.000000 0.000000 0.041768
#
#
# Mechanical properties :
#
#
# Convention : Reuss Voigt Hill
#
# Bulk Modulus (GPa) = 23.82685 26.26849 25.04767
# Shear Modulus (GPa) = 20.06832 26.13139 23.09985
#
# Velocity S-wave (km/s) = 3.20812 3.66080 3.44191
# Velocity P-wave (km/s) = 5.09336 5.59825 5.35177
#
# Compressibility (1/GPa) = 0.04196945
#
# Stress axis : x y z
#
# Youngs Moduli (GPa) = 89.12582 34.55872 46.80893
#
# Poissons Ratio (x) = -0.07180 0.13680
# Poissons Ratio (y) = -0.18516 0.41801
# Poissons Ratio (z) = 0.26048 0.30861
#
# Static dielectric constant tensor:
#      x y z
#    x 1.682810 0.000000 0.000000 
#    y 0.000000 1.695020 0.000000 
#    z 0.000000 0.000000 1.637650 
# 
# From -- ./inp_files/12308.got.cif
#   From: 2010.05.17/outbox.cif.g08.bks.cpg/sg39_7_cif.got.tgz:12308.got - 2010.06.03 18:22:40.
