data_PCOD9361536
_publ_section_title
;
Structure prediction by ZEFSAII (Michael W. Deem and Ramdas Pophale) SiO2 
 PCOD9361536
Probable space group: A B M 2
;
_chemical_formula_sum "Si O2"
_cell_formula_units_Z 56
_cell_length_a 10.435677
_cell_length_b 14.884534
_cell_length_c 14.911516
_cell_angle_alpha 90.000000
_cell_angle_beta 90.000000
_cell_angle_gamma 90.000000
_cell_volume 2316.208600
_symmetry_space_group_name_H-M "A B M 2"
_symmetry_group_IT_number 39
_symmetry_cell_setting 'orthorhombic'
loop_
_space_group_symop_operation_xyz
x,y,z
-x,-y,z
-x,1/2+y,z
x,1/2-y,z
x,1/2+y,1/2+z
-x,1/2-y,1/2+z
-x,y,1/2+z
x,-y,1/2+z
loop_
_atom_site_type_symbol
_atom_site_label
_atom_site_fract_x
_atom_site_fract_y
_atom_site_fract_z
Si Si1 0.532840 0.352644 0.579850
Si Si2 0.947803 0.647499 0.822293
Si Si3 0.507701 0.895691 0.776628
Si Si4 0.287854 0.356456 0.930111
Si Si5 0.135987 0.552372 0.154896
Si Si6 0.267680 0.643640 0.985831
Si Si7 0.764005 0.418195 0.799233
O O1 0.567848 0.250000 0.602083
O O2 0.470857 0.391301 0.670251
O O3 0.649448 0.394621 0.521840
O O4 0.415976 0.350579 0.510990
O O5 0.960951 0.750000 0.845648
O O6 0.227490 0.513403 0.715095
O O7 0.089192 0.611116 0.808381
O O8 0.885108 0.632473 0.725856
O O9 0.613429 0.859293 0.845203
O O10 0.361962 0.857934 0.780702
O O11 0.500000 0.000000 0.802263
O O12 0.270344 0.250000 0.948125
O O13 0.150872 0.392861 0.894965
O O14 0.188979 0.598419 0.066261
O O15 0.000000 0.500000 0.139894
O O16 0.227775 0.750000 0.968195
O O17 0.261802 0.572319 0.904949
#
# Coordination Sequence:
#
# PCOD9361536 Si02
#       7
#     8   8   8   8   8   8   8
#     4  10  22  40  65  95 130 172 223 280 337 401
#     4  10  21  41  67  96 135 183 229 281 342 409
#     4  12  24  41  65 100 133 174 219 278 346 407
#     4  10  21  41  66  93 129 176 225 276 336 403
#     4  10  23  43  63  98 140 181 224 285 352 411
#     4  11  22  43  73 102 130 181 238 282 338 416
#     4  11  24  43  66 100 139 175 226 287 348 406
#
# _framework density 24.177443
#
# number of rings (size 3 to 8) (size 9 to 14) (size 15 to 20)
#    0.000    1.429    1.429    3.857    0.000    6.286 
#   12.857    0.000    0.000    0.000    0.000    0.000 
#    0.000    0.000    0.000    0.000    0.000    0.000 
#
# Total GULP energy -155987.425832 kJ/mol
# GULP energy per Si atom -5570.979494 kJ/mol
# Density = 2.412241 g / cm^3
# Si number density = 24.177443 Si / 1000 Ang^3
#
#
#
# Elastic Constant Matrix: (Units=GPa)
#
#
# Indices 1 2 3 4 5 6 
#
# 1 104.1889 19.2117 17.2727 0.0000 0.0000 0.0000
# 2 19.2117 76.8921 15.6045 0.0000 0.0000 0.0000
# 3 17.2727 15.6045 95.8383 0.0000 0.0000 0.0000
# 4 0.0000 0.0000 0.0000 21.7601 0.0000 0.0000
# 5 0.0000 0.0000 0.0000 0.0000 46.1368 0.0000
# 6 0.0000 0.0000 0.0000 0.0000 0.0000 47.7052
#
#
#
# Elastic Compliance Matrix: (Units=1/GPa)
#
#
# Indices 1 2 3 4 5 6 
#
# 1 0.010261 -0.002263 -0.001481 0.000000 0.000000 0.000000
# 2 -0.002263 0.013949 -0.001863 0.000000 0.000000 0.000000
# 3 -0.001481 -0.001863 0.011005 0.000000 0.000000 0.000000
# 4 0.000000 0.000000 0.000000 0.045956 0.000000 0.000000
# 5 0.000000 0.000000 0.000000 0.000000 0.021675 0.000000
# 6 0.000000 0.000000 0.000000 0.000000 0.000000 0.020962
#
#
# Mechanical properties :
#
#
# Convention : Reuss Voigt Hill
#
# Bulk Modulus (GPa) = 41.66731 42.34412 42.00572
# Shear Modulus (GPa) = 34.95997 38.10914 36.53455
#
# Velocity S-wave (km/s) = 3.80672 3.97448 3.89151
# Velocity P-wave (km/s) = 6.04921 6.21401 6.13216
#
# Compressibility (1/GPa) = 0.02399963
#
# Stress axis : x y z
#
# Youngs Moduli (GPa) = 97.45876 71.69060 90.87188
#
# Poissons Ratio (x) = 0.16225 0.13456
# Poissons Ratio (y) = 0.22057 0.16932
# Poissons Ratio (z) = 0.14431 0.13358
#
# Static dielectric constant tensor:
#      x y z
#    x 2.022660 0.000000 0.000000 
#    y 0.000000 2.024230 0.000000 
#    z 0.000000 0.000000 1.988070 
# 
# From -- ./inp_files/9286.got.cif
#   From: 2010.05.17/outbox.cif.g08.bks.cpg/sg39_5_cif.got.tgz:9286.got - 2010.06.03 18:22:40.
