data_PCOD9361349
_publ_section_title
;
Structure prediction by ZEFSAII (Michael W. Deem and Ramdas Pophale) SiO2 
 PCOD9361349
Probable space group: A B M 2
;
_chemical_formula_sum "Si O2"
_cell_formula_units_Z 64
_cell_length_a 12.927562
_cell_length_b 14.335890
_cell_length_c 14.316522
_cell_angle_alpha 90.000000
_cell_angle_beta 90.000000
_cell_angle_gamma 90.000000
_cell_volume 2653.253918
_symmetry_space_group_name_H-M "A B M 2"
_symmetry_group_IT_number 39
_symmetry_cell_setting 'orthorhombic'
loop_
_space_group_symop_operation_xyz
x,y,z
-x,-y,z
-x,1/2+y,z
x,1/2-y,z
x,1/2+y,1/2+z
-x,1/2-y,1/2+z
-x,y,1/2+z
x,-y,1/2+z
loop_
_atom_site_type_symbol
_atom_site_label
_atom_site_fract_x
_atom_site_fract_y
_atom_site_fract_z
Si Si1 0.593738 0.855510 0.927450
Si Si2 0.775949 0.400034 0.294618
Si Si3 0.070512 0.142015 0.098277
Si Si4 0.019565 0.611833 0.382413
Si Si5 0.304587 0.634595 0.618760
Si Si6 0.797634 0.600899 0.391084
Si Si7 0.589078 0.645773 0.305202
Si Si8 0.841670 0.136560 0.102492
O O1 0.561573 0.750000 0.953473
O O2 0.686177 0.852930 0.853000
O O3 0.497476 0.898308 0.871489
O O4 0.641788 0.896859 0.022296
O O5 0.888640 0.357686 0.316120
O O6 0.784419 0.502648 0.338849
O O7 0.764304 0.392038 0.184346
O O8 0.071117 0.250000 0.127460
O O9 0.183782 0.103726 0.124864
O O10 0.958607 0.102292 0.127660
O O11 0.058548 0.137852 0.985696
O O12 0.000000 0.500000 0.881663
O O13 0.905272 0.647310 0.359010
O O14 0.300635 0.750000 0.618652
O O15 0.373392 0.603530 0.706904
O O16 0.693603 0.652324 0.364833
O O17 0.811692 0.594589 0.502402
O O18 0.550272 0.750000 0.281974
O O19 0.843506 0.250000 0.092779
#
# Coordination Sequence:
#
# PCOD9361349 Si02
#       8
#     8   8   8   8   8   8   8   8
#     4  10  21  38  61  88 121 163 218 281 329 380
#     4  11  22  38  61  92 127 168 217 263 326 394
#     4   9  17  33  57  87 122 160 208 265 322 380
#     4   9  19  36  54  86 125 163 204 254 319 388
#     4   9  18  34  58  89 116 152 207 265 325 385
#     4  10  23  41  58  89 131 171 210 263 331 390
#     4  10  22  39  60  86 119 167 221 272 329 392
#     4  10  22  39  63  97 133 173 220 273 324 385
#
# _framework density 24.121324999999999
#
# number of rings (size 3 to 8) (size 9 to 14) (size 15 to 20)
#    0.000    2.250    1.250    0.750    1.750    3.500 
#    2.250    5.625    0.000    3.000    0.000    0.000 
#    0.000    0.000    0.000    0.000    0.000    0.000 
#
# Total GULP energy -178746.002560 kJ/mol
# GULP energy per Si atom -5585.812580 kJ/mol
# Density = 2.406642 g / cm^3
# Si number density = 24.121325 Si / 1000 Ang^3
#
#
#
# Elastic Constant Matrix: (Units=GPa)
#
#
# Indices 1 2 3 4 5 6 
#
# 1 137.9979 7.3500 82.8416 0.0000 0.0000 0.0000
# 2 7.3500 96.3694 10.4351 0.0000 0.0000 0.0000
# 3 82.8416 10.4351 143.2051 0.0000 0.0000 0.0000
# 4 0.0000 0.0000 0.0000 27.7847 0.0000 0.0000
# 5 0.0000 0.0000 0.0000 0.0000 31.8532 0.0000
# 6 0.0000 0.0000 0.0000 0.0000 0.0000 9.6940
#
#
#
# Elastic Compliance Matrix: (Units=1/GPa)
#
#
# Indices 1 2 3 4 5 6 
#
# 1 0.011104 -0.000153 -0.006412 0.000000 0.000000 0.000000
# 2 -0.000153 0.010461 -0.000674 0.000000 0.000000 0.000000
# 3 -0.006412 -0.000674 0.010742 0.000000 0.000000 0.000000
# 4 0.000000 0.000000 0.000000 0.035991 0.000000 0.000000
# 5 0.000000 0.000000 0.000000 0.000000 0.031394 0.000000
# 6 0.000000 0.000000 0.000000 0.000000 0.000000 0.103156
#
#
# Mechanical properties :
#
#
# Convention : Reuss Voigt Hill
#
# Bulk Modulus (GPa) = 56.08841 64.31399 60.20120
# Shear Modulus (GPa) = 22.39448 32.32943 27.36196
#
# Velocity S-wave (km/s) = 3.05029 3.66496 3.37166
# Velocity P-wave (km/s) = 5.97568 6.68056 6.33793
#
# Compressibility (1/GPa) = 0.01782899
#
# Stress axis : x y z
#
# Youngs Moduli (GPa) = 90.05753 95.58986 93.09652
#
# Poissons Ratio (x) = 0.01458 0.59697
# Poissons Ratio (y) = 0.01374 0.06275
# Poissons Ratio (z) = 0.57748 0.06443
#
# Static dielectric constant tensor:
#      x y z
#    x 1.929590 0.000000 0.000000 
#    y 0.000000 1.978440 0.000000 
#    z 0.000000 0.000000 1.910730 
# 
# From -- ./inp_files/9465.got.cif
#   From: 2010.05.17/outbox.cif.g08.bks.cpg/sg39_5_cif.got.tgz:9465.got - 2010.06.03 18:22:40.
