data_PCOD9361434
_publ_section_title
;
Structure prediction by ZEFSAII (Michael W. Deem and Ramdas Pophale) SiO2 
 PCOD9361434
Probable space group: A B M 2
;
_chemical_formula_sum "Si O2"
_cell_formula_units_Z 40
_cell_length_a 6.911750
_cell_length_b 13.390827
_cell_length_c 16.327024
_cell_angle_alpha 90.000000
_cell_angle_beta 90.000000
_cell_angle_gamma 90.000000
_cell_volume 1511.132171
_symmetry_space_group_name_H-M "A B M 2"
_symmetry_group_IT_number 39
_symmetry_cell_setting 'orthorhombic'
loop_
_space_group_symop_operation_xyz
x,y,z
-x,-y,z
-x,1/2+y,z
x,1/2-y,z
x,1/2+y,1/2+z
-x,1/2-y,1/2+z
-x,y,1/2+z
x,-y,1/2+z
loop_
_atom_site_type_symbol
_atom_site_label
_atom_site_fract_x
_atom_site_fract_y
_atom_site_fract_z
Si Si1 0.227858 0.594343 0.035400
Si Si2 0.446183 0.134067 0.248028
Si Si3 0.871560 0.401710 0.213669
Si Si4 0.321416 0.635295 0.562797
Si Si5 0.900451 0.606795 0.363272
O O1 0.141256 0.635520 0.120614
O O2 0.454432 0.623295 0.035017
O O3 0.224382 0.470989 0.036039
O O4 0.125395 0.639262 0.956173
O O5 0.504107 0.250000 0.258411
O O6 0.648517 0.077933 0.236760
O O7 0.331247 0.130583 0.162056
O O8 0.312966 0.106648 0.324216
O O9 0.031526 0.652397 0.290908
O O10 0.000000 0.500000 0.206974
O O11 0.261194 0.750000 0.540257
O O12 0.000000 0.500000 0.372025
#
# Coordination Sequence:
#
# PCOD9361434 Si02
#       5
#     8   8   8   8   8
#     4  10  21  39  63  99 140 178 229 288 344 414
#     4  10  23  45  70 100 138 178 230 296 357 417
#     4  10  22  41  67  97 135 182 228 277 344 415
#     4   9  19  39  69  97 130 181 231 284 354 420
#     4  11  24  40  66  99 134 180 230 278 342 416
#
# _framework density 26.470217999999999
#
# number of rings (size 3 to 8) (size 9 to 14) (size 15 to 20)
#    0.000    2.000    0.000    3.000    0.000   14.400 
#    0.000    4.000    0.000    3.600    0.000    0.000 
#    0.000    0.000    0.000    0.000    0.000    0.000 
#
# Total GULP energy -111782.735394 kJ/mol
# GULP energy per Si atom -5589.136770 kJ/mol
# Density = 2.640997 g / cm^3
# Si number density = 26.470218 Si / 1000 Ang^3
#
#
#
# Elastic Constant Matrix: (Units=GPa)
#
#
# Indices 1 2 3 4 5 6 
#
# 1 138.4353 47.1303 80.1576 0.0000 0.0000 0.0000
# 2 47.1303 190.3209 30.6205 0.0000 0.0000 0.0000
# 3 80.1576 30.6205 246.1508 0.0000 0.0000 0.0000
# 4 0.0000 0.0000 0.0000 53.0028 0.0000 0.0000
# 5 0.0000 0.0000 0.0000 0.0000 52.1597 0.0000
# 6 0.0000 0.0000 0.0000 0.0000 0.0000 -66.8506
#
#
#
# Elastic Compliance Matrix: (Units=1/GPa)
#
#
# Indices 1 2 3 4 5 6 
#
# 1 0.009530 -0.001899 -0.002867 0.000000 0.000000 0.000000
# 2 -0.001899 0.005740 -0.000096 0.000000 0.000000 0.000000
# 3 -0.002867 -0.000096 0.005008 0.000000 0.000000 0.000000
# 4 0.000000 0.000000 0.000000 0.018867 0.000000 0.000000
# 5 0.000000 0.000000 0.000000 0.000000 0.019172 0.000000
# 6 0.000000 0.000000 0.000000 0.000000 0.000000 -0.014959
#
#
# Mechanical properties :
#
#
# Convention : Reuss Voigt Hill
#
# Bulk Modulus (GPa) = 94.74304 98.96929 96.85617
# Shear Modulus (GPa) = 88.33914 35.46229 61.90072
#
# Velocity S-wave (km/s) = 5.78321 3.66417 4.84105
# Velocity P-wave (km/s) = 8.97017 7.44121 8.24123
#
# Compressibility (1/GPa) = 0.01055486
#
# Stress axis : x y z
#
# Youngs Moduli (GPa) = 104.92927 174.21985 199.67386
#
# Poissons Ratio (x) = 0.33079 0.57252
# Poissons Ratio (y) = 0.19923 0.01911
# Poissons Ratio (z) = 0.30086 0.01668
#
# Static dielectric constant tensor:
#      x y z
#    x 2.062820 0.000000 0.000000 
#    y 0.000000 2.086980 0.000000 
#    z 0.000000 0.000000 2.032820 
# 
# From -- ./inp_files/11468.got.cif
#   From: 2010.05.17/outbox.cif.g08.bks.cpg/sg39_6_cif.got.tgz:11468.got - 2010.06.03 18:22:40.
