data_PCOD9361133
_publ_section_title
;
Structure prediction by ZEFSAII (Michael W. Deem and Ramdas Pophale) SiO2 
 PCOD9361133
Probable space group: A B M 2
;
_chemical_formula_sum "Si O2"
_cell_formula_units_Z 64
_cell_length_a 13.990832
_cell_length_b 18.012932
_cell_length_c 12.096131
_cell_angle_alpha 90.000000
_cell_angle_beta 90.000000
_cell_angle_gamma 90.000000
_cell_volume 3048.417406
_symmetry_space_group_name_H-M "A B M 2"
_symmetry_group_IT_number 39
_symmetry_cell_setting 'orthorhombic'
loop_
_space_group_symop_operation_xyz
x,y,z
-x,-y,z
-x,1/2+y,z
x,1/2-y,z
x,1/2+y,1/2+z
-x,1/2-y,1/2+z
-x,y,1/2+z
x,-y,1/2+z
loop_
_atom_site_type_symbol
_atom_site_label
_atom_site_fract_x
_atom_site_fract_y
_atom_site_fract_z
Si Si1 0.656015 0.668779 0.755540
Si Si2 0.355808 0.088466 0.316631
Si Si3 0.041774 0.916842 0.738510
Si Si4 0.522598 0.837705 0.125864
Si Si5 0.621165 0.554736 0.948600
Si Si6 0.172720 0.668157 0.901662
Si Si7 0.781735 0.468063 0.622639
Si Si8 0.850006 0.136139 0.149966
O O1 0.627961 0.750000 0.799072
O O2 0.590629 0.656114 0.647389
O O3 0.633542 0.606551 0.843342
O O4 0.766599 0.668169 0.725266
O O5 0.428221 0.137083 0.242337
O O6 0.280189 0.138987 0.381819
O O7 0.290709 0.046163 0.224681
O O8 0.401101 0.027284 0.398910
O O9 0.098528 0.887646 0.844421
O O10 0.123495 0.919515 0.643573
O O11 0.953112 0.865756 0.705914
O O12 0.000000 0.000000 0.754839
O O13 0.545106 0.750000 0.102280
O O14 0.557308 0.897774 0.035542
O O15 0.722515 0.546442 0.012293
O O16 0.163760 0.750000 0.850647
O O17 0.150302 0.671671 0.030221
O O18 0.817883 0.551501 0.627884
#
# Coordination Sequence:
#
# PCOD9361133 Si02
#       8
#     8   8   8   8   8   8   8   8
#     4  11  25  43  63  92 132 174 218 274 336 394
#     4  10  20  40  65  98 127 163 215 281 325 395
#     4   9  22  40  66  90 125 169 219 269 322 392
#     4  10  24  45  65  93 135 181 223 271 339 408
#     4  11  21  41  71  94 128 167 229 271 328 400
#     4  11  23  38  62  94 130 173 211 263 347 412
#     4   9  19  39  62  96 124 159 206 268 329 385
#     4  11  21  40  61  92 129 164 213 271 325 386
#
# _framework density 20.994499999999999
#
# number of rings (size 3 to 8) (size 9 to 14) (size 15 to 20)
#    0.000    1.750    2.500    1.125    0.000    5.000 
#    2.250    1.875    0.000    0.000    0.000    0.000 
#    0.000    0.000    0.000    0.000    0.000    0.000 
#
# Total GULP energy -178704.592036 kJ/mol
# GULP energy per Si atom -5584.518501 kJ/mol
# Density = 2.094672 g / cm^3
# Si number density = 20.994500 Si / 1000 Ang^3
#
#
#
# Elastic Constant Matrix: (Units=GPa)
#
#
# Indices 1 2 3 4 5 6 
#
# 1 101.8349 28.4632 19.3922 0.0000 0.0000 0.0000
# 2 28.4632 81.7838 24.9989 0.0000 0.0000 0.0000
# 3 19.3922 24.9989 57.8039 0.0000 0.0000 0.0000
# 4 0.0000 0.0000 0.0000 1.7734 0.0000 0.0000
# 5 0.0000 0.0000 0.0000 0.0000 25.2315 0.0000
# 6 0.0000 0.0000 0.0000 0.0000 0.0000 -10.8269
#
#
#
# Elastic Compliance Matrix: (Units=1/GPa)
#
#
# Indices 1 2 3 4 5 6 
#
# 1 0.011154 -0.003155 -0.002378 0.000000 0.000000 0.000000
# 2 -0.003155 0.014983 -0.005421 0.000000 0.000000 0.000000
# 3 -0.002378 -0.005421 0.020442 0.000000 0.000000 0.000000
# 4 0.000000 0.000000 0.000000 0.563881 0.000000 0.000000
# 5 0.000000 0.000000 0.000000 0.000000 0.039633 0.000000
# 6 0.000000 0.000000 0.000000 0.000000 0.000000 -0.092363
#
#
# Mechanical properties :
#
#
# Convention : Reuss Voigt Hill
#
# Bulk Modulus (GPa) = 40.53315 43.01458 41.77386
# Shear Modulus (GPa) = 8.50540 14.47350 11.48945
#
# Velocity S-wave (km/s) = 2.01496 2.62848 2.34190
# Velocity P-wave (km/s) = 4.97613 5.45389 5.22048
#
# Compressibility (1/GPa) = 0.02467116
#
# Stress axis : x y z
#
# Youngs Moduli (GPa) = 89.64999 66.74422 48.91899
#
# Poissons Ratio (x) = 0.21060 0.11631
# Poissons Ratio (y) = 0.28288 0.26519
# Poissons Ratio (z) = 0.21314 0.36182
#
# Static dielectric constant tensor:
#      x y z
#    x 1.759160 0.000000 0.000000 
#    y 0.000000 1.768000 0.000000 
#    z 0.000000 0.000000 1.726720 
# 
# From -- ./inp_files/6673.got.cif
#   From: 2010.05.17/outbox.cif.g08.bks.cpg/sg39_4_cif.got.tgz:6673.got - 2010.06.03 18:22:40.
