data_PCOD9361769
_publ_section_title
;
Structure prediction by ZEFSAII (Michael W. Deem and Ramdas Pophale) SiO2 
 PCOD9361769
Probable space group: A B M 2
;
_chemical_formula_sum "Si O2"
_cell_formula_units_Z 36
_cell_length_a 5.125042
_cell_length_b 15.604802
_cell_length_c 18.244735
_cell_angle_alpha 90.000000
_cell_angle_beta 90.000000
_cell_angle_gamma 90.000000
_cell_volume 1459.127528
_symmetry_space_group_name_H-M "A B M 2"
_symmetry_group_IT_number 39
_symmetry_cell_setting 'orthorhombic'
loop_
_space_group_symop_operation_xyz
x,y,z
-x,-y,z
-x,1/2+y,z
x,1/2-y,z
x,1/2+y,1/2+z
-x,1/2-y,1/2+z
-x,y,1/2+z
x,-y,1/2+z
loop_
_atom_site_type_symbol
_atom_site_label
_atom_site_fract_x
_atom_site_fract_y
_atom_site_fract_z
Si Si1 0.626196 0.412049 0.592870
Si Si2 0.342810 0.154206 0.459106
Si Si3 0.620895 0.346022 0.315961
Si Si4 0.000000 0.000000 0.476749
Si Si5 0.130219 0.407537 0.237484
O O1 0.500000 0.500000 0.624316
O O2 0.421211 0.358363 0.544526
O O3 0.787698 0.369939 0.658167
O O4 0.814558 0.447212 0.530380
O O5 0.229182 0.250000 0.449497
O O6 0.588767 0.148870 0.403677
O O7 0.167367 0.072604 0.436928
O O8 0.537071 0.250000 0.295102
O O9 0.401067 0.406599 0.281383
O O10 0.906299 0.360195 0.283591
O O11 0.000000 0.500000 0.224446
#
# Coordination Sequence:
#
# PCOD9361769 Si02
#       5
#     8   8   8   4   8
#     4  10  22  43  69 102 143 189 249 312 366 447
#     4  10  25  45  70 108 150 195 248 311 373 447
#     4  11  27  47  68 105 152 191 243 308 372 445
#     4  10  22  42  74 100 142 188 254 304 374 440
#     4  12  25  45  74 103 144 195 246 305 370 442
#
# _framework density 24.672277999999999
#
# number of rings (size 3 to 8) (size 9 to 14) (size 15 to 20)
#    0.000    1.333    1.111    2.667    7.778    6.222 
#    0.000    0.000    0.000    0.000    0.000    0.000 
#    0.000    0.000    0.000    0.000    0.000    0.000 
#
# Total GULP energy -100600.522260 kJ/mol
# GULP energy per Si atom -5588.917903 kJ/mol
# Density = 2.461612 g / cm^3
# Si number density = 24.672278 Si / 1000 Ang^3
#
#
#
# Elastic Constant Matrix: (Units=GPa)
#
#
# Indices 1 2 3 4 5 6 
#
# 1 110.4355 44.5118 43.7216 0.0000 0.0000 0.0000
# 2 44.5118 99.4750 61.5806 0.0000 0.0000 0.0000
# 3 43.7216 61.5806 125.0089 0.0000 0.0000 0.0000
# 4 0.0000 0.0000 0.0000 10.8816 0.0000 0.0000
# 5 0.0000 0.0000 0.0000 0.0000 44.8915 0.0000
# 6 0.0000 0.0000 0.0000 0.0000 0.0000 29.0989
#
#
#
# Elastic Compliance Matrix: (Units=1/GPa)
#
#
# Indices 1 2 3 4 5 6 
#
# 1 0.011427 -0.003797 -0.002126 0.000000 0.000000 0.000000
# 2 -0.003797 0.015725 -0.006418 0.000000 0.000000 0.000000
# 3 -0.002126 -0.006418 0.011905 0.000000 0.000000 0.000000
# 4 0.000000 0.000000 0.000000 0.091898 0.000000 0.000000
# 5 0.000000 0.000000 0.000000 0.000000 0.022276 0.000000
# 6 0.000000 0.000000 0.000000 0.000000 0.000000 0.034366
#
#
# Mechanical properties :
#
#
# Convention : Reuss Voigt Hill
#
# Bulk Modulus (GPa) = 69.57011 70.50527 70.03769
# Shear Modulus (GPa) = 23.03386 29.31475 26.17430
#
# Velocity S-wave (km/s) = 3.05879 3.45072 3.26065
# Velocity P-wave (km/s) = 6.38231 6.67198 6.52875
#
# Compressibility (1/GPa) = 0.01437399
#
# Stress axis : x y z
#
# Youngs Moduli (GPa) = 87.51000 63.59226 83.99978
#
# Poissons Ratio (x) = 0.24147 0.17860
# Poissons Ratio (y) = 0.33229 0.53914
# Poissons Ratio (z) = 0.18606 0.40816
#
# Static dielectric constant tensor:
#      x y z
#    x 2.022700 0.000000 0.000000 
#    y 0.000000 2.666730 0.000000 
#    z 0.000000 0.000000 1.945060 
# 
# From -- ./inp_files/13404.got.cif
#   From: 2010.05.17/outbox.cif.g08.bks.cpg/sg39_7_cif.got.tgz:13404.got - 2010.06.03 18:22:40.
