data_PCOD9361452
_publ_section_title
;
Structure prediction by ZEFSAII (Michael W. Deem and Ramdas Pophale) SiO2 
 PCOD9361452
Probable space group: A B M 2
;
_chemical_formula_sum "Si O2"
_cell_formula_units_Z 64
_cell_length_a 9.177255
_cell_length_b 21.869613
_cell_length_c 15.873215
_cell_angle_alpha 90.000000
_cell_angle_beta 90.000000
_cell_angle_gamma 90.000000
_cell_volume 3185.802112
_symmetry_space_group_name_H-M "A B M 2"
_symmetry_group_IT_number 39
_symmetry_cell_setting 'orthorhombic'
loop_
_space_group_symop_operation_xyz
x,y,z
-x,-y,z
-x,1/2+y,z
x,1/2-y,z
x,1/2+y,1/2+z
-x,1/2-y,1/2+z
-x,y,1/2+z
x,-y,1/2+z
loop_
_atom_site_type_symbol
_atom_site_label
_atom_site_fract_x
_atom_site_fract_y
_atom_site_fract_z
Si Si1 0.162463 0.929698 0.802400
Si Si2 0.826523 0.567750 0.765617
Si Si3 0.257318 0.179363 0.883148
Si Si4 0.290494 0.383716 0.141153
Si Si5 0.781946 0.113259 0.986439
Si Si6 0.501700 0.179467 0.522025
Si Si7 0.670072 0.484538 0.103250
Si Si8 0.048051 0.319152 0.043181
O O1 0.278817 0.898742 0.739466
O O2 0.167016 0.897045 0.891643
O O3 0.002029 0.924283 0.760061
O O4 0.192374 0.002212 0.813009
O O5 0.766511 0.626951 0.814279
O O6 0.741926 0.554321 0.678844
O O7 0.266974 0.250000 0.851635
O O8 0.398461 0.165460 0.940698
O O9 0.127349 0.177784 0.952129
O O10 0.254265 0.449281 0.099541
O O11 0.169811 0.335617 0.111620
O O12 0.440749 0.360318 0.100701
O O13 0.662618 0.165767 0.997749
O O14 0.701249 0.052869 0.019452
O O15 0.919746 0.132088 0.042152
O O16 0.525850 0.250000 0.542941
O O17 0.500000 0.500000 0.117793
O O18 0.994904 0.250000 0.055560
#
# Coordination Sequence:
#
# PCOD9361452 Si02
#       8
#     8   8   8   8   8   8   8   8
#     4  10  23  37  64  99 125 168 213 276 331 385
#     4  10  21  41  61  94 134 162 215 269 325 385
#     4   9  19  38  63  91 126 170 215 265 325 394
#     4  10  21  43  64  89 129 168 222 260 328 392
#     4  12  23  39  66  94 135 163 221 274 336 389
#     4  10  22  41  63  88 127 171 216 266 326 397
#     4  11  24  40  64  96 131 175 216 270 327 400
#     4  10  21  39  66  95 127 173 222 268 323 398
#
# _framework density 20.089131999999999
#
# number of rings (size 3 to 8) (size 9 to 14) (size 15 to 20)
#    0.000    1.750    2.500    2.250    3.500    3.500 
#    0.000    6.875    0.000    0.000    0.000    0.000 
#    0.000    0.000    0.000    0.000    0.000    0.000 
#
# Total GULP energy -178570.839338 kJ/mol
# GULP energy per Si atom -5580.338729 kJ/mol
# Density = 2.004341 g / cm^3
# Si number density = 20.089132 Si / 1000 Ang^3
#
#
#
# Elastic Constant Matrix: (Units=GPa)
#
#
# Indices 1 2 3 4 5 6 
#
# 1 78.2368 1.6905 13.9016 0.0000 0.0000 0.0000
# 2 1.6905 61.0541 30.8170 0.0000 0.0000 0.0000
# 3 13.9016 30.8170 40.6871 0.0000 0.0000 0.0000
# 4 0.0000 0.0000 0.0000 29.8968 0.0000 0.0000
# 5 0.0000 0.0000 0.0000 0.0000 17.0246 0.0000
# 6 0.0000 0.0000 0.0000 0.0000 0.0000 29.9281
#
#
#
# Elastic Compliance Matrix: (Units=1/GPa)
#
#
# Indices 1 2 3 4 5 6 
#
# 1 0.014003 0.003282 -0.007270 0.000000 0.000000 0.000000
# 2 0.003282 0.027285 -0.021788 0.000000 0.000000 0.000000
# 3 -0.007270 -0.021788 0.043564 0.000000 0.000000 0.000000
# 4 0.000000 0.000000 0.000000 0.033448 0.000000 0.000000
# 5 0.000000 0.000000 0.000000 0.000000 0.058738 0.000000
# 6 0.000000 0.000000 0.000000 0.000000 0.000000 0.033413
#
#
# Mechanical properties :
#
#
# Convention : Reuss Voigt Hill
#
# Bulk Modulus (GPa) = 30.02970 30.31069 30.17019
# Shear Modulus (GPa) = 18.30806 24.27451 21.29129
#
# Velocity S-wave (km/s) = 3.02212 3.47989 3.25905
# Velocity P-wave (km/s) = 5.21136 5.59169 5.40487
#
# Compressibility (1/GPa) = 0.03330037
#
# Stress axis : x y z
#
# Youngs Moduli (GPa) = 71.41557 36.64969 22.95476
#
# Poissons Ratio (x) = -0.12028 0.16688
# Poissons Ratio (y) = -0.23437 0.50013
# Poissons Ratio (z) = 0.51918 0.79851
#
# Static dielectric constant tensor:
#      x y z
#    x 1.742840 0.000000 0.000000 
#    y 0.000000 1.706950 0.000000 
#    z 0.000000 0.000000 1.689830 
# 
# From -- ./inp_files/8798.got.cif
#   From: 2010.05.17/outbox.cif.g08.bks.cpg/sg39_5_cif.got.tgz:8798.got - 2010.06.03 18:22:40.
