data_PCOD9361143
_publ_section_title
;
Structure prediction by ZEFSAII (Michael W. Deem and Ramdas Pophale) SiO2 
 PCOD9361143
Probable space group: A B M 2
;
_chemical_formula_sum "Si O2"
_cell_formula_units_Z 40
_cell_length_a 10.904803
_cell_length_b 16.396613
_cell_length_c 8.969810
_cell_angle_alpha 90.000000
_cell_angle_beta 90.000000
_cell_angle_gamma 90.000000
_cell_volume 1603.818484
_symmetry_space_group_name_H-M "A B M 2"
_symmetry_group_IT_number 39
_symmetry_cell_setting 'orthorhombic'
loop_
_space_group_symop_operation_xyz
x,y,z
-x,-y,z
-x,1/2+y,z
x,1/2-y,z
x,1/2+y,1/2+z
-x,1/2-y,1/2+z
-x,y,1/2+z
x,-y,1/2+z
loop_
_atom_site_type_symbol
_atom_site_label
_atom_site_fract_x
_atom_site_fract_y
_atom_site_fract_z
Si Si1 0.098272 0.390584 0.412040
Si Si2 0.745463 0.750000 0.556420
Si Si3 0.255896 0.250000 0.105552
Si Si4 0.510539 0.750000 0.897904
Si Si5 0.000000 0.000000 0.677364
Si Si6 0.500000 0.000000 0.967308
Si Si7 0.914726 0.250000 0.343163
Si Si8 0.605194 0.607485 0.229573
O O1 0.049714 0.432997 0.562682
O O2 0.999340 0.329469 0.337168
O O3 0.202409 0.330938 0.476557
O O4 0.103695 0.462931 0.288680
O O5 0.602290 0.750000 0.515357
O O6 0.805897 0.750000 0.721247
O O7 0.365674 0.250000 0.986882
O O8 0.134058 0.250000 0.012667
O O9 0.280115 0.333554 0.194390
O O10 0.494121 0.828737 0.794337
O O11 0.397554 0.961030 0.858083
O O12 0.560650 0.934356 0.077744
#
# Coordination Sequence:
#
# PCOD9361143 Si02
#       8
#     8   4   4   4   4   4   4   8
#     4  10  22  44  72 104 134 174 218 282 344 410
#     4  11  24  43  70 102 136 180 230 282 333 404
#     4  11  24  41  67  97 136 185 234 277 324 401
#     4  11  24  41  67  97 136 185 234 277 324 401
#     4  10  20  40  76 102 142 164 216 282 350 416
#     4  10  20  40  68  86 132 166 236 274 348 384
#     4  11  24  43  70 102 136 180 230 282 333 404
#     4  10  22  40  64  92 120 182 213 293 321 397
#
# _framework density 24.940479
#
# number of rings (size 3 to 8) (size 9 to 14) (size 15 to 20)
#    0.000    1.600    4.000    0.000    2.800    3.200 
#    0.000    8.000    0.000    0.000    0.000    0.000 
#    0.000    0.000    0.000    0.000    0.000    0.000 
#
# Total GULP energy -111855.030375 kJ/mol
# GULP energy per Si atom -5592.751519 kJ/mol
# Density = 2.488371 g / cm^3
# Si number density = 24.940479 Si / 1000 Ang^3
#
#
#
# Elastic Constant Matrix: (Units=GPa)
#
#
# Indices 1 2 3 4 5 6 
#
# 1 50.4680 22.2368 28.5056 0.0000 0.0000 0.0000
# 2 22.2368 113.7588 58.3967 0.0000 0.0000 0.0000
# 3 28.5056 58.3967 185.4798 0.0000 0.0000 0.0000
# 4 0.0000 0.0000 0.0000 63.3589 0.0000 0.0000
# 5 0.0000 0.0000 0.0000 0.0000 38.5321 0.0000
# 6 0.0000 0.0000 0.0000 0.0000 0.0000 17.0998
#
#
#
# Elastic Compliance Matrix: (Units=1/GPa)
#
#
# Indices 1 2 3 4 5 6 
#
# 1 0.022602 -0.003143 -0.002484 0.000000 0.000000 0.000000
# 2 -0.003143 0.010922 -0.002956 0.000000 0.000000 0.000000
# 3 -0.002484 -0.002956 0.006704 0.000000 0.000000 0.000000
# 4 0.000000 0.000000 0.000000 0.015783 0.000000 0.000000
# 5 0.000000 0.000000 0.000000 0.000000 0.025952 0.000000
# 6 0.000000 0.000000 0.000000 0.000000 0.000000 0.058480
#
#
# Mechanical properties :
#
#
# Convention : Reuss Voigt Hill
#
# Bulk Modulus (GPa) = 43.35993 63.10941 53.23467
# Shear Modulus (GPa) = 30.24848 39.83596 35.04222
#
# Velocity S-wave (km/s) = 3.48634 4.00089 3.75244
# Velocity P-wave (km/s) = 5.79907 6.83387 6.33762
#
# Compressibility (1/GPa) = 0.02306277
#
# Stress axis : x y z
#
# Youngs Moduli (GPa) = 44.24290 91.55678 149.16946
#
# Poissons Ratio (x) = 0.28776 0.37056
# Poissons Ratio (y) = 0.13905 0.44090
# Poissons Ratio (z) = 0.10991 0.27062
#
# Static dielectric constant tensor:
#      x y z
#    x 2.073740 0.000000 0.000000 
#    y 0.000000 2.019340 0.000000 
#    z 0.000000 0.000000 1.977920 
# 
# From -- ./inp_files/2588.got.cif
#   From: 2010.05.17/outbox.cif.g08.bks.cpg/sg39_2_cif.got.tgz:2588.got - 2010.06.03 18:22:40.
