data_PCOD9361277
_publ_section_title
;
Structure prediction by ZEFSAII (Michael W. Deem and Ramdas Pophale) SiO2 
 PCOD9361277
Probable space group: A B M 2
;
_chemical_formula_sum "Si O2"
_cell_formula_units_Z 64
_cell_length_a 14.408889
_cell_length_b 8.635462
_cell_length_c 26.529130
_cell_angle_alpha 90.000000
_cell_angle_beta 90.000000
_cell_angle_gamma 90.000000
_cell_volume 3300.951026
_symmetry_space_group_name_H-M "A B M 2"
_symmetry_group_IT_number 39
_symmetry_cell_setting 'orthorhombic'
loop_
_space_group_symop_operation_xyz
x,y,z
-x,-y,z
-x,1/2+y,z
x,1/2-y,z
x,1/2+y,1/2+z
-x,1/2-y,1/2+z
-x,y,1/2+z
x,-y,1/2+z
loop_
_atom_site_type_symbol
_atom_site_label
_atom_site_fract_x
_atom_site_fract_y
_atom_site_fract_z
Si Si1 0.104854 0.563782 0.576640
Si Si2 0.394969 0.436027 0.631773
Si Si3 0.780285 0.935455 0.482669
Si Si4 0.603262 0.063860 0.244069
Si Si5 0.209200 0.564173 0.286965
Si Si6 0.104825 0.063688 0.189731
Si Si7 0.604016 0.566161 0.026250
Si Si8 0.104031 0.935491 0.884018
O O1 0.104112 0.750000 0.572624
O O2 0.164043 0.493387 0.531582
O O3 0.139266 0.522872 0.633211
O O4 0.000000 0.500000 0.572672
O O5 0.500000 0.500000 0.632611
O O6 0.393287 0.250000 0.626649
O O7 0.360998 0.479432 0.687588
O O8 0.356911 0.510371 0.580820
O O9 0.774336 0.750000 0.483776
O O10 0.836893 0.983652 0.433034
O O11 0.677150 0.004942 0.485676
O O12 0.596516 0.250000 0.244349
O O13 0.682609 0.015769 0.283109
O O14 0.500000 0.000000 0.252179
O O15 0.205209 0.750000 0.289750
O O16 0.161411 0.509826 0.235256
O O17 0.155332 0.493601 0.333970
O O18 0.104534 0.250000 0.194229
O O19 0.000000 0.000000 0.193055
O O20 0.500000 0.500000 0.020004
O O21 0.599216 0.750000 0.026123
O O22 0.099429 0.750000 0.883221
O O23 0.000000 0.000000 0.886477
#
# Coordination Sequence:
#
# PCOD9361277 Si02
#       8
#     8   8   8   8   8   8   8   8
#     4  10  21  37  58  88 122 158 197 242 303 367
#     4   9  16  30  51  79 115 157 199 241 290 345
#     4  11  24  41  63  89 119 157 203 252 307 365
#     4   9  20  36  56  85 119 159 201 245 295 350
#     4  11  23  39  61  89 120 158 203 249 302 358
#     4  10  21  37  57  85 120 157 195 241 298 362
#     4  11  22  37  58  87 123 162 205 250 301 358
#     4  11  25  45  68  92 118 154 199 252 308 363
#
# _framework density 19.388351
#
# number of rings (size 3 to 8) (size 9 to 14) (size 15 to 20)
#    0.000    1.750    0.000    4.875    1.750    6.000 
#    0.000    0.625    0.000    1.500    0.000    0.000 
#    0.000    0.000    0.000    0.000    0.000    0.000 
#
# Total GULP energy -178753.607935 kJ/mol
# GULP energy per Si atom -5586.050248 kJ/mol
# Density = 1.934422 g / cm^3
# Si number density = 19.388351 Si / 1000 Ang^3
#
#
#
# Elastic Constant Matrix: (Units=GPa)
#
#
# Indices 1 2 3 4 5 6 
#
# 1 141.1308 39.8383 91.7485 0.0000 0.0000 0.0000
# 2 39.8383 68.6231 47.7977 0.0000 0.0000 0.0000
# 3 91.7485 47.7977 131.8611 0.0000 0.0000 0.0000
# 4 0.0000 0.0000 0.0000 22.7475 0.0000 0.0000
# 5 0.0000 0.0000 0.0000 0.0000 38.2138 0.0000
# 6 0.0000 0.0000 0.0000 0.0000 0.0000 27.4304
#
#
#
# Elastic Compliance Matrix: (Units=1/GPa)
#
#
# Indices 1 2 3 4 5 6 
#
# 1 0.013081 -0.001678 -0.008493 0.000000 0.000000 0.000000
# 2 -0.001678 0.019710 -0.005977 0.000000 0.000000 0.000000
# 3 -0.008493 -0.005977 0.015660 0.000000 0.000000 0.000000
# 4 0.000000 0.000000 0.000000 0.043961 0.000000 0.000000
# 5 0.000000 0.000000 0.000000 0.000000 0.026169 0.000000
# 6 0.000000 0.000000 0.000000 0.000000 0.000000 0.036456
#
#
# Mechanical properties :
#
#
# Convention : Reuss Voigt Hill
#
# Bulk Modulus (GPa) = 61.90494 77.82045 69.86269
# Shear Modulus (GPa) = 25.94485 28.49369 27.21927
#
# Velocity S-wave (km/s) = 3.66206 3.83773 3.75093
# Velocity P-wave (km/s) = 7.06252 7.73708 7.40749
#
# Compressibility (1/GPa) = 0.01615380
#
# Stress axis : x y z
#
# Youngs Moduli (GPa) = 76.44817 50.73678 63.85763
#
# Poissons Ratio (x) = 0.08514 0.54236
# Poissons Ratio (y) = 0.12829 0.38167
# Poissons Ratio (z) = 0.64929 0.30324
#
# Static dielectric constant tensor:
#      x y z
#    x 1.686030 0.000000 0.000000 
#    y 0.000000 1.650260 0.000000 
#    z 0.000000 0.000000 1.681830 
# 
# From -- ./inp_files/16197.got.cif
#   From: 2010.05.17/outbox.cif.g08.bks.cpg/sg39_9_cif.got.tgz:16197.got - 2010.06.03 18:22:40.
