data_PCOD9361238
_publ_section_title
;
Structure prediction by ZEFSAII (Michael W. Deem and Ramdas Pophale) SiO2 
 PCOD9361238
Probable space group: A B M 2
;
_chemical_formula_sum "Si O2"
_cell_formula_units_Z 56
_cell_length_a 11.030285
_cell_length_b 21.237431
_cell_length_c 10.754295
_cell_angle_alpha 90.000000
_cell_angle_beta 90.000000
_cell_angle_gamma 90.000000
_cell_volume 2519.246478
_symmetry_space_group_name_H-M "A B M 2"
_symmetry_group_IT_number 39
_symmetry_cell_setting 'orthorhombic'
loop_
_space_group_symop_operation_xyz
x,y,z
-x,-y,z
-x,1/2+y,z
x,1/2-y,z
x,1/2+y,1/2+z
-x,1/2-y,1/2+z
-x,y,1/2+z
x,-y,1/2+z
loop_
_atom_site_type_symbol
_atom_site_label
_atom_site_fract_x
_atom_site_fract_y
_atom_site_fract_z
Si Si1 0.002111 0.824312 0.333080
Si Si2 0.358381 0.516203 0.531844
Si Si3 0.271518 0.677536 0.927494
Si Si4 0.908380 0.177491 0.580587
Si Si5 0.649201 0.353244 0.674858
Si Si6 0.627764 0.541038 0.771798
Si Si7 0.384844 0.319745 0.694911
O O1 0.030507 0.750000 0.313495
O O2 0.870309 0.828991 0.398659
O O3 0.988150 0.851417 0.193649
O O4 0.087750 0.850727 0.441849
O O5 0.500000 0.500000 0.512153
O O6 0.353830 0.583908 0.595003
O O7 0.309457 0.471356 0.639416
O O8 0.305093 0.516790 0.394323
O O9 0.305984 0.750000 0.896698
O O10 0.339828 0.636105 0.824046
O O11 0.305933 0.669190 0.070589
O O12 0.949346 0.250000 0.565629
O O13 0.772790 0.179303 0.633298
O O14 0.524517 0.318055 0.651356
O O15 0.500000 0.500000 0.762972
O O16 0.617073 0.617073 0.778876
O O17 0.353355 0.250000 0.747566
#
# Coordination Sequence:
#
# PCOD9361238 Si02
#       7
#     8   8   8   8   8   8   8
#     4   8  15  32  52  73 107 154 200 234 284 356
#     4  10  21  36  57  76 110 150 201 242 276 347
#     4   9  20  35  52  78 120 166 195 232 304 366
#     4   9  17  32  54  79 111 153 196 244 296 351
#     4  11  20  33  53  82 118 153 193 244 298 351
#     4  10  21  38  57  75 110 158 202 239 274 352
#     4  11  22  34  53  85 123 156 191 243 303 357
#
# _framework density 22.228870000000001
#
# number of rings (size 3 to 8) (size 9 to 14) (size 15 to 20)
#    0.000    2.286    2.857    2.143    4.000    0.000 
#    2.571    1.429    0.000    0.000    0.000    1.000 
#    0.000    0.000    0.000    0.000    0.000    0.000 
#
# Total GULP energy -155897.481998 kJ/mol
# GULP energy per Si atom -5567.767214 kJ/mol
# Density = 2.217828 g / cm^3
# Si number density = 22.228870 Si / 1000 Ang^3
#
#
#
# Elastic Constant Matrix: (Units=GPa)
#
#
# Indices 1 2 3 4 5 6 
#
# 1 22.2261 -0.6048 0.6931 0.0000 0.0000 0.0000
# 2 -0.6048 94.4885 34.5335 0.0000 0.0000 0.0000
# 3 0.6931 34.5335 83.8304 0.0000 0.0000 0.0000
# 4 0.0000 0.0000 0.0000 32.0837 0.0000 0.0000
# 5 0.0000 0.0000 0.0000 0.0000 43.5962 0.0000
# 6 0.0000 0.0000 0.0000 0.0000 0.0000 19.4460
#
#
#
# Elastic Compliance Matrix: (Units=1/GPa)
#
#
# Indices 1 2 3 4 5 6 
#
# 1 0.045024 0.000499 -0.000578 0.000000 0.000000 0.000000
# 2 0.000499 0.012465 -0.005139 0.000000 0.000000 0.000000
# 3 -0.000578 -0.005139 0.014051 0.000000 0.000000 0.000000
# 4 0.000000 0.000000 0.000000 0.031168 0.000000 0.000000
# 5 0.000000 0.000000 0.000000 0.000000 0.022938 0.000000
# 6 0.000000 0.000000 0.000000 0.000000 0.000000 0.051424
#
#
# Mechanical properties :
#
#
# Convention : Reuss Voigt Hill
#
# Bulk Modulus (GPa) = 16.36551 29.97651 23.17101
# Shear Modulus (GPa) = 24.05319 30.08673 27.06996
#
# Velocity S-wave (km/s) = 3.29305 3.68298 3.49346
# Velocity P-wave (km/s) = 4.67303 5.62143 5.16903
#
# Compressibility (1/GPa) = 0.06110413
#
# Stress axis : x y z
#
# Youngs Moduli (GPa) = 22.21048 80.22698 71.17157
#
# Poissons Ratio (x) = -0.04007 0.04114
# Poissons Ratio (y) = -0.01109 0.36574
# Poissons Ratio (z) = 0.01284 0.41228
#
# Static dielectric constant tensor:
#      x y z
#    x 1.784730 0.000000 0.000000 
#    y 0.000000 1.857080 0.000000 
#    z 0.000000 0.000000 1.923390 
# 
# From -- ./inp_files/5963.got.cif
#   From: 2010.05.17/outbox.cif.g08.bks.cpg/sg39_3_cif.got.tgz:5963.got - 2010.06.03 18:22:40.
