data_PCOD9361889
_publ_section_title
;
Structure prediction by ZEFSAII (Michael W. Deem and Ramdas Pophale) SiO2 
 PCOD9361889
Probable space group: A B M 2
;
_chemical_formula_sum "Si O2"
_cell_formula_units_Z 64
_cell_length_a 12.180028
_cell_length_b 22.792298
_cell_length_c 9.814085
_cell_angle_alpha 90.000000
_cell_angle_beta 90.000000
_cell_angle_gamma 90.000000
_cell_volume 2724.496261
_symmetry_space_group_name_H-M "A B M 2"
_symmetry_group_IT_number 39
_symmetry_cell_setting 'orthorhombic'
loop_
_space_group_symop_operation_xyz
x,y,z
-x,-y,z
-x,1/2+y,z
x,1/2-y,z
x,1/2+y,1/2+z
-x,1/2-y,1/2+z
-x,y,1/2+z
x,-y,1/2+z
loop_
_atom_site_type_symbol
_atom_site_label
_atom_site_fract_x
_atom_site_fract_y
_atom_site_fract_z
Si Si1 0.705764 0.161225 0.854150
Si Si2 0.763411 0.525510 0.346841
Si Si3 0.255865 0.855484 0.147944
Si Si4 0.509101 0.877408 0.224061
Si Si5 0.906390 0.180380 0.366761
Si Si6 0.120289 0.976758 0.104539
Si Si7 0.574103 0.551306 0.975053
Si Si8 0.091716 0.318183 0.169252
O O1 0.716925 0.090481 0.864508
O O2 0.582627 0.172003 0.800063
O O3 0.791510 0.180743 0.741273
O O4 0.744655 0.179952 0.004993
O O5 0.794730 0.515943 0.191408
O O6 0.868710 0.517965 0.442594
O O7 0.681270 0.477580 0.409750
O O8 0.385489 0.865964 0.171691
O O9 0.205263 0.826296 0.282182
O O10 0.175291 0.912393 0.132687
O O11 0.489213 0.923978 0.344177
O O12 0.578565 0.900585 0.094206
O O13 0.925309 0.250000 0.381136
O O14 0.906402 0.154495 0.518809
O O15 0.004530 0.154854 0.274344
O O16 0.000000 0.000000 0.143641
O O17 0.500000 0.500000 0.039168
O O18 0.058724 0.250000 0.153860
#
# Coordination Sequence:
#
# PCOD9361889 Si02
#       8
#     8   8   8   8   8   8   8   8
#     4  11  24  39  63  97 130 168 223 276 332 397
#     4  11  23  39  58  87 123 174 220 267 323 375
#     4  11  24  42  61  97 134 174 222 274 336 396
#     4  12  23  40  60  94 128 174 225 271 325 389
#     4  10  23  45  73 101 130 170 221 274 336 408
#     4  11  24  40  56  84 129 171 218 259 322 388
#     4  12  22  37  61  85 125 171 227 272 313 378
#     4  10  23  45  73 101 129 168 218 275 342 409
#
# _framework density 23.490580000000001
#
# number of rings (size 3 to 8) (size 9 to 14) (size 15 to 20)
#    0.000    1.000    3.750    3.000    3.500    2.500 
#    0.000    0.625    0.000    0.000    0.000    0.000 
#    0.000    0.000    0.000    0.000    0.000    0.000 
#
# Total GULP energy -178587.491874 kJ/mol
# GULP energy per Si atom -5580.859121 kJ/mol
# Density = 2.343711 g / cm^3
# Si number density = 23.490580 Si / 1000 Ang^3
#
#
#
# Elastic Constant Matrix: (Units=GPa)
#
#
# Indices 1 2 3 4 5 6 
#
# 1 112.3019 18.3590 31.1205 0.0000 0.0000 0.0000
# 2 18.3590 29.4165 19.6653 0.0000 0.0000 0.0000
# 3 31.1205 19.6653 165.2566 0.0000 0.0000 0.0000
# 4 0.0000 0.0000 0.0000 7.9265 0.0000 0.0000
# 5 0.0000 0.0000 0.0000 0.0000 30.2380 0.0000
# 6 0.0000 0.0000 0.0000 0.0000 0.0000 22.6743
#
#
#
# Elastic Compliance Matrix: (Units=1/GPa)
#
#
# Indices 1 2 3 4 5 6 
#
# 1 0.010151 -0.005495 -0.001258 0.000000 0.000000 0.000000
# 2 -0.005495 0.039907 -0.003714 0.000000 0.000000 0.000000
# 3 -0.001258 -0.003714 0.006730 0.000000 0.000000 0.000000
# 4 0.000000 0.000000 0.000000 0.126158 0.000000 0.000000
# 5 0.000000 0.000000 0.000000 0.000000 0.033071 0.000000
# 6 0.000000 0.000000 0.000000 0.000000 0.000000 0.044103
#
#
# Mechanical properties :
#
#
# Convention : Reuss Voigt Hill
#
# Bulk Modulus (GPa) = 27.89013 49.47384 38.68199
# Shear Modulus (GPa) = 17.06455 28.02312 22.54384
#
# Velocity S-wave (km/s) = 2.69818 3.45766 3.10126
# Velocity P-wave (km/s) = 4.64818 6.08666 5.41540
#
# Compressibility (1/GPa) = 0.03585498
#
# Stress axis : x y z
#
# Youngs Moduli (GPa) = 98.50868 25.05842 148.58751
#
# Poissons Ratio (x) = 0.13769 0.18690
# Poissons Ratio (y) = 0.54127 0.55187
# Poissons Ratio (z) = 0.12391 0.09307
#
# Static dielectric constant tensor:
#      x y z
#    x 1.932290 0.000000 0.000000 
#    y 0.000000 1.938010 0.000000 
#    z 0.000000 0.000000 1.904730 
# 
# From -- ./inp_files/2896.got.cif
#   From: 2010.05.17/outbox.cif.g08.bks.cpg/sg39_2_cif.got.tgz:2896.got - 2010.06.03 18:22:40.
