data_PCOD9361179
_publ_section_title
;
Structure prediction by ZEFSAII (Michael W. Deem and Ramdas Pophale) SiO2 
 PCOD9361179
Probable space group: A B M 2
;
_chemical_formula_sum "Si O2"
_cell_formula_units_Z 36
_cell_length_a 4.972008
_cell_length_b 20.245091
_cell_length_c 13.607464
_cell_angle_alpha 90.000000
_cell_angle_beta 90.000000
_cell_angle_gamma 90.000000
_cell_volume 1369.710377
_symmetry_space_group_name_H-M "A B M 2"
_symmetry_group_IT_number 39
_symmetry_cell_setting 'orthorhombic'
loop_
_space_group_symop_operation_xyz
x,y,z
-x,-y,z
-x,1/2+y,z
x,1/2-y,z
x,1/2+y,1/2+z
-x,1/2-y,1/2+z
-x,y,1/2+z
x,-y,1/2+z
loop_
_atom_site_type_symbol
_atom_site_label
_atom_site_fract_x
_atom_site_fract_y
_atom_site_fract_z
Si Si1 0.091985 0.570551 0.279280
Si Si2 0.500000 0.000000 0.426688
Si Si3 0.264208 0.323389 0.382441
Si Si4 0.431925 0.428720 0.611202
Si Si5 0.768930 0.677798 0.018579
O O1 0.294183 0.544152 0.364675
O O2 0.851141 0.616678 0.317537
O O3 0.247359 0.606040 0.190878
O O4 0.000000 0.500000 0.237479
O O5 0.334166 0.046170 0.503516
O O6 0.225956 0.250000 0.337027
O O7 0.069015 0.324628 0.477909
O O8 0.567169 0.325683 0.423788
O O9 0.500000 0.500000 0.657121
O O10 0.682037 0.382301 0.586596
O O11 0.721329 0.750000 0.063984
#
# Coordination Sequence:
#
# PCOD9361179 Si02
#       5
#     8   4   8   8   8
#     4  12  24  38  67  96 133 171 227 275 338 391
#     4  10  20  44  58  88 130 170 212 276 322 404
#     4  10  22  41  68  95 130 178 222 267 333 398
#     4  10  22  38  64  94 129 167 223 267 335 388
#     4  10  21  41  66  95 130 177 220 268 332 397
#
# _framework density 26.28293
#
# number of rings (size 3 to 8) (size 9 to 14) (size 15 to 20)
#    0.667    0.889    3.333    1.333    0.000    5.333 
#    0.000    0.000    0.000    9.333    0.000    0.000 
#    0.000    0.000    0.000    0.000    0.000    0.000 
#
# Total GULP energy -100624.373313 kJ/mol
# GULP energy per Si atom -5590.242962 kJ/mol
# Density = 2.622311 g / cm^3
# Si number density = 26.282930 Si / 1000 Ang^3
#
#
#
# Elastic Constant Matrix: (Units=GPa)
#
#
# Indices 1 2 3 4 5 6 
#
# 1 75.4484 3.8013 25.6687 0.0000 0.0000 0.0000
# 2 3.8013 152.6555 -11.8760 0.0000 0.0000 0.0000
# 3 25.6687 -11.8760 89.7353 0.0000 0.0000 0.0000
# 4 0.0000 0.0000 0.0000 -7.1995 0.0000 0.0000
# 5 0.0000 0.0000 0.0000 0.0000 38.7282 0.0000
# 6 0.0000 0.0000 0.0000 0.0000 0.0000 39.6497
#
#
#
# Elastic Compliance Matrix: (Units=1/GPa)
#
#
# Indices 1 2 3 4 5 6 
#
# 1 0.014757 -0.000703 -0.004314 0.000000 0.000000 0.000000
# 2 -0.000703 0.006652 0.001082 0.000000 0.000000 0.000000
# 3 -0.004314 0.001082 0.012521 0.000000 0.000000 0.000000
# 4 0.000000 0.000000 0.000000 -0.138898 0.000000 0.000000
# 5 0.000000 0.000000 0.000000 0.000000 0.025821 0.000000
# 6 0.000000 0.000000 0.000000 0.000000 0.000000 0.025221
#
#
# Mechanical properties :
#
#
# Convention : Reuss Voigt Hill
#
# Bulk Modulus (GPa) = 38.37461 39.22523 38.79992
# Shear Modulus (GPa) = -133.80650 34.25203 -49.77723
#
# Velocity S-wave (km/s) = -7.14287 3.61391 -4.35662
# Velocity P-wave (km/s) = 7.30720 5.68950 3.24228
#
# Compressibility (1/GPa) = 0.02605890
#
# Stress axis : x y z
#
# Youngs Moduli (GPa) = 67.76295 150.32289 79.86491
#
# Poissons Ratio (x) = 0.10569 0.34457
# Poissons Ratio (y) = 0.04765 -0.08638
# Poissons Ratio (z) = 0.29235 -0.16258
#
# Static dielectric constant tensor:
#      x y z
#    x 2.117510 0.000000 0.000000 
#    y 0.000000 2.140320 0.000000 
#    z 0.000000 0.000000 2.056010 
# 
# From -- ./inp_files/7325.got.cif
#   From: 2010.05.17/outbox.cif.g08.bks.cpg/sg39_4_cif.got.tgz:7325.got - 2010.06.03 18:22:40.
