data_PCOD9361511
_publ_section_title
;
Structure prediction by ZEFSAII (Michael W. Deem and Ramdas Pophale) SiO2 
 PCOD9361511
Probable space group: A B M 2
;
_chemical_formula_sum "Si O2"
_cell_formula_units_Z 64
_cell_length_a 11.755324
_cell_length_b 17.477462
_cell_length_c 14.682447
_cell_angle_alpha 90.000000
_cell_angle_beta 90.000000
_cell_angle_gamma 90.000000
_cell_volume 3016.556139
_symmetry_space_group_name_H-M "A B M 2"
_symmetry_group_IT_number 39
_symmetry_cell_setting 'orthorhombic'
loop_
_space_group_symop_operation_xyz
x,y,z
-x,-y,z
-x,1/2+y,z
x,1/2-y,z
x,1/2+y,1/2+z
-x,1/2-y,1/2+z
-x,y,1/2+z
x,-y,1/2+z
loop_
_atom_site_type_symbol
_atom_site_label
_atom_site_fract_x
_atom_site_fract_y
_atom_site_fract_z
Si Si1 0.802765 0.335887 0.682990
Si Si2 0.044541 0.664308 0.500740
Si Si3 0.769186 0.585981 0.897245
Si Si4 0.159372 0.449229 0.532637
Si Si5 0.130196 0.506370 0.739113
Si Si6 0.538530 0.839755 0.164293
Si Si7 0.631968 0.660021 0.502957
Si Si8 0.515871 0.909774 0.854271
O O1 0.809198 0.250000 0.722283
O O2 0.888810 0.339082 0.597510
O O3 0.832607 0.405622 0.748711
O O4 0.673461 0.349414 0.650530
O O5 0.994949 0.750000 0.492286
O O6 0.140375 0.650549 0.424290
O O7 0.952851 0.596093 0.499271
O O8 0.794121 0.549587 0.799073
O O9 0.638666 0.611798 0.895901
O O10 0.798199 0.517899 0.968309
O O11 0.138982 0.482152 0.633548
O O12 0.258741 0.386993 0.532497
O O13 0.000000 0.500000 0.769158
O O14 0.519532 0.750000 0.185932
O O15 0.468443 0.858010 0.074291
O O16 0.494173 0.889063 0.248483
O O17 0.654071 0.750000 0.503900
O O18 0.585097 0.633964 0.405503
O O19 0.500000 0.000000 0.867884
#
# Coordination Sequence:
#
# PCOD9361511 Si02
#       8
#     8   8   8   8   8   8   8   8
#     4  10  21  40  68  98 128 172 222 270 336 398
#     4  11  23  44  70  98 135 178 223 278 337 399
#     4  12  25  43  68 101 134 174 228 274 335 404
#     4  12  23  45  65  97 137 175 226 277 337 399
#     4  12  23  42  68  99 134 177 219 278 338 400
#     4  10  23  43  66  94 132 172 216 274 331 395
#     4  11  25  43  66  95 130 177 224 274 337 399
#     4  12  24  43  65 100 133 172 221 273 333 397
#
# _framework density 21.216246999999999
#
# number of rings (size 3 to 8) (size 9 to 14) (size 15 to 20)
#    0.000    0.750    3.750    4.125    0.000    2.500 
#    0.000    3.750    0.000    0.000    0.000    0.000 
#    0.000    0.000    0.000    0.000    0.000    0.000 
#
# Total GULP energy -179086.535932 kJ/mol
# GULP energy per Si atom -5596.454248 kJ/mol
# Density = 2.116796 g / cm^3
# Si number density = 21.216247 Si / 1000 Ang^3
#
#
#
# Elastic Constant Matrix: (Units=GPa)
#
#
# Indices 1 2 3 4 5 6 
#
# 1 84.4610 12.8041 -15.5636 0.0000 0.0000 0.0000
# 2 12.8041 59.3058 7.8933 0.0000 0.0000 0.0000
# 3 -15.5636 7.8933 43.3992 0.0000 0.0000 0.0000
# 4 0.0000 0.0000 0.0000 29.7903 0.0000 0.0000
# 5 0.0000 0.0000 0.0000 0.0000 18.7294 0.0000
# 6 0.0000 0.0000 0.0000 0.0000 0.0000 38.5445
#
#
#
# Elastic Compliance Matrix: (Units=1/GPa)
#
#
# Indices 1 2 3 4 5 6 
#
# 1 0.013395 -0.003619 0.005462 0.000000 0.000000 0.000000
# 2 -0.003619 0.018258 -0.004618 0.000000 0.000000 0.000000
# 3 0.005462 -0.004618 0.025841 0.000000 0.000000 0.000000
# 4 0.000000 0.000000 0.000000 0.033568 0.000000 0.000000
# 5 0.000000 0.000000 0.000000 0.000000 0.053392 0.000000
# 6 0.000000 0.000000 0.000000 0.000000 0.000000 0.025944
#
#
# Mechanical properties :
#
#
# Convention : Reuss Voigt Hill
#
# Bulk Modulus (GPa) = 19.25220 21.93706 20.59463
# Shear Modulus (GPa) = 25.87156 29.54830 27.70993
#
# Velocity S-wave (km/s) = 3.49581 3.73597 3.61788
# Velocity P-wave (km/s) = 5.03867 5.38257 5.21346
#
# Compressibility (1/GPa) = 0.05194212
#
# Stress axis : x y z
#
# Youngs Moduli (GPa) = 74.65557 54.77126 38.69881
#
# Poissons Ratio (x) = 0.19821 -0.21137
# Poissons Ratio (y) = 0.27017 0.17873
# Poissons Ratio (z) = -0.40775 0.25296
#
# Static dielectric constant tensor:
#      x y z
#    x 1.749510 0.000000 0.000000 
#    y 0.000000 1.762690 0.000000 
#    z 0.000000 0.000000 1.751580 
# 
# From -- ./inp_files/9436.got.cif
#   From: 2010.05.17/outbox.cif.g08.bks.cpg/sg39_5_cif.got.tgz:9436.got - 2010.06.03 18:22:40.
