data_PCOD9361054
_publ_section_title
;
Structure prediction by ZEFSAII (Michael W. Deem and Ramdas Pophale) SiO2 
 PCOD9361054
Probable space group: A B M 2
;
_chemical_formula_sum "Si O2"
_cell_formula_units_Z 60
_cell_length_a 7.744131
_cell_length_b 16.639505
_cell_length_c 19.838782
_cell_angle_alpha 90.000000
_cell_angle_beta 90.000000
_cell_angle_gamma 90.000000
_cell_volume 2556.395819
_symmetry_space_group_name_H-M "A B M 2"
_symmetry_group_IT_number 39
_symmetry_cell_setting 'orthorhombic'
loop_
_space_group_symop_operation_xyz
x,y,z
-x,-y,z
-x,1/2+y,z
x,1/2-y,z
x,1/2+y,1/2+z
-x,1/2-y,1/2+z
-x,y,1/2+z
x,-y,1/2+z
loop_
_atom_site_type_symbol
_atom_site_label
_atom_site_fract_x
_atom_site_fract_y
_atom_site_fract_z
Si Si1 0.752152 0.162914 0.445060
Si Si2 0.101139 0.585214 0.700792
Si Si3 0.312999 0.250000 0.697010
Si Si4 0.162368 0.636718 0.300188
Si Si5 0.339598 0.659693 0.926618
Si Si6 0.743985 0.431517 0.570082
Si Si7 0.659493 0.884573 0.579044
Si Si8 0.311125 0.465219 0.313826
O O1 0.765270 0.250000 0.480150
O O2 0.855312 0.166693 0.375762
O O3 0.549954 0.152154 0.425357
O O4 0.801455 0.091768 0.495220
O O5 0.138437 0.611472 0.625488
O O6 0.280567 0.573321 0.740601
O O7 0.000000 0.500000 0.697442
O O8 0.994705 0.645261 0.748027
O O9 0.312315 0.180523 0.758282
O O10 0.304670 0.178470 0.638259
O O11 0.191631 0.542965 0.312366
O O12 0.294660 0.750000 0.906356
O O13 0.269788 0.595004 0.874104
O O14 0.289300 0.645634 0.004369
O O15 0.547823 0.399673 0.576534
O O16 0.740710 0.526366 0.586245
O O17 0.500000 0.500000 0.322856
#
# Coordination Sequence:
#
# PCOD9361054 Si02
#       8
#     8   8   4   8   8   8   8   8
#     4  10  20  40  67  99 133 180 222 279 352 411
#     4  10  24  44  63  96 136 176 227 281 333 409
#     4  12  24  42  68  98 142 184 222 278 352 408
#     4  11  23  43  67  94 138 187 226 270 340 421
#     4  10  20  38  63 106 142 167 223 292 337 399
#     4  10  22  40  70  99 136 173 230 286 342 410
#     4  10  21  38  68 105 136 176 221 283 351 405
#     4  11  22  39  71 100 134 176 230 280 341 399
#
# _framework density 23.470545999999999
#
# number of rings (size 3 to 8) (size 9 to 14) (size 15 to 20)
#    0.000    1.600    2.667    2.400    6.533    0.000 
#    2.400    4.667    0.000    0.000    0.000    0.000 
#    0.000    0.000    0.000    0.000    0.000    0.000 
#
# Total GULP energy -167108.972728 kJ/mol
# GULP energy per Si atom -5570.299091 kJ/mol
# Density = 2.341713 g / cm^3
# Si number density = 23.470546 Si / 1000 Ang^3
#
#
#
# Elastic Constant Matrix: (Units=GPa)
#
#
# Indices 1 2 3 4 5 6 
#
# 1 27.7048 20.1016 26.2439 0.0000 0.0000 0.0000
# 2 20.1016 122.7254 71.9374 0.0000 0.0000 0.0000
# 3 26.2439 71.9374 190.2600 0.0000 0.0000 0.0000
# 4 0.0000 0.0000 0.0000 112.8237 0.0000 0.0000
# 5 0.0000 0.0000 0.0000 0.0000 22.5190 0.0000
# 6 0.0000 0.0000 0.0000 0.0000 0.0000 6.8933
#
#
#
# Elastic Compliance Matrix: (Units=1/GPa)
#
#
# Indices 1 2 3 4 5 6 
#
# 1 0.043478 -0.004633 -0.004246 0.000000 0.000000 0.000000
# 2 -0.004633 0.010962 -0.003506 0.000000 0.000000 0.000000
# 3 -0.004246 -0.003506 0.007167 0.000000 0.000000 0.000000
# 4 0.000000 0.000000 0.000000 0.008863 0.000000 0.000000
# 5 0.000000 0.000000 0.000000 0.000000 0.044407 0.000000
# 6 0.000000 0.000000 0.000000 0.000000 0.000000 0.145068
#
#
# Mechanical properties :
#
#
# Convention : Reuss Voigt Hill
#
# Bulk Modulus (GPa) = 27.14525 64.13956 45.64241
# Shear Modulus (GPa) = 16.83539 43.27436 30.05488
#
# Velocity S-wave (km/s) = 2.68115 4.29858 3.58234
# Velocity P-wave (km/s) = 4.60169 7.21277 6.04977
#
# Compressibility (1/GPa) = 0.03683885
#
# Stress axis : x y z
#
# Youngs Moduli (GPa) = 23.00023 91.22407 139.52650
#
# Poissons Ratio (x) = 0.42262 0.59237
# Poissons Ratio (y) = 0.10656 0.48914
# Poissons Ratio (z) = 0.09765 0.31981
#
# Static dielectric constant tensor:
#      x y z
#    x 1.954930 0.000000 0.000000 
#    y 0.000000 1.854320 0.000000 
#    z 0.000000 0.000000 1.866030 
# 
# From -- ./inp_files/11804.got.cif
#   From: 2010.05.17/outbox.cif.g08.bks.cpg/sg39_6_cif.got.tgz:11804.got - 2010.06.03 18:22:40.
