data_PCOD9361068
_publ_section_title
;
Structure prediction by ZEFSAII (Michael W. Deem and Ramdas Pophale) SiO2 
 PCOD9361068
Probable space group: A B M 2
;
_chemical_formula_sum "Si O2"
_cell_formula_units_Z 60
_cell_length_a 11.486604
_cell_length_b 28.787936
_cell_length_c 9.412707
_cell_angle_alpha 90.000000
_cell_angle_beta 90.000000
_cell_angle_gamma 90.000000
_cell_volume 3112.552731
_symmetry_space_group_name_H-M "A B M 2"
_symmetry_group_IT_number 39
_symmetry_cell_setting 'orthorhombic'
loop_
_space_group_symop_operation_xyz
x,y,z
-x,-y,z
-x,1/2+y,z
x,1/2-y,z
x,1/2+y,1/2+z
-x,1/2-y,1/2+z
-x,y,1/2+z
x,-y,1/2+z
loop_
_atom_site_type_symbol
_atom_site_label
_atom_site_fract_x
_atom_site_fract_y
_atom_site_fract_z
Si Si1 0.268938 0.456732 0.342140
Si Si2 0.564556 0.892943 0.486766
Si Si3 0.347626 0.454442 0.020878
Si Si4 0.445823 0.169786 0.754113
Si Si5 0.779858 0.799612 0.917285
Si Si6 0.871025 0.398149 0.436417
Si Si7 0.618471 0.250000 0.633504
Si Si8 0.978783 0.947151 0.205568
O O1 0.316477 0.411320 0.420765
O O2 0.330886 0.461378 0.188918
O O3 0.302523 0.500616 0.437860
O O4 0.133108 0.451790 0.308672
O O5 0.476851 0.936868 0.489310
O O6 0.575051 0.871057 0.641265
O O7 0.510031 0.853424 0.387539
O O8 0.260738 0.413666 0.970951
O O9 0.322788 0.190347 0.804344
O O10 0.528929 0.209431 0.691196
O O11 0.837492 0.750000 0.882841
O O12 0.865996 0.842835 0.922735
O O13 0.707316 0.789863 0.062519
O O14 0.945016 0.416056 0.570812
O O15 0.918233 0.424408 0.296988
O O16 0.000000 0.000000 0.156144
#
# Coordination Sequence:
#
# PCOD9361068 Si02
#       8
#     8   8   8   8   8   8   4   8
#     4  11  26  38  61  92 129 174 219 268 317 389
#     4  12  24  38  60  95 134 170 210 258 335 402
#     4  11  23  40  59  88 134 172 213 267 330 384
#     4  12  21  38  63  92 129 170 210 259 317 409
#     4  10  22  41  68  94 129 168 211 269 337 387
#     4  11  23  43  67  91 126 170 221 278 325 375
#     4  10  20  38  64  94 124 166 212 252 320 396
#     4  11  24  43  68  94 123 170 230 275 313 383
#
# _framework density 19.276782999999998
#
# number of rings (size 3 to 8) (size 9 to 14) (size 15 to 20)
#    0.400    0.533    6.000    0.800    5.600    2.133 
#    0.000    0.667    0.000    0.000    0.000    0.000 
#    0.000    0.000    0.000    0.000    0.000    0.000 
#
# Total GULP energy -167033.389179 kJ/mol
# GULP energy per Si atom -5567.779639 kJ/mol
# Density = 1.923291 g / cm^3
# Si number density = 19.276783 Si / 1000 Ang^3
#
#
#
# Elastic Constant Matrix: (Units=GPa)
#
#
# Indices 1 2 3 4 5 6 
#
# 1 27.2208 8.4277 0.6676 0.0000 0.0000 0.0000
# 2 8.4277 116.9989 20.5267 0.0000 0.0000 0.0000
# 3 0.6676 20.5267 34.6142 0.0000 0.0000 0.0000
# 4 0.0000 0.0000 0.0000 7.1285 0.0000 0.0000
# 5 0.0000 0.0000 0.0000 0.0000 10.0929 0.0000
# 6 0.0000 0.0000 0.0000 0.0000 0.0000 36.2525
#
#
#
# Elastic Compliance Matrix: (Units=1/GPa)
#
#
# Indices 1 2 3 4 5 6 
#
# 1 0.037604 -0.002881 0.000983 0.000000 0.000000 0.000000
# 2 -0.002881 0.009760 -0.005732 0.000000 0.000000 0.000000
# 3 0.000983 -0.005732 0.032270 0.000000 0.000000 0.000000
# 4 0.000000 0.000000 0.000000 0.140282 0.000000 0.000000
# 5 0.000000 0.000000 0.000000 0.000000 0.099079 0.000000
# 6 0.000000 0.000000 0.000000 0.000000 0.000000 0.027584
#
#
# Mechanical properties :
#
#
# Convention : Reuss Voigt Hill
#
# Bulk Modulus (GPa) = 15.53409 26.45310 20.99359
# Shear Modulus (GPa) = 13.04461 20.64225 16.84343
#
# Velocity S-wave (km/s) = 2.60417 3.27591 2.95916
# Velocity P-wave (km/s) = 4.13741 5.29730 4.75287
#
# Compressibility (1/GPa) = 0.06437453
#
# Stress axis : x y z
#
# Youngs Moduli (GPa) = 26.59257 102.45529 30.98818
#
# Poissons Ratio (x) = 0.29520 -0.03047
# Poissons Ratio (y) = 0.07662 0.17764
# Poissons Ratio (z) = -0.02615 0.58732
#
# Static dielectric constant tensor:
#      x y z
#    x 1.662640 0.000000 0.000000 
#    y 0.000000 1.688150 0.000000 
#    z 0.000000 0.000000 1.674840 
# 
# From -- ./inp_files/2815.got.cif
#   From: 2010.05.17/outbox.cif.g08.bks.cpg/sg39_2_cif.got.tgz:2815.got - 2010.06.03 18:22:40.
