data_PCOD9361043
_publ_section_title
;
Structure prediction by ZEFSAII (Michael W. Deem and Ramdas Pophale) SiO2 
 PCOD9361043
Probable space group: A B M 2
;
_chemical_formula_sum "Si O2"
_cell_formula_units_Z 48
_cell_length_a 7.015440
_cell_length_b 9.728267
_cell_length_c 33.117557
_cell_angle_alpha 90.000000
_cell_angle_beta 90.000000
_cell_angle_gamma 90.000000
_cell_volume 2260.209462
_symmetry_space_group_name_H-M "A B M 2"
_symmetry_group_IT_number 39
_symmetry_cell_setting 'orthorhombic'
loop_
_space_group_symop_operation_xyz
x,y,z
-x,-y,z
-x,1/2+y,z
x,1/2-y,z
x,1/2+y,1/2+z
-x,1/2-y,1/2+z
-x,y,1/2+z
x,-y,1/2+z
loop_
_atom_site_type_symbol
_atom_site_label
_atom_site_fract_x
_atom_site_fract_y
_atom_site_fract_z
Si Si1 0.269577 0.250000 0.941690
Si Si2 0.201743 0.583189 0.159993
Si Si3 0.500000 0.500000 0.303245
Si Si4 0.810667 0.591571 0.571802
Si Si5 0.229273 0.020394 0.484995
Si Si6 0.800975 0.916849 0.236231
Si Si7 0.505566 0.750000 0.360541
Si Si8 0.181378 0.750000 0.921197
O O1 0.309918 0.378257 0.970093
O O2 0.392822 0.250000 0.901979
O O3 0.048576 0.250000 0.925995
O O4 0.184205 0.750000 0.168265
O O5 0.289974 0.570613 0.115144
O O6 0.286556 0.496743 0.197197
O O7 0.000000 0.500000 0.156425
O O8 0.332744 0.445633 0.274334
O O9 0.449331 0.621939 0.333324
O O10 0.873010 0.750000 0.571298
O O11 0.706429 0.565784 0.529407
O O12 0.000000 0.500000 0.571966
O O13 0.252795 0.122296 0.447666
O O14 0.000000 0.000000 0.488538
O O15 0.822495 0.750000 0.230375
O O16 0.000000 0.000000 0.242718
O O17 0.726099 0.750000 0.376673
#
# Coordination Sequence:
#
# PCOD9361043 Si02
#       8
#     4   8   4   8   8   8   4   4
#     4  10  22  38  60  87 121 157 205 256 306 374
#     4   9  17  30  54  89 127 165 205 252 303 363
#     4  12  28  46  68  96 126 162 210 268 330 396
#     4   9  16  26  47  85 125 161 205 249 290 351
#     4   9  17  31  53  85 120 162 202 246 300 356
#     4  11  24  43  69  98 130 169 210 261 322 387
#     4  12  26  44  66  92 118 160 208 262 330 386
#     4  10  20  38  62  85 119 159 199 252 310 366
#
# _framework density 21.236972000000002
#
# number of rings (size 3 to 8) (size 9 to 14) (size 15 to 20)
#    0.000    2.000    1.667    3.000    5.833    2.000 
#    0.000    0.000    0.000    2.000    0.000    0.000 
#    0.000    0.000    0.000    0.000    0.000    0.000 
#
# Total GULP energy -133738.081831 kJ/mol
# GULP energy per Si atom -5572.420076 kJ/mol
# Density = 2.118864 g / cm^3
# Si number density = 21.236972 Si / 1000 Ang^3
#
#
#
# Elastic Constant Matrix: (Units=GPa)
#
#
# Indices 1 2 3 4 5 6 
#
# 1 68.5497 16.9200 12.5040 0.0000 0.0000 0.0000
# 2 16.9200 192.8656 63.6471 0.0000 0.0000 0.0000
# 3 12.5040 63.6471 153.4282 0.0000 0.0000 0.0000
# 4 0.0000 0.0000 0.0000 43.7036 0.0000 0.0000
# 5 0.0000 0.0000 0.0000 0.0000 41.9363 0.0000
# 6 0.0000 0.0000 0.0000 0.0000 0.0000 -14.1733
#
#
#
# Elastic Compliance Matrix: (Units=1/GPa)
#
#
# Indices 1 2 3 4 5 6 
#
# 1 0.014992 -0.001057 -0.000783 0.000000 0.000000 0.000000
# 2 -0.001057 0.006082 -0.002437 0.000000 0.000000 0.000000
# 3 -0.000783 -0.002437 0.007592 0.000000 0.000000 0.000000
# 4 0.000000 0.000000 0.000000 0.022881 0.000000 0.000000
# 5 0.000000 0.000000 0.000000 0.000000 0.023846 0.000000
# 6 0.000000 0.000000 0.000000 0.000000 0.000000 -0.070555
#
#
# Mechanical properties :
#
#
# Convention : Reuss Voigt Hill
#
# Bulk Modulus (GPa) = 49.72139 66.77618 58.24879
# Shear Modulus (GPa) = 248.80888 35.74481 142.27685
#
# Velocity S-wave (km/s) = 10.83571 4.10706 8.19392
# Velocity P-wave (km/s) = 13.41692 7.34862 10.81702
#
# Compressibility (1/GPa) = 0.02011207
#
# Stress axis : x y z
#
# Youngs Moduli (GPa) = 66.70363 164.42422 131.71016
#
# Poissons Ratio (x) = 0.17374 0.10319
# Poissons Ratio (y) = 0.07048 0.32095
# Poissons Ratio (z) = 0.05226 0.40067
#
# Static dielectric constant tensor:
#      x y z
#    x 1.653200 0.000000 0.000000 
#    y 0.000000 1.727170 0.000000 
#    z 0.000000 0.000000 1.782360 
# 
# From -- ./inp_files/17727.got.cif
#   From: 2010.05.17/outbox.cif.g08.bks.cpg/sg39_9_cif.got.tgz:17727.got - 2010.06.03 18:22:40.
