data_PCOD9361187
_publ_section_title
;
Structure prediction by ZEFSAII (Michael W. Deem and Ramdas Pophale) SiO2 
 PCOD9361187
Probable space group: A B M 2
;
_chemical_formula_sum "Si O2"
_cell_formula_units_Z 64
_cell_length_a 7.145398
_cell_length_b 17.947913
_cell_length_c 21.696668
_cell_angle_alpha 90.000000
_cell_angle_beta 90.000000
_cell_angle_gamma 90.000000
_cell_volume 2782.488790
_symmetry_space_group_name_H-M "A B M 2"
_symmetry_group_IT_number 39
_symmetry_cell_setting 'orthorhombic'
loop_
_space_group_symop_operation_xyz
x,y,z
-x,-y,z
-x,1/2+y,z
x,1/2-y,z
x,1/2+y,1/2+z
-x,1/2-y,1/2+z
-x,y,1/2+z
x,-y,1/2+z
loop_
_atom_site_type_symbol
_atom_site_label
_atom_site_fract_x
_atom_site_fract_y
_atom_site_fract_z
Si Si1 0.099633 0.838949 0.677480
Si Si2 0.496926 0.589322 0.148409
Si Si3 0.607186 0.834936 0.766338
Si Si4 0.989482 0.584821 0.059917
Si Si5 0.176007 0.165303 0.308619
Si Si6 0.679433 0.162281 0.399698
Si Si7 0.445633 0.585743 0.515825
Si Si8 0.939387 0.413466 0.926636
O O1 0.124471 0.750000 0.676642
O O2 0.296361 0.879562 0.663103
O O3 0.978156 0.862917 0.618438
O O4 0.052227 0.858120 0.748895
O O5 0.500000 0.500000 0.148892
O O6 0.370806 0.619925 0.203664
O O7 0.453263 0.612941 0.078268
O O8 0.675938 0.750000 0.757522
O O9 0.385244 0.830501 0.781750
O O10 0.677970 0.869037 0.830308
O O11 0.774786 0.591254 0.035274
O O12 0.000000 0.500000 0.082614
O O13 0.117463 0.593346 0.998584
O O14 0.121895 0.250000 0.326963
O O15 0.178114 0.111401 0.367320
O O16 0.642943 0.250000 0.395168
O O17 0.542452 0.128450 0.451174
O O18 0.886574 0.142917 0.421357
O O19 0.500000 0.500000 0.505235
O O20 0.000000 0.500000 0.919989
#
# Coordination Sequence:
#
# PCOD9361187 Si02
#       8
#     8   8   8   8   8   8   8   8
#     4   9  18  33  54  77 100 134 176 210 249 307
#     4   9  17  30  50  77 102 128 169 211 250 297
#     4   9  19  34  52  75 102 133 169 210 254 301
#     4   9  19  34  52  76 103 131 168 216 259 297
#     4   9  18  34  54  74 101 136 172 210 253 304
#     4  10  21  35  53  78 105 135 172 212 256 303
#     4   9  19  34  53  75 102 136 170 208 256 306
#     4  10  21  34  50  76 104 133 171 211 257 307
#
# _framework density 23.000990999999999
#
# number of rings (size 3 to 8) (size 9 to 14) (size 15 to 20)
#    0.000    2.750    0.000    1.500    0.000   11.500 
#    0.000    2.500    0.000    0.750    0.000    2.625 
#    0.000    0.000    0.000    0.000    0.000    0.000 
#
# Total GULP energy -178498.649696 kJ/mol
# GULP energy per Si atom -5578.082803 kJ/mol
# Density = 2.294864 g / cm^3
# Si number density = 23.000991 Si / 1000 Ang^3
#
#
#
# Elastic Constant Matrix: (Units=GPa)
#
#
# Indices 1 2 3 4 5 6 
#
# 1 41.1415 8.4447 36.9428 0.0000 0.0000 0.0000
# 2 8.4447 59.9794 73.4784 0.0000 0.0000 0.0000
# 3 36.9428 73.4784 187.6297 0.0000 0.0000 0.0000
# 4 0.0000 0.0000 0.0000 42.1662 0.0000 0.0000
# 5 0.0000 0.0000 0.0000 0.0000 24.7942 0.0000
# 6 0.0000 0.0000 0.0000 0.0000 0.0000 22.3832
#
#
#
# Elastic Compliance Matrix: (Units=1/GPa)
#
#
# Indices 1 2 3 4 5 6 
#
# 1 0.030576 0.005901 -0.008331 0.000000 0.000000 0.000000
# 2 0.005901 0.033186 -0.014158 0.000000 0.000000 0.000000
# 3 -0.008331 -0.014158 0.012514 0.000000 0.000000 0.000000
# 4 0.000000 0.000000 0.000000 0.023716 0.000000 0.000000
# 5 0.000000 0.000000 0.000000 0.000000 0.040332 0.000000
# 6 0.000000 0.000000 0.000000 0.000000 0.000000 0.044676
#
#
# Mechanical properties :
#
#
# Convention : Reuss Voigt Hill
#
# Bulk Modulus (GPa) = 23.20145 58.49803 40.84974
# Shear Modulus (GPa) = 21.50138 29.19436 25.34787
#
# Velocity S-wave (km/s) = 3.06077 3.56654 3.32329
# Velocity P-wave (km/s) = 4.75396 6.51524 5.70300
#
# Compressibility (1/GPa) = 0.04310075
#
# Stress axis : x y z
#
# Youngs Moduli (GPa) = 32.70531 30.13322 79.90748
#
# Poissons Ratio (x) = -0.17783 0.66573
# Poissons Ratio (y) = -0.19301 1.13133
# Poissons Ratio (z) = 0.27248 0.42663
#
# Static dielectric constant tensor:
#      x y z
#    x 2.043070 0.000000 0.000000 
#    y 0.000000 1.776890 0.000000 
#    z 0.000000 0.000000 1.955780 
# 
# From -- ./inp_files/14187.got.cif
#   From: 2010.05.17/outbox.cif.g08.bks.cpg/sg39_8_cif.got.tgz:14187.got - 2010.06.03 18:22:40.
