data_PCOD9361651
_publ_section_title
;
Structure prediction by ZEFSAII (Michael W. Deem and Ramdas Pophale) SiO2 
 PCOD9361651
Probable space group: A B M 2
;
_chemical_formula_sum "Si O2"
_cell_formula_units_Z 64
_cell_length_a 11.495163
_cell_length_b 20.069030
_cell_length_c 14.059318
_cell_angle_alpha 90.000000
_cell_angle_beta 90.000000
_cell_angle_gamma 90.000000
_cell_volume 3243.439266
_symmetry_space_group_name_H-M "A B M 2"
_symmetry_group_IT_number 39
_symmetry_cell_setting 'orthorhombic'
loop_
_space_group_symop_operation_xyz
x,y,z
-x,-y,z
-x,1/2+y,z
x,1/2-y,z
x,1/2+y,1/2+z
-x,1/2-y,1/2+z
-x,y,1/2+z
x,-y,1/2+z
loop_
_atom_site_type_symbol
_atom_site_label
_atom_site_fract_x
_atom_site_fract_y
_atom_site_fract_z
Si Si1 0.266586 0.561677 0.939070
Si Si2 0.409017 0.172912 0.744055
Si Si3 0.276552 0.621981 0.583532
Si Si4 0.880558 0.040262 0.324543
Si Si5 0.467388 0.928406 0.084674
Si Si6 0.865877 0.984450 0.604965
Si Si7 0.806668 0.675244 0.887953
Si Si8 0.678677 0.326467 0.791667
O O1 0.222634 0.496840 0.881531
O O2 0.268825 0.622480 0.866746
O O3 0.390498 0.556878 0.991870
O O4 0.178169 0.567518 0.027132
O O5 0.403534 0.250000 0.708944
O O6 0.401431 0.119528 0.658939
O O7 0.308892 0.165179 0.822767
O O8 0.538430 0.163983 0.787308
O O9 0.411316 0.606856 0.560976
O O10 0.208955 0.551819 0.591340
O O11 0.225410 0.664894 0.498025
O O12 0.274938 0.656801 0.686205
O O13 0.891637 0.115616 0.359304
O O14 0.852956 0.038696 0.212960
O O15 0.000000 0.000000 0.339744
O O16 0.500000 0.000000 0.129959
O O17 0.000000 0.000000 0.587971
O O18 0.849545 0.750000 0.870976
O O19 0.702113 0.250000 0.815854
#
# Coordination Sequence:
#
# PCOD9361651 Si02
#       8
#     8   8   8   8   8   8   8   8
#     4  12  22  38  63  93 123 159 213 265 312 382
#     4   9  21  38  58  89 130 173 207 248 316 390
#     4  11  21  39  60  92 129 167 207 265 317 380
#     4  11  24  43  67  91 124 170 214 265 322 379
#     4  11  21  35  59  94 129 162 209 267 321 371
#     4  11  23  41  66  89 122 166 215 258 325 377
#     4  11  22  38  64  94 127 163 211 259 310 378
#     4  10  22  39  61  89 128 172 210 256 319 384
#
# _framework density 19.732140999999999
#
# number of rings (size 3 to 8) (size 9 to 14) (size 15 to 20)
#    0.000    1.250    3.750    2.250    0.000    1.000 
#    0.000    1.875    0.000    0.000    0.000    0.000 
#    0.000    0.000    0.000    0.000    0.000    0.000 
#
# Total GULP energy -178812.400304 kJ/mol
# GULP energy per Si atom -5587.887509 kJ/mol
# Density = 1.968723 g / cm^3
# Si number density = 19.732141 Si / 1000 Ang^3
#
#
#
# Elastic Constant Matrix: (Units=GPa)
#
#
# Indices 1 2 3 4 5 6 
#
# 1 66.4014 31.1094 40.4664 0.0000 0.0000 0.0000
# 2 31.1094 140.1244 63.2184 0.0000 0.0000 0.0000
# 3 40.4664 63.2184 118.2850 0.0000 0.0000 0.0000
# 4 0.0000 0.0000 0.0000 21.1668 0.0000 0.0000
# 5 0.0000 0.0000 0.0000 0.0000 25.6317 0.0000
# 6 0.0000 0.0000 0.0000 0.0000 0.0000 23.5888
#
#
#
# Elastic Compliance Matrix: (Units=1/GPa)
#
#
# Indices 1 2 3 4 5 6 
#
# 1 0.019338 -0.001724 -0.005694 0.000000 0.000000 0.000000
# 2 -0.001724 0.009558 -0.004518 0.000000 0.000000 0.000000
# 3 -0.005694 -0.004518 0.012817 0.000000 0.000000 0.000000
# 4 0.000000 0.000000 0.000000 0.047244 0.000000 0.000000
# 5 0.000000 0.000000 0.000000 0.000000 0.039014 0.000000
# 6 0.000000 0.000000 0.000000 0.000000 0.000000 0.042393
#
#
# Mechanical properties :
#
#
# Convention : Reuss Voigt Hill
#
# Bulk Modulus (GPa) = 56.05631 66.04437 61.05034
# Shear Modulus (GPa) = 24.97706 26.74523 25.86115
#
# Velocity S-wave (km/s) = 3.56168 3.68559 3.62416
# Velocity P-wave (km/s) = 6.73679 7.18711 6.96559
#
# Compressibility (1/GPa) = 0.01783921
#
# Stress axis : x y z
#
# Youngs Moduli (GPa) = 51.71197 104.62622 78.02113
#
# Poissons Ratio (x) = 0.18041 0.44426
# Poissons Ratio (y) = 0.08917 0.35253
# Poissons Ratio (z) = 0.29445 0.47274
#
# Static dielectric constant tensor:
#      x y z
#    x 1.704610 0.000000 0.000000 
#    y 0.000000 1.689480 0.000000 
#    z 0.000000 0.000000 1.688880 
# 
# From -- ./inp_files/9444.got.cif
#   From: 2010.05.17/outbox.cif.g08.bks.cpg/sg39_5_cif.got.tgz:9444.got - 2010.06.03 18:22:40.
