data_PCOD9361827
_publ_section_title
;
Structure prediction by ZEFSAII (Michael W. Deem and Ramdas Pophale) SiO2 
 PCOD9361827
Probable space group: A B M 2
;
_chemical_formula_sum "Si O2"
_cell_formula_units_Z 64
_cell_length_a 23.896724
_cell_length_b 8.705957
_cell_length_c 15.568764
_cell_angle_alpha 90.000000
_cell_angle_beta 90.000000
_cell_angle_gamma 90.000000
_cell_volume 3238.985627
_symmetry_space_group_name_H-M "A B M 2"
_symmetry_group_IT_number 39
_symmetry_cell_setting 'orthorhombic'
loop_
_space_group_symop_operation_xyz
x,y,z
-x,-y,z
-x,1/2+y,z
x,1/2-y,z
x,1/2+y,1/2+z
-x,1/2-y,1/2+z
-x,y,1/2+z
x,-y,1/2+z
loop_
_atom_site_type_symbol
_atom_site_label
_atom_site_fract_x
_atom_site_fract_y
_atom_site_fract_z
Si Si1 0.258731 0.068457 0.036070
Si Si2 0.938990 0.933863 0.449568
Si Si3 0.438877 0.933653 0.944285
Si Si4 0.248021 0.432536 0.347477
Si Si5 0.636652 0.566783 0.792374
Si Si6 0.145935 0.934486 0.101262
Si Si7 0.128110 0.566580 0.294039
Si Si8 0.381938 0.567078 0.611372
O O1 0.255290 0.250000 0.016238
O O2 0.317367 0.040779 0.083313
O O3 0.205383 0.017428 0.091333
O O4 0.256472 0.974703 0.947460
O O5 0.941241 0.750000 0.448457
O O6 0.894392 0.980067 0.522958
O O7 0.916385 0.993884 0.358583
O O8 0.000000 0.000000 0.467951
O O9 0.439158 0.750000 0.942258
O O10 0.500000 0.000000 0.924822
O O11 0.395632 0.997470 0.873889
O O12 0.419667 0.993061 0.037518
O O13 0.248157 0.250000 0.335652
O O14 0.299674 0.506980 0.297017
O O15 0.188992 0.501649 0.318733
O O16 0.635753 0.750000 0.796893
O O17 0.609683 0.507259 0.704239
O O18 0.155070 0.750000 0.096275
O O19 0.119079 0.968407 0.193663
O O20 0.128008 0.750000 0.305087
O O21 0.391314 0.750000 0.614943
#
# Coordination Sequence:
#
# PCOD9361827 Si02
#       8
#     8   8   8   8   8   8   8   8
#     4  11  22  37  64  96 130 168 209 256 315 382
#     4  11  24  43  64  89 122 165 212 264 317 373
#     4  12  26  46  70  96 129 171 218 271 325 382
#     4  12  23  38  63  95 132 171 211 259 320 384
#     4  12  25  43  67  98 133 172 218 267 323 385
#     4  10  23  41  63  92 128 164 206 257 315 377
#     4  11  23  41  65  95 128 165 208 260 318 378
#     4  11  24  43  67  99 134 170 216 265 321 387
#
# _framework density 19.759274000000001
#
# number of rings (size 3 to 8) (size 9 to 14) (size 15 to 20)
#    0.000    0.750    2.500    5.625    0.000    6.000 
#    0.000    3.750    0.000    0.000    0.000    0.000 
#    0.000    0.000    0.000    0.000    0.000    0.000 
#
# Total GULP energy -179131.892237 kJ/mol
# GULP energy per Si atom -5597.871632 kJ/mol
# Density = 1.971430 g / cm^3
# Si number density = 19.759274 Si / 1000 Ang^3
#
#
#
# Elastic Constant Matrix: (Units=GPa)
#
#
# Indices 1 2 3 4 5 6 
#
# 1 54.5550 14.6704 -19.3741 0.0000 0.0000 0.0000
# 2 14.6704 86.6688 19.2782 0.0000 0.0000 0.0000
# 3 -19.3741 19.2782 71.3397 0.0000 0.0000 0.0000
# 4 0.0000 0.0000 0.0000 27.4770 0.0000 0.0000
# 5 0.0000 0.0000 0.0000 0.0000 9.1300 0.0000
# 6 0.0000 0.0000 0.0000 0.0000 0.0000 34.5198
#
#
#
# Elastic Compliance Matrix: (Units=1/GPa)
#
#
# Indices 1 2 3 4 5 6 
#
# 1 0.022508 -0.005500 0.007599 0.000000 0.000000 0.000000
# 2 -0.005500 0.013620 -0.005174 0.000000 0.000000 0.000000
# 3 0.007599 -0.005174 0.017479 0.000000 0.000000 0.000000
# 4 0.000000 0.000000 0.000000 0.036394 0.000000 0.000000
# 5 0.000000 0.000000 0.000000 0.000000 0.109529 0.000000
# 6 0.000000 0.000000 0.000000 0.000000 0.000000 0.028969
#
#
# Mechanical properties :
#
#
# Convention : Reuss Voigt Hill
#
# Bulk Modulus (GPa) = 21.07210 26.85694 23.96452
# Shear Modulus (GPa) = 19.96257 27.42463 23.69360
#
# Velocity S-wave (km/s) = 3.18195 3.72954 3.46658
# Velocity P-wave (km/s) = 4.91806 5.67165 5.30824
#
# Compressibility (1/GPa) = 0.04745611
#
# Stress axis : x y z
#
# Youngs Moduli (GPa) = 44.42920 73.42084 57.21037
#
# Poissons Ratio (x) = 0.40382 -0.43473
# Poissons Ratio (y) = 0.24437 0.29602
# Poissons Ratio (z) = -0.33761 0.37990
#
# Static dielectric constant tensor:
#      x y z
#    x 1.772620 0.000000 0.000000 
#    y 0.000000 1.658760 0.000000 
#    z 0.000000 0.000000 1.695140 
# 
# From -- ./inp_files/10608.got.cif
#   From: 2010.05.17/outbox.cif.g08.bks.cpg/sg39_6_cif.got.tgz:10608.got - 2010.06.03 18:22:40.
