data_PCOD9361091
_publ_section_title
;
Structure prediction by ZEFSAII (Michael W. Deem and Ramdas Pophale) SiO2 
 PCOD9361091
Probable space group: A B M 2
;
_chemical_formula_sum "Si O2"
_cell_formula_units_Z 56
_cell_length_a 13.835543
_cell_length_b 21.852972
_cell_length_c 8.421349
_cell_angle_alpha 90.000000
_cell_angle_beta 90.000000
_cell_angle_gamma 90.000000
_cell_volume 2546.175786
_symmetry_space_group_name_H-M "A B M 2"
_symmetry_group_IT_number 39
_symmetry_cell_setting 'orthorhombic'
loop_
_space_group_symop_operation_xyz
x,y,z
-x,-y,z
-x,1/2+y,z
x,1/2-y,z
x,1/2+y,1/2+z
-x,1/2-y,1/2+z
-x,y,1/2+z
x,-y,1/2+z
loop_
_atom_site_type_symbol
_atom_site_label
_atom_site_fract_x
_atom_site_fract_y
_atom_site_fract_z
Si Si1 0.105701 0.010862 0.464170
Si Si2 0.608188 0.022667 0.671020
Si Si3 0.870299 0.321502 0.721249
Si Si4 0.700987 0.926449 0.472099
Si Si5 0.751617 0.896537 0.008272
Si Si6 0.757094 0.679859 0.687982
Si Si7 0.052592 0.637213 0.056018
O O1 0.199685 0.046343 0.396485
O O2 0.072143 0.064699 0.589455
O O3 0.159585 0.946693 0.503017
O O4 0.000000 0.000000 0.386556
O O5 0.651031 0.069274 0.541333
O O6 0.500000 0.000000 0.651143
O O7 0.677506 0.964742 0.633015
O O8 0.622853 0.054911 0.841102
O O9 0.857347 0.250000 0.747924
O O10 0.773914 0.353139 0.658203
O O11 0.947742 0.336208 0.584550
O O12 0.918940 0.351254 0.874569
O O13 0.713670 0.858231 0.538254
O O14 0.742500 0.856203 0.851424
O O15 0.725536 0.750000 0.693334
O O16 0.871918 0.675411 0.658847
#
# Coordination Sequence:
#
# PCOD9361091 Si02
#       7
#     8   8   8   8   8   8   8
#     4  10  20  39  57  90 132 167 216 282 336 400
#     4  11  23  44  72 102 135 167 221 298 362 425
#     4  12  23  39  58  85 131 184 243 291 336 415
#     4  10  22  40  66 102 132 177 226 274 356 426
#     4  11  23  41  65  99 129 178 236 282 358 420
#     4  11  23  42  64  94 142 189 232 285 338 414
#     4  11  24  38  57  87 127 192 241 287 346 410
#
# _framework density 21.993766000000001
#
# number of rings (size 3 to 8) (size 9 to 14) (size 15 to 20)
#    0.000    1.143    1.429    6.429    0.000    2.286 
#    0.000    1.429    0.000    4.286    0.000    0.000 
#    0.000    0.000    0.000    0.000    0.000    0.000 
#
# Total GULP energy -156167.240655 kJ/mol
# GULP energy per Si atom -5577.401452 kJ/mol
# Density = 2.194371 g / cm^3
# Si number density = 21.993766 Si / 1000 Ang^3
#
#
#
# Elastic Constant Matrix: (Units=GPa)
#
#
# Indices 1 2 3 4 5 6 
#
# 1 118.6688 41.6029 27.6670 0.0000 0.0000 0.0000
# 2 41.6029 163.9119 48.2722 0.0000 0.0000 0.0000
# 3 27.6670 48.2722 97.2008 0.0000 0.0000 0.0000
# 4 0.0000 0.0000 0.0000 14.4376 0.0000 0.0000
# 5 0.0000 0.0000 0.0000 0.0000 20.4934 0.0000
# 6 0.0000 0.0000 0.0000 0.0000 0.0000 10.4885
#
#
#
# Elastic Compliance Matrix: (Units=1/GPa)
#
#
# Indices 1 2 3 4 5 6 
#
# 1 0.009502 -0.001892 -0.001765 0.000000 0.000000 0.000000
# 2 -0.001892 0.007523 -0.003197 0.000000 0.000000 0.000000
# 3 -0.001765 -0.003197 0.012378 0.000000 0.000000 0.000000
# 4 0.000000 0.000000 0.000000 0.069264 0.000000 0.000000
# 5 0.000000 0.000000 0.000000 0.000000 0.048796 0.000000
# 6 0.000000 0.000000 0.000000 0.000000 0.000000 0.095342
#
#
# Mechanical properties :
#
#
# Convention : Reuss Voigt Hill
#
# Bulk Modulus (GPa) = 63.71859 68.31840 66.01850
# Shear Modulus (GPa) = 19.10259 26.56653 22.83456
#
# Velocity S-wave (km/s) = 2.95031 3.47927 3.22565
# Velocity P-wave (km/s) = 6.37494 6.87536 6.62987
#
# Compressibility (1/GPa) = 0.01569401
#
# Stress axis : x y z
#
# Youngs Moduli (GPa) = 105.24601 132.93174 80.78667
#
# Poissons Ratio (x) = 0.25148 0.14259
# Poissons Ratio (y) = 0.19911 0.25831
# Poissons Ratio (z) = 0.18576 0.42504
#
# Static dielectric constant tensor:
#      x y z
#    x 1.829530 0.000000 0.000000 
#    y 0.000000 1.854530 0.000000 
#    z 0.000000 0.000000 1.873780 
# 
# From -- ./inp_files/3394.got.cif
#   From: 2010.05.17/outbox.cif.g08.bks.cpg/sg39_2_cif.got.tgz:3394.got - 2010.06.03 18:22:40.
