data_PCOD9361191
_publ_section_title
;
Structure prediction by ZEFSAII (Michael W. Deem and Ramdas Pophale) SiO2 
 PCOD9361191
Probable space group: A B M 2
;
_chemical_formula_sum "Si O2"
_cell_formula_units_Z 56
_cell_length_a 15.052964
_cell_length_b 21.348941
_cell_length_c 8.986624
_cell_angle_alpha 90.000000
_cell_angle_beta 90.000000
_cell_angle_gamma 90.000000
_cell_volume 2887.984987
_symmetry_space_group_name_H-M "A B M 2"
_symmetry_group_IT_number 39
_symmetry_cell_setting 'orthorhombic'
loop_
_space_group_symop_operation_xyz
x,y,z
-x,-y,z
-x,1/2+y,z
x,1/2-y,z
x,1/2+y,1/2+z
-x,1/2-y,1/2+z
-x,y,1/2+z
x,-y,1/2+z
loop_
_atom_site_type_symbol
_atom_site_label
_atom_site_fract_x
_atom_site_fract_y
_atom_site_fract_z
Si Si1 0.403176 0.373445 0.128880
Si Si2 0.286278 0.386881 0.716180
Si Si3 0.603175 0.984266 0.926037
Si Si4 0.591946 0.373728 0.969742
Si Si5 0.778409 0.178325 0.503962
Si Si6 0.897958 0.945513 0.671113
Si Si7 0.071608 0.421755 0.021321
O O1 0.416128 0.355640 0.299274
O O2 0.314964 0.337528 0.081598
O O3 0.388525 0.446653 0.082776
O O4 0.494046 0.363934 0.037797
O O5 0.348259 0.437623 0.808768
O O6 0.341949 0.348816 0.594573
O O7 0.201732 0.422305 0.649728
O O8 0.244039 0.339547 0.834615
O O9 0.500000 0.000000 0.885043
O O10 0.632386 0.055081 0.954673
O O11 0.802599 0.250000 0.523846
O O12 0.857832 0.132622 0.552564
O O13 0.971138 0.908572 0.573564
O O14 0.902754 0.016936 0.616186
O O15 0.922007 0.938509 0.845989
#
# Coordination Sequence:
#
# PCOD9361191 Si02
#       7
#     8   8   8   8   8   8   8
#     4  10  21  34  54  84 117 163 204 251 305 354
#     4  10  22  35  59  90 119 166 198 254 315 357
#     4   9  18  32  50  83 126 161 196 247 304 365
#     4  11  20  33  55  86 123 154 206 252 308 368
#     4  10  23  44  62  82 118 165 214 250 299 369
#     4  10  21  36  60  93 123 153 191 250 312 379
#     4  10  21  38  62  91 126 157 194 244 319 361
#
# _framework density 19.390682999999999
#
# number of rings (size 3 to 8) (size 9 to 14) (size 15 to 20)
#    0.000    2.000    0.000    5.143    8.000    4.571 
#    0.000    6.429    0.000    0.000    0.000    0.000 
#    0.000    0.000    0.000    0.000    0.000    0.000 
#
# Total GULP energy -155969.321410 kJ/mol
# GULP energy per Si atom -5570.332908 kJ/mol
# Density = 1.934655 g / cm^3
# Si number density = 19.390683 Si / 1000 Ang^3
#
#
#
# Elastic Constant Matrix: (Units=GPa)
#
#
# Indices 1 2 3 4 5 6 
#
# 1 142.6732 52.4186 61.0109 0.0000 0.0000 0.0000
# 2 52.4186 64.5175 24.0759 0.0000 0.0000 0.0000
# 3 61.0109 24.0759 88.2778 0.0000 0.0000 0.0000
# 4 0.0000 0.0000 0.0000 4.8170 0.0000 0.0000
# 5 0.0000 0.0000 0.0000 0.0000 32.9141 0.0000
# 6 0.0000 0.0000 0.0000 0.0000 0.0000 3.8217
#
#
#
# Elastic Compliance Matrix: (Units=1/GPa)
#
#
# Indices 1 2 3 4 5 6 
#
# 1 0.012752 -0.007873 -0.006666 0.000000 0.000000 0.000000
# 2 -0.007873 0.022117 -0.000590 0.000000 0.000000 0.000000
# 3 -0.006666 -0.000590 0.016096 0.000000 0.000000 0.000000
# 4 0.000000 0.000000 0.000000 0.207599 0.000000 0.000000
# 5 0.000000 0.000000 0.000000 0.000000 0.030382 0.000000
# 6 0.000000 0.000000 0.000000 0.000000 0.000000 0.261663
#
#
# Mechanical properties :
#
#
# Convention : Reuss Voigt Hill
#
# Bulk Modulus (GPa) = 48.29668 63.38659 55.84163
# Shear Modulus (GPa) = 8.50672 18.84145 13.67408
#
# Velocity S-wave (km/s) = 2.09679 3.12055 2.65842
# Velocity P-wave (km/s) = 5.55187 6.76343 6.18738
#
# Compressibility (1/GPa) = 0.02070536
#
# Stress axis : x y z
#
# Youngs Moduli (GPa) = 78.41707 45.21444 62.12705
#
# Poissons Ratio (x) = 0.35599 0.41415
# Poissons Ratio (y) = 0.61740 0.03668
# Poissons Ratio (z) = 0.52274 0.02670
#
# Static dielectric constant tensor:
#      x y z
#    x 1.734920 0.000000 0.000000 
#    y 0.000000 1.729600 0.000000 
#    z 0.000000 0.000000 1.745970 
# 
# From -- ./inp_files/3400.got.cif
#   From: 2010.05.17/outbox.cif.g08.bks.cpg/sg39_2_cif.got.tgz:3400.got - 2010.06.03 18:22:40.
