data_PCOD9361912
_publ_section_title
;
Structure prediction by ZEFSAII (Michael W. Deem and Ramdas Pophale) SiO2 
 PCOD9361912
Probable space group: A B M 2
;
_chemical_formula_sum "Si O2"
_cell_formula_units_Z 52
_cell_length_a 12.560372
_cell_length_b 21.001422
_cell_length_c 9.507585
_cell_angle_alpha 90.000000
_cell_angle_beta 90.000000
_cell_angle_gamma 90.000000
_cell_volume 2507.964706
_symmetry_space_group_name_H-M "A B M 2"
_symmetry_group_IT_number 39
_symmetry_cell_setting 'orthorhombic'
loop_
_space_group_symop_operation_xyz
x,y,z
-x,-y,z
-x,1/2+y,z
x,1/2-y,z
x,1/2+y,1/2+z
-x,1/2-y,1/2+z
-x,y,1/2+z
x,-y,1/2+z
loop_
_atom_site_type_symbol
_atom_site_label
_atom_site_fract_x
_atom_site_fract_y
_atom_site_fract_z
Si Si1 0.625349 0.250000 0.385561
Si Si2 0.241211 0.845571 0.862199
Si Si3 0.113020 0.677397 0.607636
Si Si4 0.000000 0.000000 0.603106
Si Si5 0.165976 0.019896 0.352091
Si Si6 0.882014 0.176828 0.131495
Si Si7 0.596250 0.750000 0.225061
Si Si8 0.235288 0.620879 0.375813
O O1 0.520824 0.250000 0.289190
O O2 0.601852 0.250000 0.554812
O O3 0.684413 0.318423 0.352887
O O4 0.137822 0.823834 0.772095
O O5 0.338751 0.809509 0.790807
O O6 0.245336 0.920835 0.853936
O O7 0.214001 0.827816 0.021960
O O8 0.129668 0.750000 0.556817
O O9 0.197184 0.632627 0.533543
O O10 0.995127 0.655994 0.570490
O O11 0.911658 0.974854 0.488835
O O12 0.086016 0.973332 0.718625
O O13 0.237676 0.955290 0.354149
O O14 0.897559 0.250000 0.171643
O O15 0.859657 0.137528 0.269385
#
# Coordination Sequence:
#
# PCOD9361912 Si02
#       8
#     4   8   8   4   8   8   4   8
#     4  12  28  52  79  97 122 168 231 305 361 406
#     4  12  23  43  64  99 137 178 224 274 330 398
#     4  11  21  38  61  95 139 184 221 271 324 395
#     4  10  24  42  56 100 146 206 224 240 308 402
#     4  11  26  38  65  96 148 186 225 264 313 392
#     4  11  23  34  61  99 139 180 217 259 320 401
#     4  12  28  52  79  97 122 168 231 305 361 406
#     4  12  23  43  64  99 137 178 224 274 330 398
#
# _framework density 20.733943
#
# number of rings (size 3 to 8) (size 9 to 14) (size 15 to 20)
#    0.000    0.615    4.615    2.769   15.077    2.462 
#    0.000    0.769    0.000    1.846    0.000    0.000 
#    0.000    0.000    0.000    0.000    0.000    0.000 
#
# Total GULP energy -144860.236130 kJ/mol
# GULP energy per Si atom -5571.547543 kJ/mol
# Density = 2.068675 g / cm^3
# Si number density = 20.733943 Si / 1000 Ang^3
#
#
#
# Elastic Constant Matrix: (Units=GPa)
#
#
# Indices 1 2 3 4 5 6 
#
# 1 56.5132 62.5843 1.9213 0.0000 0.0000 0.0000
# 2 62.5843 170.7197 14.5072 0.0000 0.0000 0.0000
# 3 1.9213 14.5072 75.4317 0.0000 0.0000 0.0000
# 4 0.0000 0.0000 0.0000 20.5819 0.0000 0.0000
# 5 0.0000 0.0000 0.0000 0.0000 26.0888 0.0000
# 6 0.0000 0.0000 0.0000 0.0000 0.0000 12.0864
#
#
#
# Elastic Compliance Matrix: (Units=1/GPa)
#
#
# Indices 1 2 3 4 5 6 
#
# 1 0.029927 -0.011087 0.001370 0.000000 0.000000 0.000000
# 2 -0.011087 0.010063 -0.001653 0.000000 0.000000 0.000000
# 3 0.001370 -0.001653 0.013540 0.000000 0.000000 0.000000
# 4 0.000000 0.000000 0.000000 0.048586 0.000000 0.000000
# 5 0.000000 0.000000 0.000000 0.000000 0.038331 0.000000
# 6 0.000000 0.000000 0.000000 0.000000 0.000000 0.082738
#
#
# Mechanical properties :
#
#
# Convention : Reuss Voigt Hill
#
# Bulk Modulus (GPa) = 32.47895 51.18780 41.83338
# Shear Modulus (GPa) = 19.51697 26.66153 23.08925
#
# Velocity S-wave (km/s) = 3.07140 3.58982 3.34068
# Velocity P-wave (km/s) = 5.31758 6.47487 5.92455
#
# Compressibility (1/GPa) = 0.03078917
#
# Stress axis : x y z
#
# Youngs Moduli (GPa) = 33.41478 99.37855 73.85521
#
# Poissons Ratio (x) = 1.10184 -0.10119
# Poissons Ratio (y) = 0.37048 0.12207
# Poissons Ratio (z) = -0.04578 0.16426
#
# Static dielectric constant tensor:
#      x y z
#    x 1.732500 0.000000 0.000000 
#    y 0.000000 1.863950 0.000000 
#    z 0.000000 0.000000 1.725340 
# 
# From -- ./inp_files/3374.got.cif
#   From: 2010.05.17/outbox.cif.g08.bks.cpg/sg39_2_cif.got.tgz:3374.got - 2010.06.03 18:22:40.
