data_PCOD9361532
_publ_section_title
;
Structure prediction by ZEFSAII (Michael W. Deem and Ramdas Pophale) SiO2 
 PCOD9361532
Probable space group: A B M 2
;
_chemical_formula_sum "Si O2"
_cell_formula_units_Z 64
_cell_length_a 14.809058
_cell_length_b 8.563841
_cell_length_c 25.517329
_cell_angle_alpha 90.000000
_cell_angle_beta 90.000000
_cell_angle_gamma 90.000000
_cell_volume 3236.169367
_symmetry_space_group_name_H-M "A B M 2"
_symmetry_group_IT_number 39
_symmetry_cell_setting 'orthorhombic'
loop_
_space_group_symop_operation_xyz
x,y,z
-x,-y,z
-x,1/2+y,z
x,1/2-y,z
x,1/2+y,1/2+z
-x,1/2-y,1/2+z
-x,y,1/2+z
x,-y,1/2+z
loop_
_atom_site_type_symbol
_atom_site_label
_atom_site_fract_x
_atom_site_fract_y
_atom_site_fract_z
Si Si1 0.790166 0.561230 0.812810
Si Si2 0.595823 0.566130 0.342983
Si Si3 0.897365 0.436526 0.712337
Si Si4 0.845386 0.929515 0.924242
Si Si5 0.092504 0.938435 0.531166
Si Si6 0.777593 0.435856 0.116791
Si Si7 0.364566 0.429837 0.954549
Si Si8 0.402521 0.937581 0.574201
O O1 0.791532 0.750000 0.812984
O O2 0.685339 0.509755 0.817241
O O3 0.844830 0.497543 0.763666
O O4 0.838333 0.501735 0.866420
O O5 0.500000 0.500000 0.323514
O O6 0.599448 0.750000 0.334908
O O7 0.600520 0.528116 0.405360
O O8 0.901295 0.250000 0.712632
O O9 0.836802 0.492910 0.663535
O O10 0.000000 0.500000 0.709876
O O11 0.876087 0.750000 0.918051
O O12 0.743255 0.925808 0.946448
O O13 0.901149 0.001094 0.971617
O O14 0.096102 0.750000 0.531459
O O15 0.174517 0.005752 0.563910
O O16 0.000000 0.000000 0.555518
O O17 0.779233 0.250000 0.120623
O O18 0.675576 0.495993 0.111324
O O19 0.397113 0.250000 0.949063
O O20 0.387084 0.486319 0.012985
O O21 0.398627 0.750000 0.574908
O O22 0.500000 0.000000 0.590117
#
# Coordination Sequence:
#
# PCOD9361532 Si02
#       8
#     8   8   8   8   8   8   8   8
#     4  10  21  41  65  93 126 163 206 261 315 372
#     4  11  21  34  55  88 127 171 216 259 308 368
#     4  12  26  47  72  97 122 159 207 262 317 375
#     4   8  16  33  57  84 122 165 200 245 305 362
#     4  11  21  37  58  88 124 164 204 251 309 375
#     4  12  25  43  65  92 123 162 208 262 315 372
#     4   9  17  33  55  82 120 167 212 256 305 361
#     4  11  22  38  60  90 127 168 210 257 310 371
#
# _framework density 19.776467
#
# number of rings (size 3 to 8) (size 9 to 14) (size 15 to 20)
#    0.000    1.500    1.250    6.000    0.000    2.500 
#    0.000    3.750    0.000    0.000    0.000    0.000 
#    0.000    0.000    0.000    0.000    0.000    0.000 
#
# Total GULP energy -178716.334377 kJ/mol
# GULP energy per Si atom -5584.885449 kJ/mol
# Density = 1.973146 g / cm^3
# Si number density = 19.776467 Si / 1000 Ang^3
#
#
#
# Elastic Constant Matrix: (Units=GPa)
#
#
# Indices 1 2 3 4 5 6 
#
# 1 144.6383 52.1446 71.2353 0.0000 0.0000 0.0000
# 2 52.1446 119.3797 42.4039 0.0000 0.0000 0.0000
# 3 71.2353 42.4039 120.5577 0.0000 0.0000 0.0000
# 4 0.0000 0.0000 0.0000 23.7279 0.0000 0.0000
# 5 0.0000 0.0000 0.0000 0.0000 20.2432 0.0000
# 6 0.0000 0.0000 0.0000 0.0000 0.0000 30.4641
#
#
#
# Elastic Compliance Matrix: (Units=1/GPa)
#
#
# Indices 1 2 3 4 5 6 
#
# 1 0.010469 -0.002715 -0.005231 0.000000 0.000000 0.000000
# 2 -0.002715 0.010277 -0.002011 0.000000 0.000000 0.000000
# 3 -0.005231 -0.002011 0.012093 0.000000 0.000000 0.000000
# 4 0.000000 0.000000 0.000000 0.042144 0.000000 0.000000
# 5 0.000000 0.000000 0.000000 0.000000 0.049399 0.000000
# 6 0.000000 0.000000 0.000000 0.000000 0.000000 0.032825
#
#
# Mechanical properties :
#
#
# Convention : Reuss Voigt Hill
#
# Bulk Modulus (GPa) = 77.36466 79.57150 78.46808
# Shear Modulus (GPa) = 27.55910 29.47318 28.51614
#
# Velocity S-wave (km/s) = 3.73705 3.86465 3.80139
# Velocity P-wave (km/s) = 7.60429 7.76124 7.68316
#
# Compressibility (1/GPa) = 0.01292580
#
# Stress axis : x y z
#
# Youngs Moduli (GPa) = 95.52223 97.30903 82.69364
#
# Poissons Ratio (x) = 0.26416 0.43257
# Poissons Ratio (y) = 0.25931 0.16626
# Poissons Ratio (z) = 0.49967 0.19564
#
# Static dielectric constant tensor:
#      x y z
#    x 1.636780 0.000000 0.000000 
#    y 0.000000 1.671680 0.000000 
#    z 0.000000 0.000000 1.705060 
# 
# From -- ./inp_files/16142.got.cif
#   From: 2010.05.17/outbox.cif.g08.bks.cpg/sg39_9_cif.got.tgz:16142.got - 2010.06.03 18:22:40.
