data_PCOD9361010
_publ_section_title
;
Structure prediction by ZEFSAII (Michael W. Deem and Ramdas Pophale) SiO2 
 PCOD9361010
Probable space group: A B M 2
;
_chemical_formula_sum "Si O2"
_cell_formula_units_Z 40
_cell_length_a 9.424416
_cell_length_b 18.258042
_cell_length_c 8.707558
_cell_angle_alpha 90.000000
_cell_angle_beta 90.000000
_cell_angle_gamma 90.000000
_cell_volume 1498.321549
_symmetry_space_group_name_H-M "A B M 2"
_symmetry_group_IT_number 39
_symmetry_cell_setting 'orthorhombic'
loop_
_space_group_symop_operation_xyz
x,y,z
-x,-y,z
-x,1/2+y,z
x,1/2-y,z
x,1/2+y,1/2+z
-x,1/2-y,1/2+z
-x,y,1/2+z
x,-y,1/2+z
loop_
_atom_site_type_symbol
_atom_site_label
_atom_site_fract_x
_atom_site_fract_y
_atom_site_fract_z
Si Si1 0.751695 0.577355 0.139030
Si Si2 0.293174 0.337355 0.717155
Si Si3 0.043595 0.836333 0.430488
Si Si4 0.570321 0.662216 0.389599
Si Si5 0.148627 0.464441 0.440430
O O1 0.640226 0.617352 0.249598
O O2 0.832474 0.526526 0.260957
O O3 0.853335 0.639246 0.068442
O O4 0.726781 0.513707 0.013465
O O5 0.282061 0.250000 0.699978
O O6 0.137690 0.359465 0.780787
O O7 0.371078 0.361026 0.557954
O O8 0.402845 0.350011 0.859291
O O9 0.020510 0.750000 0.427979
O O10 0.895408 0.878580 0.448921
O O11 0.594437 0.750000 0.371982
O O12 0.000000 0.500000 0.487586
#
# Coordination Sequence:
#
# PCOD9361010 Si02
#       5
#     8   8   8   8   8
#     4  11  23  40  64  89 128 179 225 277 341 406
#     4   9  19  36  63 103 144 175 213 277 352 420
#     4  10  21  39  65  97 131 171 224 281 340 411
#     4  10  20  37  66 103 138 174 219 275 345 422
#     4  10  23  42  61  86 125 176 226 281 345 403
#
# _framework density 26.696539999999999
#
# number of rings (size 3 to 8) (size 9 to 14) (size 15 to 20)
#    0.000    2.000    0.000    3.600    0.000   11.200 
#    0.000    2.000    0.000   28.800    0.000    0.000 
#    0.000    0.000    0.000    6.000    0.000    0.000 
#
# Total GULP energy -111592.172534 kJ/mol
# GULP energy per Si atom -5579.608627 kJ/mol
# Density = 2.663578 g / cm^3
# Si number density = 26.696540 Si / 1000 Ang^3
#
#
#
# Elastic Constant Matrix: (Units=GPa)
#
#
# Indices 1 2 3 4 5 6 
#
# 1 95.0714 30.2909 33.6661 0.0000 0.0000 0.0000
# 2 30.2909 185.2930 18.9892 0.0000 0.0000 0.0000
# 3 33.6661 18.9892 136.2731 0.0000 0.0000 0.0000
# 4 0.0000 0.0000 0.0000 42.7716 0.0000 0.0000
# 5 0.0000 0.0000 0.0000 0.0000 39.3036 0.0000
# 6 0.0000 0.0000 0.0000 0.0000 0.0000 29.7177
#
#
#
# Elastic Compliance Matrix: (Units=1/GPa)
#
#
# Indices 1 2 3 4 5 6 
#
# 1 0.012024 -0.001685 -0.002736 0.000000 0.000000 0.000000
# 2 -0.001685 0.005711 -0.000379 0.000000 0.000000 0.000000
# 3 -0.002736 -0.000379 0.008067 0.000000 0.000000 0.000000
# 4 0.000000 0.000000 0.000000 0.023380 0.000000 0.000000
# 5 0.000000 0.000000 0.000000 0.000000 0.025443 0.000000
# 6 0.000000 0.000000 0.000000 0.000000 0.000000 0.033650
#
#
# Mechanical properties :
#
#
# Convention : Reuss Voigt Hill
#
# Bulk Modulus (GPa) = 61.72331 64.72553 63.22442
# Shear Modulus (GPa) = 40.55919 44.60468 42.58194
#
# Velocity S-wave (km/s) = 3.90201 4.09198 3.99812
# Velocity P-wave (km/s) = 6.59329 6.82813 6.71173
#
# Compressibility (1/GPa) = 0.01620133
#
# Stress axis : x y z
#
# Youngs Moduli (GPa) = 83.16618 175.09296 123.96280
#
# Poissons Ratio (x) = 0.29508 0.33913
# Poissons Ratio (y) = 0.14016 0.04704
# Poissons Ratio (z) = 0.22752 0.06645
#
# Static dielectric constant tensor:
#      x y z
#    x 2.099110 0.000000 0.000000 
#    y 0.000000 2.150990 0.000000 
#    z 0.000000 0.000000 2.231420 
# 
# From -- ./inp_files/2624.got.cif
#   From: 2010.05.17/outbox.cif.g08.bks.cpg/sg39_2_cif.got.tgz:2624.got - 2010.06.03 18:22:40.
