data_PCOD9361531
_publ_section_title
;
Structure prediction by ZEFSAII (Michael W. Deem and Ramdas Pophale) SiO2 
 PCOD9361531
Probable space group: A B M 2
;
_chemical_formula_sum "Si O2"
_cell_formula_units_Z 48
_cell_length_a 27.215224
_cell_length_b 13.813716
_cell_length_c 5.458334
_cell_angle_alpha 90.000000
_cell_angle_beta 90.000000
_cell_angle_gamma 90.000000
_cell_volume 2052.024507
_symmetry_space_group_name_H-M "A B M 2"
_symmetry_group_IT_number 39
_symmetry_cell_setting 'orthorhombic'
loop_
_space_group_symop_operation_xyz
x,y,z
-x,-y,z
-x,1/2+y,z
x,1/2-y,z
x,1/2+y,1/2+z
-x,1/2-y,1/2+z
-x,y,1/2+z
x,-y,1/2+z
loop_
_atom_site_type_symbol
_atom_site_label
_atom_site_fract_x
_atom_site_fract_y
_atom_site_fract_z
Si Si1 0.468377 0.750000 0.559371
Si Si2 0.845029 0.610822 0.147866
Si Si3 0.030288 0.750000 0.035478
Si Si4 0.239419 0.250000 0.019991
Si Si5 0.579638 0.453130 0.560970
Si Si6 0.311119 0.468855 0.558670
Si Si7 0.299049 0.250000 0.519211
Si Si8 0.883706 0.888515 0.647896
O O1 0.499746 0.750000 0.308598
O O2 0.434158 0.657174 0.560558
O O3 0.850072 0.647990 0.424817
O O4 0.864320 0.499732 0.171778
O O5 0.793061 0.652919 0.058426
O O6 0.878648 0.647976 0.925013
O O7 0.063656 0.652196 0.061085
O O8 0.994392 0.750000 0.269175
O O9 0.260841 0.250000 0.746474
O O10 0.278048 0.250000 0.243297
O O11 0.560227 0.500113 0.311078
O O12 0.638206 0.470696 0.560545
O O13 0.284509 0.501334 0.309613
O O14 0.324353 0.354968 0.551148
#
# Coordination Sequence:
#
# PCOD9361531 Si02
#       8
#     4   8   4   4   8   8   4   8
#     4  12  26  42  66 106 146 176 230 300 352 396
#     4  10  21  41  65  92 120 177 217 263 315 427
#     4  12  24  40  64  98 130 164 214 284 332 374
#     4  12  24  43  67 100 134 168 222 282 356 384
#     4  10  23  42  70  99 131 191 233 277 339 431
#     4  10  23  45  69  98 136 185 235 277 341 422
#     4  12  26  45  67 106 138 174 218 308 348 394
#     4  10  21  41  65  92 129 174 221 261 325 411
#
# _framework density 23.391535000000001
#
# number of rings (size 3 to 8) (size 9 to 14) (size 15 to 20)
#    0.000    1.333    0.000    5.000    0.000    7.333 
#   18.000   10.000    0.000    0.000    0.000    0.000 
#    0.000    0.000    0.000    0.000    0.000    0.000 
#
# Total GULP energy -133781.825247 kJ/mol
# GULP energy per Si atom -5574.242719 kJ/mol
# Density = 2.333830 g / cm^3
# Si number density = 23.391535 Si / 1000 Ang^3
#
#
#
# Elastic Constant Matrix: (Units=GPa)
#
#
# Indices 1 2 3 4 5 6 
#
# 1 48.3553 32.9393 -1.8198 0.0000 0.0000 0.0000
# 2 32.9393 217.4247 27.2165 0.0000 0.0000 0.0000
# 3 -1.8198 27.2165 176.5694 0.0000 0.0000 0.0000
# 4 0.0000 0.0000 0.0000 10.0056 0.0000 0.0000
# 5 0.0000 0.0000 0.0000 0.0000 82.2547 0.0000
# 6 0.0000 0.0000 0.0000 0.0000 0.0000 26.7920
#
#
#
# Elastic Compliance Matrix: (Units=1/GPa)
#
#
# Indices 1 2 3 4 5 6 
#
# 1 0.023169 -0.003610 0.000795 0.000000 0.000000 0.000000
# 2 -0.003610 0.005252 -0.000847 0.000000 0.000000 0.000000
# 3 0.000795 -0.000847 0.005802 0.000000 0.000000 0.000000
# 4 0.000000 0.000000 0.000000 0.099944 0.000000 0.000000
# 5 0.000000 0.000000 0.000000 0.000000 0.012157 0.000000
# 6 0.000000 0.000000 0.000000 0.000000 0.000000 0.037325
#
#
# Mechanical properties :
#
#
# Convention : Reuss Voigt Hill
#
# Bulk Modulus (GPa) = 37.17334 62.11348 49.64341
# Shear Modulus (GPa) = 25.00769 49.41136 37.20952
#
# Velocity S-wave (km/s) = 3.27324 4.60103 3.99272
# Velocity P-wave (km/s) = 5.49653 7.40523 6.52109
#
# Compressibility (1/GPa) = 0.02690100
#
# Stress axis : x y z
#
# Youngs Moduli (GPa) = 43.16110 190.39881 172.34808
#
# Poissons Ratio (x) = 0.68726 -0.13705
# Poissons Ratio (y) = 0.15579 0.14594
# Poissons Ratio (z) = -0.03432 0.16122
#
# Static dielectric constant tensor:
#      x y z
#    x 1.878530 0.000000 0.000000 
#    y 0.000000 1.811380 0.000000 
#    z 0.000000 0.000000 1.990280 
# 
# From -- ./inp_files/1411.got.cif
#   From: 2010.05.17/outbox.cif.g08.bks.cpg/sg39_1_cif.got.tgz:1411.got - 2010.06.03 18:22:40.
