data_PCOD9361767
_publ_section_title
;
Structure prediction by ZEFSAII (Michael W. Deem and Ramdas Pophale) SiO2 
 PCOD9361767
Probable space group: A B M 2
;
_chemical_formula_sum "Si O2"
_cell_formula_units_Z 48
_cell_length_a 8.103353
_cell_length_b 23.792004
_cell_length_c 12.177020
_cell_angle_alpha 90.000000
_cell_angle_beta 90.000000
_cell_angle_gamma 90.000000
_cell_volume 2347.668656
_symmetry_space_group_name_H-M "A B M 2"
_symmetry_group_IT_number 39
_symmetry_cell_setting 'orthorhombic'
loop_
_space_group_symop_operation_xyz
x,y,z
-x,-y,z
-x,1/2+y,z
x,1/2-y,z
x,1/2+y,1/2+z
-x,1/2-y,1/2+z
-x,y,1/2+z
x,-y,1/2+z
loop_
_atom_site_type_symbol
_atom_site_label
_atom_site_fract_x
_atom_site_fract_y
_atom_site_fract_z
Si Si1 0.596765 0.940741 0.571900
Si Si2 0.864797 0.750000 0.966585
Si Si3 0.921697 0.250000 0.729516
Si Si4 0.295396 0.630010 0.490219
Si Si5 0.174975 0.427215 0.772207
Si Si6 0.827877 0.125167 0.719411
Si Si7 0.673810 0.467042 0.839724
O O1 0.471789 0.892276 0.531996
O O2 0.710913 0.917402 0.667057
O O3 0.706769 0.956792 0.466971
O O4 0.500000 0.000000 0.598868
O O5 0.748460 0.805023 0.970241
O O6 0.961324 0.750000 0.844570
O O7 0.961777 0.750000 0.090701
O O8 0.823449 0.191726 0.738716
O O9 0.259338 0.597065 0.380222
O O10 0.176865 0.612711 0.590381
O O11 0.187551 0.494093 0.786215
O O12 0.999507 0.398184 0.764134
O O13 0.679326 0.091617 0.776382
O O14 0.500000 0.500000 0.834362
#
# Coordination Sequence:
#
# PCOD9361767 Si02
#       7
#     8   4   4   8   8   8   8
#     4  11  24  41  66  94 136 180 222 271 350 416
#     4  10  22  44  68  98 136 182 228 296 346 410
#     4  10  22  42  70  96 138 180 224 286 354 396
#     4  11  23  43  67  95 134 174 225 278 341 410
#     4  12  23  40  68  97 132 179 220 281 341 409
#     4  11  25  42  68  99 134 171 233 281 340 411
#     4  11  23  42  64  94 135 179 217 278 346 412
#
# _framework density 20.445813000000001
#
# number of rings (size 3 to 8) (size 9 to 14) (size 15 to 20)
#    0.000    1.000    5.000    3.000    2.333    0.000 
#    0.000    2.500    0.000    0.000    0.000    0.000 
#    0.000    0.000    0.000    0.000    0.000    0.000 
#
# Total GULP energy -133707.625691 kJ/mol
# GULP energy per Si atom -5571.151070 kJ/mol
# Density = 2.039928 g / cm^3
# Si number density = 20.445813 Si / 1000 Ang^3
#
#
#
# Elastic Constant Matrix: (Units=GPa)
#
#
# Indices 1 2 3 4 5 6 
#
# 1 64.6597 31.5022 26.9473 0.0000 0.0000 0.0000
# 2 31.5022 116.5556 36.6566 0.0000 0.0000 0.0000
# 3 26.9473 36.6566 134.0923 0.0000 0.0000 0.0000
# 4 0.0000 0.0000 0.0000 22.9687 0.0000 0.0000
# 5 0.0000 0.0000 0.0000 0.0000 26.9051 0.0000
# 6 0.0000 0.0000 0.0000 0.0000 0.0000 25.8564
#
#
#
# Elastic Compliance Matrix: (Units=1/GPa)
#
#
# Indices 1 2 3 4 5 6 
#
# 1 0.018596 -0.004213 -0.002585 0.000000 0.000000 0.000000
# 2 -0.004213 0.010341 -0.001980 0.000000 0.000000 0.000000
# 3 -0.002585 -0.001980 0.008518 0.000000 0.000000 0.000000
# 4 0.000000 0.000000 0.000000 0.043538 0.000000 0.000000
# 5 0.000000 0.000000 0.000000 0.000000 0.037168 0.000000
# 6 0.000000 0.000000 0.000000 0.000000 0.000000 0.038675
#
#
# Mechanical properties :
#
#
# Convention : Reuss Voigt Hill
#
# Bulk Modulus (GPa) = 50.25609 56.16888 53.21248
# Shear Modulus (GPa) = 27.62051 29.82615 28.72333
#
# Velocity S-wave (km/s) = 3.67946 3.82355 3.75220
# Velocity P-wave (km/s) = 6.53336 6.85744 6.69736
#
# Compressibility (1/GPa) = 0.01989808
#
# Stress axis : x y z
#
# Youngs Moduli (GPa) = 53.77640 96.70218 117.39234
#
# Poissons Ratio (x) = 0.40739 0.30349
# Poissons Ratio (y) = 0.22655 0.23247
# Poissons Ratio (z) = 0.13903 0.19150
#
# Static dielectric constant tensor:
#      x y z
#    x 1.744880 0.000000 0.000000 
#    y 0.000000 1.770560 0.000000 
#    z 0.000000 0.000000 1.800320 
# 
# From -- ./inp_files/5205.got.cif
#   From: 2010.05.17/outbox.cif.g08.bks.cpg/sg39_3_cif.got.tgz:5205.got - 2010.06.03 18:22:40.
