data_PCOD9361885
_publ_section_title
;
Structure prediction by ZEFSAII (Michael W. Deem and Ramdas Pophale) SiO2 
 PCOD9361885
Probable space group: A B M 2
;
_chemical_formula_sum "Si O2"
_cell_formula_units_Z 56
_cell_length_a 8.875972
_cell_length_b 14.644703
_cell_length_c 19.630104
_cell_angle_alpha 90.000000
_cell_angle_beta 90.000000
_cell_angle_gamma 90.000000
_cell_volume 2551.638184
_symmetry_space_group_name_H-M "A B M 2"
_symmetry_group_IT_number 39
_symmetry_cell_setting 'orthorhombic'
loop_
_space_group_symop_operation_xyz
x,y,z
-x,-y,z
-x,1/2+y,z
x,1/2-y,z
x,1/2+y,1/2+z
-x,1/2-y,1/2+z
-x,y,1/2+z
x,-y,1/2+z
loop_
_atom_site_type_symbol
_atom_site_label
_atom_site_fract_x
_atom_site_fract_y
_atom_site_fract_z
Si Si1 0.169937 0.028654 0.876710
Si Si2 0.237272 0.556909 0.151839
Si Si3 0.656515 0.342538 0.876989
Si Si4 0.594418 0.906103 0.781187
Si Si5 0.440911 0.403855 0.520857
Si Si6 0.093331 0.358317 0.147633
Si Si7 0.236957 0.350548 0.006573
O O1 0.253562 0.933551 0.867364
O O2 0.245714 0.090994 0.819722
O O3 0.203751 0.075084 0.949169
O O4 0.000000 0.000000 0.868633
O O5 0.358704 0.601664 0.202982
O O6 0.315648 0.573110 0.077686
O O7 0.199430 0.448029 0.167826
O O8 0.078270 0.609303 0.159826
O O9 0.745692 0.250000 0.863491
O O10 0.513632 0.344225 0.826911
O O11 0.612489 0.346988 0.956370
O O12 0.500000 0.000000 0.783593
O O13 0.500000 0.500000 0.491478
O O14 0.599966 0.360539 0.543490
O O15 0.120888 0.250000 0.169860
O O16 0.115895 0.356901 0.066171
O O17 0.232298 0.250000 0.974662
#
# Coordination Sequence:
#
# PCOD9361885 Si02
#       7
#     8   8   8   8   8   8   8
#     4  11  24  41  67  95 132 179 224 269 341 412
#     4  11  24  42  71  93 137 183 219 279 346 400
#     4  11  23  43  68  99 136 171 226 286 332 401
#     4  10  23  45  67  93 127 179 225 272 336 402
#     4  12  20  39  68  99 126 174 223 276 333 396
#     4  10  24  42  63  99 136 173 224 279 336 405
#     4  11  23  41  66  98 134 170 220 282 334 397
#
# _framework density 21.946686
#
# number of rings (size 3 to 8) (size 9 to 14) (size 15 to 20)
#    0.000    1.143    4.286    1.286    6.000    2.286 
#    0.000    2.857    0.000    0.857    0.000    0.000 
#    0.000    0.000    0.000    0.000    0.000    0.000 
#
# Total GULP energy -155927.888802 kJ/mol
# GULP energy per Si atom -5568.853171 kJ/mol
# Density = 2.189673 g / cm^3
# Si number density = 21.946686 Si / 1000 Ang^3
#
#
#
# Elastic Constant Matrix: (Units=GPa)
#
#
# Indices 1 2 3 4 5 6 
#
# 1 98.6473 24.3418 25.1866 0.0000 0.0000 0.0000
# 2 24.3418 121.2140 21.2675 0.0000 0.0000 0.0000
# 3 25.1866 21.2675 61.3996 0.0000 0.0000 0.0000
# 4 0.0000 0.0000 0.0000 74.7432 0.0000 0.0000
# 5 0.0000 0.0000 0.0000 0.0000 26.9951 0.0000
# 6 0.0000 0.0000 0.0000 0.0000 0.0000 -2.7475
#
#
#
# Elastic Compliance Matrix: (Units=1/GPa)
#
#
# Indices 1 2 3 4 5 6 
#
# 1 0.011605 -0.001592 -0.004209 0.000000 0.000000 0.000000
# 2 -0.001592 0.009002 -0.002465 0.000000 0.000000 0.000000
# 3 -0.004209 -0.002465 0.018867 0.000000 0.000000 0.000000
# 4 0.000000 0.000000 0.000000 0.013379 0.000000 0.000000
# 5 0.000000 0.000000 0.000000 0.000000 0.037044 0.000000
# 6 0.000000 0.000000 0.000000 0.000000 0.000000 -0.363965
#
#
# Mechanical properties :
#
#
# Convention : Reuss Voigt Hill
#
# Bulk Modulus (GPa) = 43.58829 46.98364 45.28596
# Shear Modulus (GPa) = -20.00886 33.82915 6.91014
#
# Velocity S-wave (km/s) = -3.02272 3.93036 1.77636
# Velocity P-wave (km/s) = 2.77879 6.48471 4.98865
#
# Compressibility (1/GPa) = 0.02294194
#
# Stress axis : x y z
#
# Youngs Moduli (GPa) = 86.17307 111.08555 53.00224
#
# Poissons Ratio (x) = 0.17684 0.22308
# Poissons Ratio (y) = 0.13718 0.13066
# Poissons Ratio (z) = 0.36269 0.27384
#
# Static dielectric constant tensor:
#      x y z
#    x 1.834990 0.000000 0.000000 
#    y 0.000000 1.866990 0.000000 
#    z 0.000000 0.000000 1.812940 
# 
# From -- ./inp_files/14074.got.cif
#   From: 2010.05.17/outbox.cif.g08.bks.cpg/sg39_8_cif.got.tgz:14074.got - 2010.06.03 18:22:40.
