data_PCOD9361607
_publ_section_title
;
Structure prediction by ZEFSAII (Michael W. Deem and Ramdas Pophale) SiO2 
 PCOD9361607
Probable space group: A B M 2
;
_chemical_formula_sum "Si O2"
_cell_formula_units_Z 40
_cell_length_a 5.748260
_cell_length_b 14.748508
_cell_length_c 20.665175
_cell_angle_alpha 90.000000
_cell_angle_beta 90.000000
_cell_angle_gamma 90.000000
_cell_volume 1751.957550
_symmetry_space_group_name_H-M "A B M 2"
_symmetry_group_IT_number 39
_symmetry_cell_setting 'orthorhombic'
loop_
_space_group_symop_operation_xyz
x,y,z
-x,-y,z
-x,1/2+y,z
x,1/2-y,z
x,1/2+y,1/2+z
-x,1/2-y,1/2+z
-x,y,1/2+z
x,-y,1/2+z
loop_
_atom_site_type_symbol
_atom_site_label
_atom_site_fract_x
_atom_site_fract_y
_atom_site_fract_z
Si Si1 0.175679 0.750000 0.168061
Si Si2 0.810869 0.250000 0.399666
Si Si3 0.175683 0.750000 0.786106
Si Si4 0.810865 0.250000 0.554501
Si Si5 0.444248 0.104269 0.604166
Si Si6 0.555749 0.104270 0.850002
Si Si7 0.754873 0.550784 0.477084
O O1 0.336727 0.661376 0.162623
O O2 0.999996 0.750000 0.227083
O O3 0.024036 0.750000 0.103037
O O4 0.852280 0.250000 0.477084
O O5 0.658764 0.338558 0.379480
O O6 0.024036 0.250000 0.351129
O O7 0.336731 0.838624 0.791544
O O8 0.658760 0.161442 0.574688
O O9 0.262200 0.102491 0.544474
O O10 0.500000 0.000000 0.620409
O O11 0.500000 0.000000 0.833760
O O12 0.737798 0.102494 0.909694
O O13 0.500000 0.500000 0.477083
O O14 0.000000 0.500000 0.477083
#
# Coordination Sequence:
#
# PCOD9361607 Si02
#       7
#     4   4   4   4   8   8   8
#     4  11  28  46  69 101 151 192 247 315 388 475
#     4  11  24  43  72 107 140 184 248 314 394 447
#     4  11  28  46  69 101 151 192 247 315 388 475
#     4  11  24  43  72 107 140 184 248 314 394 447
#     4  10  24  43  71 104 144 191 249 312 385 454
#     4  10  24  43  71 104 144 191 249 312 385 454
#     4  10  22  37  70 113 149 182 253 319 376 451
#
# _framework density 22.831602
#
# number of rings (size 3 to 8) (size 9 to 14) (size 15 to 20)
#    0.000    1.600    2.000    0.000   14.000    3.200 
#    0.000    6.000    0.000    0.000    0.000    0.000 
#    0.000    0.000    0.000    0.000    0.000    0.000 
#
# Total GULP energy -111754.705671 kJ/mol
# GULP energy per Si atom -5587.735284 kJ/mol
# Density = 2.277964 g / cm^3
# Si number density = 22.831602 Si / 1000 Ang^3
#
#
#
# Elastic Constant Matrix: (Units=GPa)
#
#
# Indices 1 2 3 4 5 6 
#
# 1 102.9794 58.1881 61.8906 0.0000 0.0000 0.0000
# 2 58.1881 201.2145 76.3753 0.0000 0.0000 0.0000
# 3 61.8906 76.3753 126.0247 0.0000 0.0000 0.0000
# 4 0.0000 0.0000 0.0000 5.4914 0.0000 0.0000
# 5 0.0000 0.0000 0.0000 0.0000 57.9826 0.0000
# 6 0.0000 0.0000 0.0000 0.0000 0.0000 52.6330
#
#
#
# Elastic Compliance Matrix: (Units=1/GPa)
#
#
# Indices 1 2 3 4 5 6 
#
# 1 0.014322 -0.001912 -0.005875 0.000000 0.000000 0.000000
# 2 -0.001912 0.006710 -0.003128 0.000000 0.000000 0.000000
# 3 -0.005875 -0.003128 0.012715 0.000000 0.000000 0.000000
# 4 0.000000 0.000000 0.000000 0.182103 0.000000 0.000000
# 5 0.000000 0.000000 0.000000 0.000000 0.017247 0.000000
# 6 0.000000 0.000000 0.000000 0.000000 0.000000 0.018999
#
#
# Mechanical properties :
#
#
# Convention : Reuss Voigt Hill
#
# Bulk Modulus (GPa) = 83.90078 91.45850 87.67964
# Shear Modulus (GPa) = 17.99227 38.80569 28.39898
#
# Velocity S-wave (km/s) = 2.81026 4.12715 3.53065
# Velocity P-wave (km/s) = 6.88168 7.92818 7.42339
#
# Compressibility (1/GPa) = 0.01191884
#
# Stress axis : x y z
#
# Youngs Moduli (GPa) = 69.82448 149.03644 78.64458
#
# Poissons Ratio (x) = 0.28491 0.46202
# Poissons Ratio (y) = 0.13348 0.24596
# Poissons Ratio (z) = 0.41020 0.46611
#
# Static dielectric constant tensor:
#      x y z
#    x 1.911350 0.000000 0.000000 
#    y 0.000000 1.938710 0.000000 
#    z 0.000000 0.000000 1.850720 
# 
# From -- ./inp_files/15223.got.cif
#   From: 2010.05.17/outbox.cif.g08.bks.cpg/sg39_8_cif.got.tgz:15223.got - 2010.06.03 18:22:40.
