data_PCOD9361108
_publ_section_title
;
Structure prediction by ZEFSAII (Michael W. Deem and Ramdas Pophale) SiO2 
 PCOD9361108
Probable space group: A B M 2
;
_chemical_formula_sum "Si O2"
_cell_formula_units_Z 52
_cell_length_a 18.732369
_cell_length_b 8.295044
_cell_length_c 15.738276
_cell_angle_alpha 90.000000
_cell_angle_beta 90.000000
_cell_angle_gamma 90.000000
_cell_volume 2445.505002
_symmetry_space_group_name_H-M "A B M 2"
_symmetry_group_IT_number 39
_symmetry_cell_setting 'orthorhombic'
loop_
_space_group_symop_operation_xyz
x,y,z
-x,-y,z
-x,1/2+y,z
x,1/2-y,z
x,1/2+y,1/2+z
-x,1/2-y,1/2+z
-x,y,1/2+z
x,-y,1/2+z
loop_
_atom_site_type_symbol
_atom_site_label
_atom_site_fract_x
_atom_site_fract_y
_atom_site_fract_z
Si Si1 0.183854 0.054754 0.300080
Si Si2 0.417386 0.750000 0.906414
Si Si3 0.565725 0.250000 0.087100
Si Si4 0.461000 0.250000 0.770224
Si Si5 0.338399 0.930782 0.611351
Si Si6 0.175864 0.943924 0.605918
Si Si7 0.918517 0.944493 0.948698
Si Si8 0.339768 0.505789 0.808116
O O1 0.198042 0.250000 0.302126
O O2 0.163173 0.006347 0.203654
O O3 0.257461 0.960888 0.322803
O O4 0.123668 0.012958 0.367690
O O5 0.470468 0.750000 0.827499
O O6 0.364670 0.602165 0.890835
O O7 0.462469 0.750000 0.991830
O O8 0.517754 0.250000 0.171114
O O9 0.610882 0.416598 0.093138
O O10 0.407434 0.393135 0.791854
O O11 0.356651 0.750000 0.578306
O O12 0.258380 0.978521 0.583315
O O13 0.334062 0.916108 0.714144
O O14 0.170574 0.750000 0.606727
O O15 0.121917 0.003271 0.534276
O O16 0.915460 0.750000 0.946096
O O17 0.000000 0.000000 0.948810
#
# Coordination Sequence:
#
# PCOD9361108 Si02
#       8
#     8   4   4   4   8   8   8   8
#     4  10  20  39  66  93 125 167 214 261 319 379
#     4  12  22  42  64  98 133 170 225 270 336 391
#     4  10  24  38  66  98 127 166 229 266 320 410
#     4  10  24  44  64  90 136 176 214 282 322 399
#     4   9  17  39  65  94 126 168 210 271 334 381
#     4   8  18  37  62  86 124 164 206 256 318 383
#     4  11  24  41  60  91 129 168 212 259 319 381
#     4  10  20  39  67  92 128 175 216 269 334 385
#
# _framework density 21.263501000000002
#
# number of rings (size 3 to 8) (size 9 to 14) (size 15 to 20)
#    0.000    2.154    1.538    1.846    3.231    0.615 
#    4.154    7.692    0.000    0.000    0.000    0.000 
#    0.000    0.000    0.000    0.000    0.000    0.000 
#
# Total GULP energy -144924.309524 kJ/mol
# GULP energy per Si atom -5574.011905 kJ/mol
# Density = 2.121510 g / cm^3
# Si number density = 21.263501 Si / 1000 Ang^3
#
#
#
# Elastic Constant Matrix: (Units=GPa)
#
#
# Indices 1 2 3 4 5 6 
#
# 1 99.5733 8.5192 52.5975 0.0000 0.0000 0.0000
# 2 8.5192 50.8778 9.2203 0.0000 0.0000 0.0000
# 3 52.5975 9.2203 130.4981 0.0000 0.0000 0.0000
# 4 0.0000 0.0000 0.0000 11.7835 0.0000 0.0000
# 5 0.0000 0.0000 0.0000 0.0000 40.8487 0.0000
# 6 0.0000 0.0000 0.0000 0.0000 0.0000 9.6478
#
#
#
# Elastic Compliance Matrix: (Units=1/GPa)
#
#
# Indices 1 2 3 4 5 6 
#
# 1 0.012835 -0.001227 -0.005086 0.000000 0.000000 0.000000
# 2 -0.001227 0.020027 -0.000920 0.000000 0.000000 0.000000
# 3 -0.005086 -0.000920 0.009778 0.000000 0.000000 0.000000
# 4 0.000000 0.000000 0.000000 0.084864 0.000000 0.000000
# 5 0.000000 0.000000 0.000000 0.000000 0.024481 0.000000
# 6 0.000000 0.000000 0.000000 0.000000 0.000000 0.103650
#
#
# Mechanical properties :
#
#
# Convention : Reuss Voigt Hill
#
# Bulk Modulus (GPa) = 35.49632 46.84702 41.17167
# Shear Modulus (GPa) = 17.88950 26.49682 22.19316
#
# Velocity S-wave (km/s) = 2.90371 3.53387 3.23417
# Velocity P-wave (km/s) = 5.28884 6.22338 5.77504
#
# Compressibility (1/GPa) = 0.02817193
#
# Stress axis : x y z
#
# Youngs Moduli (GPa) = 77.91442 49.93201 102.27020
#
# Poissons Ratio (x) = 0.06128 0.52018
# Poissons Ratio (y) = 0.09563 0.09412
# Poissons Ratio (z) = 0.39630 0.04595
#
# Static dielectric constant tensor:
#      x y z
#    x 1.738230 0.000000 0.000000 
#    y 0.000000 1.825440 0.000000 
#    z 0.000000 0.000000 1.765620 
# 
# From -- ./inp_files/12931.got.cif
#   From: 2010.05.17/outbox.cif.g08.bks.cpg/sg39_7_cif.got.tgz:12931.got - 2010.06.03 18:22:40.
