data_PCOD9361026
_publ_section_title
;
Structure prediction by ZEFSAII (Michael W. Deem and Ramdas Pophale) SiO2 
 PCOD9361026
Probable space group: A B M 2
;
_chemical_formula_sum "Si O2"
_cell_formula_units_Z 40
_cell_length_a 6.044999
_cell_length_b 24.866695
_cell_length_c 13.233093
_cell_angle_alpha 90.000000
_cell_angle_beta 90.000000
_cell_angle_gamma 90.000000
_cell_volume 1989.187244
_symmetry_space_group_name_H-M "A B M 2"
_symmetry_group_IT_number 39
_symmetry_cell_setting 'orthorhombic'
loop_
_space_group_symop_operation_xyz
x,y,z
-x,-y,z
-x,1/2+y,z
x,1/2-y,z
x,1/2+y,1/2+z
-x,1/2-y,1/2+z
-x,y,1/2+z
x,-y,1/2+z
loop_
_atom_site_type_symbol
_atom_site_label
_atom_site_fract_x
_atom_site_fract_y
_atom_site_fract_z
Si Si1 0.568369 0.311022 0.038040
Si Si2 0.101053 0.624080 0.182970
Si Si3 0.188100 0.645402 0.857723
Si Si4 0.187240 0.101996 0.007990
Si Si5 0.428116 0.940903 0.328139
O O1 0.515954 0.250000 0.066066
O O2 0.742059 0.338035 0.115449
O O3 0.356803 0.349878 0.033240
O O4 0.676399 0.312754 0.925627
O O5 0.253775 0.585953 0.251623
O O6 0.942052 0.659222 0.255723
O O7 0.943304 0.588835 0.110008
O O8 0.360969 0.598213 0.832604
O O9 0.999933 0.623502 0.932444
O O10 0.321412 0.058999 0.941249
O O11 0.500000 0.000000 0.297543
#
# Coordination Sequence:
#
# PCOD9361026 Si02
#       5
#     8   8   8   8   8
#     4  10  21  38  60  86 118 157 199 243 294 351
#     4  10  20  38  60  87 122 154 194 245 292 350
#     4   9  20  39  58  82 117 151 192 244 291 346
#     4   9  20  38  57  84 120 152 191 243 291 344
#     4  10  21  40  62  86 119 157 197 241 293 351
#
# _framework density 20.108716000000001
#
# number of rings (size 3 to 8) (size 9 to 14) (size 15 to 20)
#    0.000    2.400    0.000    1.200    0.000    7.200 
#    0.000   38.000    0.000    0.000    0.000    0.000 
#    0.000    0.000    0.000    0.000    0.000    0.000 
#
# Total GULP energy -111511.088711 kJ/mol
# GULP energy per Si atom -5575.554436 kJ/mol
# Density = 2.006295 g / cm^3
# Si number density = 20.108716 Si / 1000 Ang^3
#
#
#
# Elastic Constant Matrix: (Units=GPa)
#
#
# Indices 1 2 3 4 5 6 
#
# 1 121.0824 25.7437 55.0591 0.0000 0.0000 0.0000
# 2 25.7437 76.7455 27.5165 0.0000 0.0000 0.0000
# 3 55.0591 27.5165 117.7997 0.0000 0.0000 0.0000
# 4 0.0000 0.0000 0.0000 12.2197 0.0000 0.0000
# 5 0.0000 0.0000 0.0000 0.0000 49.9855 0.0000
# 6 0.0000 0.0000 0.0000 0.0000 0.0000 1.5636
#
#
#
# Elastic Compliance Matrix: (Units=1/GPa)
#
#
# Indices 1 2 3 4 5 6 
#
# 1 0.010754 -0.001970 -0.004566 0.000000 0.000000 0.000000
# 2 -0.001970 0.014582 -0.002485 0.000000 0.000000 0.000000
# 3 -0.004566 -0.002485 0.011204 0.000000 0.000000 0.000000
# 4 0.000000 0.000000 0.000000 0.081835 0.000000 0.000000
# 5 0.000000 0.000000 0.000000 0.000000 0.020006 0.000000
# 6 0.000000 0.000000 0.000000 0.000000 0.000000 0.639555
#
#
# Mechanical properties :
#
#
# Convention : Reuss Voigt Hill
#
# Bulk Modulus (GPa) = 54.06440 59.14068 56.60254
# Shear Modulus (GPa) = 6.23329 26.57430 16.40379
#
# Velocity S-wave (km/s) = 1.76253 3.63923 2.85924
# Velocity P-wave (km/s) = 5.57552 6.86535 6.25378
#
# Compressibility (1/GPa) = 0.01849646
#
# Stress axis : x y z
#
# Youngs Moduli (GPa) = 92.98784 68.57740 89.25587
#
# Poissons Ratio (x) = 0.13511 0.40756
# Poissons Ratio (y) = 0.18320 0.22183
# Poissons Ratio (z) = 0.42460 0.17044
#
# Static dielectric constant tensor:
#      x y z
#    x 1.714990 0.000000 0.000000 
#    y 0.000000 1.678160 0.000000 
#    z 0.000000 0.000000 1.775930 
# 
# From -- ./inp_files/4516.got.cif
#   From: 2010.05.17/outbox.cif.g08.bks.cpg/sg39_3_cif.got.tgz:4516.got - 2010.06.03 18:22:40.
