data_PCOD9361507
_publ_section_title
;
Structure prediction by ZEFSAII (Michael W. Deem and Ramdas Pophale) SiO2 
 PCOD9361507
Probable space group: A B M 2
;
_chemical_formula_sum "Si O2"
_cell_formula_units_Z 48
_cell_length_a 14.628764
_cell_length_b 25.566676
_cell_length_c 5.152394
_cell_angle_alpha 90.000000
_cell_angle_beta 90.000000
_cell_angle_gamma 90.000000
_cell_volume 1927.041055
_symmetry_space_group_name_H-M "A B M 2"
_symmetry_group_IT_number 39
_symmetry_cell_setting 'orthorhombic'
loop_
_space_group_symop_operation_xyz
x,y,z
-x,-y,z
-x,1/2+y,z
x,1/2-y,z
x,1/2+y,1/2+z
-x,1/2-y,1/2+z
-x,y,1/2+z
x,-y,1/2+z
loop_
_atom_site_type_symbol
_atom_site_label
_atom_site_fract_x
_atom_site_fract_y
_atom_site_fract_z
Si Si1 0.895978 0.022036 0.811840
Si Si2 0.059727 0.191549 0.692665
Si Si3 0.635963 0.128172 0.338633
Si Si4 0.675946 0.312087 0.817791
Si Si5 0.177327 0.877761 0.549463
Si Si6 0.600012 0.478431 0.115933
O O1 0.883759 0.079767 0.696881
O O2 0.854606 0.983867 0.595289
O O3 0.000000 0.000000 0.849322
O O4 0.099339 0.250000 0.726462
O O5 0.125301 0.148527 0.810443
O O6 0.975443 0.187573 0.899124
O O7 0.653603 0.168814 0.106324
O O8 0.730580 0.099850 0.423769
O O9 0.583560 0.079978 0.216329
O O10 0.611170 0.159659 0.600721
O O11 0.671873 0.250000 0.795058
O O12 0.776730 0.333818 0.736642
O O13 0.500000 0.500000 0.049825
O O14 0.645925 0.514969 0.334890
#
# Coordination Sequence:
#
# PCOD9361507 Si02
#       6
#     8   8   8   8   8   8
#     4  10  24  39  55  75 108 158 206 258 323 383
#     4  10  23  37  56  81 110 154 215 272 323 375
#     4  10  23  38  62  99 130 167 218 259 324 394
#     4  10  22  40  62  92 130 167 213 271 330 383
#     4  10  25  38  64  82 124 160 219 264 329 392
#     4  10  21  40  68 101 136 176 209 258 308 379
#
# _framework density 24.908655
#
# number of rings (size 3 to 8) (size 9 to 14) (size 15 to 20)
#    1.000    1.000    0.000    2.000    9.333    1.333 
#    0.000    0.000    0.000    0.000    0.000   46.667 
#    0.000    0.000    0.000    0.000    0.000    0.000 
#
# Total GULP energy -133982.854485 kJ/mol
# GULP energy per Si atom -5582.618937 kJ/mol
# Density = 2.485196 g / cm^3
# Si number density = 24.908655 Si / 1000 Ang^3
#
#
#
# Elastic Constant Matrix: (Units=GPa)
#
#
# Indices 1 2 3 4 5 6 
#
# 1 20.0604 16.0679 -9.4647 0.0000 0.0000 0.0000
# 2 16.0679 142.3460 12.0725 0.0000 0.0000 0.0000
# 3 -9.4647 12.0725 142.3720 0.0000 0.0000 0.0000
# 4 0.0000 0.0000 0.0000 40.1676 0.0000 0.0000
# 5 0.0000 0.0000 0.0000 0.0000 21.8961 0.0000
# 6 0.0000 0.0000 0.0000 0.0000 0.0000 31.5209
#
#
#
# Elastic Compliance Matrix: (Units=1/GPa)
#
#
# Indices 1 2 3 4 5 6 
#
# 1 0.057414 -0.006854 0.004398 0.000000 0.000000 0.000000
# 2 -0.006854 0.007894 -0.001125 0.000000 0.000000 0.000000
# 3 0.004398 -0.001125 0.007412 0.000000 0.000000 0.000000
# 4 0.000000 0.000000 0.000000 0.024896 0.000000 0.000000
# 5 0.000000 0.000000 0.000000 0.000000 0.045670 0.000000
# 6 0.000000 0.000000 0.000000 0.000000 0.000000 0.031725
#
#
# Mechanical properties :
#
#
# Convention : Reuss Voigt Hill
#
# Bulk Modulus (GPa) = 15.25356 38.01441 26.63398
# Shear Modulus (GPa) = 24.50670 37.79042 31.14856
#
# Velocity S-wave (km/s) = 3.14006 3.89930 3.54009
# Velocity P-wave (km/s) = 4.39133 5.96384 5.23694
#
# Compressibility (1/GPa) = 0.06555846
#
# Stress axis : x y z
#
# Youngs Moduli (GPa) = 17.41723 126.67514 134.92320
#
# Poissons Ratio (x) = 0.86822 -0.59339
# Poissons Ratio (y) = 0.11938 0.15179
# Poissons Ratio (z) = -0.07660 0.14251
#
# Static dielectric constant tensor:
#      x y z
#    x 0.971230 0.000000 0.000000 
#    y 0.000000 1.984050 0.000000 
#    z 0.000000 0.000000 2.068110 
# 
# From -- ./inp_files/802.got.cif
#   From: 2010.05.17/outbox.cif.g08.bks.cpg/sg39_1_cif.got.tgz:802.got - 2010.06.03 18:22:40.
