data_PCOD9361618
_publ_section_title
;
Structure prediction by ZEFSAII (Michael W. Deem and Ramdas Pophale) SiO2 
 PCOD9361618
Probable space group: A B M 2
;
_chemical_formula_sum "Si O2"
_cell_formula_units_Z 48
_cell_length_a 6.250761
_cell_length_b 22.489189
_cell_length_c 16.714610
_cell_angle_alpha 90.000000
_cell_angle_beta 90.000000
_cell_angle_gamma 90.000000
_cell_volume 2349.648704
_symmetry_space_group_name_H-M "A B M 2"
_symmetry_group_IT_number 39
_symmetry_cell_setting 'orthorhombic'
loop_
_space_group_symop_operation_xyz
x,y,z
-x,-y,z
-x,1/2+y,z
x,1/2-y,z
x,1/2+y,1/2+z
-x,1/2-y,1/2+z
-x,y,1/2+z
x,-y,1/2+z
loop_
_atom_site_type_symbol
_atom_site_label
_atom_site_fract_x
_atom_site_fract_y
_atom_site_fract_z
Si Si1 0.500000 0.000000 0.471781
Si Si2 0.941248 0.818607 0.826599
Si Si3 0.000000 0.500000 0.197735
Si Si4 0.309472 0.914322 0.602531
Si Si5 0.665815 0.895945 0.384037
Si Si6 0.663827 0.405904 0.239452
Si Si7 0.639955 0.317705 0.483837
O O1 0.627588 0.044106 0.528609
O O2 0.328594 0.038877 0.422697
O O3 0.006749 0.750000 0.811791
O O4 0.131644 0.864178 0.845649
O O5 0.808124 0.847176 0.753295
O O6 0.798130 0.818729 0.907392
O O7 0.880938 0.551678 0.147404
O O8 0.814490 0.464018 0.242975
O O9 0.514773 0.908368 0.661049
O O10 0.263036 0.851665 0.560199
O O11 0.494296 0.904310 0.314111
O O12 0.569918 0.852035 0.451752
O O13 0.589929 0.250000 0.503272
#
# Coordination Sequence:
#
# PCOD9361618 Si02
#       7
#     4   8   4   8   8   8   8
#     4  10  22  38  58  92 130 160 218 258 332 376
#     4  10  22  41  67  97 127 168 219 262 317 386
#     4  12  24  40  64  86 132 168 214 260 316 384
#     4  11  23  40  61  92 129 171 209 268 317 383
#     4  10  22  39  65  93 126 168 209 269 319 378
#     4  11  24  41  62  91 130 168 210 262 320 373
#     4   9  21  41  63  93 126 165 214 262 318 374
#
# _framework density 20.428587
#
# number of rings (size 3 to 8) (size 9 to 14) (size 15 to 20)
#    0.000    1.667    1.667    1.500    7.000    1.333 
#    0.000    2.500    0.000    0.000    0.000    0.000 
#    0.000    0.000    0.000    0.000    0.000    0.000 
#
# Total GULP energy -133940.339111 kJ/mol
# GULP energy per Si atom -5580.847463 kJ/mol
# Density = 2.038209 g / cm^3
# Si number density = 20.428587 Si / 1000 Ang^3
#
#
#
# Elastic Constant Matrix: (Units=GPa)
#
#
# Indices 1 2 3 4 5 6 
#
# 1 72.1720 41.4326 31.5927 0.0000 0.0000 0.0000
# 2 41.4326 149.4549 67.1692 0.0000 0.0000 0.0000
# 3 31.5927 67.1692 60.8085 0.0000 0.0000 0.0000
# 4 0.0000 0.0000 0.0000 32.3115 0.0000 0.0000
# 5 0.0000 0.0000 0.0000 0.0000 24.2698 0.0000
# 6 0.0000 0.0000 0.0000 0.0000 0.0000 28.4922
#
#
#
# Elastic Compliance Matrix: (Units=1/GPa)
#
#
# Indices 1 2 3 4 5 6 
#
# 1 0.018119 -0.001573 -0.007676 0.000000 0.000000 0.000000
# 2 -0.001573 0.013424 -0.014011 0.000000 0.000000 0.000000
# 3 -0.007676 -0.014011 0.035909 0.000000 0.000000 0.000000
# 4 0.000000 0.000000 0.000000 0.030949 0.000000 0.000000
# 5 0.000000 0.000000 0.000000 0.000000 0.041204 0.000000
# 6 0.000000 0.000000 0.000000 0.000000 0.000000 0.035097
#
#
# Mechanical properties :
#
#
# Convention : Reuss Voigt Hill
#
# Bulk Modulus (GPa) = 47.77229 62.53604 55.15416
# Shear Modulus (GPa) = 21.91075 26.49744 24.20409
#
# Velocity S-wave (km/s) = 3.27854 3.60540 3.44585
# Velocity P-wave (km/s) = 6.14553 6.92895 6.54897
#
# Compressibility (1/GPa) = 0.02093264
#
# Stress axis : x y z
#
# Youngs Moduli (GPa) = 55.19077 74.49376 27.84810
#
# Poissons Ratio (x) = 0.11721 0.21375
# Poissons Ratio (y) = 0.08684 0.39017
# Poissons Ratio (z) = 0.42362 1.04371
#
# Static dielectric constant tensor:
#      x y z
#    x 1.739460 0.000000 0.000000 
#    y 0.000000 1.792050 0.000000 
#    z 0.000000 0.000000 1.736030 
# 
# From -- ./inp_files/11070.got.cif
#   From: 2010.05.17/outbox.cif.g08.bks.cpg/sg39_6_cif.got.tgz:11070.got - 2010.06.03 18:22:40.
