data_PCOD9361652
_publ_section_title
;
Structure prediction by ZEFSAII (Michael W. Deem and Ramdas Pophale) SiO2 
 PCOD9361652
Probable space group: A B M 2
;
_chemical_formula_sum "Si O2"
_cell_formula_units_Z 56
_cell_length_a 12.227343
_cell_length_b 21.074577
_cell_length_c 10.275306
_cell_angle_alpha 90.000000
_cell_angle_beta 90.000000
_cell_angle_gamma 90.000000
_cell_volume 2647.803340
_symmetry_space_group_name_H-M "A B M 2"
_symmetry_group_IT_number 39
_symmetry_cell_setting 'orthorhombic'
loop_
_space_group_symop_operation_xyz
x,y,z
-x,-y,z
-x,1/2+y,z
x,1/2-y,z
x,1/2+y,1/2+z
-x,1/2-y,1/2+z
-x,y,1/2+z
x,-y,1/2+z
loop_
_atom_site_type_symbol
_atom_site_label
_atom_site_fract_x
_atom_site_fract_y
_atom_site_fract_z
Si Si1 0.621693 0.573340 0.511430
Si Si2 0.970150 0.683159 0.358082
Si Si3 0.842154 0.632770 0.571393
Si Si4 0.781856 0.176852 0.361784
Si Si5 0.712785 0.932984 0.051231
Si Si6 0.952213 0.563714 0.173727
Si Si7 0.525159 0.425147 0.746948
O O1 0.740175 0.602542 0.499935
O O2 0.648919 0.497460 0.507381
O O3 0.569283 0.595949 0.647920
O O4 0.542085 0.594314 0.395394
O O5 0.966943 0.750000 0.282644
O O6 0.889819 0.685312 0.478445
O O7 0.940763 0.622886 0.270829
O O8 0.092988 0.676571 0.412534
O O9 0.801873 0.656536 0.711910
O O10 0.944231 0.584475 0.585707
O O11 0.740619 0.250000 0.371263
O O12 0.719948 0.121887 0.441943
O O13 0.836703 0.947007 0.100903
O O14 0.639411 0.911870 0.173742
O O15 0.000000 0.500000 0.240470
O O16 0.500000 0.500000 0.752781
#
# Coordination Sequence:
#
# PCOD9361652 Si02
#       7
#     8   8   8   8   8   8   8
#     4  11  24  40  68  99 131 169 216 278 345 393
#     4  10  22  39  61  91 134 183 223 258 320 407
#     4  11  22  38  64  95 135 172 216 277 330 397
#     4  10  23  39  62  93 130 180 224 264 318 394
#     4  11  22  39  65  92 134 168 215 270 335 399
#     4  11  22  38  60  98 137 171 213 279 337 399
#     4  10  23  40  62  98 127 167 217 269 334 406
#
# _framework density 21.149607
#
# number of rings (size 3 to 8) (size 9 to 14) (size 15 to 20)
#    0.000    1.429    2.857    2.571    6.000    4.000 
#    0.000    0.000    0.000    1.714    0.000    0.000 
#    0.000    0.000    0.000    0.000    0.000    0.000 
#
# Total GULP energy -156132.237787 kJ/mol
# GULP energy per Si atom -5576.151350 kJ/mol
# Density = 2.110147 g / cm^3
# Si number density = 21.149607 Si / 1000 Ang^3
#
#
#
# Elastic Constant Matrix: (Units=GPa)
#
#
# Indices 1 2 3 4 5 6 
#
# 1 118.3456 28.0348 41.2354 0.0000 0.0000 0.0000
# 2 28.0348 95.7181 28.7862 0.0000 0.0000 0.0000
# 3 41.2354 28.7862 77.2241 0.0000 0.0000 0.0000
# 4 0.0000 0.0000 0.0000 15.9182 0.0000 0.0000
# 5 0.0000 0.0000 0.0000 0.0000 40.2042 0.0000
# 6 0.0000 0.0000 0.0000 0.0000 0.0000 4.7601
#
#
#
# Elastic Compliance Matrix: (Units=1/GPa)
#
#
# Indices 1 2 3 4 5 6 
#
# 1 0.010589 -0.001578 -0.005066 0.000000 0.000000 0.000000
# 2 -0.001578 0.012002 -0.003631 0.000000 0.000000 0.000000
# 3 -0.005066 -0.003631 0.017008 0.000000 0.000000 0.000000
# 4 0.000000 0.000000 0.000000 0.062821 0.000000 0.000000
# 5 0.000000 0.000000 0.000000 0.000000 0.024873 0.000000
# 6 0.000000 0.000000 0.000000 0.000000 0.000000 0.210078
#
#
# Mechanical properties :
#
#
# Convention : Reuss Voigt Hill
#
# Bulk Modulus (GPa) = 52.49802 54.15560 53.32681
# Shear Modulus (GPa) = 13.72609 25.05862 19.39235
#
# Velocity S-wave (km/s) = 2.55031 3.44587 3.03134
# Velocity P-wave (km/s) = 5.79208 6.44155 6.12543
#
# Compressibility (1/GPa) = 0.01904834
#
# Stress axis : x y z
#
# Youngs Moduli (GPa) = 94.44016 83.32289 58.79603
#
# Poissons Ratio (x) = 0.13147 0.29786
# Poissons Ratio (y) = 0.14901 0.21350
# Poissons Ratio (z) = 0.47843 0.30256
#
# Static dielectric constant tensor:
#      x y z
#    x 1.759690 0.000000 0.000000 
#    y 0.000000 1.794240 0.000000 
#    z 0.000000 0.000000 1.806890 
# 
# From -- ./inp_files/5951.got.cif
#   From: 2010.05.17/outbox.cif.g08.bks.cpg/sg39_3_cif.got.tgz:5951.got - 2010.06.03 18:22:40.
