data_PCOD9361600
_publ_section_title
;
Structure prediction by ZEFSAII (Michael W. Deem and Ramdas Pophale) SiO2 
 PCOD9361600
Probable space group: A B M 2
;
_chemical_formula_sum "Si O2"
_cell_formula_units_Z 60
_cell_length_a 8.924796
_cell_length_b 24.164473
_cell_length_c 14.716331
_cell_angle_alpha 90.000000
_cell_angle_beta 90.000000
_cell_angle_gamma 90.000000
_cell_volume 3173.767974
_symmetry_space_group_name_H-M "A B M 2"
_symmetry_group_IT_number 39
_symmetry_cell_setting 'orthorhombic'
loop_
_space_group_symop_operation_xyz
x,y,z
-x,-y,z
-x,1/2+y,z
x,1/2-y,z
x,1/2+y,1/2+z
-x,1/2-y,1/2+z
-x,y,1/2+z
x,-y,1/2+z
loop_
_atom_site_type_symbol
_atom_site_label
_atom_site_fract_x
_atom_site_fract_y
_atom_site_fract_z
Si Si1 0.127168 0.607574 0.900140
Si Si2 0.218616 0.685578 0.730977
Si Si3 0.000000 0.500000 0.806236
Si Si4 0.220433 0.441200 0.669194
Si Si5 0.457659 0.063840 0.430267
Si Si6 0.671808 0.050211 0.594590
Si Si7 0.493589 0.614840 0.741765
Si Si8 0.954043 0.124108 0.574657
O O1 0.160497 0.647531 0.814548
O O2 0.041677 0.553293 0.864873
O O3 0.284777 0.582878 0.937158
O O4 0.028517 0.637698 0.977621
O O5 0.201198 0.750000 0.750026
O O6 0.395630 0.669476 0.722104
O O7 0.125706 0.669061 0.640024
O O8 0.140682 0.480339 0.744724
O O9 0.299992 0.485208 0.602460
O O10 0.344285 0.397551 0.701441
O O11 0.086282 0.406463 0.627730
O O12 0.551728 0.070943 0.521720
O O13 0.510989 0.102350 0.347671
O O14 0.500000 0.000000 0.403998
O O15 0.615160 0.069620 0.693374
O O16 0.825256 0.078258 0.564860
#
# Coordination Sequence:
#
# PCOD9361600 Si02
#       8
#     8   8   4   8   8   8   8   8
#     4  11  24  38  60  98 130 170 214 262 326 391
#     4  10  23  48  67  83 120 171 228 283 327 366
#     4  12  22  36  62  96 142 172 194 254 324 406
#     4  12  20  36  58  90 137 167 208 243 309 397
#     4  11  21  33  54  86 126 172 201 241 305 380
#     4  11  21  35  54  89 131 171 200 242 309 388
#     4  10  22  37  58  84 115 162 215 263 307 366
#     4  11  23  37  60  95 126 166 210 262 321 382
#
# _framework density 18.904973999999999
#
# number of rings (size 3 to 8) (size 9 to 14) (size 15 to 20)
#    0.000    1.067    2.667    6.000    5.600    0.533 
#    0.000    0.667    0.000   19.200    0.000    0.000 
#    0.000    0.000    0.000    0.000    0.000    0.000 
#
# Total GULP energy -167343.371073 kJ/mol
# GULP energy per Si atom -5578.112369 kJ/mol
# Density = 1.886195 g / cm^3
# Si number density = 18.904974 Si / 1000 Ang^3
#
#
#
# Elastic Constant Matrix: (Units=GPa)
#
#
# Indices 1 2 3 4 5 6 
#
# 1 122.8302 28.8129 56.6551 0.0000 0.0000 0.0000
# 2 28.8129 95.6951 37.8910 0.0000 0.0000 0.0000
# 3 56.6551 37.8910 94.0445 0.0000 0.0000 0.0000
# 4 0.0000 0.0000 0.0000 6.9209 0.0000 0.0000
# 5 0.0000 0.0000 0.0000 0.0000 32.5052 0.0000
# 6 0.0000 0.0000 0.0000 0.0000 0.0000 9.1898
#
#
#
# Elastic Compliance Matrix: (Units=1/GPa)
#
#
# Indices 1 2 3 4 5 6 
#
# 1 0.011331 -0.000843 -0.006486 0.000000 0.000000 0.000000
# 2 -0.000843 0.012496 -0.004527 0.000000 0.000000 0.000000
# 3 -0.006486 -0.004527 0.016365 0.000000 0.000000 0.000000
# 4 0.000000 0.000000 0.000000 0.144490 0.000000 0.000000
# 5 0.000000 0.000000 0.000000 0.000000 0.030764 0.000000
# 6 0.000000 0.000000 0.000000 0.000000 0.000000 0.108816
#
#
# Mechanical properties :
#
#
# Convention : Reuss Voigt Hill
#
# Bulk Modulus (GPa) = 60.68324 62.14311 61.41317
# Shear Modulus (GPa) = 14.14556 22.33723 18.24139
#
# Velocity S-wave (km/s) = 2.73838 3.44110 3.10965
# Velocity P-wave (km/s) = 6.49361 6.98075 6.74158
#
# Compressibility (1/GPa) = 0.01647901
#
# Stress axis : x y z
#
# Youngs Moduli (GPa) = 88.25392 80.02463 61.10742
#
# Poissons Ratio (x) = 0.06749 0.39636
# Poissons Ratio (y) = 0.07443 0.27661
# Poissons Ratio (z) = 0.57244 0.36225
#
# Static dielectric constant tensor:
#      x y z
#    x 1.707390 0.000000 0.000000 
#    y 0.000000 1.612450 0.000000 
#    z 0.000000 0.000000 1.731330 
# 
# From -- ./inp_files/8840.got.cif
#   From: 2010.05.17/outbox.cif.g08.bks.cpg/sg39_5_cif.got.tgz:8840.got - 2010.06.03 18:22:40.
