data_PCOD9361493
_publ_section_title
;
Structure prediction by ZEFSAII (Michael W. Deem and Ramdas Pophale) SiO2 
 PCOD9361493
Probable space group: A B M 2
;
_chemical_formula_sum "Si O2"
_cell_formula_units_Z 44
_cell_length_a 9.103857
_cell_length_b 16.193961
_cell_length_c 14.176416
_cell_angle_alpha 90.000000
_cell_angle_beta 90.000000
_cell_angle_gamma 90.000000
_cell_volume 2089.993644
_symmetry_space_group_name_H-M "A B M 2"
_symmetry_group_IT_number 39
_symmetry_cell_setting 'orthorhombic'
loop_
_space_group_symop_operation_xyz
x,y,z
-x,-y,z
-x,1/2+y,z
x,1/2-y,z
x,1/2+y,1/2+z
-x,1/2-y,1/2+z
-x,y,1/2+z
x,-y,1/2+z
loop_
_atom_site_type_symbol
_atom_site_label
_atom_site_fract_x
_atom_site_fract_y
_atom_site_fract_z
Si Si1 0.446884 0.342766 0.850570
Si Si2 0.337760 0.530939 0.504080
Si Si3 0.776978 0.903074 0.362489
Si Si4 0.117503 0.569396 0.663995
Si Si5 0.248747 0.250000 0.732845
Si Si6 0.993225 0.250000 0.610814
Si Si7 0.006222 0.750000 0.893060
O O1 0.453547 0.250000 0.891586
O O2 0.363686 0.401936 0.922057
O O3 0.612689 0.372297 0.836713
O O4 0.353086 0.328329 0.755151
O O5 0.500000 0.500000 0.529660
O O6 0.244196 0.458812 0.454392
O O7 0.253623 0.564079 0.593656
O O8 0.836351 0.949853 0.270910
O O9 0.889495 0.829231 0.381033
O O10 0.061879 0.664236 0.656654
O O11 0.000000 0.500000 0.634976
O O12 0.167826 0.250000 0.633584
O O13 0.123952 0.250000 0.815644
O O14 0.952035 0.250000 0.501030
#
# Coordination Sequence:
#
# PCOD9361493 Si02
#       7
#     8   8   8   8   4   4   4
#     4   9  21  42  68  95 133 175 225 279 344 400
#     4  10  24  44  66 102 131 182 235 282 344 407
#     4  11  23  45  69  94 139 178 225 288 347 403
#     4  12  27  45  70 104 142 182 230 285 353 413
#     4  10  21  40  65  99 129 173 229 269 340 403
#     4  12  26  41  68 105 138 181 231 271 347 415
#     4  12  21  43  67  94 139 180 228 286 339 416
#
# _framework density 21.052695
#
# number of rings (size 3 to 8) (size 9 to 14) (size 15 to 20)
#    0.545    0.727    2.727    2.182    3.818    4.364 
#    6.545    0.000    0.000    0.000    0.000    0.000 
#    0.000    0.000    0.000    0.000    0.000    0.000 
#
# Total GULP energy -122884.638501 kJ/mol
# GULP energy per Si atom -5585.665386 kJ/mol
# Density = 2.100478 g / cm^3
# Si number density = 21.052695 Si / 1000 Ang^3
#
#
#
# Elastic Constant Matrix: (Units=GPa)
#
#
# Indices 1 2 3 4 5 6 
#
# 1 45.7590 20.6174 16.9529 0.0000 0.0000 0.0000
# 2 20.6174 74.8987 -2.1834 0.0000 0.0000 0.0000
# 3 16.9529 -2.1834 33.7505 0.0000 0.0000 0.0000
# 4 0.0000 0.0000 0.0000 19.3027 0.0000 0.0000
# 5 0.0000 0.0000 0.0000 0.0000 30.7764 0.0000
# 6 0.0000 0.0000 0.0000 0.0000 0.0000 44.7870
#
#
#
# Elastic Compliance Matrix: (Units=1/GPa)
#
#
# Indices 1 2 3 4 5 6 
#
# 1 0.032324 -0.009389 -0.016844 0.000000 0.000000 0.000000
# 2 -0.009389 0.016104 0.005758 0.000000 0.000000 0.000000
# 3 -0.016844 0.005758 0.038462 0.000000 0.000000 0.000000
# 4 0.000000 0.000000 0.000000 0.051806 0.000000 0.000000
# 5 0.000000 0.000000 0.000000 0.000000 0.032492 0.000000
# 6 0.000000 0.000000 0.000000 0.000000 0.000000 0.022328
#
#
# Mechanical properties :
#
#
# Convention : Reuss Voigt Hill
#
# Bulk Modulus (GPa) = 21.76732 25.02023 23.39378
# Shear Modulus (GPa) = 20.01757 26.90796 23.46277
#
# Velocity S-wave (km/s) = 3.08690 3.57896 3.34200
# Velocity P-wave (km/s) = 4.80283 5.38415 5.10177
#
# Compressibility (1/GPa) = 0.04594042
#
# Stress axis : x y z
#
# Youngs Moduli (GPa) = 30.93646 62.09746 25.99940
#
# Poissons Ratio (x) = 0.58303 0.43793
# Poissons Ratio (y) = 0.29046 -0.14970
# Poissons Ratio (z) = 0.52109 -0.35755
#
# Static dielectric constant tensor:
#      x y z
#    x 1.758540 0.000000 0.000000 
#    y 0.000000 1.801260 0.000000 
#    z 0.000000 0.000000 1.725400 
# 
# From -- ./inp_files/8293.got.cif
#   From: 2010.05.17/outbox.cif.g08.bks.cpg/sg39_5_cif.got.tgz:8293.got - 2010.06.03 18:22:40.
