data_PCOD9361118
_publ_section_title
;
Structure prediction by ZEFSAII (Michael W. Deem and Ramdas Pophale) SiO2 
 PCOD9361118
Probable space group: A B M 2
;
_chemical_formula_sum "Si O2"
_cell_formula_units_Z 48
_cell_length_a 5.521223
_cell_length_b 29.967251
_cell_length_c 12.967567
_cell_angle_alpha 90.000000
_cell_angle_beta 90.000000
_cell_angle_gamma 90.000000
_cell_volume 2145.560151
_symmetry_space_group_name_H-M "A B M 2"
_symmetry_group_IT_number 39
_symmetry_cell_setting 'orthorhombic'
loop_
_space_group_symop_operation_xyz
x,y,z
-x,-y,z
-x,1/2+y,z
x,1/2-y,z
x,1/2+y,1/2+z
-x,1/2-y,1/2+z
-x,y,1/2+z
x,-y,1/2+z
loop_
_atom_site_type_symbol
_atom_site_label
_atom_site_fract_x
_atom_site_fract_y
_atom_site_fract_z
Si Si1 0.000000 0.500000 0.690660
Si Si2 0.500000 0.500000 0.564257
Si Si3 0.360568 0.406416 0.980650
Si Si4 0.980145 0.347118 0.601347
Si Si5 0.554064 0.750000 0.450695
Si Si6 0.742393 0.840110 0.398871
Si Si7 0.944756 0.250000 0.582013
Si Si8 0.949598 0.402437 0.272697
O O1 0.250548 0.494453 0.627765
O O2 0.974931 0.453061 0.749867
O O3 0.541796 0.455561 0.499397
O O4 0.210279 0.386754 0.076746
O O5 0.573095 0.372289 0.963550
O O6 0.211685 0.405731 0.874443
O O7 0.923129 0.297318 0.642929
O O8 0.044993 0.333347 0.482769
O O9 0.161927 0.374483 0.676537
O O10 0.602095 0.794176 0.383824
O O11 0.290266 0.750000 0.504570
O O12 0.777867 0.750000 0.534604
O O13 0.833678 0.868551 0.303027
#
# Coordination Sequence:
#
# PCOD9361118 Si02
#       8
#     4   4   8   8   4   8   4   8
#     4  12  28  48  70 102 138 186 234 294 350 426
#     4  12  28  46  76  98 138 194 236 288 362 428
#     4  11  24  42  70  97 140 186 233 293 357 420
#     4  10  21  45  65  98 140 184 235 287 357 412
#     4  10  20  41  69  98 135 182 236 276 354 407
#     4  10  23  41  68  99 138 188 229 294 350 424
#     4  10  20  39  73  96 131 188 232 282 340 423
#     4  11  26  42  68 103 142 179 236 297 346 424
#
# _framework density 22.371782
#
# number of rings (size 3 to 8) (size 9 to 14) (size 15 to 20)
#    0.000    1.333    3.333    1.000    7.000    2.000 
#    0.000    1.667    0.000    0.000    0.000    0.000 
#    0.000    0.000    0.000    0.000    0.000    0.000 
#
# Total GULP energy -133669.938635 kJ/mol
# GULP energy per Si atom -5569.580776 kJ/mol
# Density = 2.232086 g / cm^3
# Si number density = 22.371782 Si / 1000 Ang^3
#
#
#
# Elastic Constant Matrix: (Units=GPa)
#
#
# Indices 1 2 3 4 5 6 
#
# 1 81.8916 19.3311 18.9068 0.0000 0.0000 0.0000
# 2 19.3311 213.2462 43.7225 0.0000 0.0000 0.0000
# 3 18.9068 43.7225 72.2757 0.0000 0.0000 0.0000
# 4 0.0000 0.0000 0.0000 75.6464 0.0000 0.0000
# 5 0.0000 0.0000 0.0000 0.0000 20.6605 0.0000
# 6 0.0000 0.0000 0.0000 0.0000 0.0000 44.1845
#
#
#
# Elastic Compliance Matrix: (Units=1/GPa)
#
#
# Indices 1 2 3 4 5 6 
#
# 1 0.013053 -0.000552 -0.003081 0.000000 0.000000 0.000000
# 2 -0.000552 0.005377 -0.003108 0.000000 0.000000 0.000000
# 3 -0.003081 -0.003108 0.016522 0.000000 0.000000 0.000000
# 4 0.000000 0.000000 0.000000 0.013219 0.000000 0.000000
# 5 0.000000 0.000000 0.000000 0.000000 0.048402 0.000000
# 6 0.000000 0.000000 0.000000 0.000000 0.000000 0.022632
#
#
# Mechanical properties :
#
#
# Convention : Reuss Voigt Hill
#
# Bulk Modulus (GPa) = 46.57616 59.03714 52.80665
# Shear Modulus (GPa) = 35.75435 47.12849 41.44142
#
# Velocity S-wave (km/s) = 4.00207 4.59476 4.30862
# Velocity P-wave (km/s) = 6.49768 7.38887 6.95756
#
# Compressibility (1/GPa) = 0.02147021
#
# Stress axis : x y z
#
# Youngs Moduli (GPa) = 76.61211 185.98693 60.52478
#
# Poissons Ratio (x) = 0.10259 0.18647
# Poissons Ratio (y) = 0.04226 0.18813
# Poissons Ratio (z) = 0.23603 0.57810
#
# Static dielectric constant tensor:
#      x y z
#    x 1.908440 0.000000 0.000000 
#    y 0.000000 1.841900 0.000000 
#    z 0.000000 0.000000 2.017640 
# 
# From -- ./inp_files/7599.got.cif
#   From: 2010.05.17/outbox.cif.g08.bks.cpg/sg39_4_cif.got.tgz:7599.got - 2010.06.03 18:22:40.
