data_PCOD9361566
_publ_section_title
;
Structure prediction by ZEFSAII (Michael W. Deem and Ramdas Pophale) SiO2 
 PCOD9361566
Probable space group: A B M 2
;
_chemical_formula_sum "Si O2"
_cell_formula_units_Z 52
_cell_length_a 10.701231
_cell_length_b 15.440378
_cell_length_c 14.816346
_cell_angle_alpha 90.000000
_cell_angle_beta 90.000000
_cell_angle_gamma 90.000000
_cell_volume 2448.120432
_symmetry_space_group_name_H-M "A B M 2"
_symmetry_group_IT_number 39
_symmetry_cell_setting 'orthorhombic'
loop_
_space_group_symop_operation_xyz
x,y,z
-x,-y,z
-x,1/2+y,z
x,1/2-y,z
x,1/2+y,1/2+z
-x,1/2-y,1/2+z
-x,y,1/2+z
x,-y,1/2+z
loop_
_atom_site_type_symbol
_atom_site_label
_atom_site_fract_x
_atom_site_fract_y
_atom_site_fract_z
Si Si1 0.641765 0.750000 0.846421
Si Si2 0.379726 0.750000 0.750148
Si Si3 0.821239 0.588305 0.820240
Si Si4 0.147059 0.354297 0.634275
Si Si5 0.559010 0.250000 0.554582
Si Si6 0.730714 0.593448 0.363063
Si Si7 0.011800 0.649066 0.955141
Si Si8 0.401186 0.076268 0.552901
O O1 0.525115 0.750000 0.778677
O O2 0.719224 0.663420 0.828049
O O3 0.611270 0.750000 0.953118
O O4 0.354366 0.750000 0.643248
O O5 0.326229 0.834968 0.798191
O O6 0.898088 0.615451 0.731942
O O7 0.761714 0.494778 0.812286
O O8 0.906536 0.591528 0.909058
O O9 0.174335 0.250000 0.632977
O O10 0.042542 0.369444 0.558756
O O11 0.272466 0.408603 0.608860
O O12 0.475444 0.165119 0.563205
O O13 0.857392 0.632962 0.404781
O O14 0.641988 0.570465 0.448173
O O15 0.975563 0.750000 0.944708
O O16 0.500000 0.000000 0.575718
#
# Coordination Sequence:
#
# PCOD9361566 Si02
#       8
#     4   4   8   8   4   8   8   8
#     4  12  24  43  68 101 147 175 222 291 336 402
#     4  12  26  45  67  98 137 187 229 273 345 417
#     4  12  24  44  68 108 138 174 229 290 342 405
#     4  10  21  42  72  99 131 189 227 271 351 412
#     4  12  24  42  63  95 138 180 225 278 327 399
#     4  11  24  44  70  95 135 184 227 280 346 404
#     4  10  21  45  72  94 131 182 227 281 343 410
#     4  11  22  42  66  95 136 182 229 276 336 407
#
# _framework density 21.240786
#
# number of rings (size 3 to 8) (size 9 to 14) (size 15 to 20)
#    0.000    0.923    4.615    2.308    2.154    0.000 
#    2.769    3.077    0.000    0.000    0.000    0.000 
#    0.000    0.000    0.000    0.000    0.000    0.000 
#
# Total GULP energy -145389.081161 kJ/mol
# GULP energy per Si atom -5591.887737 kJ/mol
# Density = 2.119244 g / cm^3
# Si number density = 21.240786 Si / 1000 Ang^3
#
#
#
# Elastic Constant Matrix: (Units=GPa)
#
#
# Indices 1 2 3 4 5 6 
#
# 1 35.6902 44.2163 -1.7315 0.0000 0.0000 0.0000
# 2 44.2163 107.6008 36.3582 0.0000 0.0000 0.0000
# 3 -1.7315 36.3582 97.0690 0.0000 0.0000 0.0000
# 4 0.0000 0.0000 0.0000 23.7290 0.0000 0.0000
# 5 0.0000 0.0000 0.0000 0.0000 20.9772 0.0000
# 6 0.0000 0.0000 0.0000 0.0000 0.0000 -29.6594
#
#
#
# Elastic Compliance Matrix: (Units=1/GPa)
#
#
# Indices 1 2 3 4 5 6 
#
# 1 0.070215 -0.033519 0.013807 0.000000 0.000000 0.000000
# 2 -0.033519 0.026641 -0.010577 0.000000 0.000000 0.000000
# 3 0.013807 -0.010577 0.014510 0.000000 0.000000 0.000000
# 4 0.000000 0.000000 0.000000 0.042142 0.000000 0.000000
# 5 0.000000 0.000000 0.000000 0.000000 0.047671 0.000000
# 6 0.000000 0.000000 0.000000 0.000000 0.000000 -0.033716
#
#
# Mechanical properties :
#
#
# Convention : Reuss Voigt Hill
#
# Bulk Modulus (GPa) = 19.68899 44.22731 31.95815
# Shear Modulus (GPa) = 20.41067 13.77717 17.09392
#
# Velocity S-wave (km/s) = 3.10323 2.54956 2.83992
# Velocity P-wave (km/s) = 4.70421 5.43453 5.08251
#
# Compressibility (1/GPa) = 0.05078980
#
# Stress axis : x y z
#
# Youngs Moduli (GPa) = 14.24195 37.53563 68.91869
#
# Poissons Ratio (x) = 1.25815 -0.95158
# Poissons Ratio (y) = 0.47737 0.72893
# Poissons Ratio (z) = -0.19664 0.39700
#
# Static dielectric constant tensor:
#      x y z
#    x 1.759450 0.000000 0.000000 
#    y 0.000000 1.723600 0.000000 
#    z 0.000000 0.000000 1.813260 
# 
# From -- ./inp_files/9324.got.cif
#   From: 2010.05.17/outbox.cif.g08.bks.cpg/sg39_5_cif.got.tgz:9324.got - 2010.06.03 18:22:40.
