data_PCOD9361257
_publ_section_title
;
Structure prediction by ZEFSAII (Michael W. Deem and Ramdas Pophale) SiO2 
 PCOD9361257
Probable space group: A B M 2
;
_chemical_formula_sum "Si O2"
_cell_formula_units_Z 48
_cell_length_a 12.864751
_cell_length_b 18.018775
_cell_length_c 8.619869
_cell_angle_alpha 90.000000
_cell_angle_beta 90.000000
_cell_angle_gamma 90.000000
_cell_volume 1998.146436
_symmetry_space_group_name_H-M "A B M 2"
_symmetry_group_IT_number 39
_symmetry_cell_setting 'orthorhombic'
loop_
_space_group_symop_operation_xyz
x,y,z
-x,-y,z
-x,1/2+y,z
x,1/2-y,z
x,1/2+y,1/2+z
-x,1/2-y,1/2+z
-x,y,1/2+z
x,-y,1/2+z
loop_
_atom_site_type_symbol
_atom_site_label
_atom_site_fract_x
_atom_site_fract_y
_atom_site_fract_z
Si Si1 0.992843 0.750000 0.407890
Si Si2 0.115890 0.605486 0.791422
Si Si3 0.349279 0.338432 0.262452
Si Si4 0.158047 0.750000 0.193353
Si Si5 0.269432 0.096536 0.726533
Si Si6 0.446317 0.660477 0.424132
Si Si7 0.160867 0.983174 0.511453
O O1 0.949067 0.822521 0.324148
O O2 0.939092 0.750000 0.575334
O O3 0.115600 0.750000 0.371447
O O4 0.238750 0.624013 0.784697
O O5 0.095866 0.565490 0.630213
O O6 0.098523 0.547169 0.926232
O O7 0.331935 0.250000 0.266325
O O8 0.432678 0.356847 0.396091
O O9 0.400814 0.355528 0.094640
O O10 0.221751 0.674500 0.166687
O O11 0.382138 0.116449 0.793513
O O12 0.249779 0.029522 0.606423
O O13 0.206631 0.069424 0.878798
O O14 0.433924 0.750000 0.398450
#
# Coordination Sequence:
#
# PCOD9361257 Si02
#       7
#     4   8   8   4   8   8   8
#     4  12  28  46  75 104 127 166 223 278 328 390
#     4  11  22  46  67  97 135 177 221 271 328 389
#     4  10  21  36  62  97 131 177 226 277 326 378
#     4  12  28  46  75 104 127 166 223 278 328 390
#     4  11  22  46  67  97 135 177 221 271 328 389
#     4  10  21  36  62  97 131 177 226 277 326 378
#     4  10  24  40  70  94 138 182 212 264 340 398
#
# _framework density 24.022262999999999
#
# number of rings (size 3 to 8) (size 9 to 14) (size 15 to 20)
#    0.000    1.333    5.000    0.000    4.667    0.000 
#    0.000   10.000    0.000    0.000    0.000    0.000 
#    0.000    0.000    0.000    0.000    0.000    0.000 
#
# Total GULP energy -134414.175494 kJ/mol
# GULP energy per Si atom -5600.590646 kJ/mol
# Density = 2.396759 g / cm^3
# Si number density = 24.022263 Si / 1000 Ang^3
#
#
#
# Elastic Constant Matrix: (Units=GPa)
#
#
# Indices 1 2 3 4 5 6 
#
# 1 76.2477 18.4836 18.0774 0.0000 0.0000 0.0000
# 2 18.4836 103.1043 33.3240 0.0000 0.0000 0.0000
# 3 18.0774 33.3240 96.5465 0.0000 0.0000 0.0000
# 4 0.0000 0.0000 0.0000 35.6933 0.0000 0.0000
# 5 0.0000 0.0000 0.0000 0.0000 31.9551 0.0000
# 6 0.0000 0.0000 0.0000 0.0000 0.0000 -9.0018
#
#
#
# Elastic Compliance Matrix: (Units=1/GPa)
#
#
# Indices 1 2 3 4 5 6 
#
# 1 0.014040 -0.001877 -0.001981 0.000000 0.000000 0.000000
# 2 -0.001877 0.011168 -0.003503 0.000000 0.000000 0.000000
# 3 -0.001981 -0.003503 0.011938 0.000000 0.000000 0.000000
# 4 0.000000 0.000000 0.000000 0.028016 0.000000 0.000000
# 5 0.000000 0.000000 0.000000 0.000000 0.031294 0.000000
# 6 0.000000 0.000000 0.000000 0.000000 0.000000 -0.111089
#
#
# Mechanical properties :
#
#
# Convention : Reuss Voigt Hill
#
# Bulk Modulus (GPa) = 44.59642 46.18539 45.39091
# Shear Modulus (GPa) = 661.15527 25.46355 343.30941
#
# Velocity S-wave (km/s) = 16.60794 3.25929 11.96759
# Velocity P-wave (km/s) = 19.65629 5.78202 14.48795
#
# Compressibility (1/GPa) = 0.02242332
#
# Stress axis : x y z
#
# Youngs Moduli (GPa) = 71.22630 89.54465 83.76744
#
# Poissons Ratio (x) = 0.16804 0.16595
# Poissons Ratio (y) = 0.13367 0.29346
# Poissons Ratio (z) = 0.14110 0.31370
#
# Static dielectric constant tensor:
#      x y z
#    x 1.900640 0.000000 0.000000 
#    y 0.000000 1.867670 0.000000 
#    z 0.000000 0.000000 1.946340 
# 
# From -- ./inp_files/3273.got.cif
#   From: 2010.05.17/outbox.cif.g08.bks.cpg/sg39_2_cif.got.tgz:3273.got - 2010.06.03 18:22:40.
