data_PCOD9361371
_publ_section_title
;
Structure prediction by ZEFSAII (Michael W. Deem and Ramdas Pophale) SiO2 
 PCOD9361371
Probable space group: A B M 2
;
_chemical_formula_sum "Si O2"
_cell_formula_units_Z 32
_cell_length_a 9.301337
_cell_length_b 15.753973
_cell_length_c 8.671704
_cell_angle_alpha 90.000000
_cell_angle_beta 90.000000
_cell_angle_gamma 90.000000
_cell_volume 1270.690906
_symmetry_space_group_name_H-M "A B M 2"
_symmetry_group_IT_number 39
_symmetry_cell_setting 'orthorhombic'
loop_
_space_group_symop_operation_xyz
x,y,z
-x,-y,z
-x,1/2+y,z
x,1/2-y,z
x,1/2+y,1/2+z
-x,1/2-y,1/2+z
-x,y,1/2+z
x,-y,1/2+z
loop_
_atom_site_type_symbol
_atom_site_label
_atom_site_fract_x
_atom_site_fract_y
_atom_site_fract_z
Si Si1 0.025681 0.102533 0.049510
Si Si2 0.699246 0.078290 0.374439
Si Si3 0.216238 0.618559 0.844812
Si Si4 0.479918 0.154680 0.149861
O O1 0.100113 0.128281 0.207675
O O2 0.149475 0.119842 0.922237
O O3 0.000000 0.000000 0.056882
O O4 0.874734 0.141317 0.996163
O O5 0.619784 0.112441 0.223801
O O6 0.592969 0.098015 0.517332
O O7 0.736123 0.979787 0.356977
O O8 0.360970 0.660633 0.785934
O O9 0.506763 0.250000 0.093843
#
# Coordination Sequence:
#
# PCOD9361371 Si02
#       4
#     8   8   8   8
#     4   9  18  35  60  91 120 151 202 261 309 360
#     4  10  22  39  62  88 123 168 212 258 312 372
#     4  10  21  38  63  91 121 160 206 256 311 372
#     4  11  24  42  61  92 132 169 208 259 316 378
#
# _framework density 25.183150999999999
#
# number of rings (size 3 to 8) (size 9 to 14) (size 15 to 20)
#    0.000    2.000    0.000    3.750    0.000   12.000 
#    0.000    6.250    0.000    0.000    0.000    0.000 
#    0.000    0.000    0.000    0.000    0.000    0.000 
#
# Total GULP energy -89547.067484 kJ/mol
# GULP energy per Si atom -5596.691718 kJ/mol
# Density = 2.512583 g / cm^3
# Si number density = 25.183151 Si / 1000 Ang^3
#
#
#
# Elastic Constant Matrix: (Units=GPa)
#
#
# Indices 1 2 3 4 5 6 
#
# 1 139.5701 14.7638 78.5317 0.0000 0.0000 0.0000
# 2 14.7638 69.9354 29.0210 0.0000 0.0000 0.0000
# 3 78.5317 29.0210 59.6519 0.0000 0.0000 0.0000
# 4 0.0000 0.0000 0.0000 -1.2312 0.0000 0.0000
# 5 0.0000 0.0000 0.0000 0.0000 84.6868 0.0000
# 6 0.0000 0.0000 0.0000 0.0000 0.0000 -35.6887
#
#
#
# Elastic Compliance Matrix: (Units=1/GPa)
#
#
# Indices 1 2 3 4 5 6 
#
# 1 0.037968 0.015946 -0.057744 0.000000 0.000000 0.000000
# 2 0.015946 0.024613 -0.032968 0.000000 0.000000 0.000000
# 3 -0.057744 -0.032968 0.108822 0.000000 0.000000 0.000000
# 4 0.000000 0.000000 0.000000 -0.812212 0.000000 0.000000
# 5 0.000000 0.000000 0.000000 0.000000 0.011808 0.000000
# 6 0.000000 0.000000 0.000000 0.000000 0.000000 -0.028020
#
#
# Mechanical properties :
#
#
# Convention : Reuss Voigt Hill
#
# Bulk Modulus (GPa) = 45.71644 57.08782 51.40213
# Shear Modulus (GPa) = -9.99603 19.34278 4.67337
#
# Velocity S-wave (km/s) = -1.99448 2.77444 1.36374
# Velocity P-wave (km/s) = 3.59013 5.74296 4.78909
#
# Compressibility (1/GPa) = 0.02187397
#
# Stress axis : x y z
#
# Youngs Moduli (GPa) = 26.33764 40.62860 9.18929
#
# Poissons Ratio (x) = -0.64788 0.53062
# Poissons Ratio (y) = -0.41999 0.30295
# Poissons Ratio (z) = 1.52083 1.33944
#
# Static dielectric constant tensor:
#      x y z
#    x 1.948970 0.000000 0.000000 
#    y 0.000000 1.944240 0.000000 
#    z 0.000000 0.000000 2.048910 
# 
# From -- ./inp_files/1989.got.cif
#   From: 2010.05.17/outbox.cif.g08.bks.cpg/sg39_1_cif.got.tgz:1989.got - 2010.06.03 18:22:40.
