data_PCOD9361727
_publ_section_title
;
Structure prediction by ZEFSAII (Michael W. Deem and Ramdas Pophale) SiO2 
 PCOD9361727
Probable space group: A B M 2
;
_chemical_formula_sum "Si O2"
_cell_formula_units_Z 64
_cell_length_a 20.465443
_cell_length_b 16.007475
_cell_length_c 9.483531
_cell_angle_alpha 90.000000
_cell_angle_beta 90.000000
_cell_angle_gamma 90.000000
_cell_volume 3106.805393
_symmetry_space_group_name_H-M "A B M 2"
_symmetry_group_IT_number 39
_symmetry_cell_setting 'orthorhombic'
loop_
_space_group_symop_operation_xyz
x,y,z
-x,-y,z
-x,1/2+y,z
x,1/2-y,z
x,1/2+y,1/2+z
-x,1/2-y,1/2+z
-x,y,1/2+z
x,-y,1/2+z
loop_
_atom_site_type_symbol
_atom_site_label
_atom_site_fract_x
_atom_site_fract_y
_atom_site_fract_z
Si Si1 0.437391 0.154022 0.865890
Si Si2 0.574599 0.654161 0.202979
Si Si3 0.255876 0.503859 0.493512
Si Si4 0.655576 0.011056 0.241156
Si Si5 0.835250 0.655521 0.081467
Si Si6 0.059258 0.843574 0.817714
Si Si7 0.080359 0.081253 0.856261
Si Si8 0.124789 0.573663 0.043581
O O1 0.414224 0.250000 0.841582
O O2 0.508326 0.147213 0.793707
O O3 0.391675 0.084200 0.795285
O O4 0.439799 0.142112 0.035448
O O5 0.599308 0.750000 0.219839
O O6 0.622164 0.579911 0.250874
O O7 0.279227 0.516030 0.335096
O O8 0.319868 0.480376 0.581601
O O9 0.221768 0.588154 0.554404
O O10 0.200488 0.434112 0.505760
O O11 0.811293 0.750000 0.104523
O O12 0.882861 0.630733 0.211059
O O13 0.882375 0.652247 0.944700
O O14 0.040969 0.750000 0.776909
O O15 0.993743 0.897279 0.818368
O O16 0.089685 0.847853 0.973702
O O17 0.115582 0.066948 0.708691
O O18 0.089872 0.002778 0.960359
#
# Coordination Sequence:
#
# PCOD9361727 Si02
#       8
#     8   8   8   8   8   8   8   8
#     4  10  23  43  68 101 136 169 210 263 323 379
#     4  10  23  43  69 100 136 171 209 263 324 379
#     4  11  24  40  60  87 125 170 219 257 298 377
#     4  12  23  41  66  95 130 175 222 266 308 374
#     4  10  22  41  63  88 124 168 208 266 333 387
#     4  11  23  39  61  89 118 151 202 264 330 396
#     4  11  22  38  63  90 115 153 204 263 327 397
#     4  11  23  41  59  84 124 159 203 256 320 375
#
# _framework density 20.599938999999999
#
# number of rings (size 3 to 8) (size 9 to 14) (size 15 to 20)
#    0.000    1.250    1.250    5.625    1.750    6.000 
#    0.000    1.250    0.000    0.000    0.000    0.000 
#    0.000    0.000    0.000    0.000    0.000    0.000 
#
# Total GULP energy -178730.936319 kJ/mol
# GULP energy per Si atom -5585.341760 kJ/mol
# Density = 2.055305 g / cm^3
# Si number density = 20.599939 Si / 1000 Ang^3
#
#
#
# Elastic Constant Matrix: (Units=GPa)
#
#
# Indices 1 2 3 4 5 6 
#
# 1 68.5870 43.8680 3.8076 0.0000 0.0000 0.0000
# 2 43.8680 87.8514 22.2472 0.0000 0.0000 0.0000
# 3 3.8076 22.2472 79.7626 0.0000 0.0000 0.0000
# 4 0.0000 0.0000 0.0000 21.9405 0.0000 0.0000
# 5 0.0000 0.0000 0.0000 0.0000 42.3050 0.0000
# 6 0.0000 0.0000 0.0000 0.0000 0.0000 9.8689
#
#
#
# Elastic Compliance Matrix: (Units=1/GPa)
#
#
# Indices 1 2 3 4 5 6 
#
# 1 0.021757 -0.011407 0.002143 0.000000 0.000000 0.000000
# 2 -0.011407 0.018228 -0.004540 0.000000 0.000000 0.000000
# 3 0.002143 -0.004540 0.013701 0.000000 0.000000 0.000000
# 4 0.000000 0.000000 0.000000 0.045578 0.000000 0.000000
# 5 0.000000 0.000000 0.000000 0.000000 0.023638 0.000000
# 6 0.000000 0.000000 0.000000 0.000000 0.000000 0.101329
#
#
# Mechanical properties :
#
#
# Convention : Reuss Voigt Hill
#
# Bulk Modulus (GPa) = 38.34468 41.78295 40.06381
# Shear Modulus (GPa) = 19.19159 25.90808 22.54984
#
# Velocity S-wave (km/s) = 3.05558 3.55022 3.31215
# Velocity P-wave (km/s) = 5.57702 6.09365 5.84105
#
# Compressibility (1/GPa) = 0.02607924
#
# Stress axis : x y z
#
# Youngs Moduli (GPa) = 45.96261 54.85952 72.98679
#
# Poissons Ratio (x) = 0.62577 -0.15641
# Poissons Ratio (y) = 0.52429 0.33134
# Poissons Ratio (z) = -0.09850 0.24904
#
# Static dielectric constant tensor:
#      x y z
#    x 1.719510 0.000000 0.000000 
#    y 0.000000 1.790620 0.000000 
#    z 0.000000 0.000000 1.711900 
# 
# From -- ./inp_files/4032.got.cif
#   From: 2010.05.17/outbox.cif.g08.bks.cpg/sg39_3_cif.got.tgz:4032.got - 2010.06.03 18:22:40.
