data_PCOD9361544
_publ_section_title
;
Structure prediction by ZEFSAII (Michael W. Deem and Ramdas Pophale) SiO2 
 PCOD9361544
Probable space group: A B M 2
;
_chemical_formula_sum "Si O2"
_cell_formula_units_Z 32
_cell_length_a 7.095521
_cell_length_b 39.453094
_cell_length_c 5.228417
_cell_angle_alpha 90.000000
_cell_angle_beta 90.000000
_cell_angle_gamma 90.000000
_cell_volume 1463.644399
_symmetry_space_group_name_H-M "A B M 2"
_symmetry_group_IT_number 39
_symmetry_cell_setting 'orthorhombic'
loop_
_space_group_symop_operation_xyz
x,y,z
-x,-y,z
-x,1/2+y,z
x,1/2-y,z
x,1/2+y,1/2+z
-x,1/2-y,1/2+z
-x,y,1/2+z
x,-y,1/2+z
loop_
_atom_site_type_symbol
_atom_site_label
_atom_site_fract_x
_atom_site_fract_y
_atom_site_fract_z
Si Si1 0.212156 0.013945 0.926260
Si Si2 0.373000 0.789052 0.296991
Si Si3 0.376723 0.582614 0.275842
Si Si4 0.119446 0.353192 0.870237
O O1 0.299637 0.990530 0.705638
O O2 0.230424 0.052115 0.829624
O O3 0.000000 0.000000 0.964136
O O4 0.306899 0.750000 0.310977
O O5 0.476648 0.793995 0.025852
O O6 0.210029 0.816273 0.333628
O O7 0.536084 0.579777 0.494403
O O8 0.274851 0.618385 0.313121
O O9 0.957990 0.357408 0.656551
#
# Coordination Sequence:
#
# PCOD9361544 Si02
#       4
#     8   8   8   8
#     4  10  23  40  66  91 124 164 200 267 320 391
#     4  10  21  41  68  96 133 175 216 265 319 375
#     4  12  26  44  68  95 128 167 217 267 316 387
#     4  12  26  41  67  96 133 175 214 266 320 380
#
# _framework density 21.863236000000001
#
# number of rings (size 3 to 8) (size 9 to 14) (size 15 to 20)
#    0.000    1.000    0.000    6.000    7.000    4.000 
#    0.000    0.000    0.000    0.000    0.000    0.000 
#    0.000    0.000    0.000    0.000    0.000    0.000 
#
# Total GULP energy -89527.433503 kJ/mol
# GULP energy per Si atom -5595.464594 kJ/mol
# Density = 2.181347 g / cm^3
# Si number density = 21.863236 Si / 1000 Ang^3
#
#
#
# Elastic Constant Matrix: (Units=GPa)
#
#
# Indices 1 2 3 4 5 6 
#
# 1 57.2922 24.9931 -15.1976 0.0000 0.0000 0.0000
# 2 24.9931 87.2481 -1.7428 0.0000 0.0000 0.0000
# 3 -15.1976 -1.7428 87.7030 0.0000 0.0000 0.0000
# 4 0.0000 0.0000 0.0000 27.8641 0.0000 0.0000
# 5 0.0000 0.0000 0.0000 0.0000 27.4332 0.0000
# 6 0.0000 0.0000 0.0000 0.0000 0.0000 58.2656
#
#
#
# Elastic Compliance Matrix: (Units=1/GPa)
#
#
# Indices 1 2 3 4 5 6 
#
# 1 0.020978 -0.005939 0.003517 0.000000 0.000000 0.000000
# 2 -0.005939 0.013148 -0.000768 0.000000 0.000000 0.000000
# 3 0.003517 -0.000768 0.011996 0.000000 0.000000 0.000000
# 4 0.000000 0.000000 0.000000 0.035889 0.000000 0.000000
# 5 0.000000 0.000000 0.000000 0.000000 0.036452 0.000000
# 6 0.000000 0.000000 0.000000 0.000000 0.000000 0.017163
#
#
# Mechanical properties :
#
#
# Convention : Reuss Voigt Hill
#
# Bulk Modulus (GPa) = 25.16206 27.59429 26.37817
# Shear Modulus (GPa) = 32.20551 37.65860 34.93206
#
# Velocity S-wave (km/s) = 3.84219 4.15476 4.00153
# Velocity P-wave (km/s) = 5.58722 5.97200 5.78281
#
# Compressibility (1/GPa) = 0.03974238
#
# Stress axis : x y z
#
# Youngs Moduli (GPa) = 47.66842 76.05969 83.35882
#
# Poissons Ratio (x) = 0.45173 -0.29319
# Poissons Ratio (y) = 0.28311 0.06401
# Poissons Ratio (z) = -0.16766 0.05841
#
# Static dielectric constant tensor:
#      x y z
#    x 1.606930 0.000000 0.000000 
#    y 0.000000 1.768090 0.000000 
#    z 0.000000 0.000000 1.823600 
# 
# From -- ./inp_files/136.got.cif
#   From: 2010.05.17/outbox.cif.g08.bks.cpg/sg39_1_cif.got.tgz:136.got - 2010.06.03 18:22:40.
