data_PCOD9361854
_publ_section_title
;
Structure prediction by ZEFSAII (Michael W. Deem and Ramdas Pophale) SiO2 
 PCOD9361854
Probable space group: A B M 2
;
_chemical_formula_sum "Si O2"
_cell_formula_units_Z 64
_cell_length_a 22.667670
_cell_length_b 13.970002
_cell_length_c 9.125941
_cell_angle_alpha 90.000000
_cell_angle_beta 90.000000
_cell_angle_gamma 90.000000
_cell_volume 2889.887966
_symmetry_space_group_name_H-M "A B M 2"
_symmetry_group_IT_number 39
_symmetry_cell_setting 'orthorhombic'
loop_
_space_group_symop_operation_xyz
x,y,z
-x,-y,z
-x,1/2+y,z
x,1/2-y,z
x,1/2+y,1/2+z
-x,1/2-y,1/2+z
-x,y,1/2+z
x,-y,1/2+z
loop_
_atom_site_type_symbol
_atom_site_label
_atom_site_fract_x
_atom_site_fract_y
_atom_site_fract_z
Si Si1 0.296648 0.646318 0.488830
Si Si2 0.608670 0.862142 0.219797
Si Si3 0.038203 0.361640 0.215864
Si Si4 0.846102 0.534751 0.334622
Si Si5 0.432982 0.514739 0.996279
Si Si6 0.352210 0.140862 0.681436
Si Si7 0.925033 0.861057 0.884325
Si Si8 0.765517 0.033747 0.071614
O O1 0.267100 0.750000 0.473304
O O2 0.325563 0.640408 0.650553
O O3 0.344196 0.641380 0.357018
O O4 0.257845 0.553723 0.473262
O O5 0.591688 0.750000 0.246037
O O6 0.600349 0.932190 0.359263
O O7 0.576921 0.913897 0.082505
O O8 0.039955 0.250000 0.258357
O O9 0.095177 0.410291 0.286385
O O10 0.973958 0.395080 0.267891
O O11 0.044287 0.368692 0.042017
O O12 0.869791 0.430834 0.384014
O O13 0.801928 0.515136 0.201464
O O14 0.811844 0.586876 0.466793
O O15 0.500000 0.500000 0.947423
O O16 0.410148 0.586618 0.124895
O O17 0.354221 0.250000 0.630148
O O18 0.292348 0.091471 0.621006
O O19 0.909069 0.750000 0.858053
#
# Coordination Sequence:
#
# PCOD9361854 Si02
#       8
#     8   8   8   8   8   8   8   8
#     4  10  23  45  72  99 137 188 236 285 352 428
#     4  11  25  45  73 106 141 187 236 288 357 428
#     4  10  23  43  65  93 131 179 228 281 347 413
#     4  12  25  40  66  99 137 175 229 288 344 418
#     4  12  26  47  75 107 146 186 235 302 357 425
#     4  11  25  47  75 106 143 189 239 293 363 436
#     4  10  23  43  66  92 131 179 226 282 347 413
#     4  12  25  42  66 102 136 179 231 285 354 419
#
# _framework density 22.146187999999999
#
# number of rings (size 3 to 8) (size 9 to 14) (size 15 to 20)
#    0.000    1.000    3.750    1.875    3.500    4.000 
#    0.000    2.500    0.000    0.000    0.000    0.000 
#    0.000    0.000    0.000    0.000    0.000    0.000 
#
# Total GULP energy -178472.331678 kJ/mol
# GULP energy per Si atom -5577.260365 kJ/mol
# Density = 2.209578 g / cm^3
# Si number density = 22.146188 Si / 1000 Ang^3
#
#
#
# Elastic Constant Matrix: (Units=GPa)
#
#
# Indices 1 2 3 4 5 6 
#
# 1 56.8393 24.9147 5.6498 0.0000 0.0000 0.0000
# 2 24.9147 96.5682 22.3330 0.0000 0.0000 0.0000
# 3 5.6498 22.3330 67.6527 0.0000 0.0000 0.0000
# 4 0.0000 0.0000 0.0000 28.5792 0.0000 0.0000
# 5 0.0000 0.0000 0.0000 0.0000 7.3853 0.0000
# 6 0.0000 0.0000 0.0000 0.0000 0.0000 6.7203
#
#
#
# Elastic Compliance Matrix: (Units=1/GPa)
#
#
# Indices 1 2 3 4 5 6 
#
# 1 0.019837 -0.005126 0.000036 0.000000 0.000000 0.000000
# 2 -0.005126 0.012536 -0.003710 0.000000 0.000000 0.000000
# 3 0.000036 -0.003710 0.016003 0.000000 0.000000 0.000000
# 4 0.000000 0.000000 0.000000 0.034991 0.000000 0.000000
# 5 0.000000 0.000000 0.000000 0.000000 0.135404 0.000000
# 6 0.000000 0.000000 0.000000 0.000000 0.000000 0.148802
#
#
# Mechanical properties :
#
#
# Convention : Reuss Voigt Hill
#
# Bulk Modulus (GPa) = 32.49438 36.31725 34.40582
# Shear Modulus (GPa) = 12.64439 19.74780 16.19610
#
# Velocity S-wave (km/s) = 2.39205 2.98938 2.70724
# Velocity P-wave (km/s) = 4.72586 5.32444 5.03405
#
# Compressibility (1/GPa) = 0.03077455
#
# Stress axis : x y z
#
# Youngs Moduli (GPa) = 50.41103 79.77031 62.48755
#
# Poissons Ratio (x) = 0.40892 -0.00223
# Poissons Ratio (y) = 0.25842 0.23184
# Poissons Ratio (z) = -0.00180 0.29596
#
# Static dielectric constant tensor:
#      x y z
#    x 1.822990 0.000000 0.000000 
#    y 0.000000 1.853130 0.000000 
#    z 0.000000 0.000000 1.852820 
# 
# From -- ./inp_files/4102.got.cif
#   From: 2010.05.17/outbox.cif.g08.bks.cpg/sg39_3_cif.got.tgz:4102.got - 2010.06.03 18:22:40.
