data_PCOD9361576
_publ_section_title
;
Structure prediction by ZEFSAII (Michael W. Deem and Ramdas Pophale) SiO2 
 PCOD9361576
Probable space group: A B M 2
;
_chemical_formula_sum "Si O2"
_cell_formula_units_Z 40
_cell_length_a 5.864741
_cell_length_b 23.579997
_cell_length_c 13.314705
_cell_angle_alpha 90.000000
_cell_angle_beta 90.000000
_cell_angle_gamma 90.000000
_cell_volume 1841.298213
_symmetry_space_group_name_H-M "A B M 2"
_symmetry_group_IT_number 39
_symmetry_cell_setting 'orthorhombic'
loop_
_space_group_symop_operation_xyz
x,y,z
-x,-y,z
-x,1/2+y,z
x,1/2-y,z
x,1/2+y,1/2+z
-x,1/2-y,1/2+z
-x,y,1/2+z
x,-y,1/2+z
loop_
_atom_site_type_symbol
_atom_site_label
_atom_site_fract_x
_atom_site_fract_y
_atom_site_fract_z
Si Si1 0.302572 0.114705 0.900140
Si Si2 0.500000 0.000000 0.972433
Si Si3 0.979359 0.316157 0.031162
Si Si4 0.996002 0.111881 0.209353
Si Si5 0.319019 0.813506 0.827786
Si Si6 0.000000 0.500000 0.581305
O O1 0.428279 0.169004 0.854404
O O2 0.130497 0.097270 0.812728
O O3 0.465983 0.061064 0.918700
O O4 0.179427 0.140046 0.998329
O O5 0.246016 0.994401 0.024154
O O6 0.044877 0.250000 0.045008
O O7 0.877706 0.343250 0.132740
O O8 0.815502 0.317921 0.933908
O O9 0.222074 0.143431 0.246494
O O10 0.028011 0.054698 0.149843
O O11 0.294165 0.750000 0.790417
#
# Coordination Sequence:
#
# PCOD9361576 Si02
#       6
#     8   4   8   8   8   4
#     4  11  25  42  70 101 143 191 242 303 371 433
#     4  12  28  48  78 104 150 196 248 300 368 440
#     4  10  21  44  68  97 142 188 237 299 365 439
#     4  11  25  42  69 104 141 183 246 302 366 436
#     4  10  23  42  67 101 142 187 241 301 368 438
#     4  12  28  48  74 106 146 192 246 300 366 442
#
# _framework density 21.723803
#
# number of rings (size 3 to 8) (size 9 to 14) (size 15 to 20)
#    0.000    1.200    2.000    2.400    8.400    4.000 
#    0.000    2.000    0.000    0.000    0.000    0.000 
#    0.000    0.000    0.000    0.000    0.000    0.000 
#
# Total GULP energy -111513.427400 kJ/mol
# GULP energy per Si atom -5575.671370 kJ/mol
# Density = 2.167436 g / cm^3
# Si number density = 21.723803 Si / 1000 Ang^3
#
#
#
# Elastic Constant Matrix: (Units=GPa)
#
#
# Indices 1 2 3 4 5 6 
#
# 1 66.2804 19.0890 19.8780 0.0000 0.0000 0.0000
# 2 19.0890 136.4545 49.9232 0.0000 0.0000 0.0000
# 3 19.8780 49.9232 80.5357 0.0000 0.0000 0.0000
# 4 0.0000 0.0000 0.0000 1.2065 0.0000 0.0000
# 5 0.0000 0.0000 0.0000 0.0000 7.0606 0.0000
# 6 0.0000 0.0000 0.0000 0.0000 0.0000 30.2698
#
#
#
# Elastic Compliance Matrix: (Units=1/GPa)
#
#
# Indices 1 2 3 4 5 6 
#
# 1 0.016410 -0.001052 -0.003398 0.000000 0.000000 0.000000
# 2 -0.001052 0.009545 -0.005657 0.000000 0.000000 0.000000
# 3 -0.003398 -0.005657 0.016762 0.000000 0.000000 0.000000
# 4 0.000000 0.000000 0.000000 0.828821 0.000000 0.000000
# 5 0.000000 0.000000 0.000000 0.000000 0.141632 0.000000
# 6 0.000000 0.000000 0.000000 0.000000 0.000000 0.033036
#
#
# Mechanical properties :
#
#
# Convention : Reuss Voigt Hill
#
# Bulk Modulus (GPa) = 44.44014 51.22789 47.83402
# Shear Modulus (GPa) = 4.65583 20.66606 12.66095
#
# Velocity S-wave (km/s) = 1.46555 3.08768 2.41677
# Velocity P-wave (km/s) = 4.83375 6.02862 5.46395
#
# Compressibility (1/GPa) = 0.02250218
#
# Stress axis : x y z
#
# Youngs Moduli (GPa) = 60.94012 104.76152 59.65710
#
# Poissons Ratio (x) = 0.11026 0.20270
# Poissons Ratio (y) = 0.06414 0.33750
# Poissons Ratio (z) = 0.20706 0.59268
#
# Static dielectric constant tensor:
#      x y z
#    x 1.837390 0.000000 0.000000 
#    y 0.000000 1.751190 0.000000 
#    z 0.000000 0.000000 1.842090 
# 
# From -- ./inp_files/7418.got.cif
#   From: 2010.05.17/outbox.cif.g08.bks.cpg/sg39_4_cif.got.tgz:7418.got - 2010.06.03 18:22:40.
