data_PCOD9361663
_publ_section_title
;
Structure prediction by ZEFSAII (Michael W. Deem and Ramdas Pophale) SiO2 
 PCOD9361663
Probable space group: A B M 2
;
_chemical_formula_sum "Si O2"
_cell_formula_units_Z 56
_cell_length_a 5.356070
_cell_length_b 15.136506
_cell_length_c 31.084728
_cell_angle_alpha 90.000000
_cell_angle_beta 90.000000
_cell_angle_gamma 90.000000
_cell_volume 2520.106841
_symmetry_space_group_name_H-M "A B M 2"
_symmetry_group_IT_number 39
_symmetry_cell_setting 'orthorhombic'
loop_
_space_group_symop_operation_xyz
x,y,z
-x,-y,z
-x,1/2+y,z
x,1/2-y,z
x,1/2+y,1/2+z
-x,1/2-y,1/2+z
-x,y,1/2+z
x,-y,1/2+z
loop_
_atom_site_type_symbol
_atom_site_label
_atom_site_fract_x
_atom_site_fract_y
_atom_site_fract_z
Si Si1 0.000000 0.000000 0.444930
Si Si2 0.035093 0.147542 0.697594
Si Si3 0.310017 0.153674 0.964055
Si Si4 0.534843 0.902615 0.245046
Si Si5 0.013904 0.893179 0.597856
Si Si6 0.390642 0.907155 0.882834
Si Si7 0.517355 0.893079 0.548334
Si Si8 0.609561 0.250000 0.815729
O O1 0.138984 0.929790 0.474214
O O2 0.828463 0.941523 0.413747
O O3 0.023784 0.250000 0.710592
O O4 0.305624 0.112312 0.711976
O O5 0.803245 0.102018 0.721686
O O6 0.994638 0.138718 0.646872
O O7 0.192245 0.250000 0.965693
O O8 0.409399 0.134642 0.916152
O O9 0.519629 0.146021 0.000408
O O10 0.528205 0.827070 0.280770
O O11 0.500000 0.000000 0.263691
O O12 0.266075 0.864832 0.573555
O O13 0.764281 0.864893 0.573337
O O14 0.000000 0.000000 0.599291
O O15 0.318494 0.829904 0.850308
O O16 0.500000 0.000000 0.864481
O O17 0.500000 0.000000 0.546357
#
# Coordination Sequence:
#
# PCOD9361663 Si02
#       8
#     4   8   8   8   8   8   8   4
#     4  10  24  44  70 102 136 200 228 300 358 442
#     4  12  24  48  73 106 148 190 240 298 365 438
#     4  11  24  42  70 100 145 193 243 295 358 426
#     4  12  26  48  75 107 147 192 236 298 369 440
#     4  10  22  39  67 101 141 190 238 295 353 421
#     4  10  23  47  70 101 143 188 231 292 363 425
#     4  10  22  39  64 103 143 188 242 295 349 417
#     4  12  24  48  72 108 136 178 244 304 356 436
#
# _framework density 22.221278999999999
#
# number of rings (size 3 to 8) (size 9 to 14) (size 15 to 20)
#    0.000    1.143    2.143    3.857    6.000    2.286 
#   12.857    0.000    0.000    0.000    0.000    0.000 
#    0.000    0.000    0.000    0.000    0.000    0.000 
#
# Total GULP energy -156032.813703 kJ/mol
# GULP energy per Si atom -5572.600489 kJ/mol
# Density = 2.217070 g / cm^3
# Si number density = 22.221279 Si / 1000 Ang^3
#
#
#
# Elastic Constant Matrix: (Units=GPa)
#
#
# Indices 1 2 3 4 5 6 
#
# 1 89.7355 12.6068 14.5965 0.0000 0.0000 0.0000
# 2 12.6068 145.9284 39.9090 0.0000 0.0000 0.0000
# 3 14.5965 39.9090 76.8727 0.0000 0.0000 0.0000
# 4 0.0000 0.0000 0.0000 37.5341 0.0000 0.0000
# 5 0.0000 0.0000 0.0000 0.0000 -13.7960 0.0000
# 6 0.0000 0.0000 0.0000 0.0000 0.0000 10.0123
#
#
#
# Elastic Compliance Matrix: (Units=1/GPa)
#
#
# Indices 1 2 3 4 5 6 
#
# 1 0.011526 -0.000463 -0.001948 0.000000 0.000000 0.000000
# 2 -0.000463 0.008005 -0.004068 0.000000 0.000000 0.000000
# 3 -0.001948 -0.004068 0.015490 0.000000 0.000000 0.000000
# 4 0.000000 0.000000 0.000000 0.026642 0.000000 0.000000
# 5 0.000000 0.000000 0.000000 0.000000 -0.072485 0.000000
# 6 0.000000 0.000000 0.000000 0.000000 0.000000 0.099877
#
#
# Mechanical properties :
#
#
# Convention : Reuss Voigt Hill
#
# Bulk Modulus (GPa) = 45.32456 49.64011 47.48234
# Shear Modulus (GPa) = 45.71667 23.11169 34.41418
#
# Velocity S-wave (km/s) = 4.54071 3.22851 3.93963
# Velocity P-wave (km/s) = 6.92329 6.02372 6.48911
#
# Compressibility (1/GPa) = 0.02206309
#
# Stress axis : x y z
#
# Youngs Moduli (GPa) = 86.76193 124.91860 64.55615
#
# Poissons Ratio (x) = 0.05783 0.12577
# Poissons Ratio (y) = 0.04016 0.26262
# Poissons Ratio (z) = 0.16903 0.50818
#
# Static dielectric constant tensor:
#      x y z
#    x 1.854840 0.000000 0.000000 
#    y 0.000000 1.820050 0.000000 
#    z 0.000000 0.000000 1.764870 
# 
# From -- ./inp_files/17330.got.cif
#   From: 2010.05.17/outbox.cif.g08.bks.cpg/sg39_9_cif.got.tgz:17330.got - 2010.06.03 18:22:40.
