data_PCOD9361609
_publ_section_title
;
Structure prediction by ZEFSAII (Michael W. Deem and Ramdas Pophale) SiO2 
 PCOD9361609
Probable space group: A B M 2
;
_chemical_formula_sum "Si O2"
_cell_formula_units_Z 64
_cell_length_a 20.228667
_cell_length_b 8.890180
_cell_length_c 20.952234
_cell_angle_alpha 90.000000
_cell_angle_beta 90.000000
_cell_angle_gamma 90.000000
_cell_volume 3767.976237
_symmetry_space_group_name_H-M "A B M 2"
_symmetry_group_IT_number 39
_symmetry_cell_setting 'orthorhombic'
loop_
_space_group_symop_operation_xyz
x,y,z
-x,-y,z
-x,1/2+y,z
x,1/2-y,z
x,1/2+y,1/2+z
-x,1/2-y,1/2+z
-x,y,1/2+z
x,-y,1/2+z
loop_
_atom_site_type_symbol
_atom_site_label
_atom_site_fract_x
_atom_site_fract_y
_atom_site_fract_z
Si Si1 0.426881 0.568411 0.896600
Si Si2 0.572641 0.069092 0.640945
Si Si3 0.787680 0.933531 0.216425
Si Si4 0.786648 0.067500 0.566201
Si Si5 0.654042 0.930352 0.524256
Si Si6 0.932732 0.075767 0.565563
Si Si7 0.932481 0.075478 0.720781
Si Si8 0.350255 0.067375 0.270119
O O1 0.500000 0.500000 0.898143
O O2 0.432758 0.750000 0.893739
O O3 0.386198 0.516182 0.834323
O O4 0.385595 0.530685 0.959991
O O5 0.570141 0.250000 0.636371
O O6 0.606591 0.028197 0.708125
O O7 0.500000 0.000000 0.637509
O O8 0.616149 0.004017 0.583689
O O9 0.789871 0.750000 0.217890
O O10 0.777647 0.971941 0.141527
O O11 0.860134 0.987224 0.238862
O O12 0.724834 0.984335 0.257308
O O13 0.783700 0.250000 0.562457
O O14 0.860436 0.016964 0.546167
O O15 0.728214 0.993971 0.526333
O O16 0.654899 0.750000 0.530604
O O17 0.935413 0.250000 0.548023
O O18 0.932566 0.067894 0.643161
O O19 0.000000 0.000000 0.542659
O O20 0.934889 0.250000 0.738746
O O21 0.000000 0.000000 0.743582
O O22 0.347674 0.250000 0.272769
#
# Coordination Sequence:
#
# PCOD9361609 Si02
#       8
#     8   8   8   8   8   8   8   8
#     4  10  22  38  54  72  95 125 161 201 245 294
#     4  11  21  34  54  75  96 123 157 198 244 295
#     4   8  13  25  46  69  91 121 159 195 232 279
#     4   9  16  29  48  70  96 130 167 201 242 290
#     4  11  22  34  49  73 101 128 161 202 246 292
#     4   8  14  23  38  62  94 128 161 194 235 286
#     4   8  13  21  36  59  90 123 153 184 224 275
#     4   9  17  32  54  74  93 123 162 201 239 286
#
# _framework density 16.985244000000002
#
# number of rings (size 3 to 8) (size 9 to 14) (size 15 to 20)
#    0.000    2.750    1.250    3.000    0.000    2.500 
#    0.000    2.500    0.000    0.000    0.000    0.875 
#    0.000    4.000    0.000    0.000    0.000    0.000 
#
# Total GULP energy -178257.491560 kJ/mol
# GULP energy per Si atom -5570.546611 kJ/mol
# Density = 1.694659 g / cm^3
# Si number density = 16.985244 Si / 1000 Ang^3
#
#
#
# Elastic Constant Matrix: (Units=GPa)
#
#
# Indices 1 2 3 4 5 6 
#
# 1 203.3955 44.4429 63.0700 0.0000 0.0000 0.0000
# 2 44.4429 24.1852 26.8042 0.0000 0.0000 0.0000
# 3 63.0700 26.8042 84.6508 0.0000 0.0000 0.0000
# 4 0.0000 0.0000 0.0000 13.1647 0.0000 0.0000
# 5 0.0000 0.0000 0.0000 0.0000 18.7798 0.0000
# 6 0.0000 0.0000 0.0000 0.0000 0.0000 28.3692
#
#
#
# Elastic Compliance Matrix: (Units=1/GPa)
#
#
# Indices 1 2 3 4 5 6 
#
# 1 0.008456 -0.013183 -0.002126 0.000000 0.000000 0.000000
# 2 -0.013183 0.084255 -0.016857 0.000000 0.000000 0.000000
# 3 -0.002126 -0.016857 0.018735 0.000000 0.000000 0.000000
# 4 0.000000 0.000000 0.000000 0.075961 0.000000 0.000000
# 5 0.000000 0.000000 0.000000 0.000000 0.053249 0.000000
# 6 0.000000 0.000000 0.000000 0.000000 0.000000 0.035250
#
#
# Mechanical properties :
#
#
# Convention : Reuss Voigt Hill
#
# Bulk Modulus (GPa) = 21.22483 64.54063 42.88273
# Shear Modulus (GPa) = 14.04721 23.92370 18.98545
#
# Velocity S-wave (km/s) = 2.87892 3.75707 3.34692
# Velocity P-wave (km/s) = 4.85532 7.54330 6.34332
#
# Compressibility (1/GPa) = 0.04711462
#
# Stress axis : x y z
#
# Youngs Moduli (GPa) = 118.25340 11.86868 53.37620
#
# Poissons Ratio (x) = 0.15647 0.11349
# Poissons Ratio (y) = 1.55896 0.89975
# Poissons Ratio (z) = 0.25143 0.20007
#
# Static dielectric constant tensor:
#      x y z
#    x 1.609040 0.000000 0.000000 
#    y 0.000000 1.578940 0.000000 
#    z 0.000000 0.000000 1.556630 
# 
# From -- ./inp_files/13238.got.cif
#   From: 2010.05.17/outbox.cif.g08.bks.cpg/sg39_7_cif.got.tgz:13238.got - 2010.06.03 18:22:40.
