data_PCOD9361240
_publ_section_title
;
Structure prediction by ZEFSAII (Michael W. Deem and Ramdas Pophale) SiO2 
 PCOD9361240
Probable space group: A B M 2
;
_chemical_formula_sum "Si O2"
_cell_formula_units_Z 56
_cell_length_a 14.356753
_cell_length_b 8.786432
_cell_length_c 21.653597
_cell_angle_alpha 90.000000
_cell_angle_beta 90.000000
_cell_angle_gamma 90.000000
_cell_volume 2731.485068
_symmetry_space_group_name_H-M "A B M 2"
_symmetry_group_IT_number 39
_symmetry_cell_setting 'orthorhombic'
loop_
_space_group_symop_operation_xyz
x,y,z
-x,-y,z
-x,1/2+y,z
x,1/2-y,z
x,1/2+y,1/2+z
-x,1/2-y,1/2+z
-x,y,1/2+z
x,-y,1/2+z
loop_
_atom_site_type_symbol
_atom_site_label
_atom_site_fract_x
_atom_site_fract_y
_atom_site_fract_z
Si Si1 0.604201 0.067137 0.127630
Si Si2 0.604207 0.432964 0.266033
Si Si3 0.285985 0.430861 0.011711
Si Si4 0.896374 0.931728 0.559001
Si Si5 0.102327 0.569427 0.824945
Si Si6 0.290777 0.431825 0.383851
Si Si7 0.103677 0.069159 0.698810
O O1 0.602104 0.250000 0.122030
O O2 0.642240 0.031743 0.196812
O O3 0.500000 0.000000 0.125223
O O4 0.660757 0.998399 0.070803
O O5 0.500000 0.500000 0.267576
O O6 0.602434 0.250000 0.271721
O O7 0.658515 0.503659 0.323467
O O8 0.290225 0.250000 0.012900
O O9 0.179617 0.488426 0.016943
O O10 0.325328 0.494200 0.947222
O O11 0.899363 0.750000 0.548920
O O12 0.861104 0.957924 0.629751
O O13 0.000000 0.000000 0.552610
O O14 0.091451 0.750000 0.820397
O O15 0.180704 0.533652 0.875027
O O16 0.143145 0.508147 0.759805
O O17 0.000000 0.500000 0.835958
O O18 0.301715 0.250000 0.386268
O O19 0.101436 0.250000 0.708578
O O20 0.000000 0.000000 0.696834
#
# Coordination Sequence:
#
# PCOD9361240 Si02
#       7
#     8   8   8   8   8   8   8
#     4  10  22  43  70 100 131 163 204 257 314 378
#     4  10  22  42  70 100 129 162 203 253 313 377
#     4  12  26  42  63  92 127 170 216 263 316 376
#     4  10  21  38  59  87 123 166 212 262 317 372
#     4  10  21  36  57  85 119 162 207 257 309 364
#     4  11  25  43  62  90 128 168 213 263 314 373
#     4   9  17  30  52  80 112 149 195 249 303 358
#
# _framework density 20.501667999999999
#
# number of rings (size 3 to 8) (size 9 to 14) (size 15 to 20)
#    0.000    1.714    0.000    4.714    2.000    6.857 
#    0.000    4.286    0.000    0.000    0.000    0.000 
#    0.000    0.000    0.000    0.000    0.000    0.000 
#
# Total GULP energy -156429.548940 kJ/mol
# GULP energy per Si atom -5586.769605 kJ/mol
# Density = 2.045500 g / cm^3
# Si number density = 20.501668 Si / 1000 Ang^3
#
#
#
# Elastic Constant Matrix: (Units=GPa)
#
#
# Indices 1 2 3 4 5 6 
#
# 1 77.8516 42.2894 69.4282 0.0000 0.0000 0.0000
# 2 42.2894 103.5878 83.3228 0.0000 0.0000 0.0000
# 3 69.4282 83.3228 178.8377 0.0000 0.0000 0.0000
# 4 0.0000 0.0000 0.0000 26.5061 0.0000 0.0000
# 5 0.0000 0.0000 0.0000 0.0000 26.3129 0.0000
# 6 0.0000 0.0000 0.0000 0.0000 0.0000 25.8911
#
#
#
# Elastic Compliance Matrix: (Units=1/GPa)
#
#
# Indices 1 2 3 4 5 6 
#
# 1 0.020254 -0.003109 -0.006415 0.000000 0.000000 0.000000
# 2 -0.003109 0.015917 -0.006209 0.000000 0.000000 0.000000
# 3 -0.006415 -0.006209 0.010975 0.000000 0.000000 0.000000
# 4 0.000000 0.000000 0.000000 0.037727 0.000000 0.000000
# 5 0.000000 0.000000 0.000000 0.000000 0.038004 0.000000
# 6 0.000000 0.000000 0.000000 0.000000 0.000000 0.038623
#
#
# Mechanical properties :
#
#
# Convention : Reuss Voigt Hill
#
# Bulk Modulus (GPa) = 63.77144 83.37310 73.57227
# Shear Modulus (GPa) = 25.22788 26.75782 25.99285
#
# Velocity S-wave (km/s) = 3.51169 3.61661 3.56454
# Velocity P-wave (km/s) = 6.90041 7.62854 7.27359
#
# Compressibility (1/GPa) = 0.01568100
#
# Stress axis : x y z
#
# Youngs Moduli (GPa) = 49.37211 62.82476 91.11796
#
# Poissons Ratio (x) = 0.19533 0.58448
# Poissons Ratio (y) = 0.15350 0.56576
# Poissons Ratio (z) = 0.31670 0.39008
#
# Static dielectric constant tensor:
#      x y z
#    x 1.752680 0.000000 0.000000 
#    y 0.000000 1.680630 0.000000 
#    z 0.000000 0.000000 1.761670 
# 
# From -- ./inp_files/14802.got.cif
#   From: 2010.05.17/outbox.cif.g08.bks.cpg/sg39_8_cif.got.tgz:14802.got - 2010.06.03 18:22:40.
