data_PCOD9361253
_publ_section_title
;
Structure prediction by ZEFSAII (Michael W. Deem and Ramdas Pophale) SiO2 
 PCOD9361253
Probable space group: A B M 2
;
_chemical_formula_sum "Si O2"
_cell_formula_units_Z 64
_cell_length_a 5.455281
_cell_length_b 26.562681
_cell_length_c 19.134655
_cell_angle_alpha 90.000000
_cell_angle_beta 90.000000
_cell_angle_gamma 90.000000
_cell_volume 2772.743328
_symmetry_space_group_name_H-M "A B M 2"
_symmetry_group_IT_number 39
_symmetry_cell_setting 'orthorhombic'
loop_
_space_group_symop_operation_xyz
x,y,z
-x,-y,z
-x,1/2+y,z
x,1/2-y,z
x,1/2+y,1/2+z
-x,1/2-y,1/2+z
-x,y,1/2+z
x,-y,1/2+z
loop_
_atom_site_type_symbol
_atom_site_label
_atom_site_fract_x
_atom_site_fract_y
_atom_site_fract_z
Si Si1 0.956139 0.694377 0.830890
Si Si2 0.031394 0.056417 0.972701
Si Si3 0.012646 0.656489 0.559631
Si Si4 0.751768 0.031756 0.325313
Si Si5 0.585060 0.875104 0.757775
Si Si6 0.748172 0.192432 0.688742
Si Si7 0.495865 0.307171 0.491940
Si Si8 0.696987 0.880368 0.390908
O O1 0.915927 0.750000 0.859466
O O2 0.722274 0.671659 0.793233
O O3 0.154726 0.696999 0.768049
O O4 0.066011 0.656149 0.886789
O O5 0.063878 0.099693 0.031163
O O6 0.216016 0.053966 0.905188
O O7 0.000000 0.000000 0.000853
O O8 0.776205 0.072423 0.935743
O O9 0.037964 0.668734 0.641550
O O10 0.246963 0.687660 0.531071
O O11 0.746069 0.674983 0.534425
O O12 0.754910 0.076057 0.266377
O O13 0.500000 0.000000 0.319797
O O14 0.000000 0.000000 0.316130
O O15 0.461922 0.850506 0.690283
O O16 0.375804 0.892669 0.812677
O O17 0.679008 0.250000 0.667877
O O18 0.455270 0.250000 0.469553
O O19 0.502024 0.345854 0.427986
#
# Coordination Sequence:
#
# PCOD9361253 Si02
#       8
#     8   8   8   8   8   8   8   8
#     4  10  21  36  60  92 130 168 210 261 324 394
#     4  10  21  42  68  97 127 173 216 276 336 396
#     4  11  25  43  64  93 130 171 228 275 315 390
#     4  11  23  39  68 100 130 167 211 270 335 399
#     4  11  21  38  64  92 130 169 219 269 325 402
#     4  10  23  41  63  91 129 181 227 269 324 392
#     4  11  23  39  62  92 130 170 209 268 335 392
#     4  10  21  38  58  96 130 162 211 265 333 398
#
# _framework density 23.081833
#
# number of rings (size 3 to 8) (size 9 to 14) (size 15 to 20)
#    0.000    1.500    1.250    4.125    5.250    3.500 
#    0.000    0.000    2.750    0.000    0.000    0.000 
#    0.000    0.000    0.000    0.000    0.000    0.000 
#
# Total GULP energy -178604.729907 kJ/mol
# GULP energy per Si atom -5581.397810 kJ/mol
# Density = 2.302930 g / cm^3
# Si number density = 23.081833 Si / 1000 Ang^3
#
#
#
# Elastic Constant Matrix: (Units=GPa)
#
#
# Indices 1 2 3 4 5 6 
#
# 1 103.3283 32.1147 10.7544 0.0000 0.0000 0.0000
# 2 32.1147 177.8557 24.5996 0.0000 0.0000 0.0000
# 3 10.7544 24.5996 45.7290 0.0000 0.0000 0.0000
# 4 0.0000 0.0000 0.0000 26.4245 0.0000 0.0000
# 5 0.0000 0.0000 0.0000 0.0000 39.6525 0.0000
# 6 0.0000 0.0000 0.0000 0.0000 0.0000 -5.0450
#
#
#
# Elastic Compliance Matrix: (Units=1/GPa)
#
#
# Indices 1 2 3 4 5 6 
#
# 1 0.010353 -0.001656 -0.001544 0.000000 0.000000 0.000000
# 2 -0.001656 0.006339 -0.003021 0.000000 0.000000 0.000000
# 3 -0.001544 -0.003021 0.023856 0.000000 0.000000 0.000000
# 4 0.000000 0.000000 0.000000 0.037844 0.000000 0.000000
# 5 0.000000 0.000000 0.000000 0.000000 0.025219 0.000000
# 6 0.000000 0.000000 0.000000 0.000000 0.000000 -0.198215
#
#
# Mechanical properties :
#
#
# Convention : Reuss Voigt Hill
#
# Bulk Modulus (GPa) = 35.57804 51.31672 43.44738
# Shear Modulus (GPa) = -68.68772 29.50269 -19.59252
#
# Velocity S-wave (km/s) = -5.46104 3.57904 -2.91663
# Velocity P-wave (km/s) = 4.93119 6.27377 2.74259
#
# Compressibility (1/GPa) = 0.02810723
#
# Stress axis : x y z
#
# Youngs Moduli (GPa) = 96.58801 157.74509 41.91795
#
# Poissons Ratio (x) = 0.26121 0.06472
# Poissons Ratio (y) = 0.15994 0.12662
# Poissons Ratio (z) = 0.14914 0.47651
#
# Static dielectric constant tensor:
#      x y z
#    x 1.923200 0.000000 0.000000 
#    y 0.000000 1.933360 0.000000 
#    z 0.000000 0.000000 1.947810 
# 
# From -- ./inp_files/13674.got.cif
#   From: 2010.05.17/outbox.cif.g08.bks.cpg/sg39_7_cif.got.tgz:13674.got - 2010.06.03 18:22:40.
