data_PCOD9361817
_publ_section_title
;
Structure prediction by ZEFSAII (Michael W. Deem and Ramdas Pophale) SiO2 
 PCOD9361817
Probable space group: A B M 2
;
_chemical_formula_sum "Si O2"
_cell_formula_units_Z 36
_cell_length_a 10.943449
_cell_length_b 15.636609
_cell_length_c 11.508864
_cell_angle_alpha 90.000000
_cell_angle_beta 90.000000
_cell_angle_gamma 90.000000
_cell_volume 1969.378775
_symmetry_space_group_name_H-M "A B M 2"
_symmetry_group_IT_number 39
_symmetry_cell_setting 'orthorhombic'
loop_
_space_group_symop_operation_xyz
x,y,z
-x,-y,z
-x,1/2+y,z
x,1/2-y,z
x,1/2+y,1/2+z
-x,1/2-y,1/2+z
-x,y,1/2+z
x,-y,1/2+z
loop_
_atom_site_type_symbol
_atom_site_label
_atom_site_fract_x
_atom_site_fract_y
_atom_site_fract_z
Si Si1 0.577039 0.250000 0.282120
Si Si2 0.746556 0.750000 0.570549
Si Si3 0.884975 0.397122 0.201752
Si Si4 0.172058 0.087325 0.163941
Si Si5 0.287066 0.250000 0.296201
Si Si6 0.234006 0.343893 0.927545
O O1 0.433139 0.250000 0.281524
O O2 0.624639 0.250000 0.149910
O O3 0.641650 0.170904 0.352514
O O4 0.818288 0.833273 0.614606
O O5 0.734193 0.750000 0.433881
O O6 0.869126 0.361357 0.331908
O O7 0.819830 0.489544 0.205912
O O8 0.025620 0.399695 0.164351
O O9 0.228071 0.092622 0.034391
O O10 0.231422 0.163403 0.239494
O O11 0.210837 0.250000 0.981077
#
# Coordination Sequence:
#
# PCOD9361817 Si02
#       6
#     4   4   8   8   4   8
#     4   8  21  43  62  81 118 169 198 255 296 350
#     4  10  23  40  63  83 124 156 202 256 305 351
#     4  10  23  40  58  94 125 158 195 252 314 362
#     4  11  24  35  65  93 121 159 204 246 305 376
#     4  12  24  37  67  90 116 159 218 241 301 363
#     4   9  20  41  62  77 127 162 195 250 307 345
#
# _framework density 18.279875000000001
#
# number of rings (size 3 to 8) (size 9 to 14) (size 15 to 20)
#    0.667    1.333    2.222    0.667    9.333    1.778 
#    0.000    4.444    0.000    0.000    0.000    0.000 
#    0.000    0.000    0.000    0.000    0.000    0.000 
#
# Total GULP energy -100215.118433 kJ/mol
# GULP energy per Si atom -5567.506580 kJ/mol
# Density = 1.823827 g / cm^3
# Si number density = 18.279875 Si / 1000 Ang^3
#
#
#
# Elastic Constant Matrix: (Units=GPa)
#
#
# Indices 1 2 3 4 5 6 
#
# 1 78.1530 47.6651 37.9469 0.0000 0.0000 0.0000
# 2 47.6651 95.3156 25.5174 0.0000 0.0000 0.0000
# 3 37.9469 25.5174 117.0804 0.0000 0.0000 0.0000
# 4 0.0000 0.0000 0.0000 7.4010 0.0000 0.0000
# 5 0.0000 0.0000 0.0000 0.0000 7.4635 0.0000
# 6 0.0000 0.0000 0.0000 0.0000 0.0000 -6.8668
#
#
#
# Elastic Compliance Matrix: (Units=1/GPa)
#
#
# Indices 1 2 3 4 5 6 
#
# 1 0.020592 -0.009038 -0.004704 0.000000 0.000000 0.000000
# 2 -0.009038 0.015109 -0.000364 0.000000 0.000000 0.000000
# 3 -0.004704 -0.000364 0.010145 0.000000 0.000000 0.000000
# 4 0.000000 0.000000 0.000000 0.135116 0.000000 0.000000
# 5 0.000000 0.000000 0.000000 0.000000 0.133986 0.000000
# 6 0.000000 0.000000 0.000000 0.000000 0.000000 -0.145628
#
#
# Mechanical properties :
#
#
# Convention : Reuss Voigt Hill
#
# Bulk Modulus (GPa) = 56.70942 56.97866 56.84404
# Shear Modulus (GPa) = 24.58099 13.56085 19.07092
#
# Velocity S-wave (km/s) = 3.67100 2.72664 3.23348
# Velocity P-wave (km/s) = 7.00418 6.41487 6.71599
#
# Compressibility (1/GPa) = 0.01763375
#
# Stress axis : x y z
#
# Youngs Moduli (GPa) = 48.56311 66.18786 98.57038
#
# Poissons Ratio (x) = 0.59821 0.46369
# Poissons Ratio (y) = 0.43892 0.03583
# Poissons Ratio (z) = 0.22845 0.02406
#
# Static dielectric constant tensor:
#      x y z
#    x 1.612470 0.000000 0.000000 
#    y 0.000000 1.638270 0.000000 
#    z 0.000000 0.000000 1.611420 
# 
# From -- ./inp_files/5644.got.cif
#   From: 2010.05.17/outbox.cif.g08.bks.cpg/sg39_3_cif.got.tgz:5644.got - 2010.06.03 18:22:40.
