data_PCOD9361379
_publ_section_title
;
Structure prediction by ZEFSAII (Michael W. Deem and Ramdas Pophale) SiO2 
 PCOD9361379
Probable space group: A B M 2
;
_chemical_formula_sum "Si O2"
_cell_formula_units_Z 64
_cell_length_a 12.148940
_cell_length_b 17.158252
_cell_length_c 13.739973
_cell_angle_alpha 90.000000
_cell_angle_beta 90.000000
_cell_angle_gamma 90.000000
_cell_volume 2864.160219
_symmetry_space_group_name_H-M "A B M 2"
_symmetry_group_IT_number 39
_symmetry_cell_setting 'orthorhombic'
loop_
_space_group_symop_operation_xyz
x,y,z
-x,-y,z
-x,1/2+y,z
x,1/2-y,z
x,1/2+y,1/2+z
-x,1/2-y,1/2+z
-x,y,1/2+z
x,-y,1/2+z
loop_
_atom_site_type_symbol
_atom_site_label
_atom_site_fract_x
_atom_site_fract_y
_atom_site_fract_z
Si Si1 0.628478 0.843291 0.936170
Si Si2 0.824192 0.454476 0.383109
Si Si3 0.037408 0.163837 0.167675
Si Si4 0.003171 0.667114 0.398881
Si Si5 0.278762 0.890026 0.639116
Si Si6 0.778083 0.622385 0.479833
Si Si7 0.596490 0.660499 0.329600
Si Si8 0.843867 0.050931 0.154055
O O1 0.640451 0.750000 0.928166
O O2 0.725564 0.893407 0.890021
O O3 0.518886 0.865968 0.876220
O O4 0.641381 0.865708 0.050567
O O5 0.798907 0.536281 0.432818
O O6 0.846638 0.463044 0.268936
O O7 0.926680 0.407769 0.428041
O O8 0.995882 0.250000 0.136946
O O9 0.023015 0.161202 0.284419
O O10 0.167361 0.161237 0.145814
O O11 0.965362 0.088912 0.132774
O O12 0.062412 0.750000 0.415176
O O13 0.888293 0.666795 0.452479
O O14 0.347165 0.885791 0.740108
O O15 0.219080 0.972675 0.620699
O O16 0.677937 0.657537 0.421529
O O17 0.769702 0.614556 0.596153
O O18 0.585537 0.750000 0.295586
#
# Coordination Sequence:
#
# PCOD9361379 Si02
#       8
#     8   8   8   8   8   8   8   8
#     4  11  26  45  70 101 133 181 242 294 350 419
#     4  11  23  44  64  97 142 180 226 287 349 413
#     4  10  21  38  66 103 147 189 229 282 348 430
#     4  10  21  38  64  97 140 187 224 275 342 417
#     4  12  22  45  73 102 139 186 240 294 356 424
#     4  12  23  41  66  99 138 181 229 283 351 419
#     4  11  25  46  71  99 134 181 240 299 351 413
#     4  11  25  41  64 108 141 184 230 286 352 421
#
# _framework density 22.345117999999999
#
# number of rings (size 3 to 8) (size 9 to 14) (size 15 to 20)
#    0.000    1.000    3.750    2.625    1.750    6.000 
#    0.000    2.500    0.000    0.000    0.000    0.000 
#    0.000    0.000    0.000    0.000    0.000    0.000 
#
# Total GULP energy -178496.927494 kJ/mol
# GULP energy per Si atom -5578.028984 kJ/mol
# Density = 2.229426 g / cm^3
# Si number density = 22.345118 Si / 1000 Ang^3
#
#
#
# Elastic Constant Matrix: (Units=GPa)
#
#
# Indices 1 2 3 4 5 6 
#
# 1 108.7734 37.0613 25.3112 0.0000 0.0000 0.0000
# 2 37.0613 106.3851 28.8848 0.0000 0.0000 0.0000
# 3 25.3112 28.8848 81.9945 0.0000 0.0000 0.0000
# 4 0.0000 0.0000 0.0000 60.7002 0.0000 0.0000
# 5 0.0000 0.0000 0.0000 0.0000 24.9735 0.0000
# 6 0.0000 0.0000 0.0000 0.0000 0.0000 5.0558
#
#
#
# Elastic Compliance Matrix: (Units=1/GPa)
#
#
# Indices 1 2 3 4 5 6 
#
# 1 0.010784 -0.003155 -0.002218 0.000000 0.000000 0.000000
# 2 -0.003155 0.011317 -0.003013 0.000000 0.000000 0.000000
# 3 -0.002218 -0.003013 0.013942 0.000000 0.000000 0.000000
# 4 0.000000 0.000000 0.000000 0.016474 0.000000 0.000000
# 5 0.000000 0.000000 0.000000 0.000000 0.040042 0.000000
# 6 0.000000 0.000000 0.000000 0.000000 0.000000 0.197791
#
#
# Mechanical properties :
#
#
# Convention : Reuss Voigt Hill
#
# Bulk Modulus (GPa) = 51.88745 53.29639 52.59192
# Shear Modulus (GPa) = 15.94663 31.87229 23.90946
#
# Velocity S-wave (km/s) = 2.67432 3.78082 3.27465
# Velocity P-wave (km/s) = 5.72777 6.55460 6.15508
#
# Compressibility (1/GPa) = 0.01927248
#
# Stress axis : x y z
#
# Youngs Moduli (GPa) = 92.72666 88.36376 71.72640
#
# Poissons Ratio (x) = 0.27877 0.15907
# Poissons Ratio (y) = 0.29254 0.21610
# Poissons Ratio (z) = 0.20564 0.26622
#
# Static dielectric constant tensor:
#      x y z
#    x 1.801310 0.000000 0.000000 
#    y 0.000000 1.880140 0.000000 
#    z 0.000000 0.000000 1.897830 
# 
# From -- ./inp_files/9466.got.cif
#   From: 2010.05.17/outbox.cif.g08.bks.cpg/sg39_5_cif.got.tgz:9466.got - 2010.06.03 18:22:40.
