data_PCOD9361332
_publ_section_title
;
Structure prediction by ZEFSAII (Michael W. Deem and Ramdas Pophale) SiO2 
 PCOD9361332
Probable space group: A B M 2
;
_chemical_formula_sum "Si O2"
_cell_formula_units_Z 56
_cell_length_a 11.590398
_cell_length_b 14.295432
_cell_length_c 18.075903
_cell_angle_alpha 90.000000
_cell_angle_beta 90.000000
_cell_angle_gamma 90.000000
_cell_volume 2994.991785
_symmetry_space_group_name_H-M "A B M 2"
_symmetry_group_IT_number 39
_symmetry_cell_setting 'orthorhombic'
loop_
_space_group_symop_operation_xyz
x,y,z
-x,-y,z
-x,1/2+y,z
x,1/2-y,z
x,1/2+y,1/2+z
-x,1/2-y,1/2+z
-x,y,1/2+z
x,-y,1/2+z
loop_
_atom_site_type_symbol
_atom_site_label
_atom_site_fract_x
_atom_site_fract_y
_atom_site_fract_z
Si Si1 0.252191 0.357608 0.848040
Si Si2 0.446531 0.641039 0.220218
Si Si3 0.361391 0.007712 0.453884
Si Si4 0.659924 0.858375 0.316918
Si Si5 0.902297 0.862797 0.715877
Si Si6 0.282247 0.031872 0.618025
Si Si7 0.167828 0.140884 0.192358
O O1 0.230947 0.250000 0.870021
O O2 0.354291 0.359032 0.787004
O O3 0.298695 0.418091 0.916308
O O4 0.144401 0.393000 0.797451
O O5 0.459391 0.750000 0.195266
O O6 0.564282 0.607887 0.258080
O O7 0.395711 0.575211 0.157005
O O8 0.345003 0.086164 0.391783
O O9 0.302073 0.033189 0.530947
O O10 0.500000 0.000000 0.464531
O O11 0.633407 0.750000 0.330293
O O12 0.780207 0.866826 0.274711
O O13 0.891031 0.750000 0.715683
O O14 0.819438 0.904895 0.653225
O O15 0.034029 0.886047 0.697371
O O16 0.243566 0.927760 0.642099
O O17 0.178361 0.250000 0.170089
#
# Coordination Sequence:
#
# PCOD9361332 Si02
#       7
#     8   8   8   8   8   8   8
#     4   9  18  37  63  85 111 152 198 239 285 342
#     4   9  18  36  61  84 108 149 197 242 285 336
#     4  12  25  36  53  88 127 158 184 231 298 358
#     4  10  21  38  60  86 116 150 194 243 290 340
#     4   9  19  41  67  87 108 146 205 254 289 334
#     4  11  23  35  58  87 121 156 193 236 291 355
#     4  10  22  39  62  88 114 152 201 249 286 333
#
# _framework density 18.697882
#
# number of rings (size 3 to 8) (size 9 to 14) (size 15 to 20)
#    0.000    2.000    1.429    3.429    2.000    1.714 
#    0.000    2.857    0.000    3.429    0.000    0.000 
#    0.000    0.000    0.000    0.000    0.000    0.000 
#
# Total GULP energy -156242.766687 kJ/mol
# GULP energy per Si atom -5580.098810 kJ/mol
# Density = 1.865532 g / cm^3
# Si number density = 18.697882 Si / 1000 Ang^3
#
#
#
# Elastic Constant Matrix: (Units=GPa)
#
#
# Indices 1 2 3 4 5 6 
#
# 1 80.0796 46.4843 72.5376 0.0000 0.0000 0.0000
# 2 46.4843 86.9799 59.5575 0.0000 0.0000 0.0000
# 3 72.5376 59.5575 126.4543 0.0000 0.0000 0.0000
# 4 0.0000 0.0000 0.0000 -1.1817 0.0000 0.0000
# 5 0.0000 0.0000 0.0000 0.0000 11.0016 0.0000
# 6 0.0000 0.0000 0.0000 0.0000 0.0000 24.5861
#
#
#
# Elastic Compliance Matrix: (Units=1/GPa)
#
#
# Indices 1 2 3 4 5 6 
#
# 1 0.027860 -0.005825 -0.013238 0.000000 0.000000 0.000000
# 2 -0.005825 0.018187 -0.005225 0.000000 0.000000 0.000000
# 3 -0.013238 -0.005225 0.017962 0.000000 0.000000 0.000000
# 4 0.000000 0.000000 0.000000 -0.846253 0.000000 0.000000
# 5 0.000000 0.000000 0.000000 0.000000 0.090896 0.000000
# 6 0.000000 0.000000 0.000000 0.000000 0.000000 0.040673
#
#
# Mechanical properties :
#
#
# Convention : Reuss Voigt Hill
#
# Bulk Modulus (GPa) = 64.78785 72.29697 68.54241
# Shear Modulus (GPa) = -8.37584 14.54349 3.08383
#
# Velocity S-wave (km/s) = -2.11879 2.79196 1.28564
# Velocity P-wave (km/s) = 5.36091 7.01022 6.24029
#
# Compressibility (1/GPa) = 0.01543499
#
# Stress axis : x y z
#
# Youngs Moduli (GPa) = 35.89418 54.98375 55.67238
#
# Poissons Ratio (x) = 0.32026 0.73698
# Poissons Ratio (y) = 0.20907 0.29087
# Poissons Ratio (z) = 0.47516 0.28727
#
# Static dielectric constant tensor:
#      x y z
#    x 1.690420 0.000000 0.000000 
#    y 0.000000 1.713760 0.000000 
#    z 0.000000 0.000000 1.589960 
# 
# From -- ./inp_files/9293.got.cif
#   From: 2010.05.17/outbox.cif.g08.bks.cpg/sg39_5_cif.got.tgz:9293.got - 2010.06.03 18:22:40.
