data_PCOD9361151
_publ_section_title
;
Structure prediction by ZEFSAII (Michael W. Deem and Ramdas Pophale) SiO2 
 PCOD9361151
Probable space group: A B M 2
;
_chemical_formula_sum "Si O2"
_cell_formula_units_Z 44
_cell_length_a 8.398550
_cell_length_b 28.928942
_cell_length_c 9.166040
_cell_angle_alpha 90.000000
_cell_angle_beta 90.000000
_cell_angle_gamma 90.000000
_cell_volume 2226.991764
_symmetry_space_group_name_H-M "A B M 2"
_symmetry_group_IT_number 39
_symmetry_cell_setting 'orthorhombic'
loop_
_space_group_symop_operation_xyz
x,y,z
-x,-y,z
-x,1/2+y,z
x,1/2-y,z
x,1/2+y,1/2+z
-x,1/2-y,1/2+z
-x,y,1/2+z
x,-y,1/2+z
loop_
_atom_site_type_symbol
_atom_site_label
_atom_site_fract_x
_atom_site_fract_y
_atom_site_fract_z
Si Si1 0.638554 0.304109 0.724710
Si Si2 0.859786 0.862313 0.434049
Si Si3 0.000000 0.500000 0.091332
Si Si4 0.689195 0.641953 0.727927
Si Si5 0.109354 0.935956 0.344042
Si Si6 0.854093 0.198278 0.451926
O O1 0.607292 0.250000 0.764097
O O2 0.774784 0.327031 0.824206
O O3 0.485974 0.337154 0.736321
O O4 0.704059 0.304355 0.559623
O O5 0.738051 0.872013 0.564579
O O6 0.944908 0.905952 0.357409
O O7 0.010660 0.836335 0.504266
O O8 0.096792 0.533402 0.198972
O O9 0.108110 0.468906 0.984485
O O10 0.742499 0.598921 0.829230
O O11 0.800475 0.682862 0.791513
O O12 0.916325 0.250000 0.452928
#
# Coordination Sequence:
#
# PCOD9361151 Si02
#       6
#     8   8   4   8   8   8
#     4  11  24  39  59  89 130 176 212 254 309 368
#     4  11  22  38  60  90 122 162 211 261 309 368
#     4  10  20  40  70  96 122 150 216 258 326 378
#     4  11  22  37  57  89 126 163 204 250 314 370
#     4  10  21  39  67  99 117 161 201 264 313 384
#     4  10  21  36  57  85 119 165 217 259 295 359
#
# _framework density 19.757594999999998
#
# number of rings (size 3 to 8) (size 9 to 14) (size 15 to 20)
#    0.000    1.455    1.818    4.364    2.545    5.818 
#    0.000    0.000    0.000    6.545    0.000    0.000 
#    0.000    0.000    0.000    0.000    0.000    0.000 
#
# Total GULP energy -122740.441100 kJ/mol
# GULP energy per Si atom -5579.110959 kJ/mol
# Density = 1.971263 g / cm^3
# Si number density = 19.757595 Si / 1000 Ang^3
#
#
#
# Elastic Constant Matrix: (Units=GPa)
#
#
# Indices 1 2 3 4 5 6 
#
# 1 87.6948 44.6763 19.9393 0.0000 0.0000 0.0000
# 2 44.6763 122.6528 40.7578 0.0000 0.0000 0.0000
# 3 19.9393 40.7578 87.5150 0.0000 0.0000 0.0000
# 4 0.0000 0.0000 0.0000 30.3349 0.0000 0.0000
# 5 0.0000 0.0000 0.0000 0.0000 17.8349 0.0000
# 6 0.0000 0.0000 0.0000 0.0000 0.0000 28.1982
#
#
#
# Elastic Compliance Matrix: (Units=1/GPa)
#
#
# Indices 1 2 3 4 5 6 
#
# 1 0.014070 -0.004803 -0.000969 0.000000 0.000000 0.000000
# 2 -0.004803 0.011286 -0.004162 0.000000 0.000000 0.000000
# 3 -0.000969 -0.004162 0.013586 0.000000 0.000000 0.000000
# 4 0.000000 0.000000 0.000000 0.032965 0.000000 0.000000
# 5 0.000000 0.000000 0.000000 0.000000 0.056070 0.000000
# 6 0.000000 0.000000 0.000000 0.000000 0.000000 0.035463
#
#
# Mechanical properties :
#
#
# Convention : Reuss Voigt Hill
#
# Bulk Modulus (GPa) = 52.42668 56.51215 54.46942
# Shear Modulus (GPa) = 26.36219 28.10620 27.23420
#
# Velocity S-wave (km/s) = 3.65674 3.77576 3.71673
# Velocity P-wave (km/s) = 6.66495 6.90459 6.78583
#
# Compressibility (1/GPa) = 0.01907426
#
# Stress axis : x y z
#
# Youngs Moduli (GPa) = 71.07074 88.60863 73.60786
#
# Poissons Ratio (x) = 0.42561 0.07131
# Poissons Ratio (y) = 0.34137 0.30633
# Poissons Ratio (z) = 0.06886 0.36875
#
# Static dielectric constant tensor:
#      x y z
#    x 1.680880 0.000000 0.000000 
#    y 0.000000 1.716450 0.000000 
#    z 0.000000 0.000000 1.707410 
# 
# From -- ./inp_files/2268.got.cif
#   From: 2010.05.17/outbox.cif.g08.bks.cpg/sg39_2_cif.got.tgz:2268.got - 2010.06.03 18:22:40.
