data_PCOD9361470
_publ_section_title
;
Structure prediction by ZEFSAII (Michael W. Deem and Ramdas Pophale) SiO2 
 PCOD9361470
Probable space group: A B M 2
;
_chemical_formula_sum "Si O2"
_cell_formula_units_Z 60
_cell_length_a 28.746405
_cell_length_b 10.774311
_cell_length_c 8.775407
_cell_angle_alpha 90.000000
_cell_angle_beta 90.000000
_cell_angle_gamma 90.000000
_cell_volume 2717.942816
_symmetry_space_group_name_H-M "A B M 2"
_symmetry_group_IT_number 39
_symmetry_cell_setting 'orthorhombic'
loop_
_space_group_symop_operation_xyz
x,y,z
-x,-y,z
-x,1/2+y,z
x,1/2-y,z
x,1/2+y,1/2+z
-x,1/2-y,1/2+z
-x,y,1/2+z
x,-y,1/2+z
loop_
_atom_site_type_symbol
_atom_site_label
_atom_site_fract_x
_atom_site_fract_y
_atom_site_fract_z
Si Si1 0.338698 0.609383 0.659550
Si Si2 0.815193 0.493580 0.246680
Si Si3 0.599595 0.972340 0.893848
Si Si4 0.536992 0.388788 0.119632
Si Si5 0.908097 0.446256 0.914321
Si Si6 0.870138 0.750000 0.634386
Si Si7 0.244346 0.895206 0.497606
Si Si8 0.962990 0.389916 0.609027
O O1 0.330561 0.750000 0.711881
O O2 0.358072 0.526717 0.795354
O O3 0.378823 0.606507 0.530673
O O4 0.291615 0.563702 0.579423
O O5 0.856729 0.554185 0.342750
O O6 0.834955 0.360969 0.193574
O O7 0.770033 0.471590 0.350154
O O8 0.799009 0.581014 0.110333
O O9 0.566491 0.901758 0.775374
O O10 0.570625 0.081610 0.976713
O O11 0.500000 0.500000 0.120148
O O12 0.517236 0.250000 0.107957
O O13 0.941637 0.403421 0.778244
O O14 0.904645 0.357323 0.059383
O O15 0.924079 0.579017 0.980568
O O16 0.249238 0.750000 0.462485
O O17 0.980319 0.250000 0.588640
O O18 0.000000 0.500000 0.588282
#
# Coordination Sequence:
#
# PCOD9361470 Si02
#       8
#     8   8   8   8   8   4   8   8
#     4  10  21  40  62  88 124 170 214 261 316 381
#     4  12  24  41  66  96 132 167 213 264 318 375
#     4  10  22  40  63  87 126 167 216 262 323 387
#     4  11  24  40  63  95 126 164 214 271 331 392
#     4  12  26  45  70  97 131 171 216 260 321 380
#     4  12  24  42  68  96 130 170 214 260 318 376
#     4  11  24  39  63  96 130 168 215 265 317 374
#     4  12  29  47  72 100 133 170 215 265 319 384
#
# _framework density 22.075520000000001
#
# number of rings (size 3 to 8) (size 9 to 14) (size 15 to 20)
#    0.000    0.800    4.000    2.400    2.800    6.933 
#    0.000    0.000    1.467    0.000    0.000    0.000 
#    0.000    0.000    0.000    0.000    0.000    0.000 
#
# Total GULP energy -167211.860519 kJ/mol
# GULP energy per Si atom -5573.728684 kJ/mol
# Density = 2.202527 g / cm^3
# Si number density = 22.075520 Si / 1000 Ang^3
#
#
#
# Elastic Constant Matrix: (Units=GPa)
#
#
# Indices 1 2 3 4 5 6 
#
# 1 69.5382 13.6545 2.7835 0.0000 0.0000 0.0000
# 2 13.6545 91.4547 -0.2388 0.0000 0.0000 0.0000
# 3 2.7835 -0.2388 57.2200 0.0000 0.0000 0.0000
# 4 0.0000 0.0000 0.0000 2.4009 0.0000 0.0000
# 5 0.0000 0.0000 0.0000 0.0000 33.7437 0.0000
# 6 0.0000 0.0000 0.0000 0.0000 0.0000 21.6706
#
#
#
# Elastic Compliance Matrix: (Units=1/GPa)
#
#
# Indices 1 2 3 4 5 6 
#
# 1 0.014845 -0.002218 -0.000731 0.000000 0.000000 0.000000
# 2 -0.002218 0.011266 0.000155 0.000000 0.000000 0.000000
# 3 -0.000731 0.000155 0.017513 0.000000 0.000000 0.000000
# 4 0.000000 0.000000 0.000000 0.416507 0.000000 0.000000
# 5 0.000000 0.000000 0.000000 0.000000 0.029635 0.000000
# 6 0.000000 0.000000 0.000000 0.000000 0.000000 0.046146
#
#
# Mechanical properties :
#
#
# Convention : Reuss Voigt Hill
#
# Bulk Modulus (GPa) = 26.29203 27.84570 27.06887
# Shear Modulus (GPa) = 9.02234 25.03061 17.02647
#
# Velocity S-wave (km/s) = 2.02383 3.37094 2.78021
# Velocity P-wave (km/s) = 4.17098 5.27183 4.75338
#
# Compressibility (1/GPa) = 0.03803434
#
# Stress axis : x y z
#
# Youngs Moduli (GPa) = 67.36068 88.76269 57.10159
#
# Poissons Ratio (x) = 0.19691 0.04177
# Poissons Ratio (y) = 0.14943 -0.00885
# Poissons Ratio (z) = 0.04927 -0.01375
#
# Static dielectric constant tensor:
#      x y z
#    x 1.832510 0.000000 0.000000 
#    y 0.000000 1.781070 0.000000 
#    z 0.000000 0.000000 1.840290 
# 
# From -- ./inp_files/4150.got.cif
#   From: 2010.05.17/outbox.cif.g08.bks.cpg/sg39_3_cif.got.tgz:4150.got - 2010.06.03 18:22:40.
