data_PCOD9361483
_publ_section_title
;
Structure prediction by ZEFSAII (Michael W. Deem and Ramdas Pophale) SiO2 
 PCOD9361483
Probable space group: A B M 2
;
_chemical_formula_sum "Si O2"
_cell_formula_units_Z 56
_cell_length_a 5.083802
_cell_length_b 15.937483
_cell_length_c 32.326162
_cell_angle_alpha 90.000000
_cell_angle_beta 90.000000
_cell_angle_gamma 90.000000
_cell_volume 2619.162881
_symmetry_space_group_name_H-M "A B M 2"
_symmetry_group_IT_number 39
_symmetry_cell_setting 'orthorhombic'
loop_
_space_group_symop_operation_xyz
x,y,z
-x,-y,z
-x,1/2+y,z
x,1/2-y,z
x,1/2+y,1/2+z
-x,1/2-y,1/2+z
-x,y,1/2+z
x,-y,1/2+z
loop_
_atom_site_type_symbol
_atom_site_label
_atom_site_fract_x
_atom_site_fract_y
_atom_site_fract_z
Si Si1 0.545608 0.250000 0.154171
Si Si2 0.031255 0.402255 0.035212
Si Si3 0.952028 0.750000 0.209058
Si Si4 0.912916 0.654782 0.445573
Si Si5 0.564053 0.652500 0.313991
Si Si6 0.943852 0.406177 0.269149
Si Si7 0.415630 0.906119 0.402383
Si Si8 0.469533 0.901756 0.091397
O O1 0.841383 0.250000 0.171387
O O2 0.496421 0.166480 0.127119
O O3 0.342789 0.250000 0.192030
O O4 0.812774 0.387688 0.070283
O O5 0.000000 0.500000 0.023073
O O6 0.312804 0.388218 0.055844
O O7 0.982021 0.351394 0.993740
O O8 0.003448 0.666551 0.235876
O O9 0.940799 0.750000 0.431016
O O10 0.616826 0.625182 0.437564
O O11 0.121694 0.601391 0.419273
O O12 0.572809 0.750000 0.301640
O O13 0.349620 0.604926 0.286189
O O14 0.470524 0.646174 0.361123
O O15 0.849102 0.612456 0.306176
O O16 0.000000 0.500000 0.253679
O O17 0.500000 0.000000 0.392055
O O18 0.500000 0.000000 0.104528
#
# Coordination Sequence:
#
# PCOD9361483 Si02
#       8
#     4   8   4   8   8   8   8   8
#     4  12  26  42  72  94 134 164 210 256 342 386
#     4  10  21  40  64  89 125 168 214 266 318 379
#     4  12  26  46  66 104 128 170 206 272 322 398
#     4  12  25  40  62  95 130 173 224 277 330 377
#     4  12  23  44  69  96 134 173 225 278 323 384
#     4  12  25  45  71 100 133 177 221 264 328 396
#     4  12  25  42  62  92 133 178 223 271 331 385
#     4  10  23  41  65  96 127 167 215 262 318 390
#
# _framework density 21.380877000000002
#
# number of rings (size 3 to 8) (size 9 to 14) (size 15 to 20)
#    0.000    0.571    1.429    7.286    2.000    2.286 
#    0.000    0.000    0.000    0.000    0.000    0.000 
#    0.000    0.000    0.000    0.000    0.000    0.000 
#
# Total GULP energy -156771.245272 kJ/mol
# GULP energy per Si atom -5598.973045 kJ/mol
# Density = 2.133221 g / cm^3
# Si number density = 21.380877 Si / 1000 Ang^3
#
#
#
# Elastic Constant Matrix: (Units=GPa)
#
#
# Indices 1 2 3 4 5 6 
#
# 1 50.1396 7.0958 -20.3077 0.0000 0.0000 0.0000
# 2 7.0958 110.2081 26.7178 0.0000 0.0000 0.0000
# 3 -20.3077 26.7178 50.9772 0.0000 0.0000 0.0000
# 4 0.0000 0.0000 0.0000 -14.9477 0.0000 0.0000
# 5 0.0000 0.0000 0.0000 0.0000 23.8289 0.0000
# 6 0.0000 0.0000 0.0000 0.0000 0.0000 38.5233
#
#
#
# Elastic Compliance Matrix: (Units=1/GPa)
#
#
# Indices 1 2 3 4 5 6 
#
# 1 0.025787 -0.004755 0.012765 0.000000 0.000000 0.000000
# 2 -0.004755 0.011271 -0.007802 0.000000 0.000000 0.000000
# 3 0.012765 -0.007802 0.028791 0.000000 0.000000 0.000000
# 4 0.000000 0.000000 0.000000 -0.066900 0.000000 0.000000
# 5 0.000000 0.000000 0.000000 0.000000 0.041966 0.000000
# 6 0.000000 0.000000 0.000000 0.000000 0.000000 0.025958
#
#
# Mechanical properties :
#
#
# Convention : Reuss Voigt Hill
#
# Bulk Modulus (GPa) = 15.09067 26.48185 20.78626
# Shear Modulus (GPa) = 56.46817 22.66884 39.56850
#
# Velocity S-wave (km/s) = 5.14470 3.25966 4.30658
# Velocity P-wave (km/s) = 6.50876 5.15557 5.87128
#
# Compressibility (1/GPa) = 0.06626612
#
# Stress axis : x y z
#
# Youngs Moduli (GPa) = 38.77871 88.72135 34.73345
#
# Poissons Ratio (x) = 0.42187 -0.44337
# Poissons Ratio (y) = 0.18439 0.27098
# Poissons Ratio (z) = -0.49501 0.69217
#
# Static dielectric constant tensor:
#      x y z
#    x 1.736100 0.000000 0.000000 
#    y 0.000000 1.780180 0.000000 
#    z 0.000000 0.000000 1.727530 
# 
# From -- ./inp_files/17285.got.cif
#   From: 2010.05.17/outbox.cif.g08.bks.cpg/sg39_9_cif.got.tgz:17285.got - 2010.06.03 18:22:40.
