data_PCOD9361584
_publ_section_title
;
Structure prediction by ZEFSAII (Michael W. Deem and Ramdas Pophale) SiO2 
 PCOD9361584
Probable space group: A B M 2
;
_chemical_formula_sum "Si O2"
_cell_formula_units_Z 40
_cell_length_a 20.650181
_cell_length_b 5.712368
_cell_length_c 13.677484
_cell_angle_alpha 90.000000
_cell_angle_beta 90.000000
_cell_angle_gamma 90.000000
_cell_volume 1613.415614
_symmetry_space_group_name_H-M "A B M 2"
_symmetry_group_IT_number 39
_symmetry_cell_setting 'orthorhombic'
loop_
_space_group_symop_operation_xyz
x,y,z
-x,-y,z
-x,1/2+y,z
x,1/2-y,z
x,1/2+y,1/2+z
-x,1/2-y,1/2+z
-x,y,1/2+z
x,-y,1/2+z
loop_
_atom_site_type_symbol
_atom_site_label
_atom_site_fract_x
_atom_site_fract_y
_atom_site_fract_z
Si Si1 0.903647 0.750000 0.053180
Si Si2 0.245836 0.750000 0.980443
Si Si3 0.577208 0.000678 0.538486
Si Si4 0.896246 0.750000 0.557948
Si Si5 0.991616 0.750000 0.379285
Si Si6 0.406393 0.000429 0.304529
Si Si7 0.247500 0.250000 0.045249
Si Si8 0.719727 0.250000 0.768102
O O1 0.914260 0.499536 0.104973
O O2 0.828980 0.750000 0.016478
O O3 0.952098 0.750000 0.962038
O O4 0.235567 0.750000 0.863618
O O5 0.180651 0.750000 0.043708
O O6 0.276571 0.495687 0.005771
O O7 0.604226 0.750000 0.571318
O O8 0.583417 0.002386 0.420953
O O9 0.500000 0.000000 0.558837
O O10 0.604358 0.250000 0.574906
O O11 0.927629 0.750000 0.448616
O O12 0.000000 0.500000 0.326837
O O13 0.435586 0.250000 0.271941
O O14 0.330567 0.034442 0.280624
O O15 0.428799 0.750000 0.268039
O O16 0.248758 0.250000 0.162827
#
# Coordination Sequence:
#
# PCOD9361584 Si02
#       8
#     4   4   8   4   4   8   4   4
#     4   8  14  26  41  66  92 117 160 197 234 294
#     4  10  22  35  52  77 102 135 177 207 251 309
#     4   8  12  20  34  56  88 118 146 199 239 280
#     4   8  14  26  41  66  92 117 160 197 234 294
#     4   8  12  20  40  62  86 118 150 192 240 282
#     4   8  16  26  42  66  92 128 161 196 252 295
#     4  10  22  35  52  77 102 135 177 207 251 309
#     4  10  22  34  56  70 110 136 166 218 256 290
#
# _framework density 24.792124000000001
#
# number of rings (size 3 to 8) (size 9 to 14) (size 15 to 20)
#    0.600    2.800    0.000    0.000    2.800    0.000 
#    0.000    0.000    0.000    0.000    0.000   35.000 
#    0.000    4.800    0.000    0.000    0.000    0.000 
#
# Total GULP energy -111416.761737 kJ/mol
# GULP energy per Si atom -5570.838087 kJ/mol
# Density = 2.473570 g / cm^3
# Si number density = 24.792124 Si / 1000 Ang^3
#
#
#
# Elastic Constant Matrix: (Units=GPa)
#
#
# Indices 1 2 3 4 5 6 
#
# 1 74.2563 10.0014 -3.3427 0.0000 0.0000 0.0000
# 2 10.0014 333.5938 12.4383 0.0000 0.0000 0.0000
# 3 -3.3427 12.4383 117.9739 0.0000 0.0000 0.0000
# 4 0.0000 0.0000 0.0000 -24.4461 0.0000 0.0000
# 5 0.0000 0.0000 0.0000 0.0000 17.6309 0.0000
# 6 0.0000 0.0000 0.0000 0.0000 0.0000 32.5024
#
#
#
# Elastic Compliance Matrix: (Units=1/GPa)
#
#
# Indices 1 2 3 4 5 6 
#
# 1 0.013543 -0.000422 0.000428 0.000000 0.000000 0.000000
# 2 -0.000422 0.003023 -0.000331 0.000000 0.000000 0.000000
# 3 0.000428 -0.000331 0.008523 0.000000 0.000000 0.000000
# 4 0.000000 0.000000 0.000000 -0.040906 0.000000 0.000000
# 5 0.000000 0.000000 0.000000 0.000000 0.056719 0.000000
# 6 0.000000 0.000000 0.000000 0.000000 0.000000 0.030767
#
#
# Mechanical properties :
#
#
# Convention : Reuss Voigt Hill
#
# Bulk Modulus (GPa) = 40.91616 62.66868 51.79242
# Shear Modulus (GPa) = 62.13969 38.91923 50.52946
#
# Velocity S-wave (km/s) = 5.01186 3.96640 4.51946
# Velocity P-wave (km/s) = 7.07327 6.80507 6.94046
#
# Compressibility (1/GPa) = 0.02444022
#
# Stress axis : x y z
#
# Youngs Moduli (GPa) = 73.83901 330.83683 117.32346
#
# Poissons Ratio (x) = 0.13961 -0.05024
# Poissons Ratio (y) = 0.03116 0.03879
# Poissons Ratio (z) = -0.03162 0.10939
#
# Static dielectric constant tensor:
#      x y z
#    x 0.732030 0.000000 0.000000 
#    y 0.000000 2.095430 0.000000 
#    z 0.000000 0.000000 1.860750 
# 
# From -- ./inp_files/10702.got.cif
#   From: 2010.05.17/outbox.cif.g08.bks.cpg/sg39_6_cif.got.tgz:10702.got - 2010.06.03 18:22:40.
