data_PCOD9361965
_publ_section_title
;
Structure prediction by ZEFSAII (Michael W. Deem and Ramdas Pophale) SiO2 
 PCOD9361965
Probable space group: A B M 2
;
_chemical_formula_sum "Si O2"
_cell_formula_units_Z 40
_cell_length_a 11.644986
_cell_length_b 14.976577
_cell_length_c 11.949507
_cell_angle_alpha 90.000000
_cell_angle_beta 90.000000
_cell_angle_gamma 90.000000
_cell_volume 2084.018272
_symmetry_space_group_name_H-M "A B M 2"
_symmetry_group_IT_number 39
_symmetry_cell_setting 'orthorhombic'
loop_
_space_group_symop_operation_xyz
x,y,z
-x,-y,z
-x,1/2+y,z
x,1/2-y,z
x,1/2+y,1/2+z
-x,1/2-y,1/2+z
-x,y,1/2+z
x,-y,1/2+z
loop_
_atom_site_type_symbol
_atom_site_label
_atom_site_fract_x
_atom_site_fract_y
_atom_site_fract_z
Si Si1 0.448753 0.350085 0.584650
Si Si2 0.653711 0.585035 0.943297
Si Si3 0.856610 0.853652 0.795899
Si Si4 0.000000 0.000000 0.421385
Si Si5 0.500000 0.000000 0.769066
Si Si6 0.780430 0.557961 0.565151
O O1 0.448731 0.250000 0.627583
O O2 0.543568 0.363614 0.488785
O O3 0.482810 0.416663 0.685509
O O4 0.322574 0.373319 0.537083
O O5 0.747977 0.642702 0.879720
O O6 0.607546 0.511306 0.854004
O O7 0.712934 0.535588 0.048625
O O8 0.887795 0.750000 0.775380
O O9 0.820221 0.906345 0.684561
O O10 0.952973 0.916419 0.850697
O O11 0.106031 0.040638 0.492229
#
# Coordination Sequence:
#
# PCOD9361965 Si02
#       6
#     8   8   8   4   4   8
#     4  12  23  36  62  95 127 161 199 245 301 373
#     4  11  21  40  62  91 128 165 196 246 308 371
#     4  11  23  41  66  91 122 163 209 256 308 370
#     4  10  26  42  66  84 122 164 212 260 320 350
#     4  12  20  40  58  92 130 162 190 244 304 372
#     4  11  21  41  61  90 119 161 204 257 302 366
#
# _framework density 19.193691000000001
#
# number of rings (size 3 to 8) (size 9 to 14) (size 15 to 20)
#    0.000    0.800    6.000    1.800    0.000    2.400 
#    0.000    0.000    0.000    8.400    0.000    0.000 
#    0.000    0.000    0.000    0.000    0.000    0.000 
#
# Total GULP energy -111436.621745 kJ/mol
# GULP energy per Si atom -5571.831087 kJ/mol
# Density = 1.915000 g / cm^3
# Si number density = 19.193691 Si / 1000 Ang^3
#
#
#
# Elastic Constant Matrix: (Units=GPa)
#
#
# Indices 1 2 3 4 5 6 
#
# 1 130.9267 46.3968 36.8507 0.0000 0.0000 0.0000
# 2 46.3968 137.5579 53.8595 0.0000 0.0000 0.0000
# 3 36.8507 53.8595 74.4024 0.0000 0.0000 0.0000
# 4 0.0000 0.0000 0.0000 5.5429 0.0000 0.0000
# 5 0.0000 0.0000 0.0000 0.0000 30.0203 0.0000
# 6 0.0000 0.0000 0.0000 0.0000 0.0000 15.4036
#
#
#
# Elastic Compliance Matrix: (Units=1/GPa)
#
#
# Indices 1 2 3 4 5 6 
#
# 1 0.009197 -0.001840 -0.003223 0.000000 0.000000 0.000000
# 2 -0.001840 0.010513 -0.006699 0.000000 0.000000 0.000000
# 3 -0.003223 -0.006699 0.019886 0.000000 0.000000 0.000000
# 4 0.000000 0.000000 0.000000 0.180412 0.000000 0.000000
# 5 0.000000 0.000000 0.000000 0.000000 0.033311 0.000000
# 6 0.000000 0.000000 0.000000 0.000000 0.000000 0.064920
#
#
# Mechanical properties :
#
#
# Convention : Reuss Voigt Hill
#
# Bulk Modulus (GPa) = 62.22049 68.56678 65.39364
# Shear Modulus (GPa) = 14.40417 23.91202 19.15810
#
# Velocity S-wave (km/s) = 2.74243 3.53346 3.16277
# Velocity P-wave (km/s) = 6.52039 7.24212 6.89071
#
# Compressibility (1/GPa) = 0.01607188
#
# Stress axis : x y z
#
# Youngs Moduli (GPa) = 108.72937 95.11773 50.28582
#
# Poissons Ratio (x) = 0.17502 0.16208
# Poissons Ratio (y) = 0.20007 0.33687
# Poissons Ratio (z) = 0.35046 0.63721
#
# Static dielectric constant tensor:
#      x y z
#    x 1.705890 0.000000 0.000000 
#    y 0.000000 1.662390 0.000000 
#    z 0.000000 0.000000 1.699950 
# 
# From -- ./inp_files/5687.got.cif
#   From: 2010.05.17/outbox.cif.g08.bks.cpg/sg39_3_cif.got.tgz:5687.got - 2010.06.03 18:22:40.
