data_PCOD9361201
_publ_section_title
;
Structure prediction by ZEFSAII (Michael W. Deem and Ramdas Pophale) SiO2 
 PCOD9361201
Probable space group: A B M 2
;
_chemical_formula_sum "Si O2"
_cell_formula_units_Z 56
_cell_length_a 32.828315
_cell_length_b 14.014309
_cell_length_c 5.330389
_cell_angle_alpha 90.000000
_cell_angle_beta 90.000000
_cell_angle_gamma 90.000000
_cell_volume 2452.331547
_symmetry_space_group_name_H-M "A B M 2"
_symmetry_group_IT_number 39
_symmetry_cell_setting 'orthorhombic'
loop_
_space_group_symop_operation_xyz
x,y,z
-x,-y,z
-x,1/2+y,z
x,1/2-y,z
x,1/2+y,1/2+z
-x,1/2-y,1/2+z
-x,y,1/2+z
x,-y,1/2+z
loop_
_atom_site_type_symbol
_atom_site_label
_atom_site_fract_x
_atom_site_fract_y
_atom_site_fract_z
Si Si1 0.681804 0.967716 0.752680
Si Si2 0.196213 0.564414 0.728583
Si Si3 0.407391 0.952868 0.758869
Si Si4 0.895795 0.059469 0.785847
Si Si5 0.518697 0.359338 0.588012
Si Si6 0.693342 0.750000 0.776326
Si Si7 0.747379 0.750000 0.274864
Si Si8 0.980803 0.862013 0.138044
O O1 0.671634 0.854664 0.756453
O O2 0.704368 0.999351 0.502365
O O3 0.641430 0.036478 0.753329
O O4 0.200892 0.507553 0.465647
O O5 0.149312 0.601069 0.744650
O O6 0.225782 0.654747 0.749677
O O7 0.433422 0.866165 0.652411
O O8 0.419070 0.030887 0.546542
O O9 0.934565 0.123425 0.723442
O O10 0.898284 0.976659 0.572512
O O11 0.506304 0.250000 0.566536
O O12 0.505756 0.401152 0.322600
O O13 0.724476 0.750000 0.542698
O O14 0.715119 0.750000 0.045903
O O15 0.989220 0.750000 0.116197
O O16 0.009644 0.900747 0.360658
#
# Coordination Sequence:
#
# PCOD9361201 Si02
#       8
#     8   8   8   8   8   4   4   8
#     4  10  23  45  66  97 133 171 214 263 320 375
#     4  10  23  43  64  97 135 167 212 264 316 395
#     4  10  21  39  58  91 118 166 208 249 314 364
#     4  10  21  37  58  83 115 159 203 252 312 365
#     4  10  21  37  58  89 126 163 213 266 311 363
#     4  12  26  44  70 104 130 164 218 258 318 400
#     4  12  26  42  72 104 126 176 208 250 340 390
#     4  10  21  35  52  80 114 155 206 257 308 357
#
# _framework density 22.835411000000001
#
# number of rings (size 3 to 8) (size 9 to 14) (size 15 to 20)
#    0.000    1.714    0.000    3.429    1.000    6.857 
#   10.286    0.000    0.000    0.000    0.000    0.000 
#    0.000    0.000    0.000    0.000    0.000    0.000 
#
# Total GULP energy -156191.971852 kJ/mol
# GULP energy per Si atom -5578.284709 kJ/mol
# Density = 2.278344 g / cm^3
# Si number density = 22.835411 Si / 1000 Ang^3
#
#
#
# Elastic Constant Matrix: (Units=GPa)
#
#
# Indices 1 2 3 4 5 6 
#
# 1 79.2479 0.8565 19.4162 0.0000 0.0000 0.0000
# 2 0.8565 86.3295 18.0510 0.0000 0.0000 0.0000
# 3 19.4162 18.0510 119.4274 0.0000 0.0000 0.0000
# 4 0.0000 0.0000 0.0000 21.5304 0.0000 0.0000
# 5 0.0000 0.0000 0.0000 0.0000 26.3197 0.0000
# 6 0.0000 0.0000 0.0000 0.0000 0.0000 -12.0372
#
#
#
# Elastic Compliance Matrix: (Units=1/GPa)
#
#
# Indices 1 2 3 4 5 6 
#
# 1 0.013151 0.000327 -0.002187 0.000000 0.000000 0.000000
# 2 0.000327 0.011970 -0.001862 0.000000 0.000000 0.000000
# 3 -0.002187 -0.001862 0.009010 0.000000 0.000000 0.000000
# 4 0.000000 0.000000 0.000000 0.046446 0.000000 0.000000
# 5 0.000000 0.000000 0.000000 0.000000 0.037994 0.000000
# 6 0.000000 0.000000 0.000000 0.000000 0.000000 -0.083076
#
#
# Mechanical properties :
#
#
# Convention : Reuss Voigt Hill
#
# Bulk Modulus (GPa) = 37.47372 40.18357 38.82864
# Shear Modulus (GPa) = 96.45746 23.60800 60.03273
#
# Velocity S-wave (km/s) = 6.50630 3.21882 5.13287
# Velocity P-wave (km/s) = 8.53748 5.60799 7.22282
#
# Compressibility (1/GPa) = 0.02668537
#
# Stress axis : x y z
#
# Youngs Moduli (GPa) = 76.03958 83.54445 110.98280
#
# Poissons Ratio (x) = -0.02731 0.24277
# Poissons Ratio (y) = -0.02486 0.20669
# Poissons Ratio (z) = 0.16633 0.15559
#
# Static dielectric constant tensor:
#      x y z
#    x 1.873710 0.000000 0.000000 
#    y 0.000000 1.837200 0.000000 
#    z 0.000000 0.000000 1.933890 
# 
# From -- ./inp_files/1510.got.cif
#   From: 2010.05.17/outbox.cif.g08.bks.cpg/sg39_1_cif.got.tgz:1510.got - 2010.06.03 18:22:40.
