data_PCOD9361631
_publ_section_title
;
Structure prediction by ZEFSAII (Michael W. Deem and Ramdas Pophale) SiO2 
 PCOD9361631
Probable space group: A B M 2
;
_chemical_formula_sum "Si O2"
_cell_formula_units_Z 48
_cell_length_a 5.253456
_cell_length_b 16.596176
_cell_length_c 24.151374
_cell_angle_alpha 90.000000
_cell_angle_beta 90.000000
_cell_angle_gamma 90.000000
_cell_volume 2105.692617
_symmetry_space_group_name_H-M "A B M 2"
_symmetry_group_IT_number 39
_symmetry_cell_setting 'orthorhombic'
loop_
_space_group_symop_operation_xyz
x,y,z
-x,-y,z
-x,1/2+y,z
x,1/2-y,z
x,1/2+y,1/2+z
-x,1/2-y,1/2+z
-x,y,1/2+z
x,-y,1/2+z
loop_
_atom_site_type_symbol
_atom_site_label
_atom_site_fract_x
_atom_site_fract_y
_atom_site_fract_z
Si Si1 0.237706 0.449019 0.431690
Si Si2 0.489863 0.750000 0.084487
Si Si3 0.979018 0.750000 0.157321
Si Si4 0.889411 0.584753 0.677973
Si Si5 0.583140 0.848576 0.768581
Si Si6 0.678845 0.921947 0.556524
Si Si7 0.095006 0.654069 0.834061
O O1 0.500000 0.500000 0.426069
O O2 0.196354 0.431731 0.496660
O O3 0.200586 0.370636 0.394397
O O4 0.000000 0.500000 0.410737
O O5 0.763917 0.750000 0.111695
O O6 0.460521 0.664753 0.053809
O O7 0.259721 0.750000 0.129609
O O8 0.953098 0.833330 0.189818
O O9 0.634180 0.605581 0.711140
O O10 0.851209 0.581352 0.611521
O O11 0.000000 0.500000 0.695798
O O12 0.584438 0.750000 0.761006
O O13 0.320169 0.876010 0.794652
O O14 0.817576 0.870303 0.810437
O O15 0.500000 0.000000 0.564320
O O16 0.090418 0.750000 0.831782
#
# Coordination Sequence:
#
# PCOD9361631 Si02
#       7
#     8   4   4   8   8   8   8
#     4  11  24  43  68  95 133 172 214 279 331 386
#     4  10  22  38  64  88 124 176 216 258 323 390
#     4  10  22  40  58  90 128 168 220 268 311 386
#     4  11  22  39  66  95 135 178 220 267 336 400
#     4  10  22  42  63  96 131 171 215 282 325 386
#     4  10  23  42  65  99 137 172 219 275 331 393
#     4  10  23  43  69  93 130 170 222 271 332 386
#
# _framework density 22.795349000000002
#
# number of rings (size 3 to 8) (size 9 to 14) (size 15 to 20)
#    0.000    1.667    0.833    2.500    1.167   10.000 
#    0.000    0.000    1.833    0.000    0.000    0.000 
#    0.000    0.000    0.000    0.000    0.000    0.000 
#
# Total GULP energy -134046.723666 kJ/mol
# GULP energy per Si atom -5585.280153 kJ/mol
# Density = 2.274347 g / cm^3
# Si number density = 22.795349 Si / 1000 Ang^3
#
#
#
# Elastic Constant Matrix: (Units=GPa)
#
#
# Indices 1 2 3 4 5 6 
#
# 1 66.8608 11.1472 22.7072 0.0000 0.0000 0.0000
# 2 11.1472 124.4166 -1.2051 0.0000 0.0000 0.0000
# 3 22.7072 -1.2051 78.2029 0.0000 0.0000 0.0000
# 4 0.0000 0.0000 0.0000 -6.2059 0.0000 0.0000
# 5 0.0000 0.0000 0.0000 0.0000 0.3195 0.0000
# 6 0.0000 0.0000 0.0000 0.0000 0.0000 14.7192
#
#
#
# Elastic Compliance Matrix: (Units=1/GPa)
#
#
# Indices 1 2 3 4 5 6 
#
# 1 0.016890 -0.001561 -0.004928 0.000000 0.000000 0.000000
# 2 -0.001561 0.008183 0.000579 0.000000 0.000000 0.000000
# 3 -0.004928 0.000579 0.014227 0.000000 0.000000 0.000000
# 4 0.000000 0.000000 0.000000 -0.161138 0.000000 0.000000
# 5 0.000000 0.000000 0.000000 0.000000 3.129527 0.000000
# 6 0.000000 0.000000 0.000000 0.000000 0.000000 0.067938
#
#
# Mechanical properties :
#
#
# Convention : Reuss Voigt Hill
#
# Bulk Modulus (GPa) = 36.38947 37.19765 36.79356
# Shear Modulus (GPa) = 1.61467 17.55532 9.58499
#
# Velocity S-wave (km/s) = 0.84254 2.77813 2.05279
# Velocity P-wave (km/s) = 4.11639 5.16180 4.66845
#
# Compressibility (1/GPa) = 0.02748048
#
# Stress axis : x y z
#
# Youngs Moduli (GPa) = 59.20491 122.20473 70.28789
#
# Poissons Ratio (x) = 0.19077 0.34641
# Poissons Ratio (y) = 0.09242 -0.04072
# Poissons Ratio (z) = 0.29179 -0.07080
#
# Static dielectric constant tensor:
#      x y z
#    x 1.906850 0.000000 0.000000 
#    y 0.000000 2.029080 0.000000 
#    z 0.000000 0.000000 1.864080 
# 
# From -- ./inp_files/15264.got.cif
#   From: 2010.05.17/outbox.cif.g08.bks.cpg/sg39_8_cif.got.tgz:15264.got - 2010.06.03 18:22:40.
