data_PCOD9361176
_publ_section_title
;
Structure prediction by ZEFSAII (Michael W. Deem and Ramdas Pophale) SiO2 
 PCOD9361176
Probable space group: A B M 2
;
_chemical_formula_sum "Si O2"
_cell_formula_units_Z 48
_cell_length_a 15.407437
_cell_length_b 11.310992
_cell_length_c 13.673728
_cell_angle_alpha 90.000000
_cell_angle_beta 90.000000
_cell_angle_gamma 90.000000
_cell_volume 2382.967023
_symmetry_space_group_name_H-M "A B M 2"
_symmetry_group_IT_number 39
_symmetry_cell_setting 'orthorhombic'
loop_
_space_group_symop_operation_xyz
x,y,z
-x,-y,z
-x,1/2+y,z
x,1/2-y,z
x,1/2+y,1/2+z
-x,1/2-y,1/2+z
-x,y,1/2+z
x,-y,1/2+z
loop_
_atom_site_type_symbol
_atom_site_label
_atom_site_fract_x
_atom_site_fract_y
_atom_site_fract_z
Si Si1 0.136215 0.985475 0.855100
Si Si2 0.886085 0.750000 0.812728
Si Si3 0.292502 0.750000 0.387683
Si Si4 0.935774 0.250000 0.749243
Si Si5 0.398919 0.508961 0.370538
Si Si6 0.261027 0.614221 0.003716
Si Si7 0.779285 0.750000 0.100457
Si Si8 0.710068 0.515853 0.196310
O O1 0.086769 0.869427 0.812126
O O2 0.179294 0.957038 0.959571
O O3 0.097302 0.118251 0.859145
O O4 0.215269 0.994861 0.777798
O O5 0.781019 0.750000 0.802787
O O6 0.960661 0.750000 0.728877
O O7 0.354570 0.636795 0.387127
O O8 0.231356 0.750000 0.484050
O O9 0.873776 0.250000 0.653269
O O10 0.500000 0.500000 0.391659
O O11 0.344090 0.421316 0.438931
O O12 0.378266 0.480961 0.257234
O O13 0.241063 0.750000 0.989048
O O14 0.281356 0.583797 0.114963
O O15 0.728861 0.636208 0.139652
#
# Coordination Sequence:
#
# PCOD9361176 Si02
#       8
#     8   4   4   4   8   8   4   8
#     4  10  21  39  62  95 130 172 216 268 332 393
#     4  12  20  38  67  94 133 170 222 263 345 381
#     4  12  22  45  68  92 134 182 212 281 340 398
#     4  10  22  38  64  98 136 176 213 281 323 409
#     4  11  26  42  62  96 128 170 222 276 335 404
#     4  11  22  39  65  91 128 173 214 270 335 397
#     4  10  20  43  65  92 127 172 225 255 340 400
#     4  10  21  38  65  89 123 170 212 268 332 394
#
# _framework density 20.142956999999999
#
# number of rings (size 3 to 8) (size 9 to 14) (size 15 to 20)
#    0.000    1.333    5.833    0.500    7.000    0.667 
#    0.000    1.667    0.000    4.000    0.000    0.000 
#    0.000    0.000    0.000    0.000    0.000    0.000 
#
# Total GULP energy -133710.776576 kJ/mol
# GULP energy per Si atom -5571.282357 kJ/mol
# Density = 2.009711 g / cm^3
# Si number density = 20.142957 Si / 1000 Ang^3
#
#
#
# Elastic Constant Matrix: (Units=GPa)
#
#
# Indices 1 2 3 4 5 6 
#
# 1 111.2013 28.9056 22.6112 0.0000 0.0000 0.0000
# 2 28.9056 134.2774 0.4953 0.0000 0.0000 0.0000
# 3 22.6112 0.4953 66.3473 0.0000 0.0000 0.0000
# 4 0.0000 0.0000 0.0000 25.1673 0.0000 0.0000
# 5 0.0000 0.0000 0.0000 0.0000 13.7208 0.0000
# 6 0.0000 0.0000 0.0000 0.0000 0.0000 -16.1856
#
#
#
# Elastic Compliance Matrix: (Units=1/GPa)
#
#
# Indices 1 2 3 4 5 6 
#
# 1 0.010273 -0.002199 -0.003485 0.000000 0.000000 0.000000
# 2 -0.002199 0.007918 0.000690 0.000000 0.000000 0.000000
# 3 -0.003485 0.000690 0.016255 0.000000 0.000000 0.000000
# 4 0.000000 0.000000 0.000000 0.039734 0.000000 0.000000
# 5 0.000000 0.000000 0.000000 0.000000 0.072882 0.000000
# 6 0.000000 0.000000 0.000000 0.000000 0.000000 -0.061784
#
#
# Mechanical properties :
#
#
# Convention : Reuss Voigt Hill
#
# Bulk Modulus (GPa) = 40.88397 46.20557 43.54477
# Shear Modulus (GPa) = 48.34805 21.86144 35.10475
#
# Velocity S-wave (km/s) = 4.90455 3.29799 4.17919
# Velocity P-wave (km/s) = 7.23973 6.12298 6.70465
#
# Compressibility (1/GPa) = 0.02445946
#
# Stress axis : x y z
#
# Youngs Moduli (GPa) = 97.34531 126.29460 61.52112
#
# Poissons Ratio (x) = 0.27766 0.21437
# Poissons Ratio (y) = 0.21402 -0.04246
# Poissons Ratio (z) = 0.33920 -0.08716
#
# Static dielectric constant tensor:
#      x y z
#    x 1.725260 0.000000 0.000000 
#    y 0.000000 1.767490 0.000000 
#    z 0.000000 0.000000 1.711810 
# 
# From -- ./inp_files/9776.got.cif
#   From: 2010.05.17/outbox.cif.g08.bks.cpg/sg39_5_cif.got.tgz:9776.got - 2010.06.03 18:22:40.
