data_PCOD9361939
_publ_section_title
;
Structure prediction by ZEFSAII (Michael W. Deem and Ramdas Pophale) SiO2 
 PCOD9361939
Probable space group: A B M 2
;
_chemical_formula_sum "Si O2"
_cell_formula_units_Z 48
_cell_length_a 11.080613
_cell_length_b 24.617700
_cell_length_c 8.248894
_cell_angle_alpha 90.000000
_cell_angle_beta 90.000000
_cell_angle_gamma 90.000000
_cell_volume 2250.126761
_symmetry_space_group_name_H-M "A B M 2"
_symmetry_group_IT_number 39
_symmetry_cell_setting 'orthorhombic'
loop_
_space_group_symop_operation_xyz
x,y,z
-x,-y,z
-x,1/2+y,z
x,1/2-y,z
x,1/2+y,1/2+z
-x,1/2-y,1/2+z
-x,y,1/2+z
x,-y,1/2+z
loop_
_atom_site_type_symbol
_atom_site_label
_atom_site_fract_x
_atom_site_fract_y
_atom_site_fract_z
Si Si1 0.141167 0.511707 0.431050
Si Si2 0.131083 0.688226 0.680339
Si Si3 0.690263 0.404095 0.597885
Si Si4 0.246318 0.574636 0.124399
Si Si5 0.861604 0.812631 0.569480
Si Si6 0.478541 0.562144 0.311156
O O1 0.210818 0.548752 0.564379
O O2 0.168985 0.544857 0.266815
O O3 0.201568 0.452904 0.458520
O O4 0.000000 0.500000 0.450970
O O5 0.147524 0.750000 0.624347
O O6 0.232702 0.650039 0.608165
O O7 0.996143 0.672171 0.628295
O O8 0.138792 0.686732 0.874699
O O9 0.598391 0.406909 0.446416
O O10 0.602514 0.412213 0.750710
O O11 0.224260 0.638950 0.128276
O O12 0.384555 0.560585 0.160467
O O13 0.836173 0.750000 0.621953
O O14 0.500000 0.500000 0.360862
#
# Coordination Sequence:
#
# PCOD9361939 Si02
#       6
#     8   8   8   8   8   8
#     4  11  24  40  61 101 138 176 222 298 353 414
#     4  10  24  46  71 100 136 180 235 296 359 425
#     4  11  25  42  68  97 135 187 229 286 342 428
#     4  11  25  39  66  98 137 183 234 281 348 420
#     4  10  24  45  72 100 138 185 231 292 361 424
#     4  11  24  43  63  97 137 187 230 276 348 416
#
# _framework density 21.332131
#
# number of rings (size 3 to 8) (size 9 to 14) (size 15 to 20)
#    0.000    1.333    1.667    2.000   14.000    0.000 
#    0.000    1.667    0.000    0.000    0.000    0.000 
#    0.000    0.000    0.000    0.000    0.000    0.000 
#
# Total GULP energy -134204.740516 kJ/mol
# GULP energy per Si atom -5591.864188 kJ/mol
# Density = 2.128358 g / cm^3
# Si number density = 21.332131 Si / 1000 Ang^3
#
#
#
# Elastic Constant Matrix: (Units=GPa)
#
#
# Indices 1 2 3 4 5 6 
#
# 1 130.9334 48.3536 26.8899 0.0000 0.0000 0.0000
# 2 48.3536 91.9531 25.0911 0.0000 0.0000 0.0000
# 3 26.8899 25.0911 58.2004 0.0000 0.0000 0.0000
# 4 0.0000 0.0000 0.0000 29.7850 0.0000 0.0000
# 5 0.0000 0.0000 0.0000 0.0000 32.5953 0.0000
# 6 0.0000 0.0000 0.0000 0.0000 0.0000 35.4351
#
#
#
# Elastic Compliance Matrix: (Units=1/GPa)
#
#
# Indices 1 2 3 4 5 6 
#
# 1 0.009818 -0.004448 -0.002618 0.000000 0.000000 0.000000
# 2 -0.004448 0.014340 -0.004127 0.000000 0.000000 0.000000
# 3 -0.002618 -0.004127 0.020171 0.000000 0.000000 0.000000
# 4 0.000000 0.000000 0.000000 0.033574 0.000000 0.000000
# 5 0.000000 0.000000 0.000000 0.000000 0.030679 0.000000
# 6 0.000000 0.000000 0.000000 0.000000 0.000000 0.028221
#
#
# Mechanical properties :
#
#
# Convention : Reuss Voigt Hill
#
# Bulk Modulus (GPa) = 45.57527 53.52847 49.55187
# Shear Modulus (GPa) = 30.02913 31.61322 30.82117
#
# Velocity S-wave (km/s) = 3.75600 3.85379 3.80521
# Velocity P-wave (km/s) = 6.34200 6.70445 6.52574
#
# Compressibility (1/GPa) = 0.02194172
#
# Stress axis : x y z
#
# Youngs Moduli (GPa) = 101.85403 69.73286 49.57595
#
# Poissons Ratio (x) = 0.31019 0.12981
# Poissons Ratio (y) = 0.45308 0.20461
# Poissons Ratio (z) = 0.26669 0.28780
#
# Static dielectric constant tensor:
#      x y z
#    x 1.742470 0.000000 0.000000 
#    y 0.000000 1.765990 0.000000 
#    z 0.000000 0.000000 1.884090 
# 
# From -- ./inp_files/2723.got.cif
#   From: 2010.05.17/outbox.cif.g08.bks.cpg/sg39_2_cif.got.tgz:2723.got - 2010.06.03 18:22:40.
