data_PCOD9361485
_publ_section_title
;
Structure prediction by ZEFSAII (Michael W. Deem and Ramdas Pophale) SiO2 
 PCOD9361485
Probable space group: A B M 2
;
_chemical_formula_sum "Si O2"
_cell_formula_units_Z 64
_cell_length_a 9.008565
_cell_length_b 28.920775
_cell_length_c 13.119311
_cell_angle_alpha 90.000000
_cell_angle_beta 90.000000
_cell_angle_gamma 90.000000
_cell_volume 3418.035512
_symmetry_space_group_name_H-M "A B M 2"
_symmetry_group_IT_number 39
_symmetry_cell_setting 'orthorhombic'
loop_
_space_group_symop_operation_xyz
x,y,z
-x,-y,z
-x,1/2+y,z
x,1/2-y,z
x,1/2+y,1/2+z
-x,1/2-y,1/2+z
-x,y,1/2+z
x,-y,1/2+z
loop_
_atom_site_type_symbol
_atom_site_label
_atom_site_fract_x
_atom_site_fract_y
_atom_site_fract_z
Si Si1 0.982148 0.376374 0.615880
Si Si2 0.225707 0.804140 0.071527
Si Si3 0.350379 0.477680 0.126702
Si Si4 0.811445 0.076875 0.794622
Si Si5 0.410172 0.649909 0.887385
Si Si6 0.125455 0.538204 0.012657
Si Si7 0.337739 0.122469 0.035350
Si Si8 0.525123 0.197918 0.685242
O O1 0.915747 0.389540 0.726712
O O2 0.841054 0.376238 0.538672
O O3 0.076676 0.329927 0.605844
O O4 0.090068 0.417846 0.582429
O O5 0.201904 0.750000 0.048696
O O6 0.351264 0.807375 0.159157
O O7 0.301704 0.830040 0.975032
O O8 0.500000 0.500000 0.167694
O O9 0.240215 0.463423 0.217765
O O10 0.275934 0.513457 0.048297
O O11 0.380665 0.428993 0.071086
O O12 0.671662 0.107076 0.833058
O O13 0.878157 0.055148 0.896379
O O14 0.440522 0.688174 0.802217
O O15 0.566457 0.634647 0.936448
O O16 0.000000 0.500000 0.028845
O O17 0.389165 0.160166 0.118441
O O18 0.568079 0.250000 0.655518
#
# Coordination Sequence:
#
# PCOD9361485 Si02
#       8
#     8   8   8   8   8   8   8   8
#     4  11  23  44  63  95 129 166 210 265 319 383
#     4  10  23  42  66  95 129 168 210 267 329 376
#     4  11  24  42  63  95 124 164 215 258 308 370
#     4  11  24  40  64  93 123 168 214 251 320 374
#     4  11  20  41  68  90 126 167 212 266 313 381
#     4  12  24  42  63  89 134 166 203 259 313 380
#     4  10  22  40  64  93 124 161 213 261 317 372
#     4  10  21  40  64  91 125 167 210 260 318 381
#
# _framework density 18.724205999999999
#
# number of rings (size 3 to 8) (size 9 to 14) (size 15 to 20)
#    0.000    1.250    6.250    1.125    3.500    3.500 
#    0.000    0.000    0.000    0.000    0.000    0.000 
#    0.000    0.000    0.000    0.000    0.000    0.000 
#
# Total GULP energy -178584.497176 kJ/mol
# GULP energy per Si atom -5580.765537 kJ/mol
# Density = 1.868159 g / cm^3
# Si number density = 18.724206 Si / 1000 Ang^3
#
#
#
# Elastic Constant Matrix: (Units=GPa)
#
#
# Indices 1 2 3 4 5 6 
#
# 1 50.3662 41.5936 18.6675 0.0000 0.0000 0.0000
# 2 41.5936 91.9193 14.7018 0.0000 0.0000 0.0000
# 3 18.6675 14.7018 79.9302 0.0000 0.0000 0.0000
# 4 0.0000 0.0000 0.0000 21.4884 0.0000 0.0000
# 5 0.0000 0.0000 0.0000 0.0000 23.4112 0.0000
# 6 0.0000 0.0000 0.0000 0.0000 0.0000 37.0189
#
#
#
# Elastic Compliance Matrix: (Units=1/GPa)
#
#
# Indices 1 2 3 4 5 6 
#
# 1 0.033688 -0.014409 -0.005217 0.000000 0.000000 0.000000
# 2 -0.014409 0.017372 0.000170 0.000000 0.000000 0.000000
# 3 -0.005217 0.000170 0.013698 0.000000 0.000000 0.000000
# 4 0.000000 0.000000 0.000000 0.046537 0.000000 0.000000
# 5 0.000000 0.000000 0.000000 0.000000 0.042715 0.000000
# 6 0.000000 0.000000 0.000000 0.000000 0.000000 0.027013
#
#
# Mechanical properties :
#
#
# Convention : Reuss Voigt Hill
#
# Bulk Modulus (GPa) = 38.69265 41.34906 40.02085
# Shear Modulus (GPa) = 21.87695 26.20056 24.03875
#
# Velocity S-wave (km/s) = 3.42186 3.74476 3.58695
# Velocity P-wave (km/s) = 6.02674 6.38974 6.21089
#
# Compressibility (1/GPa) = 0.02584470
#
# Stress axis : x y z
#
# Youngs Moduli (GPa) = 29.68430 57.56343 73.00248
#
# Poissons Ratio (x) = 0.82945 0.38088
# Poissons Ratio (y) = 0.42773 -0.01241
# Poissons Ratio (z) = 0.15487 -0.00978
#
# Static dielectric constant tensor:
#      x y z
#    x 1.657460 0.000000 0.000000 
#    y 0.000000 1.647750 0.000000 
#    z 0.000000 0.000000 1.646150 
# 
# From -- ./inp_files/5427.got.cif
#   From: 2010.05.17/outbox.cif.g08.bks.cpg/sg39_3_cif.got.tgz:5427.got - 2010.06.03 18:22:40.
