data_PCOD9361611
_publ_section_title
;
Structure prediction by ZEFSAII (Michael W. Deem and Ramdas Pophale) SiO2 
 PCOD9361611
Probable space group: A B M 2
;
_chemical_formula_sum "Si O2"
_cell_formula_units_Z 64
_cell_length_a 15.946680
_cell_length_b 17.163733
_cell_length_c 11.525501
_cell_angle_alpha 90.000000
_cell_angle_beta 90.000000
_cell_angle_gamma 90.000000
_cell_volume 3154.582154
_symmetry_space_group_name_H-M "A B M 2"
_symmetry_group_IT_number 39
_symmetry_cell_setting 'orthorhombic'
loop_
_space_group_symop_operation_xyz
x,y,z
-x,-y,z
-x,1/2+y,z
x,1/2-y,z
x,1/2+y,1/2+z
-x,1/2-y,1/2+z
-x,y,1/2+z
x,-y,1/2+z
loop_
_atom_site_type_symbol
_atom_site_label
_atom_site_fract_x
_atom_site_fract_y
_atom_site_fract_z
Si Si1 0.458789 0.581272 0.996360
Si Si2 0.034360 0.589434 0.467261
Si Si3 0.367531 0.660454 0.798446
Si Si4 0.775301 0.540986 0.973847
Si Si5 0.370690 0.163871 0.950911
Si Si6 0.223430 0.949610 0.729336
Si Si7 0.030928 0.590576 0.722826
Si Si8 0.556717 0.665300 0.700755
O O1 0.500000 0.500000 0.963035
O O2 0.386479 0.611264 0.913920
O O3 0.537131 0.640599 0.995187
O O4 0.425796 0.588699 0.126178
O O5 0.134863 0.583652 0.466190
O O6 0.008108 0.622955 0.594081
O O7 0.000000 0.500000 0.466943
O O8 0.004253 0.624665 0.344143
O O9 0.344128 0.750000 0.820543
O O10 0.297034 0.614555 0.728926
O O11 0.459953 0.661470 0.741199
O O12 0.774092 0.504270 0.105136
O O13 0.698391 0.600445 0.975657
O O14 0.768913 0.493805 0.852911
O O15 0.348574 0.250000 0.994186
O O16 0.385541 0.165433 0.813152
O O17 0.131425 0.911086 0.731753
O O18 0.000000 0.500000 0.720685
O O19 0.570343 0.750000 0.641596
#
# Coordination Sequence:
#
# PCOD9361611 Si02
#       8
#     8   8   8   8   8   8   8   8
#     4  11  21  35  58  84 113 150 195 245 293 337
#     4   9  16  30  52  80 111 143 178 226 288 346
#     4  10  22  38  55  79 114 155 196 237 284 342
#     4  11  22  35  57  88 117 146 189 243 292 343
#     4  10  22  38  55  79 114 156 198 237 284 343
#     4  11  22  35  56  88 116 146 190 241 293 342
#     4   9  16  30  52  79 110 142 178 227 288 346
#     4   9  19  37  57  75 107 158 200 234 286 345
#
# _framework density 20.287946999999999
#
# number of rings (size 3 to 8) (size 9 to 14) (size 15 to 20)
#    0.000    2.000    2.500    3.375    0.000    6.500 
#    0.000    0.000    0.000    0.750    0.000    0.000 
#    0.000    0.000    0.000    0.000    0.000    0.000 
#
# Total GULP energy -178218.704906 kJ/mol
# GULP energy per Si atom -5569.334528 kJ/mol
# Density = 2.024177 g / cm^3
# Si number density = 20.287947 Si / 1000 Ang^3
#
#
#
# Elastic Constant Matrix: (Units=GPa)
#
#
# Indices 1 2 3 4 5 6 
#
# 1 82.2280 -2.9592 28.0821 0.0000 0.0000 0.0000
# 2 -2.9592 22.0706 36.8085 0.0000 0.0000 0.0000
# 3 28.0821 36.8085 179.7346 0.0000 0.0000 0.0000
# 4 0.0000 0.0000 0.0000 15.7203 0.0000 0.0000
# 5 0.0000 0.0000 0.0000 0.0000 200.0806 0.0000
# 6 0.0000 0.0000 0.0000 0.0000 0.0000 1.1811
#
#
#
# Elastic Compliance Matrix: (Units=1/GPa)
#
#
# Indices 1 2 3 4 5 6 
#
# 1 0.013770 0.008254 -0.003842 0.000000 0.000000 0.000000
# 2 0.008254 0.073758 -0.016395 0.000000 0.000000 0.000000
# 3 -0.003842 -0.016395 0.009522 0.000000 0.000000 0.000000
# 4 0.000000 0.000000 0.000000 0.063612 0.000000 0.000000
# 5 0.000000 0.000000 0.000000 0.000000 0.004998 0.000000
# 6 0.000000 0.000000 0.000000 0.000000 0.000000 0.846642
#
#
# Mechanical properties :
#
#
# Convention : Reuss Voigt Hill
#
# Bulk Modulus (GPa) = 13.68283 45.32178 29.50231
# Shear Modulus (GPa) = 4.71418 58.20320 31.45869
#
# Velocity S-wave (km/s) = 1.52600 5.36198 3.94205
# Velocity P-wave (km/s) = 3.14068 7.79245 5.94079
#
# Compressibility (1/GPa) = 0.07308427
#
# Stress axis : x y z
#
# Youngs Moduli (GPa) = 72.61975 13.55776 105.02482
#
# Poissons Ratio (x) = -0.11190 0.40348
# Poissons Ratio (y) = -0.59937 1.72186
# Poissons Ratio (z) = 0.27899 0.22228
#
# Static dielectric constant tensor:
#      x y z
#    x 1.664680 0.000000 0.000000 
#    y 0.000000 1.727100 0.000000 
#    z 0.000000 0.000000 1.863260 
# 
# From -- ./inp_files/6637.got.cif
#   From: 2010.05.17/outbox.cif.g08.bks.cpg/sg39_4_cif.got.tgz:6637.got - 2010.06.03 18:22:40.
