data_PCOD9361847
_publ_section_title
;
Structure prediction by ZEFSAII (Michael W. Deem and Ramdas Pophale) SiO2 
 PCOD9361847
Probable space group: A B M 2
;
_chemical_formula_sum "Si O2"
_cell_formula_units_Z 64
_cell_length_a 21.184772
_cell_length_b 15.423431
_cell_length_c 9.349499
_cell_angle_alpha 90.000000
_cell_angle_beta 90.000000
_cell_angle_gamma 90.000000
_cell_volume 3054.872779
_symmetry_space_group_name_H-M "A B M 2"
_symmetry_group_IT_number 39
_symmetry_cell_setting 'orthorhombic'
loop_
_space_group_symop_operation_xyz
x,y,z
-x,-y,z
-x,1/2+y,z
x,1/2-y,z
x,1/2+y,1/2+z
-x,1/2-y,1/2+z
-x,y,1/2+z
x,-y,1/2+z
loop_
_atom_site_type_symbol
_atom_site_label
_atom_site_fract_x
_atom_site_fract_y
_atom_site_fract_z
Si Si1 0.473062 0.848073 0.614550
Si Si2 0.921757 0.849374 0.519126
Si Si3 0.638042 0.098811 0.815770
Si Si4 0.845084 0.488484 0.422405
Si Si5 0.758654 0.477672 0.663099
Si Si6 0.950141 0.150458 0.351866
Si Si7 0.314556 0.655455 0.121733
Si Si8 0.577569 0.589298 0.812013
O O1 0.498018 0.750000 0.613926
O O2 0.411015 0.852608 0.713866
O O3 0.525576 0.908316 0.686943
O O4 0.454144 0.875179 0.455341
O O5 0.899094 0.750000 0.497088
O O6 0.870538 0.923606 0.494654
O O7 0.947687 0.855231 0.680446
O O8 0.980070 0.865816 0.412133
O O9 0.703128 0.079893 0.730973
O O10 0.605972 0.005110 0.842888
O O11 0.651983 0.143079 0.967264
O O12 0.786831 0.448910 0.511967
O O13 0.816918 0.515884 0.270798
O O14 0.900755 0.419038 0.411096
O O15 0.731003 0.573798 0.639324
O O16 0.933471 0.250000 0.392071
O O17 0.283982 0.750000 0.126879
O O18 0.365534 0.646083 0.248390
#
# Coordination Sequence:
#
# PCOD9361847 Si02
#       8
#     8   8   8   8   8   8   8   8
#     4  12  24  40  63  93 123 156 204 257 313 374
#     4  10  23  42  66  97 131 169 214 266 325 385
#     4  11  24  44  64  89 123 164 208 260 316 377
#     4  12  23  43  67  93 130 175 216 266 317 385
#     4  11  25  42  63  92 127 168 220 257 311 385
#     4  10  23  42  66  97 132 169 215 268 326 385
#     4  11  23  43  68  92 125 167 212 269 324 376
#     4  11  24  42  64  91 125 162 206 257 319 385
#
# _framework density 20.950135
#
# number of rings (size 3 to 8) (size 9 to 14) (size 15 to 20)
#    0.000    1.000    2.500    4.500    3.500    3.000 
#    0.000    1.250    0.000    0.000    0.000    0.000 
#    0.000    0.000    0.000    0.000    0.000    0.000 
#
# Total GULP energy -179008.564414 kJ/mol
# GULP energy per Si atom -5594.017638 kJ/mol
# Density = 2.090245 g / cm^3
# Si number density = 20.950135 Si / 1000 Ang^3
#
#
#
# Elastic Constant Matrix: (Units=GPa)
#
#
# Indices 1 2 3 4 5 6 
#
# 1 56.0994 12.7326 -1.8854 0.0000 0.0000 0.0000
# 2 12.7326 43.8157 11.1960 0.0000 0.0000 0.0000
# 3 -1.8854 11.1960 55.7798 0.0000 0.0000 0.0000
# 4 0.0000 0.0000 0.0000 -31.7701 0.0000 0.0000
# 5 0.0000 0.0000 0.0000 0.0000 41.8404 0.0000
# 6 0.0000 0.0000 0.0000 0.0000 0.0000 7.1257
#
#
#
# Elastic Compliance Matrix: (Units=1/GPa)
#
#
# Indices 1 2 3 4 5 6 
#
# 1 0.019268 -0.006077 0.001871 0.000000 0.000000 0.000000
# 2 -0.006077 0.025974 -0.005419 0.000000 0.000000 0.000000
# 3 0.001871 -0.005419 0.019079 0.000000 0.000000 0.000000
# 4 0.000000 0.000000 0.000000 -0.031476 0.000000 0.000000
# 5 0.000000 0.000000 0.000000 0.000000 0.023900 0.000000
# 6 0.000000 0.000000 0.000000 0.000000 0.000000 0.140337
#
#
# Mechanical properties :
#
#
# Convention : Reuss Voigt Hill
#
# Bulk Modulus (GPa) = 22.18773 22.19791 22.19282
# Shear Modulus (GPa) = 21.61186 12.34930 16.98058
#
# Velocity S-wave (km/s) = 3.21532 2.43052 2.85006
# Velocity P-wave (km/s) = 4.93944 4.30060 4.63105
#
# Compressibility (1/GPa) = 0.04506996
#
# Stress axis : x y z
#
# Youngs Moduli (GPa) = 51.90029 38.50075 52.41493
#
# Poissons Ratio (x) = 0.23398 -0.09807
# Poissons Ratio (y) = 0.31541 0.28402
# Poissons Ratio (z) = -0.09711 0.20863
#
# Static dielectric constant tensor:
#      x y z
#    x 1.740540 0.000000 0.000000 
#    y 0.000000 1.763410 0.000000 
#    z 0.000000 0.000000 1.730210 
# 
# From -- ./inp_files/4094.got.cif
#   From: 2010.05.17/outbox.cif.g08.bks.cpg/sg39_3_cif.got.tgz:4094.got - 2010.06.03 18:22:40.
