data_PCOD9361888
_publ_section_title
;
Structure prediction by ZEFSAII (Michael W. Deem and Ramdas Pophale) SiO2 
 PCOD9361888
Probable space group: A B M 2
;
_chemical_formula_sum "Si O2"
_cell_formula_units_Z 56
_cell_length_a 11.235751
_cell_length_b 14.622478
_cell_length_c 14.637625
_cell_angle_alpha 90.000000
_cell_angle_beta 90.000000
_cell_angle_gamma 90.000000
_cell_volume 2404.881600
_symmetry_space_group_name_H-M "A B M 2"
_symmetry_group_IT_number 39
_symmetry_cell_setting 'orthorhombic'
loop_
_space_group_symop_operation_xyz
x,y,z
-x,-y,z
-x,1/2+y,z
x,1/2-y,z
x,1/2+y,1/2+z
-x,1/2-y,1/2+z
-x,y,1/2+z
x,-y,1/2+z
loop_
_atom_site_type_symbol
_atom_site_label
_atom_site_fract_x
_atom_site_fract_y
_atom_site_fract_z
Si Si1 0.331555 0.415485 0.606060
Si Si2 0.587420 0.876407 0.106449
Si Si3 0.081419 0.357503 0.266574
Si Si4 0.697116 0.152708 0.414529
Si Si5 0.824940 0.443385 0.266951
Si Si6 0.543193 0.396020 0.811239
Si Si7 0.768666 0.856105 0.434870
O O1 0.449418 0.359092 0.580943
O O2 0.379471 0.517496 0.605984
O O3 0.276540 0.398380 0.704376
O O4 0.230211 0.404454 0.531418
O O5 0.585138 0.852452 0.214676
O O6 0.671056 0.845480 0.023102
O O7 0.105174 0.250000 0.237056
O O8 0.155726 0.449917 0.236424
O O9 0.114172 0.360275 0.373778
O O10 0.946498 0.388219 0.251913
O O11 0.753712 0.250000 0.389344
O O12 0.779358 0.073591 0.370628
O O13 0.567873 0.146005 0.365793
O O14 0.500000 0.500000 0.793192
O O15 0.656935 0.393056 0.876752
O O16 0.744370 0.750000 0.451938
#
# Coordination Sequence:
#
# PCOD9361888 Si02
#       7
#     8   8   8   8   8   8   8
#     4  11  21  40  65  98 129 182 228 274 342 411
#     4  11  22  38  62  97 135 178 228 273 336 417
#     4  10  23  45  72  99 130 177 236 289 345 407
#     4  12  25  39  63 102 142 181 226 284 345 411
#     4  11  23  46  73 100 138 183 228 286 348 407
#     4  12  21  39  62  90 131 183 229 281 345 408
#     4  11  24  40  63  95 134 178 227 283 343 405
#
# _framework density 23.285969000000001
#
# number of rings (size 3 to 8) (size 9 to 14) (size 15 to 20)
#    0.000    0.857    4.286    4.286    0.000    2.286 
#    0.000    7.857    0.000    2.571    0.000    0.000 
#    0.000    0.000    0.000    0.000    0.000    0.000 
#
# Total GULP energy -156118.230963 kJ/mol
# GULP energy per Si atom -5575.651106 kJ/mol
# Density = 2.323297 g / cm^3
# Si number density = 23.285969 Si / 1000 Ang^3
#
#
#
# Elastic Constant Matrix: (Units=GPa)
#
#
# Indices 1 2 3 4 5 6 
#
# 1 59.4961 14.1773 -5.7984 0.0000 0.0000 0.0000
# 2 14.1773 116.9966 14.4064 0.0000 0.0000 0.0000
# 3 -5.7984 14.4064 95.0974 0.0000 0.0000 0.0000
# 4 0.0000 0.0000 0.0000 1360.4319 0.0000 0.0000
# 5 0.0000 0.0000 0.0000 0.0000 21.9453 0.0000
# 6 0.0000 0.0000 0.0000 0.0000 0.0000 8.7070
#
#
#
# Elastic Compliance Matrix: (Units=1/GPa)
#
#
# Indices 1 2 3 4 5 6 
#
# 1 0.017492 -0.002294 0.001414 0.000000 0.000000 0.000000
# 2 -0.002294 0.009011 -0.001505 0.000000 0.000000 0.000000
# 3 0.001414 -0.001505 0.010830 0.000000 0.000000 0.000000
# 4 0.000000 0.000000 0.000000 0.000735 0.000000 0.000000
# 5 0.000000 0.000000 0.000000 0.000000 0.045568 0.000000
# 6 0.000000 0.000000 0.000000 0.000000 0.000000 0.114851
#
#
# Mechanical properties :
#
#
# Convention : Reuss Voigt Hill
#
# Bulk Modulus (GPa) = 30.70947 35.24009 32.97478
# Shear Modulus (GPa) = 23.35252 294.80381 159.07816
#
# Velocity S-wave (km/s) = 3.17023 11.26394 8.27426
# Velocity P-wave (km/s) = 5.15917 13.57700 10.27015
#
# Compressibility (1/GPa) = 0.03256325
#
# Stress axis : x y z
#
# Youngs Moduli (GPa) = 57.16826 110.98142 92.33847
#
# Poissons Ratio (x) = 0.25457 -0.13057
# Poissons Ratio (y) = 0.13113 0.13896
# Poissons Ratio (z) = -0.08084 0.16701
#
# Static dielectric constant tensor:
#      x y z
#    x 1.857920 0.000000 0.000000 
#    y 0.000000 1.221800 0.000000 
#    z 0.000000 0.000000 1.881410 
# 
# From -- ./inp_files/9269.got.cif
#   From: 2010.05.17/outbox.cif.g08.bks.cpg/sg39_5_cif.got.tgz:9269.got - 2010.06.03 18:22:40.
