data_PCOD9361057
_publ_section_title
;
Structure prediction by ZEFSAII (Michael W. Deem and Ramdas Pophale) SiO2 
 PCOD9361057
Probable space group: A B M 2
;
_chemical_formula_sum "Si O2"
_cell_formula_units_Z 64
_cell_length_a 11.748752
_cell_length_b 17.337371
_cell_length_c 15.962043
_cell_angle_alpha 90.000000
_cell_angle_beta 90.000000
_cell_angle_gamma 90.000000
_cell_volume 3251.348000
_symmetry_space_group_name_H-M "A B M 2"
_symmetry_group_IT_number 39
_symmetry_cell_setting 'orthorhombic'
loop_
_space_group_symop_operation_xyz
x,y,z
-x,-y,z
-x,1/2+y,z
x,1/2-y,z
x,1/2+y,1/2+z
-x,1/2-y,1/2+z
-x,y,1/2+z
x,-y,1/2+z
loop_
_atom_site_type_symbol
_atom_site_label
_atom_site_fract_x
_atom_site_fract_y
_atom_site_fract_z
Si Si1 0.009424 0.340730 0.906550
Si Si2 0.613142 0.544501 0.737864
Si Si3 0.622945 0.159527 0.092895
Si Si4 0.231859 0.940236 0.619610
Si Si5 0.602679 0.336507 0.511802
Si Si6 0.262393 0.336750 0.850728
Si Si7 0.871501 0.594830 0.564220
Si Si8 0.976686 0.908112 0.222259
O O1 0.983063 0.250000 0.914847
O O2 0.146581 0.348785 0.903288
O O3 0.977408 0.370167 0.813441
O O4 0.947347 0.383201 0.983811
O O5 0.500000 0.500000 0.771236
O O6 0.579512 0.612292 0.673345
O O7 0.684760 0.484948 0.682470
O O8 0.704950 0.589568 0.795348
O O9 0.625573 0.250000 0.110391
O O10 0.527974 0.141683 0.023787
O O11 0.747500 0.133710 0.063958
O O12 0.310707 0.891970 0.558732
O O13 0.142901 0.894216 0.676306
O O14 0.155463 0.003595 0.570587
O O15 0.617627 0.250000 0.546835
O O16 0.634828 0.333647 0.415536
O O17 0.251545 0.250000 0.810753
O O18 0.930560 0.618003 0.652800
O O19 0.000000 0.000000 0.233434
#
# Coordination Sequence:
#
# PCOD9361057 Si02
#       8
#     8   8   8   8   8   8   8   8
#     4  11  23  40  64  95 127 163 210 261 316 383
#     4  11  21  39  60  91 121 156 209 253 309 374
#     4  10  20  38  63  87 120 158 203 257 311 374
#     4  10  21  39  62  89 124 162 205 257 317 373
#     4  10  21  39  61  85 117 160 206 254 311 373
#     4  10  22  40  62  87 121 162 204 251 308 375
#     4  10  22  38  63  92 127 168 210 262 318 385
#     4  10  22  39  60  89 125 163 205 255 314 375
#
# _framework density 19.684142999999999
#
# number of rings (size 3 to 8) (size 9 to 14) (size 15 to 20)
#    0.000    1.750    1.250    3.750    0.000    6.000 
#    6.750    0.000    0.000    0.000    0.000    0.000 
#    0.000    0.000    0.000    0.000    0.000    0.000 
#
# Total GULP energy -178450.481397 kJ/mol
# GULP energy per Si atom -5576.577544 kJ/mol
# Density = 1.963934 g / cm^3
# Si number density = 19.684143 Si / 1000 Ang^3
#
#
#
# Elastic Constant Matrix: (Units=GPa)
#
#
# Indices 1 2 3 4 5 6 
#
# 1 62.1871 33.1994 29.8470 0.0000 0.0000 0.0000
# 2 33.1994 55.7104 34.8028 0.0000 0.0000 0.0000
# 3 29.8470 34.8028 82.0704 0.0000 0.0000 0.0000
# 4 0.0000 0.0000 0.0000 -51.3951 0.0000 0.0000
# 5 0.0000 0.0000 0.0000 0.0000 109.8032 0.0000
# 6 0.0000 0.0000 0.0000 0.0000 0.0000 28.2476
#
#
#
# Elastic Compliance Matrix: (Units=1/GPa)
#
#
# Indices 1 2 3 4 5 6 
#
# 1 0.024374 -0.012226 -0.003679 0.000000 0.000000 0.000000
# 2 -0.012226 0.030552 -0.008509 0.000000 0.000000 0.000000
# 3 -0.003679 -0.008509 0.017131 0.000000 0.000000 0.000000
# 4 0.000000 0.000000 0.000000 -0.019457 0.000000 0.000000
# 5 0.000000 0.000000 0.000000 0.000000 0.009107 0.000000
# 6 0.000000 0.000000 0.000000 0.000000 0.000000 0.035401
#
#
# Mechanical properties :
#
#
# Convention : Reuss Voigt Hill
#
# Bulk Modulus (GPa) = 43.05432 43.96290 43.50861
# Shear Modulus (GPa) = 32.53494 24.13905 28.33699
#
# Velocity S-wave (km/s) = 4.06994 3.50568 3.79830
# Velocity P-wave (km/s) = 6.63370 6.22648 6.43331
#
# Compressibility (1/GPa) = 0.02322648
#
# Stress axis : x y z
#
# Youngs Moduli (GPa) = 41.02783 32.73107 58.37282
#
# Poissons Ratio (x) = 0.40019 0.21477
# Poissons Ratio (y) = 0.50163 0.49672
# Poissons Ratio (z) = 0.15096 0.27852
#
# Static dielectric constant tensor:
#      x y z
#    x 1.708570 0.000000 0.000000 
#    y 0.000000 1.739630 0.000000 
#    z 0.000000 0.000000 1.697720 
# 
# From -- ./inp_files/9425.got.cif
#   From: 2010.05.17/outbox.cif.g08.bks.cpg/sg39_5_cif.got.tgz:9425.got - 2010.06.03 18:22:40.
