data_PCOD9361933
_publ_section_title
;
Structure prediction by ZEFSAII (Michael W. Deem and Ramdas Pophale) SiO2 
 PCOD9361933
Probable space group: A B M 2
;
_chemical_formula_sum "Si O2"
_cell_formula_units_Z 48
_cell_length_a 5.038136
_cell_length_b 19.933047
_cell_length_c 20.253529
_cell_angle_alpha 90.000000
_cell_angle_beta 90.000000
_cell_angle_gamma 90.000000
_cell_volume 2033.968785
_symmetry_space_group_name_H-M "A B M 2"
_symmetry_group_IT_number 39
_symmetry_cell_setting 'orthorhombic'
loop_
_space_group_symop_operation_xyz
x,y,z
-x,-y,z
-x,1/2+y,z
x,1/2-y,z
x,1/2+y,1/2+z
-x,1/2-y,1/2+z
-x,y,1/2+z
x,-y,1/2+z
loop_
_atom_site_type_symbol
_atom_site_label
_atom_site_fract_x
_atom_site_fract_y
_atom_site_fract_z
Si Si1 0.966909 0.672503 0.643830
Si Si2 0.802338 0.940684 0.963296
Si Si3 0.794857 0.059430 0.718896
Si Si4 0.046626 0.171911 0.389846
Si Si5 0.442116 0.395980 0.090070
Si Si6 0.428828 0.602313 0.335426
O O1 0.903950 0.750000 0.655978
O O2 0.725089 0.632210 0.610856
O O3 0.047759 0.629605 0.708664
O O4 0.228794 0.664380 0.598563
O O5 0.688250 0.950100 0.889244
O O6 0.959645 0.870925 0.953531
O O7 0.582517 0.927430 0.018195
O O8 0.000000 0.000000 0.981206
O O9 0.677097 0.052921 0.645032
O O10 0.552537 0.071660 0.769182
O O11 0.000000 0.000000 0.736297
O O12 0.065874 0.250000 0.401966
O O13 0.814524 0.154808 0.336797
O O14 0.322469 0.140934 0.366713
#
# Coordination Sequence:
#
# PCOD9361933 Si02
#       6
#     8   8   8   8   8   8
#     4  10  24  44  72 112 152 199 257 315 388 462
#     4  10  25  49  75 113 154 204 262 325 389 467
#     4  10  25  49  74 108 152 203 257 322 394 473
#     4  10  24  46  71 106 149 201 258 322 391 459
#     4  10  24  45  73 109 146 203 249 318 386 468
#     4  10  25  45  70 108 142 204 258 322 391 470
#
# _framework density 23.599183
#
# number of rings (size 3 to 8) (size 9 to 14) (size 15 to 20)
#    2.000    0.000    0.000    1.500    4.667    4.667 
#    3.000    0.000    0.000    0.000    0.000    0.000 
#    0.000    0.000    0.000    0.000    0.000    0.000 
#
# Total GULP energy -133924.426010 kJ/mol
# GULP energy per Si atom -5580.184417 kJ/mol
# Density = 2.354547 g / cm^3
# Si number density = 23.599183 Si / 1000 Ang^3
#
#
#
# Elastic Constant Matrix: (Units=GPa)
#
#
# Indices 1 2 3 4 5 6 
#
# 1 129.6436 13.2660 12.4402 0.0000 0.0000 0.0000
# 2 13.2660 96.3619 -1.9556 0.0000 0.0000 0.0000
# 3 12.4402 -1.9556 97.8002 0.0000 0.0000 0.0000
# 4 0.0000 0.0000 0.0000 7.2499 0.0000 0.0000
# 5 0.0000 0.0000 0.0000 0.0000 58.1819 0.0000
# 6 0.0000 0.0000 0.0000 0.0000 0.0000 34.5134
#
#
#
# Elastic Compliance Matrix: (Units=1/GPa)
#
#
# Indices 1 2 3 4 5 6 
#
# 1 0.007926 -0.001112 -0.001030 0.000000 0.000000 0.000000
# 2 -0.001112 0.010538 0.000352 0.000000 0.000000 0.000000
# 3 -0.001030 0.000352 0.010363 0.000000 0.000000 0.000000
# 4 0.000000 0.000000 0.000000 0.137933 0.000000 0.000000
# 5 0.000000 0.000000 0.000000 0.000000 0.017187 0.000000
# 6 0.000000 0.000000 0.000000 0.000000 0.000000 0.028974
#
#
# Mechanical properties :
#
#
# Convention : Reuss Voigt Hill
#
# Bulk Modulus (GPa) = 39.60984 41.25630 40.43307
# Shear Modulus (GPa) = 22.23038 39.99273 31.11155
#
# Velocity S-wave (km/s) = 3.07253 4.12110 3.63482
# Velocity P-wave (km/s) = 5.42292 6.33756 5.89800
#
# Compressibility (1/GPa) = 0.02524625
#
# Stress axis : x y z
#
# Youngs Moduli (GPa) = 126.16501 94.89651 96.49676
#
# Poissons Ratio (x) = 0.10553 0.09943
# Poissons Ratio (y) = 0.14031 -0.03398
# Poissons Ratio (z) = 0.13001 -0.03342
#
# Static dielectric constant tensor:
#      x y z
#    x 1.895850 0.000000 0.000000 
#    y 0.000000 1.856770 0.000000 
#    z 0.000000 0.000000 1.927700 
# 
# From -- ./inp_files/15286.got.cif
#   From: 2010.05.17/outbox.cif.g08.bks.cpg/sg39_8_cif.got.tgz:15286.got - 2010.06.03 18:22:40.
