data_PCOD9361370
_publ_section_title
;
Structure prediction by ZEFSAII (Michael W. Deem and Ramdas Pophale) SiO2 
 PCOD9361370
Probable space group: A B M 2
;
_chemical_formula_sum "Si O2"
_cell_formula_units_Z 64
_cell_length_a 8.891752
_cell_length_b 25.657714
_cell_length_c 14.122486
_cell_angle_alpha 90.000000
_cell_angle_beta 90.000000
_cell_angle_gamma 90.000000
_cell_volume 3221.932622
_symmetry_space_group_name_H-M "A B M 2"
_symmetry_group_IT_number 39
_symmetry_cell_setting 'orthorhombic'
loop_
_space_group_symop_operation_xyz
x,y,z
-x,-y,z
-x,1/2+y,z
x,1/2-y,z
x,1/2+y,1/2+z
-x,1/2-y,1/2+z
-x,y,1/2+z
x,-y,1/2+z
loop_
_atom_site_type_symbol
_atom_site_label
_atom_site_fract_x
_atom_site_fract_y
_atom_site_fract_z
Si Si1 0.452951 0.656692 0.776000
Si Si2 0.250102 0.809567 0.380772
Si Si3 0.157094 0.478016 0.414476
Si Si4 0.291923 0.690151 0.963238
Si Si5 0.627342 0.462191 0.756375
Si Si6 0.210628 0.060549 0.074608
Si Si7 0.574107 0.652134 0.058976
Si Si8 0.012306 0.871782 0.961839
O O1 0.619322 0.675046 0.806771
O O2 0.338552 0.679793 0.853865
O O3 0.441864 0.594023 0.780087
O O4 0.413483 0.670079 0.667559
O O5 0.201329 0.750000 0.364859
O O6 0.331657 0.814176 0.483574
O O7 0.113142 0.850538 0.388638
O O8 0.299395 0.487051 0.348862
O O9 0.184137 0.509801 0.511081
O O10 0.000000 0.500000 0.374119
O O11 0.123705 0.416884 0.425039
O O12 0.324081 0.750000 0.984978
O O13 0.120759 0.675882 0.984571
O O14 0.402889 0.655229 0.025983
O O15 0.500000 0.500000 0.715829
O O16 0.763431 0.453747 0.682848
O O17 0.360282 0.093726 0.049769
O O18 0.077461 0.100719 0.047730
#
# Coordination Sequence:
#
# PCOD9361370 Si02
#       8
#     8   8   8   8   8   8   8   8
#     4  10  21  40  60  91 123 161 200 261 311 359
#     4  10  21  38  63  88 121 162 204 256 314 369
#     4  10  22  38  63  86 124 166 195 246 303 370
#     4  11  22  37  62  93 121 160 212 257 306 361
#     4  11  24  38  62  96 121 158 211 253 301 372
#     4   9  22  42  60  90 124 166 196 242 315 363
#     4   9  20  38  62  88 123 156 208 254 305 368
#     4  10  21  41  60  83 125 163 200 249 305 367
#
# _framework density 19.863852999999999
#
# number of rings (size 3 to 8) (size 9 to 14) (size 15 to 20)
#    0.000    2.000    1.250    1.875    7.000    6.000 
#    2.250    0.000    0.000    3.000    0.000    0.000 
#    0.000    0.000    0.000    0.000    0.000    0.000 
#
# Total GULP energy -178453.349841 kJ/mol
# GULP energy per Si atom -5576.667183 kJ/mol
# Density = 1.981864 g / cm^3
# Si number density = 19.863853 Si / 1000 Ang^3
#
#
#
# Elastic Constant Matrix: (Units=GPa)
#
#
# Indices 1 2 3 4 5 6 
#
# 1 68.7119 16.1024 16.4235 0.0000 0.0000 0.0000
# 2 16.1024 68.0080 11.2590 0.0000 0.0000 0.0000
# 3 16.4235 11.2590 59.6517 0.0000 0.0000 0.0000
# 4 0.0000 0.0000 0.0000 16.9379 0.0000 0.0000
# 5 0.0000 0.0000 0.0000 0.0000 18.4289 0.0000
# 6 0.0000 0.0000 0.0000 0.0000 0.0000 26.0356
#
#
#
# Elastic Compliance Matrix: (Units=1/GPa)
#
#
# Indices 1 2 3 4 5 6 
#
# 1 0.016227 -0.003203 -0.003863 0.000000 0.000000 0.000000
# 2 -0.003203 0.015810 -0.002102 0.000000 0.000000 0.000000
# 3 -0.003863 -0.002102 0.018224 0.000000 0.000000 0.000000
# 4 0.000000 0.000000 0.000000 0.059039 0.000000 0.000000
# 5 0.000000 0.000000 0.000000 0.000000 0.054263 0.000000
# 6 0.000000 0.000000 0.000000 0.000000 0.000000 0.038409
#
#
# Mechanical properties :
#
#
# Convention : Reuss Voigt Hill
#
# Bulk Modulus (GPa) = 31.32268 31.54903 31.43585
# Shear Modulus (GPa) = 21.64955 22.45293 22.05124
#
# Velocity S-wave (km/s) = 3.30494 3.36570 3.33546
# Velocity P-wave (km/s) = 5.51057 5.56965 5.54019
#
# Compressibility (1/GPa) = 0.03192575
#
# Stress axis : x y z
#
# Youngs Moduli (GPa) = 61.62399 63.24915 54.87128
#
# Poissons Ratio (x) = 0.20256 0.21199
# Poissons Ratio (y) = 0.19736 0.11536
# Poissons Ratio (z) = 0.23807 0.13298
#
# Static dielectric constant tensor:
#      x y z
#    x 1.701210 0.000000 0.000000 
#    y 0.000000 1.714210 0.000000 
#    z 0.000000 0.000000 1.697250 
# 
# From -- ./inp_files/8793.got.cif
#   From: 2010.05.17/outbox.cif.g08.bks.cpg/sg39_5_cif.got.tgz:8793.got - 2010.06.03 18:22:40.
