data_PCOD9361132
_publ_section_title
;
Structure prediction by ZEFSAII (Michael W. Deem and Ramdas Pophale) SiO2 
 PCOD9361132
Probable space group: A B M 2
;
_chemical_formula_sum "Si O2"
_cell_formula_units_Z 64
_cell_length_a 14.233196
_cell_length_b 18.758169
_cell_length_c 12.343097
_cell_angle_alpha 90.000000
_cell_angle_beta 90.000000
_cell_angle_gamma 90.000000
_cell_volume 3295.467372
_symmetry_space_group_name_H-M "A B M 2"
_symmetry_group_IT_number 39
_symmetry_cell_setting 'orthorhombic'
loop_
_space_group_symop_operation_xyz
x,y,z
-x,-y,z
-x,1/2+y,z
x,1/2-y,z
x,1/2+y,1/2+z
-x,1/2-y,1/2+z
-x,y,1/2+z
x,-y,1/2+z
loop_
_atom_site_type_symbol
_atom_site_label
_atom_site_fract_x
_atom_site_fract_y
_atom_site_fract_z
Si Si1 0.667709 0.575217 0.232240
Si Si2 0.355397 0.567245 0.101355
Si Si3 0.799165 0.465931 0.934076
Si Si4 0.155045 0.129828 0.915906
Si Si5 0.029402 0.080923 0.305773
Si Si6 0.651498 0.332494 0.308658
Si Si7 0.485609 0.083875 0.397395
Si Si8 0.835504 0.669563 0.153972
O O1 0.634230 0.511761 0.153323
O O2 0.732935 0.540883 0.327505
O O3 0.581856 0.609132 0.299206
O O4 0.734652 0.631652 0.173023
O O5 0.355698 0.623870 0.197197
O O6 0.257479 0.565291 0.034994
O O7 0.433701 0.586224 0.012411
O O8 0.819287 0.548823 0.950119
O O9 0.896924 0.428273 0.904947
O O10 0.242691 0.160847 0.851229
O O11 0.062314 0.122912 0.843571
O O12 0.141615 0.170461 0.027499
O O13 0.086860 0.121726 0.213966
O O14 0.000000 0.000000 0.273679
O O15 0.625514 0.250000 0.297159
O O16 0.581633 0.372942 0.391242
O O17 0.500000 0.000000 0.375292
O O18 0.833921 0.750000 0.197740
#
# Coordination Sequence:
#
# PCOD9361132 Si02
#       8
#     8   8   8   8   8   8   8   8
#     4  10  20  40  65  93 123 161 213 263 311 385
#     4  11  21  39  69  91 127 164 215 259 322 388
#     4   9  18  38  65 100 120 156 215 271 306 370
#     4  11  21  41  63  91 132 165 214 267 318 377
#     4   9  22  40  66  96 126 167 220 266 313 377
#     4  12  27  43  61  93 133 170 212 267 327 382
#     4  11  24  40  66  97 123 162 217 271 313 381
#     4  11  24  39  63  97 131 172 207 261 340 386
#
# _framework density 19.420614
#
# number of rings (size 3 to 8) (size 9 to 14) (size 15 to 20)
#    0.000    1.500    3.750    1.125    1.750    4.500 
#    0.000    5.000    0.000    0.000    0.000    0.000 
#    0.000    0.000    0.000    0.000    0.000    0.000 
#
# Total GULP energy -178804.949820 kJ/mol
# GULP energy per Si atom -5587.654682 kJ/mol
# Density = 1.937641 g / cm^3
# Si number density = 19.420614 Si / 1000 Ang^3
#
#
#
# Elastic Constant Matrix: (Units=GPa)
#
#
# Indices 1 2 3 4 5 6 
#
# 1 88.6754 23.0445 37.7108 0.0000 0.0000 0.0000
# 2 23.0445 78.7192 36.5850 0.0000 0.0000 0.0000
# 3 37.7108 36.5850 90.2405 0.0000 0.0000 0.0000
# 4 0.0000 0.0000 0.0000 4.0872 0.0000 0.0000
# 5 0.0000 0.0000 0.0000 0.0000 23.2203 0.0000
# 6 0.0000 0.0000 0.0000 0.0000 0.0000 11.3200
#
#
#
# Elastic Compliance Matrix: (Units=1/GPa)
#
#
# Indices 1 2 3 4 5 6 
#
# 1 0.013894 -0.001687 -0.005122 0.000000 0.000000 0.000000
# 2 -0.001687 0.015857 -0.005724 0.000000 0.000000 0.000000
# 3 -0.005122 -0.005724 0.015543 0.000000 0.000000 0.000000
# 4 0.000000 0.000000 0.000000 0.244667 0.000000 0.000000
# 5 0.000000 0.000000 0.000000 0.000000 0.043066 0.000000
# 6 0.000000 0.000000 0.000000 0.000000 0.000000 0.088339
#
#
# Mechanical properties :
#
#
# Convention : Reuss Voigt Hill
#
# Bulk Modulus (GPa) = 49.43676 50.25732 49.84704
# Shear Modulus (GPa) = 11.03329 18.41182 14.72256
#
# Velocity S-wave (km/s) = 2.38612 3.08239 2.75633
# Velocity P-wave (km/s) = 5.75348 6.21311 5.98770
#
# Compressibility (1/GPa) = 0.02022786
#
# Stress axis : x y z
#
# Youngs Moduli (GPa) = 71.97477 63.06202 64.33910
#
# Poissons Ratio (x) = 0.10637 0.32956
# Poissons Ratio (y) = 0.12140 0.36828
# Poissons Ratio (z) = 0.36867 0.36097
#
# Static dielectric constant tensor:
#      x y z
#    x 1.703950 0.000000 0.000000 
#    y 0.000000 1.654650 0.000000 
#    z 0.000000 0.000000 1.665900 
# 
# From -- ./inp_files/6656.got.cif
#   From: 2010.05.17/outbox.cif.g08.bks.cpg/sg39_4_cif.got.tgz:6656.got - 2010.06.03 18:22:40.
