data_PCOD9361974
_publ_section_title
;
Structure prediction by ZEFSAII (Michael W. Deem and Ramdas Pophale) SiO2 
 PCOD9361974
Probable space group: A B M 2
;
_chemical_formula_sum "Si O2"
_cell_formula_units_Z 64
_cell_length_a 8.903025
_cell_length_b 15.514193
_cell_length_c 22.170547
_cell_angle_alpha 90.000000
_cell_angle_beta 90.000000
_cell_angle_gamma 90.000000
_cell_volume 3062.267965
_symmetry_space_group_name_H-M "A B M 2"
_symmetry_group_IT_number 39
_symmetry_cell_setting 'orthorhombic'
loop_
_space_group_symop_operation_xyz
x,y,z
-x,-y,z
-x,1/2+y,z
x,1/2-y,z
x,1/2+y,1/2+z
-x,1/2-y,1/2+z
-x,y,1/2+z
x,-y,1/2+z
loop_
_atom_site_type_symbol
_atom_site_label
_atom_site_fract_x
_atom_site_fract_y
_atom_site_fract_z
Si Si1 0.861687 0.847722 0.199800
Si Si2 0.606910 0.920249 0.537530
Si Si3 0.045181 0.400068 0.080214
Si Si4 0.843555 0.852743 0.768304
Si Si5 0.853161 0.342142 0.968685
Si Si6 0.692291 0.651305 0.004987
Si Si7 0.326276 0.475688 0.673988
Si Si8 0.896038 0.913939 0.898560
O O1 0.794283 0.750000 0.202629
O O2 0.972541 0.851232 0.142254
O O3 0.977762 0.860884 0.254050
O O4 0.761248 0.933215 0.187568
O O5 0.728688 0.912194 0.484730
O O6 0.481355 0.848016 0.524863
O O7 0.673598 0.933800 0.605391
O O8 0.500000 0.000000 0.526695
O O9 0.000000 0.500000 0.084358
O O10 0.217822 0.390289 0.060673
O O11 0.956452 0.353637 0.027510
O O12 0.808254 0.750000 0.768504
O O13 0.745461 0.905942 0.719645
O O14 0.826863 0.896466 0.833584
O O15 0.777131 0.250000 0.967705
O O16 0.968770 0.348210 0.914234
O O17 0.739104 0.750000 0.996505
O O18 0.762833 0.601117 0.947326
O O19 0.500000 0.500000 0.684871
O O20 0.000000 0.000000 0.904799
#
# Coordination Sequence:
#
# PCOD9361974 Si02
#       8
#     8   8   8   8   8   8   8   8
#     4  11  22  38  62  90 122 163 213 267 320 376
#     4  11  22  38  58  87 124 162 201 249 313 382
#     4  11  19  32  54  82 115 154 198 247 308 373
#     4  11  24  43  68  96 126 165 217 270 321 381
#     4  11  21  34  56  87 119 152 199 253 306 363
#     4  11  22  37  58  86 123 164 206 254 315 384
#     4  11  24  41  64  93 131 171 210 261 320 387
#     4  11  22  41  66  89 120 163 210 261 315 374
#
# _framework density 20.899540999999999
#
# number of rings (size 3 to 8) (size 9 to 14) (size 15 to 20)
#    0.000    1.000    0.000   11.250    0.000    2.500 
#    0.000    5.000    0.000    1.500    0.000    0.000 
#    0.000    0.000    0.000    0.000    0.000    0.000 
#
# Total GULP energy -178198.598210 kJ/mol
# GULP energy per Si atom -5568.706194 kJ/mol
# Density = 2.085197 g / cm^3
# Si number density = 20.899541 Si / 1000 Ang^3
#
#
#
# Elastic Constant Matrix: (Units=GPa)
#
#
# Indices 1 2 3 4 5 6 
#
# 1 75.9671 27.2052 20.3367 0.0000 0.0000 0.0000
# 2 27.2052 145.6401 29.7646 0.0000 0.0000 0.0000
# 3 20.3367 29.7646 85.3550 0.0000 0.0000 0.0000
# 4 0.0000 0.0000 0.0000 -8.4917 0.0000 0.0000
# 5 0.0000 0.0000 0.0000 0.0000 31.5585 0.0000
# 6 0.0000 0.0000 0.0000 0.0000 0.0000 38.8595
#
#
#
# Elastic Compliance Matrix: (Units=1/GPa)
#
#
# Indices 1 2 3 4 5 6 
#
# 1 0.014678 -0.002183 -0.002736 0.000000 0.000000 0.000000
# 2 -0.002183 0.007718 -0.002171 0.000000 0.000000 0.000000
# 3 -0.002736 -0.002171 0.013125 0.000000 0.000000 0.000000
# 4 0.000000 0.000000 0.000000 -0.117762 0.000000 0.000000
# 5 0.000000 0.000000 0.000000 0.000000 0.031687 0.000000
# 6 0.000000 0.000000 0.000000 0.000000 0.000000 0.025734
#
#
# Mechanical properties :
#
#
# Convention : Reuss Voigt Hill
#
# Bulk Modulus (GPa) = 46.85936 51.28615 49.07276
# Shear Modulus (GPa) = -1417.19485 27.69564 -694.74961
#
# Velocity S-wave (km/s) = -26.06858 3.64425 -18.25226
# Velocity P-wave (km/s) = 29.72582 6.50385 20.51005
#
# Compressibility (1/GPa) = 0.02134046
#
# Stress axis : x y z
#
# Youngs Moduli (GPa) = 68.13074 129.57255 76.19158
#
# Poissons Ratio (x) = 0.28280 0.20846
# Poissons Ratio (y) = 0.14870 0.16543
# Poissons Ratio (z) = 0.18641 0.28133
#
# Static dielectric constant tensor:
#      x y z
#    x 1.857430 0.000000 0.000000 
#    y 0.000000 2.031750 0.000000 
#    z 0.000000 0.000000 1.759430 
# 
# From -- ./inp_files/15691.got.cif
#   From: 2010.05.17/outbox.cif.g08.bks.cpg/sg39_8_cif.got.tgz:15691.got - 2010.06.03 18:22:40.
