data_PCOD9361792
_publ_section_title
;
Structure prediction by ZEFSAII (Michael W. Deem and Ramdas Pophale) SiO2 
 PCOD9361792
Probable space group: A B M 2
;
_chemical_formula_sum "Si O2"
_cell_formula_units_Z 40
_cell_length_a 4.924712
_cell_length_b 14.868971
_cell_length_c 27.455762
_cell_angle_alpha 90.000000
_cell_angle_beta 90.000000
_cell_angle_gamma 90.000000
_cell_volume 2010.459152
_symmetry_space_group_name_H-M "A B M 2"
_symmetry_group_IT_number 39
_symmetry_cell_setting 'orthorhombic'
loop_
_space_group_symop_operation_xyz
x,y,z
-x,-y,z
-x,1/2+y,z
x,1/2-y,z
x,1/2+y,1/2+z
-x,1/2-y,1/2+z
-x,y,1/2+z
x,-y,1/2+z
loop_
_atom_site_type_symbol
_atom_site_label
_atom_site_fract_x
_atom_site_fract_y
_atom_site_fract_z
Si Si1 0.956666 0.645412 0.596970
Si Si2 0.791946 0.250000 0.395463
Si Si3 0.500000 0.500000 0.251516
Si Si4 0.000000 0.000000 0.180549
Si Si5 0.305849 0.750000 0.959097
Si Si6 0.463708 0.396572 0.032438
Si Si7 0.265744 0.938069 0.343776
O O1 0.994381 0.750000 0.607274
O O2 0.160717 0.620795 0.552352
O O3 0.994450 0.584255 0.643924
O O4 0.654461 0.626170 0.578258
O O5 0.476637 0.250000 0.409989
O O6 0.823473 0.155508 0.367560
O O7 0.992189 0.250000 0.442797
O O8 0.251499 0.483957 0.216057
O O9 0.596521 0.424345 0.290506
O O10 0.415565 0.665701 0.990117
O O11 0.500000 0.500000 0.019066
O O12 0.500000 0.000000 0.370031
O O13 0.000000 0.000000 0.338386
#
# Coordination Sequence:
#
# PCOD9361792 Si02
#       7
#     8   4   4   4   4   8   8
#     4  12  23  41  66  93 134 178 216 267 323 382
#     4  12  26  44  72 101 127 176 224 282 340 396
#     4  10  22  44  66  96 134 166 220 280 322 406
#     4  12  22  40  66 100 130 172 228 264 316 400
#     4  12  26  40  68 101 133 164 236 276 300 424
#     4  12  23  43  65  91 135 183 211 264 339 373
#     4  10  22  46  70  93 134 176 205 282 354 399
#
# _framework density 19.895949999999999
#
# number of rings (size 3 to 8) (size 9 to 14) (size 15 to 20)
#    0.600    0.000    5.000    3.600    0.000    2.400 
#    3.600    0.000    0.000    0.000    0.000    0.000 
#    0.000    0.000    0.000    0.000    0.000    0.000 
#
# Total GULP energy -111545.262911 kJ/mol
# GULP energy per Si atom -5577.263146 kJ/mol
# Density = 1.985067 g / cm^3
# Si number density = 19.895950 Si / 1000 Ang^3
#
#
#
# Elastic Constant Matrix: (Units=GPa)
#
#
# Indices 1 2 3 4 5 6 
#
# 1 86.8279 8.0626 3.4075 0.0000 0.0000 0.0000
# 2 8.0626 173.7745 45.0747 0.0000 0.0000 0.0000
# 3 3.4075 45.0747 70.1965 0.0000 0.0000 0.0000
# 4 0.0000 0.0000 0.0000 102.2110 0.0000 0.0000
# 5 0.0000 0.0000 0.0000 0.0000 614.8104 0.0000
# 6 0.0000 0.0000 0.0000 0.0000 0.0000 20.8957
#
#
#
# Elastic Compliance Matrix: (Units=1/GPa)
#
#
# Indices 1 2 3 4 5 6 
#
# 1 0.011571 -0.000469 -0.000260 0.000000 0.000000 0.000000
# 2 -0.000469 0.006924 -0.004423 0.000000 0.000000 0.000000
# 3 -0.000260 -0.004423 0.017098 0.000000 0.000000 0.000000
# 4 0.000000 0.000000 0.000000 0.009784 0.000000 0.000000
# 5 0.000000 0.000000 0.000000 0.000000 0.001627 0.000000
# 6 0.000000 0.000000 0.000000 0.000000 0.000000 0.047857
#
#
# Mechanical properties :
#
#
# Convention : Reuss Voigt Hill
#
# Bulk Modulus (GPa) = 39.54507 49.32095 44.43301
# Shear Modulus (GPa) = 44.01622 165.86701 104.94162
#
# Velocity S-wave (km/s) = 4.70863 9.14047 7.27047
# Velocity P-wave (km/s) = 7.03425 11.67223 9.63643
#
# Compressibility (1/GPa) = 0.02528760
#
# Stress axis : x y z
#
# Youngs Moduli (GPa) = 86.42417 144.43276 58.48469
#
# Poissons Ratio (x) = 0.06779 0.01522
# Poissons Ratio (y) = 0.04056 0.25868
# Poissons Ratio (z) = 0.02250 0.63883
#
# Static dielectric constant tensor:
#      x y z
#    x -0.028260 0.000000 0.000000 
#    y 0.000000 1.704050 0.000000 
#    z 0.000000 0.000000 1.723020 
# 
# From -- ./inp_files/15224.got.cif
#   From: 2010.05.17/outbox.cif.g08.bks.cpg/sg39_8_cif.got.tgz:15224.got - 2010.06.03 18:22:40.
