data_PCOD9361251
_publ_section_title
;
Structure prediction by ZEFSAII (Michael W. Deem and Ramdas Pophale) SiO2 
 PCOD9361251
Probable space group: A B M 2
;
_chemical_formula_sum "Si O2"
_cell_formula_units_Z 56
_cell_length_a 5.354909
_cell_length_b 14.025676
_cell_length_c 30.898864
_cell_angle_alpha 90.000000
_cell_angle_beta 90.000000
_cell_angle_gamma 90.000000
_cell_volume 2320.696835
_symmetry_space_group_name_H-M "A B M 2"
_symmetry_group_IT_number 39
_symmetry_cell_setting 'orthorhombic'
loop_
_space_group_symop_operation_xyz
x,y,z
-x,-y,z
-x,1/2+y,z
x,1/2-y,z
x,1/2+y,1/2+z
-x,1/2-y,1/2+z
-x,y,1/2+z
x,-y,1/2+z
loop_
_atom_site_type_symbol
_atom_site_label
_atom_site_fract_x
_atom_site_fract_y
_atom_site_fract_z
Si Si1 0.844678 0.904025 0.096690
Si Si2 0.972229 0.750000 0.163720
Si Si3 0.661389 0.863630 0.814838
Si Si4 0.500000 0.500000 0.159910
Si Si5 0.185734 0.138574 0.715654
Si Si6 0.342041 0.137398 0.000993
Si Si7 0.159243 0.633165 0.957585
Si Si8 0.162863 0.366787 0.358796
O O1 0.001099 0.831387 0.125522
O O2 0.609876 0.922738 0.127346
O O3 0.744439 0.872486 0.050300
O O4 0.000000 0.000000 0.090942
O O5 0.904989 0.662610 0.201514
O O6 0.647847 0.750000 0.822851
O O7 0.744183 0.871693 0.764928
O O8 0.386769 0.899492 0.827332
O O9 0.889647 0.900099 0.843867
O O10 0.301973 0.553544 0.189774
O O11 0.257757 0.250000 0.696563
O O12 0.357478 0.250000 0.991516
O O13 0.617913 0.100608 0.989266
O O14 0.115164 0.099602 0.971650
O O15 0.149527 0.750000 0.959220
O O16 0.218009 0.607143 0.908190
O O17 0.154446 0.250000 0.356837
#
# Coordination Sequence:
#
# PCOD9361251 Si02
#       8
#     8   4   8   4   8   8   8   8
#     4  12  25  44  65  94 131 173 227 279 338 402
#     4  10  22  44  64  90 134 178 210 284 332 400
#     4   9  17  31  54  89 126 167 212 266 322 386
#     4  12  26  42  66  98 126 180 226 282 340 404
#     4   9  21  41  61  96 133 169 227 271 329 399
#     4  10  21  36  60  91 129 169 215 271 328 391
#     4   9  18  33  55  91 129 166 212 266 328 395
#     4   9  16  29  54  88 128 162 209 267 321 391
#
# _framework density 24.130683999999999
#
# number of rings (size 3 to 8) (size 9 to 14) (size 15 to 20)
#    0.429    1.714    2.143    0.857    3.000    4.571 
#    5.143    0.000    0.000    0.000    7.429    0.000 
#    0.000    0.000    0.000    0.000    0.286    0.000 
#
# Total GULP energy -155947.697265 kJ/mol
# GULP energy per Si atom -5569.560617 kJ/mol
# Density = 2.407576 g / cm^3
# Si number density = 24.130684 Si / 1000 Ang^3
#
#
#
# Elastic Constant Matrix: (Units=GPa)
#
#
# Indices 1 2 3 4 5 6 
#
# 1 101.8787 5.0659 48.2289 0.0000 0.0000 0.0000
# 2 5.0659 56.8406 -6.0969 0.0000 0.0000 0.0000
# 3 48.2289 -6.0969 110.5049 0.0000 0.0000 0.0000
# 4 0.0000 0.0000 0.0000 23.9758 0.0000 0.0000
# 5 0.0000 0.0000 0.0000 0.0000 17.5194 0.0000
# 6 0.0000 0.0000 0.0000 0.0000 0.0000 3.0027
#
#
#
# Elastic Compliance Matrix: (Units=1/GPa)
#
#
# Indices 1 2 3 4 5 6 
#
# 1 0.012536 -0.001714 -0.005566 0.000000 0.000000 0.000000
# 2 -0.001714 0.017932 0.001738 0.000000 0.000000 0.000000
# 3 -0.005566 0.001738 0.011574 0.000000 0.000000 0.000000
# 4 0.000000 0.000000 0.000000 0.041709 0.000000 0.000000
# 5 0.000000 0.000000 0.000000 0.000000 0.057080 0.000000
# 6 0.000000 0.000000 0.000000 0.000000 0.000000 0.333035
#
#
# Mechanical properties :
#
#
# Convention : Reuss Voigt Hill
#
# Bulk Modulus (GPa) = 32.30236 40.40221 36.35228
# Shear Modulus (GPa) = 10.09552 23.70132 16.89842
#
# Velocity S-wave (km/s) = 2.04763 3.13742 2.64917
# Velocity P-wave (km/s) = 4.35957 5.46845 4.94519
#
# Compressibility (1/GPa) = 0.03095749
#
# Stress axis : x y z
#
# Youngs Moduli (GPa) = 79.77295 55.76558 86.39824
#
# Poissons Ratio (x) = 0.09559 0.48086
# Poissons Ratio (y) = 0.13675 -0.15012
# Poissons Ratio (z) = 0.44399 -0.09689
#
# Static dielectric constant tensor:
#      x y z
#    x 1.936170 0.000000 0.000000 
#    y 0.000000 1.997060 0.000000 
#    z 0.000000 0.000000 1.857890 
# 
# From -- ./inp_files/17341.got.cif
#   From: 2010.05.17/outbox.cif.g08.bks.cpg/sg39_9_cif.got.tgz:17341.got - 2010.06.03 18:22:40.
