data_PCOD9361564
_publ_section_title
;
Structure prediction by ZEFSAII (Michael W. Deem and Ramdas Pophale) SiO2 
 PCOD9361564
Probable space group: A B M 2
;
_chemical_formula_sum "Si O2"
_cell_formula_units_Z 40
_cell_length_a 5.150978
_cell_length_b 24.223953
_cell_length_c 12.697357
_cell_angle_alpha 90.000000
_cell_angle_beta 90.000000
_cell_angle_gamma 90.000000
_cell_volume 1584.338736
_symmetry_space_group_name_H-M "A B M 2"
_symmetry_group_IT_number 39
_symmetry_cell_setting 'orthorhombic'
loop_
_space_group_symop_operation_xyz
x,y,z
-x,-y,z
-x,1/2+y,z
x,1/2-y,z
x,1/2+y,1/2+z
-x,1/2-y,1/2+z
-x,y,1/2+z
x,-y,1/2+z
loop_
_atom_site_type_symbol
_atom_site_label
_atom_site_fract_x
_atom_site_fract_y
_atom_site_fract_z
Si Si1 0.373457 0.881844 0.541770
Si Si2 0.719868 0.189953 0.139496
Si Si3 0.757193 0.964570 0.434824
Si Si4 0.990738 0.687349 0.916092
Si Si5 0.088533 0.111323 0.247647
O O1 0.434401 0.824119 0.601191
O O2 0.623824 0.917639 0.508815
O O3 0.219627 0.861255 0.439268
O O4 0.217552 0.908698 0.638195
O O5 0.744157 0.250000 0.186887
O O6 0.819210 0.139234 0.209192
O O7 0.867998 0.189705 0.028380
O O8 0.875075 0.937773 0.329628
O O9 0.500000 0.000000 0.409661
O O10 0.000000 0.000000 0.480033
O O11 0.900015 0.750000 0.897289
O O12 0.174278 0.664043 0.822445
#
# Coordination Sequence:
#
# PCOD9361564 Si02
#       5
#     8   8   8   8   8
#     4  11  25  46  74 112 157 202 265 335 395 484
#     4  10  22  41  72 109 152 198 247 310 395 483
#     4  12  29  53  79 110 155 215 275 340 409 463
#     4  10  21  42  71 109 160 207 249 313 399 484
#     4  11  25  46  72 110 154 200 265 325 394 480
#
# _framework density 25.247126000000002
#
# number of rings (size 3 to 8) (size 9 to 14) (size 15 to 20)
#    0.000    1.200    2.000    2.400    8.400    3.200 
#    0.000    0.000    0.000    0.000    0.000    0.000 
#    0.000    0.000    0.000    0.000    0.000    0.000 
#
# Total GULP energy -111375.578382 kJ/mol
# GULP energy per Si atom -5568.778919 kJ/mol
# Density = 2.518966 g / cm^3
# Si number density = 25.247126 Si / 1000 Ang^3
#
#
#
# Elastic Constant Matrix: (Units=GPa)
#
#
# Indices 1 2 3 4 5 6 
#
# 1 85.1704 55.8960 39.7884 0.0000 0.0000 0.0000
# 2 55.8960 145.4408 57.7814 0.0000 0.0000 0.0000
# 3 39.7884 57.7814 168.1122 0.0000 0.0000 0.0000
# 4 0.0000 0.0000 0.0000 20.9838 0.0000 0.0000
# 5 0.0000 0.0000 0.0000 0.0000 24.5857 0.0000
# 6 0.0000 0.0000 0.0000 0.0000 0.0000 29.2386
#
#
#
# Elastic Compliance Matrix: (Units=1/GPa)
#
#
# Indices 1 2 3 4 5 6 
#
# 1 0.016245 -0.005461 -0.001968 0.000000 0.000000 0.000000
# 2 -0.005461 0.009799 -0.002075 0.000000 0.000000 0.000000
# 3 -0.001968 -0.002075 0.007127 0.000000 0.000000 0.000000
# 4 0.000000 0.000000 0.000000 0.047656 0.000000 0.000000
# 5 0.000000 0.000000 0.000000 0.000000 0.040674 0.000000
# 6 0.000000 0.000000 0.000000 0.000000 0.000000 0.034201
#
#
# Mechanical properties :
#
#
# Convention : Reuss Voigt Hill
#
# Bulk Modulus (GPa) = 70.61037 78.40611 74.50824
# Shear Modulus (GPa) = 27.86567 31.31212 29.58890
#
# Velocity S-wave (km/s) = 3.32583 3.52550 3.42712
# Velocity P-wave (km/s) = 6.54038 6.90616 6.72576
#
# Compressibility (1/GPa) = 0.01416223
#
# Stress axis : x y z
#
# Youngs Moduli (GPa) = 61.55880 102.04970 140.30292
#
# Poissons Ratio (x) = 0.55734 0.27606
# Poissons Ratio (y) = 0.33620 0.29119
# Poissons Ratio (z) = 0.12112 0.21180
#
# Static dielectric constant tensor:
#      x y z
#    x 2.142990 0.000000 0.000000 
#    y 0.000000 2.060610 0.000000 
#    z 0.000000 0.000000 2.084790 
# 
# From -- ./inp_files/7407.got.cif
#   From: 2010.05.17/outbox.cif.g08.bks.cpg/sg39_4_cif.got.tgz:7407.got - 2010.06.03 18:22:40.
