data_PCOD9361164
_publ_section_title
;
Structure prediction by ZEFSAII (Michael W. Deem and Ramdas Pophale) SiO2 
 PCOD9361164
Probable space group: A B M 2
;
_chemical_formula_sum "Si O2"
_cell_formula_units_Z 64
_cell_length_a 11.971450
_cell_length_b 17.468453
_cell_length_c 14.565655
_cell_angle_alpha 90.000000
_cell_angle_beta 90.000000
_cell_angle_gamma 90.000000
_cell_volume 3046.009271
_symmetry_space_group_name_H-M "A B M 2"
_symmetry_group_IT_number 39
_symmetry_cell_setting 'orthorhombic'
loop_
_space_group_symop_operation_xyz
x,y,z
-x,-y,z
-x,1/2+y,z
x,1/2-y,z
x,1/2+y,1/2+z
-x,1/2-y,1/2+z
-x,y,1/2+z
x,-y,1/2+z
loop_
_atom_site_type_symbol
_atom_site_label
_atom_site_fract_x
_atom_site_fract_y
_atom_site_fract_z
Si Si1 0.006325 0.907316 0.637650
Si Si2 0.130732 0.839589 0.292238
Si Si3 0.624966 0.836543 0.418458
Si Si4 0.598307 0.660667 0.015237
Si Si5 0.195446 0.570283 0.015459
Si Si6 0.834488 0.098269 0.481653
Si Si7 0.576923 0.111583 0.721383
Si Si8 0.323681 0.053022 0.705321
O O1 0.974690 0.863746 0.729906
O O2 0.908006 0.889110 0.564715
O O3 0.117959 0.885238 0.583426
O O4 0.000000 0.000000 0.652947
O O5 0.158911 0.750000 0.277960
O O6 0.109373 0.855999 0.399135
O O7 0.231328 0.896960 0.260001
O O8 0.638886 0.750000 0.451680
O O9 0.517134 0.869268 0.472294
O O10 0.735331 0.882051 0.443358
O O11 0.599005 0.839449 0.311315
O O12 0.608632 0.750000 0.990224
O O13 0.600173 0.650943 0.124440
O O14 0.704018 0.616451 0.976513
O O15 0.279530 0.551857 0.100335
O O16 0.150513 0.492383 0.971345
O O17 0.445544 0.090258 0.716748
O O18 0.653027 0.035109 0.731666
#
# Coordination Sequence:
#
# PCOD9361164 Si02
#       8
#     8   8   8   8   8   8   8   8
#     4   9  23  44  68  93 121 165 215 268 319 378
#     4  11  24  41  67  98 127 169 213 262 325 385
#     4  11  24  39  60  95 133 172 214 259 324 387
#     4  11  23  38  61  92 133 171 205 265 322 377
#     4  10  20  41  67  90 121 166 215 267 319 374
#     4  11  22  42  66  94 129 163 216 262 319 389
#     4  11  21  39  61  92 129 169 213 263 317 378
#     4  10  21  39  63  92 124 166 218 262 310 384
#
# _framework density 21.011099000000002
#
# number of rings (size 3 to 8) (size 9 to 14) (size 15 to 20)
#    0.000    1.500    2.500    2.250    0.000    8.000 
#    2.250    0.000    0.000    0.000    0.000    0.000 
#    0.000    0.000    0.000    0.000    0.000    0.000 
#
# Total GULP energy -178739.293404 kJ/mol
# GULP energy per Si atom -5585.602919 kJ/mol
# Density = 2.096328 g / cm^3
# Si number density = 21.011099 Si / 1000 Ang^3
#
#
#
# Elastic Constant Matrix: (Units=GPa)
#
#
# Indices 1 2 3 4 5 6 
#
# 1 40.7570 6.8826 3.3680 0.0000 0.0000 0.0000
# 2 6.8826 42.6612 8.6410 0.0000 0.0000 0.0000
# 3 3.3680 8.6410 79.3925 0.0000 0.0000 0.0000
# 4 0.0000 0.0000 0.0000 39.5505 0.0000 0.0000
# 5 0.0000 0.0000 0.0000 0.0000 21.6776 0.0000
# 6 0.0000 0.0000 0.0000 0.0000 0.0000 15.1899
#
#
#
# Elastic Compliance Matrix: (Units=1/GPa)
#
#
# Indices 1 2 3 4 5 6 
#
# 1 0.025255 -0.003944 -0.000642 0.000000 0.000000 0.000000
# 2 -0.003944 0.024585 -0.002508 0.000000 0.000000 0.000000
# 3 -0.000642 -0.002508 0.012896 0.000000 0.000000 0.000000
# 4 0.000000 0.000000 0.000000 0.025284 0.000000 0.000000
# 5 0.000000 0.000000 0.000000 0.000000 0.046131 0.000000
# 6 0.000000 0.000000 0.000000 0.000000 0.000000 0.065833
#
#
# Mechanical properties :
#
#
# Convention : Reuss Voigt Hill
#
# Bulk Modulus (GPa) = 20.59907 22.28820 21.44363
# Shear Modulus (GPa) = 21.70559 24.87819 23.29189
#
# Velocity S-wave (km/s) = 3.21760 3.44474 3.33310
# Velocity P-wave (km/s) = 4.86098 5.14320 5.00408
#
# Compressibility (1/GPa) = 0.04854589
#
# Stress axis : x y z
#
# Youngs Moduli (GPa) = 39.59638 40.67526 77.54396
#
# Poissons Ratio (x) = 0.16044 0.04979
# Poissons Ratio (y) = 0.15618 0.19452
# Poissons Ratio (z) = 0.02542 0.10203
#
# Static dielectric constant tensor:
#      x y z
#    x 1.754880 0.000000 0.000000 
#    y 0.000000 1.663190 0.000000 
#    z 0.000000 0.000000 1.750400 
# 
# From -- ./inp_files/9463.got.cif
#   From: 2010.05.17/outbox.cif.g08.bks.cpg/sg39_5_cif.got.tgz:9463.got - 2010.06.03 18:22:40.
