data_PCOD9361764
_publ_section_title
;
Structure prediction by ZEFSAII (Michael W. Deem and Ramdas Pophale) SiO2 
 PCOD9361764
Probable space group: A B M 2
;
_chemical_formula_sum "Si O2"
_cell_formula_units_Z 40
_cell_length_a 5.172231
_cell_length_b 20.932508
_cell_length_c 16.022107
_cell_angle_alpha 90.000000
_cell_angle_beta 90.000000
_cell_angle_gamma 90.000000
_cell_volume 1734.677744
_symmetry_space_group_name_H-M "A B M 2"
_symmetry_group_IT_number 39
_symmetry_cell_setting 'orthorhombic'
loop_
_space_group_symop_operation_xyz
x,y,z
-x,-y,z
-x,1/2+y,z
x,1/2-y,z
x,1/2+y,1/2+z
-x,1/2-y,1/2+z
-x,y,1/2+z
x,-y,1/2+z
loop_
_atom_site_type_symbol
_atom_site_label
_atom_site_fract_x
_atom_site_fract_y
_atom_site_fract_z
Si Si1 0.870059 0.931569 0.437830
Si Si2 0.991777 0.074580 0.123841
Si Si3 0.771199 0.818099 0.722147
Si Si4 0.384950 0.318548 0.068782
Si Si5 0.608207 0.362833 0.391496
O O1 0.822526 0.925896 0.538149
O O2 0.599863 0.919891 0.392144
O O3 0.093511 0.882595 0.408296
O O4 0.000000 0.000000 0.424461
O O5 0.919909 0.116200 0.204710
O O6 0.234260 0.116110 0.090210
O O7 0.000000 0.000000 0.146423
O O8 0.913566 0.750000 0.732073
O O9 0.605808 0.814682 0.637667
O O10 0.600157 0.827216 0.804067
O O11 0.236220 0.250000 0.075110
O O12 0.472826 0.323144 0.973185
#
# Coordination Sequence:
#
# PCOD9361764 Si02
#       5
#     8   8   8   8   8
#     4  10  22  43  68  97 137 180 223 285 347 417
#     4  10  22  42  68  97 135 182 233 288 360 422
#     4  11  24  42  65  98 137 180 236 293 348 426
#     4  10  22  43  66  94 135 181 230 291 354 423
#     4  11  23  42  67 100 133 182 231 280 350 411
#
# _framework density 23.059037
#
# number of rings (size 3 to 8) (size 9 to 14) (size 15 to 20)
#    0.000    1.600    2.000    1.800    2.800    1.600 
#    3.600    2.000    0.000    0.000    0.000    0.000 
#    0.000    0.000    0.000    0.000    0.000    0.000 
#
# Total GULP energy -111436.851806 kJ/mol
# GULP energy per Si atom -5571.842590 kJ/mol
# Density = 2.300655 g / cm^3
# Si number density = 23.059037 Si / 1000 Ang^3
#
#
#
# Elastic Constant Matrix: (Units=GPa)
#
#
# Indices 1 2 3 4 5 6 
#
# 1 46.4166 22.4409 16.8131 0.0000 0.0000 0.0000
# 2 22.4409 183.6739 31.5273 0.0000 0.0000 0.0000
# 3 16.8131 31.5273 127.1060 0.0000 0.0000 0.0000
# 4 0.0000 0.0000 0.0000 51.2160 0.0000 0.0000
# 5 0.0000 0.0000 0.0000 0.0000 24.9410 0.0000
# 6 0.0000 0.0000 0.0000 0.0000 0.0000 -208.2099
#
#
#
# Elastic Compliance Matrix: (Units=1/GPa)
#
#
# Indices 1 2 3 4 5 6 
#
# 1 0.023644 -0.002457 -0.002518 0.000000 0.000000 0.000000
# 2 -0.002457 0.005942 -0.001149 0.000000 0.000000 0.000000
# 3 -0.002518 -0.001149 0.008486 0.000000 0.000000 0.000000
# 4 0.000000 0.000000 0.000000 0.019525 0.000000 0.000000
# 5 0.000000 0.000000 0.000000 0.000000 0.040095 0.000000
# 6 0.000000 0.000000 0.000000 0.000000 0.000000 -0.004803
#
#
# Mechanical properties :
#
#
# Convention : Reuss Voigt Hill
#
# Bulk Modulus (GPa) = 38.72376 55.41769 47.07072
# Shear Modulus (GPa) = 43.95869 -7.31623 18.32123
#
# Velocity S-wave (km/s) = 4.37092 -1.78318 2.82181
# Velocity P-wave (km/s) = 6.50408 4.45483 5.57443
#
# Compressibility (1/GPa) = 0.02582394
#
# Stress axis : x y z
#
# Youngs Moduli (GPa) = 42.29438 168.30027 117.84791
#
# Poissons Ratio (x) = 0.41343 0.29677
# Poissons Ratio (y) = 0.10390 0.13539
# Poissons Ratio (z) = 0.10651 0.19335
#
# Static dielectric constant tensor:
#      x y z
#    x 1.906820 0.000000 0.000000 
#    y 0.000000 1.965710 0.000000 
#    z 0.000000 0.000000 1.862840 
# 
# From -- ./inp_files/10912.got.cif
#   From: 2010.05.17/outbox.cif.g08.bks.cpg/sg39_6_cif.got.tgz:10912.got - 2010.06.03 18:22:40.
