data_PCOD9361319
_publ_section_title
;
Structure prediction by ZEFSAII (Michael W. Deem and Ramdas Pophale) SiO2 
 PCOD9361319
Probable space group: A B M 2
;
_chemical_formula_sum "Si O2"
_cell_formula_units_Z 60
_cell_length_a 5.480372
_cell_length_b 26.137155
_cell_length_c 18.748622
_cell_angle_alpha 90.000000
_cell_angle_beta 90.000000
_cell_angle_gamma 90.000000
_cell_volume 2685.577596
_symmetry_space_group_name_H-M "A B M 2"
_symmetry_group_IT_number 39
_symmetry_cell_setting 'orthorhombic'
loop_
_space_group_symop_operation_xyz
x,y,z
-x,-y,z
-x,1/2+y,z
x,1/2-y,z
x,1/2+y,1/2+z
-x,1/2-y,1/2+z
-x,y,1/2+z
x,-y,1/2+z
loop_
_atom_site_type_symbol
_atom_site_label
_atom_site_fract_x
_atom_site_fract_y
_atom_site_fract_z
Si Si1 0.585217 0.118848 0.235800
Si Si2 0.067229 0.443058 0.234382
Si Si3 0.313639 0.196635 0.974444
Si Si4 0.935385 0.614539 0.435693
Si Si5 0.710873 0.965344 0.092384
Si Si6 0.664260 0.693098 0.340732
Si Si7 0.587510 0.634758 0.571597
Si Si8 0.000000 0.000000 0.961823
O O1 0.342381 0.081293 0.243440
O O2 0.504374 0.168622 0.279818
O O3 0.649711 0.135385 0.154776
O O4 0.836968 0.091245 0.258220
O O5 0.074473 0.450971 0.147507
O O6 0.000000 0.500000 0.262192
O O7 0.166590 0.250000 0.976934
O O8 0.502906 0.200615 0.910785
O O9 0.175689 0.145053 0.956011
O O10 0.455086 0.186557 0.047482
O O11 0.838570 0.647553 0.368814
O O12 0.777721 0.622030 0.508523
O O13 0.963990 0.553970 0.422099
O O14 0.598105 0.912103 0.070501
O O15 0.500000 0.000000 0.128600
O O16 0.784026 0.992742 0.019349
O O17 0.766297 0.750000 0.322238
#
# Coordination Sequence:
#
# PCOD9361319 Si02
#       8
#     8   8   8   8   8   8   8   4
#     4  11  25  42  71 101 137 183 241 290 349 425
#     4  11  22  40  64 101 142 187 223 275 346 428
#     4  10  22  41  67  92 127 176 229 286 352 416
#     4  11  22  40  66 102 133 180 230 290 359 427
#     4  11  19  33  61  99 139 187 221 265 349 432
#     4  10  25  49  69  89 131 191 245 294 363 436
#     4  10  21  37  64  97 137 165 223 294 342 411
#     4  12  20  32  64 100 136 176 226 280 344 426
#
# _framework density 22.341563000000001
#
# number of rings (size 3 to 8) (size 9 to 14) (size 15 to 20)
#    0.000    1.333    3.333    3.200    3.733    1.067 
#    1.200    1.333    0.000    0.000    0.000    0.000 
#    0.000    0.000    0.000    0.000    0.000    0.000 
#
# Total GULP energy -167064.388828 kJ/mol
# GULP energy per Si atom -5568.812961 kJ/mol
# Density = 2.229071 g / cm^3
# Si number density = 22.341563 Si / 1000 Ang^3
#
#
#
# Elastic Constant Matrix: (Units=GPa)
#
#
# Indices 1 2 3 4 5 6 
#
# 1 70.8522 34.2415 23.9435 0.0000 0.0000 0.0000
# 2 34.2415 175.2259 51.5382 0.0000 0.0000 0.0000
# 3 23.9435 51.5382 72.4602 0.0000 0.0000 0.0000
# 4 0.0000 0.0000 0.0000 20.1775 0.0000 0.0000
# 5 0.0000 0.0000 0.0000 0.0000 26.9946 0.0000
# 6 0.0000 0.0000 0.0000 0.0000 0.0000 -19.5358
#
#
#
# Elastic Compliance Matrix: (Units=1/GPa)
#
#
# Indices 1 2 3 4 5 6 
#
# 1 0.016447 -0.002043 -0.003982 0.000000 0.000000 0.000000
# 2 -0.002043 0.007470 -0.004638 0.000000 0.000000 0.000000
# 3 -0.003982 -0.004638 0.018415 0.000000 0.000000 0.000000
# 4 0.000000 0.000000 0.000000 0.049560 0.000000 0.000000
# 5 0.000000 0.000000 0.000000 0.000000 0.037044 0.000000
# 6 0.000000 0.000000 0.000000 0.000000 0.000000 -0.051188
#
#
# Mechanical properties :
#
#
# Convention : Reuss Voigt Hill
#
# Bulk Modulus (GPa) = 47.60338 59.77606 53.68972
# Shear Modulus (GPa) = 47.13567 19.44828 33.29197
#
# Velocity S-wave (km/s) = 4.59821 2.95362 3.86442
# Velocity P-wave (km/s) = 7.03880 6.20044 6.63288
#
# Compressibility (1/GPa) = 0.02100691
#
# Stress axis : x y z
#
# Youngs Moduli (GPa) = 60.80263 133.86215 54.30223
#
# Poissons Ratio (x) = 0.27345 0.21621
# Poissons Ratio (y) = 0.12421 0.25187
# Poissons Ratio (z) = 0.24209 0.62090
#
# Static dielectric constant tensor:
#      x y z
#    x 2.053010 0.000000 0.000000 
#    y 0.000000 1.953020 0.000000 
#    z 0.000000 0.000000 1.856900 
# 
# From -- ./inp_files/13615.got.cif
#   From: 2010.05.17/outbox.cif.g08.bks.cpg/sg39_7_cif.got.tgz:13615.got - 2010.06.03 18:22:40.
