data_PCOD9361339
_publ_section_title
;
Structure prediction by ZEFSAII (Michael W. Deem and Ramdas Pophale) SiO2 
 PCOD9361339
Probable space group: A B M 2
;
_chemical_formula_sum "Si O2"
_cell_formula_units_Z 64
_cell_length_a 19.372469
_cell_length_b 8.868099
_cell_length_c 19.622936
_cell_angle_alpha 90.000000
_cell_angle_beta 90.000000
_cell_angle_gamma 90.000000
_cell_volume 3371.161006
_symmetry_space_group_name_H-M "A B M 2"
_symmetry_group_IT_number 39
_symmetry_cell_setting 'orthorhombic'
loop_
_space_group_symop_operation_xyz
x,y,z
-x,-y,z
-x,1/2+y,z
x,1/2-y,z
x,1/2+y,1/2+z
-x,1/2-y,1/2+z
-x,y,1/2+z
x,-y,1/2+z
loop_
_atom_site_type_symbol
_atom_site_label
_atom_site_fract_x
_atom_site_fract_y
_atom_site_fract_z
Si Si1 0.203329 0.567676 0.703920
Si Si2 0.425923 0.428617 0.355840
Si Si3 0.074369 0.068910 0.296951
Si Si4 0.074974 0.569157 0.954627
Si Si5 0.652721 0.070798 0.230688
Si Si6 0.425477 0.074898 0.108945
Si Si7 0.196287 0.068093 0.044145
Si Si8 0.340162 0.075175 0.971970
O O1 0.210581 0.750000 0.707082
O O2 0.134618 0.523704 0.745081
O O3 0.270204 0.493297 0.737860
O O4 0.199685 0.525020 0.623960
O O5 0.500000 0.500000 0.373986
O O6 0.433026 0.250000 0.350144
O O7 0.398742 0.499157 0.285661
O O8 0.369136 0.473000 0.412035
O O9 0.068767 0.250000 0.294359
O O10 0.091186 0.027750 0.375573
O O11 0.000000 0.000000 0.279846
O O12 0.072051 0.750000 0.959134
O O13 0.000000 0.500000 0.970238
O O14 0.132393 0.505359 0.005172
O O15 0.652010 0.250000 0.236167
O O16 0.625702 0.015550 0.157644
O O17 0.428167 0.250000 0.130734
O O18 0.500000 0.000000 0.112250
O O19 0.395270 0.070779 0.033130
O O20 0.190039 0.250000 0.042263
O O21 0.266968 0.029251 0.004445
O O22 0.334669 0.250000 0.948539
#
# Coordination Sequence:
#
# PCOD9361339 Si02
#       8
#     8   8   8   8   8   8   8   8
#     4  10  21  41  63  89 124 164 202 247 307 361
#     4  12  26  44  65  89 122 160 204 258 313 368
#     4   9  20  38  62  89 121 157 201 246 297 357
#     4  10  21  38  60  90 122 160 205 251 301 360
#     4  12  25  41  62  91 123 160 207 254 303 364
#     4  11  22  40  64  90 122 161 201 249 304 361
#     4  10  21  39  62  89 125 163 198 247 304 362
#     4  10  22  41  63  91 125 161 203 248 305 367
#
# _framework density 18.984556000000001
#
# number of rings (size 3 to 8) (size 9 to 14) (size 15 to 20)
#    0.000    1.500    1.250    3.750    1.750    4.500 
#    0.000    1.250    0.000    0.000    0.000    0.000 
#    0.000    0.000    0.000    0.000    0.000    0.000 
#
# Total GULP energy -178862.356388 kJ/mol
# GULP energy per Si atom -5589.448637 kJ/mol
# Density = 1.894135 g / cm^3
# Si number density = 18.984556 Si / 1000 Ang^3
#
#
#
# Elastic Constant Matrix: (Units=GPa)
#
#
# Indices 1 2 3 4 5 6 
#
# 1 100.5127 32.0854 16.8366 0.0000 0.0000 0.0000
# 2 32.0854 72.0639 26.0427 0.0000 0.0000 0.0000
# 3 16.8366 26.0427 42.4046 0.0000 0.0000 0.0000
# 4 0.0000 0.0000 0.0000 24.6488 0.0000 0.0000
# 5 0.0000 0.0000 0.0000 0.0000 43.9439 0.0000
# 6 0.0000 0.0000 0.0000 0.0000 0.0000 30.6653
#
#
#
# Elastic Compliance Matrix: (Units=1/GPa)
#
#
# Indices 1 2 3 4 5 6 
#
# 1 0.011710 -0.004542 -0.001860 0.000000 0.000000 0.000000
# 2 -0.004542 0.019596 -0.010232 0.000000 0.000000 0.000000
# 3 -0.001860 -0.010232 0.030605 0.000000 0.000000 0.000000
# 4 0.000000 0.000000 0.000000 0.040570 0.000000 0.000000
# 5 0.000000 0.000000 0.000000 0.000000 0.022756 0.000000
# 6 0.000000 0.000000 0.000000 0.000000 0.000000 0.032610
#
#
# Mechanical properties :
#
#
# Convention : Reuss Voigt Hill
#
# Bulk Modulus (GPa) = 34.91130 40.54561 37.72846
# Shear Modulus (GPa) = 24.91737 29.18603 27.05170
#
# Velocity S-wave (km/s) = 3.62678 3.92517 3.77892
# Velocity P-wave (km/s) = 5.99728 6.47658 6.24153
#
# Compressibility (1/GPa) = 0.02864402
#
# Stress axis : x y z
#
# Youngs Moduli (GPa) = 85.39451 51.03026 32.67458
#
# Poissons Ratio (x) = 0.23176 0.06079
# Poissons Ratio (y) = 0.38782 0.33432
# Poissons Ratio (z) = 0.15887 0.52213
#
# Static dielectric constant tensor:
#      x y z
#    x 1.615070 0.000000 0.000000 
#    y 0.000000 1.638250 0.000000 
#    z 0.000000 0.000000 1.649430 
# 
# From -- ./inp_files/13189.got.cif
#   From: 2010.05.17/outbox.cif.g08.bks.cpg/sg39_7_cif.got.tgz:13189.got - 2010.06.03 18:22:40.
