data_PCOD9361695
_publ_section_title
;
Structure prediction by ZEFSAII (Michael W. Deem and Ramdas Pophale) SiO2 
 PCOD9361695
Probable space group: A B M 2
;
_chemical_formula_sum "Si O2"
_cell_formula_units_Z 60
_cell_length_a 17.475174
_cell_length_b 7.662513
_cell_length_c 19.275886
_cell_angle_alpha 90.000000
_cell_angle_beta 90.000000
_cell_angle_gamma 90.000000
_cell_volume 2581.113381
_symmetry_space_group_name_H-M "A B M 2"
_symmetry_group_IT_number 39
_symmetry_cell_setting 'orthorhombic'
loop_
_space_group_symop_operation_xyz
x,y,z
-x,-y,z
-x,1/2+y,z
x,1/2-y,z
x,1/2+y,1/2+z
-x,1/2-y,1/2+z
-x,y,1/2+z
x,-y,1/2+z
loop_
_atom_site_type_symbol
_atom_site_label
_atom_site_fract_x
_atom_site_fract_y
_atom_site_fract_z
Si Si1 0.413267 0.040412 0.062300
Si Si2 0.916661 0.543446 0.319657
Si Si3 0.311489 0.959392 0.697591
Si Si4 0.786329 0.442034 0.421444
Si Si5 0.634081 0.045239 0.350556
Si Si6 0.411844 0.750000 0.938551
Si Si7 0.086736 0.942312 0.022502
Si Si8 0.135589 0.038746 0.171939
O O1 0.407208 0.250000 0.044283
O O2 0.358038 0.003537 0.127302
O O3 0.500000 0.000000 0.084798
O O4 0.400065 0.906995 0.998844
O O5 0.903041 0.750000 0.322879
O O6 0.850342 0.453264 0.362371
O O7 0.910870 0.488408 0.240158
O O8 0.000000 0.500000 0.347725
O O9 0.310862 0.750000 0.706685
O O10 0.223388 0.013420 0.685489
O O11 0.346291 0.034355 0.768638
O O12 0.756458 0.250000 0.432199
O O13 0.711490 0.533102 0.390483
O O14 0.836740 0.478102 0.489147
O O15 0.617765 0.250000 0.365774
O O16 0.575445 0.904581 0.379231
O O17 0.089841 0.750000 0.993431
O O18 0.099545 0.955717 0.104162
O O19 0.000000 0.000000 0.007943
O O20 0.132874 0.250000 0.163142
#
# Coordination Sequence:
#
# PCOD9361695 Si02
#       8
#     8   8   8   8   8   4   8   8
#     4  11  25  48  80 112 150 196 243 294 361 440
#     4  11  22  37  60  85 121 170 224 282 348 408
#     4  10  22  44  74 108 146 191 240 299 365 444
#     4  11  24  41  62  90 129 171 228 286 345 420
#     4  11  25  43  72 110 150 191 244 305 370 432
#     4  12  26  46  78 108 154 192 238 300 358 438
#     4  12  26  41  60  85 126 175 228 291 359 426
#     4  10  22  40  64  93 127 169 223 287 345 415
#
# _framework density 23.245781999999998
#
# number of rings (size 3 to 8) (size 9 to 14) (size 15 to 20)
#    0.000    1.067    2.667    3.200    4.667    2.667 
#    0.000    0.667    0.000    0.000    0.000    0.000 
#    0.000    0.000    0.000    0.000    0.000    0.000 
#
# Total GULP energy -167063.778614 kJ/mol
# GULP energy per Si atom -5568.792620 kJ/mol
# Density = 2.319287 g / cm^3
# Si number density = 23.245782 Si / 1000 Ang^3
#
#
#
# Elastic Constant Matrix: (Units=GPa)
#
#
# Indices 1 2 3 4 5 6 
#
# 1 84.9639 18.7419 23.6245 0.0000 0.0000 0.0000
# 2 18.7419 107.9509 4.3572 0.0000 0.0000 0.0000
# 3 23.6245 4.3572 88.1730 0.0000 0.0000 0.0000
# 4 0.0000 0.0000 0.0000 38.6690 0.0000 0.0000
# 5 0.0000 0.0000 0.0000 0.0000 -19.3024 0.0000
# 6 0.0000 0.0000 0.0000 0.0000 0.0000 0.0336
#
#
#
# Elastic Compliance Matrix: (Units=1/GPa)
#
#
# Indices 1 2 3 4 5 6 
#
# 1 0.013198 -0.002153 -0.003430 0.000000 0.000000 0.000000
# 2 -0.002153 0.009633 0.000101 0.000000 0.000000 0.000000
# 3 -0.003430 0.000101 0.012255 0.000000 0.000000 0.000000
# 4 0.000000 0.000000 0.000000 0.025860 0.000000 0.000000
# 5 0.000000 0.000000 0.000000 0.000000 -0.051807 0.000000
# 6 0.000000 0.000000 0.000000 0.000000 0.000000 29.781032
#
#
# Mechanical properties :
#
#
# Convention : Reuss Voigt Hill
#
# Bulk Modulus (GPa) = 41.45465 41.61501 41.53483
# Shear Modulus (GPa) = 0.16773 19.50432 9.83603
#
# Velocity S-wave (km/s) = 0.26891 2.89977 2.05925
# Velocity P-wave (km/s) = 4.23891 5.39932 4.85391
#
# Compressibility (1/GPa) = 0.02412275
#
# Stress axis : x y z
#
# Youngs Moduli (GPa) = 75.76719 103.80776 81.59708
#
# Poissons Ratio (x) = 0.22350 0.27987
# Poissons Ratio (y) = 0.16313 -0.00823
# Poissons Ratio (z) = 0.25987 -0.01047
#
# Static dielectric constant tensor:
#      x y z
#    x 1.575590 0.000000 0.000000 
#    y 0.000000 1.861930 0.000000 
#    z 0.000000 0.000000 1.863060 
# 
# From -- ./inp_files/13006.got.cif
#   From: 2010.05.17/outbox.cif.g08.bks.cpg/sg39_7_cif.got.tgz:13006.got - 2010.06.03 18:22:40.
