data_PCOD9361840
_publ_section_title
;
Structure prediction by ZEFSAII (Michael W. Deem and Ramdas Pophale) SiO2 
 PCOD9361840
Probable space group: A B M 2
;
_chemical_formula_sum "Si O2"
_cell_formula_units_Z 40
_cell_length_a 21.299510
_cell_length_b 9.760274
_cell_length_c 9.766441
_cell_angle_alpha 90.000000
_cell_angle_beta 90.000000
_cell_angle_gamma 90.000000
_cell_volume 2030.336177
_symmetry_space_group_name_H-M "A B M 2"
_symmetry_group_IT_number 39
_symmetry_cell_setting 'orthorhombic'
loop_
_space_group_symop_operation_xyz
x,y,z
-x,-y,z
-x,1/2+y,z
x,1/2-y,z
x,1/2+y,1/2+z
-x,1/2-y,1/2+z
-x,y,1/2+z
x,-y,1/2+z
loop_
_atom_site_type_symbol
_atom_site_label
_atom_site_fract_x
_atom_site_fract_y
_atom_site_fract_z
Si Si1 0.225384 0.093463 0.527240
Si Si2 0.631386 0.409641 0.100198
Si Si3 0.439090 0.588897 0.381154
Si Si4 0.051981 0.250000 0.904580
Si Si5 0.146332 0.974730 0.291284
Si Si6 0.927794 0.750000 0.224558
O O1 0.226286 0.250000 0.476331
O O2 0.295521 0.058739 0.575626
O O3 0.179072 0.084979 0.656673
O O4 0.198580 0.998840 0.407628
O O5 0.620387 0.250000 0.058053
O O6 0.610759 0.419248 0.257622
O O7 0.590208 0.514512 0.012560
O O8 0.500000 0.500000 0.341789
O O9 0.453758 0.750000 0.404371
O O10 0.092408 0.379194 0.853397
O O11 0.985112 0.250000 0.830910
O O12 0.047253 0.250000 0.068700
O O13 0.114464 0.117293 0.250169
#
# Coordination Sequence:
#
# PCOD9361840 Si02
#       6
#     8   8   8   4   8   4
#     4  11  23  42  68  95 131 168 213 273 323 385
#     4  10  23  42  64  97 130 171 219 266 323 380
#     4  11  23  41  65  96 133 174 218 265 319 379
#     4  12  28  44  68  94 132 166 219 270 324 390
#     4  12  24  44  67  95 128 170 216 267 331 386
#     4  12  28  44  66 100 126 172 219 266 328 390
#
# _framework density 19.701170999999999
#
# number of rings (size 3 to 8) (size 9 to 14) (size 15 to 20)
#    0.000    0.800    4.000    3.000    2.800    4.800 
#    3.600    0.000    0.000    0.000    0.000    0.000 
#    0.000    0.000    0.000    0.000    0.000    0.000 
#
# Total GULP energy -111847.601298 kJ/mol
# GULP energy per Si atom -5592.380065 kJ/mol
# Density = 1.965633 g / cm^3
# Si number density = 19.701171 Si / 1000 Ang^3
#
#
#
# Elastic Constant Matrix: (Units=GPa)
#
#
# Indices 1 2 3 4 5 6 
#
# 1 57.4189 12.0855 -10.8447 0.0000 0.0000 0.0000
# 2 12.0855 94.3850 11.1292 0.0000 0.0000 0.0000
# 3 -10.8447 11.1292 72.7722 0.0000 0.0000 0.0000
# 4 0.0000 0.0000 0.0000 35.4220 0.0000 0.0000
# 5 0.0000 0.0000 0.0000 0.0000 39.0677 0.0000
# 6 0.0000 0.0000 0.0000 0.0000 0.0000 13.9135
#
#
#
# Elastic Compliance Matrix: (Units=1/GPa)
#
#
# Indices 1 2 3 4 5 6 
#
# 1 0.018600 -0.002758 0.003194 0.000000 0.000000 0.000000
# 2 -0.002758 0.011198 -0.002124 0.000000 0.000000 0.000000
# 3 0.003194 -0.002124 0.014542 0.000000 0.000000 0.000000
# 4 0.000000 0.000000 0.000000 0.028231 0.000000 0.000000
# 5 0.000000 0.000000 0.000000 0.000000 0.025597 0.000000
# 6 0.000000 0.000000 0.000000 0.000000 0.000000 0.071873
#
#
# Mechanical properties :
#
#
# Convention : Reuss Voigt Hill
#
# Bulk Modulus (GPa) = 24.41176 27.70178 26.05677
# Shear Modulus (GPa) = 26.72772 31.82771 29.27771
#
# Velocity S-wave (km/s) = 3.68728 4.02372 3.85917
# Velocity P-wave (km/s) = 5.52684 5.97316 5.75433
#
# Compressibility (1/GPa) = 0.04096386
#
# Stress axis : x y z
#
# Youngs Moduli (GPa) = 53.76468 89.29796 68.76541
#
# Poissons Ratio (x) = 0.24630 -0.21961
# Poissons Ratio (y) = 0.14829 0.14603
# Poissons Ratio (z) = -0.17170 0.18964
#
# Static dielectric constant tensor:
#      x y z
#    x 1.665410 0.000000 0.000000 
#    y 0.000000 1.655510 0.000000 
#    z 0.000000 0.000000 1.655340 
# 
# From -- ./inp_files/3629.got.cif
#   From: 2010.05.17/outbox.cif.g08.bks.cpg/sg39_2_cif.got.tgz:3629.got - 2010.06.03 18:22:40.
