data_PCOD9361149
_publ_section_title
;
Structure prediction by ZEFSAII (Michael W. Deem and Ramdas Pophale) SiO2 
 PCOD9361149
Probable space group: A B M 2
;
_chemical_formula_sum "Si O2"
_cell_formula_units_Z 48
_cell_length_a 8.600896
_cell_length_b 17.952318
_cell_length_c 14.072427
_cell_angle_alpha 90.000000
_cell_angle_beta 90.000000
_cell_angle_gamma 90.000000
_cell_volume 2172.867446
_symmetry_space_group_name_H-M "A B M 2"
_symmetry_group_IT_number 39
_symmetry_cell_setting 'orthorhombic'
loop_
_space_group_symop_operation_xyz
x,y,z
-x,-y,z
-x,1/2+y,z
x,1/2-y,z
x,1/2+y,1/2+z
-x,1/2-y,1/2+z
-x,y,1/2+z
x,-y,1/2+z
loop_
_atom_site_type_symbol
_atom_site_label
_atom_site_fract_x
_atom_site_fract_y
_atom_site_fract_z
Si Si1 0.608281 0.835287 0.633660
Si Si2 0.925253 0.665144 0.752852
Si Si3 0.123945 0.059753 0.118829
Si Si4 0.766619 0.837970 0.947105
Si Si5 0.397704 0.337208 0.419240
Si Si6 0.617580 0.560952 0.252855
O O1 0.548803 0.750000 0.625667
O O2 0.762254 0.834082 0.696231
O O3 0.646083 0.859357 0.526326
O O4 0.479350 0.884555 0.684110
O O5 0.984874 0.750000 0.755632
O O6 0.879700 0.642482 0.859584
O O7 0.038561 0.613722 0.693514
O O8 0.256344 0.022789 0.184777
O O9 0.196647 0.108864 0.035087
O O10 0.000000 0.000000 0.082921
O O11 0.789999 0.750000 0.970403
O O12 0.586244 0.844757 0.914924
O O13 0.360028 0.250000 0.403997
O O14 0.322964 0.389259 0.339776
O O15 0.500000 0.500000 0.292721
#
# Coordination Sequence:
#
# PCOD9361149 Si02
#       6
#     8   8   8   8   8   8
#     4  10  20  40  69  97 127 164 215 276 329 389
#     4  10  22  42  68  97 134 168 208 271 336 395
#     4  12  27  44  63  95 138 179 218 265 328 407
#     4  10  21  42  70  98 128 169 222 276 330 384
#     4  10  21  40  71 103 124 163 225 282 329 383
#     4  12  25  42  64  94 130 173 222 270 326 388
#
# _framework density 22.090623999999998
#
# number of rings (size 3 to 8) (size 9 to 14) (size 15 to 20)
#    0.000    1.333    3.333    2.000    0.000    4.667 
#    3.000    3.333    0.000    0.000    0.000    0.000 
#    0.000    0.000    0.000    0.000    0.000    0.000 
#
# Total GULP energy -134280.570865 kJ/mol
# GULP energy per Si atom -5595.023786 kJ/mol
# Density = 2.204034 g / cm^3
# Si number density = 22.090624 Si / 1000 Ang^3
#
#
#
# Elastic Constant Matrix: (Units=GPa)
#
#
# Indices 1 2 3 4 5 6 
#
# 1 17.9992 -6.6036 -4.8587 0.0000 0.0000 0.0000
# 2 -6.6036 38.2959 29.4065 0.0000 0.0000 0.0000
# 3 -4.8587 29.4065 111.8591 0.0000 0.0000 0.0000
# 4 0.0000 0.0000 0.0000 14.7668 0.0000 0.0000
# 5 0.0000 0.0000 0.0000 0.0000 24.4979 0.0000
# 6 0.0000 0.0000 0.0000 0.0000 0.0000 17.9383
#
#
#
# Elastic Compliance Matrix: (Units=1/GPa)
#
#
# Indices 1 2 3 4 5 6 
#
# 1 0.059312 0.010336 -0.000141 0.000000 0.000000 0.000000
# 2 0.010336 0.034518 -0.008625 0.000000 0.000000 0.000000
# 3 -0.000141 -0.008625 0.011201 0.000000 0.000000 0.000000
# 4 0.000000 0.000000 0.000000 0.067719 0.000000 0.000000
# 5 0.000000 0.000000 0.000000 0.000000 0.040820 0.000000
# 6 0.000000 0.000000 0.000000 0.000000 0.000000 0.055747
#
#
# Mechanical properties :
#
#
# Convention : Reuss Voigt Hill
#
# Bulk Modulus (GPa) = 9.24470 22.67141 15.95805
# Shear Modulus (GPa) = 16.54341 21.45460 18.99901
#
# Velocity S-wave (km/s) = 2.73955 3.11980 2.93584
# Velocity P-wave (km/s) = 3.76840 4.82315 4.32802
#
# Compressibility (1/GPa) = 0.10817013
#
# Stress axis : x y z
#
# Youngs Moduli (GPa) = 16.85997 28.97037 89.27579
#
# Poissons Ratio (x) = -0.29943 0.01258
# Poissons Ratio (y) = -0.17426 0.77005
# Poissons Ratio (z) = 0.00238 0.24988
#
# Static dielectric constant tensor:
#      x y z
#    x 1.824500 0.000000 0.000000 
#    y 0.000000 1.808990 0.000000 
#    z 0.000000 0.000000 1.766220 
# 
# From -- ./inp_files/8325.got.cif
#   From: 2010.05.17/outbox.cif.g08.bks.cpg/sg39_5_cif.got.tgz:8325.got - 2010.06.03 18:22:40.
