data_PCOD9361944
_publ_section_title
;
Structure prediction by ZEFSAII (Michael W. Deem and Ramdas Pophale) SiO2 
 PCOD9361944
Probable space group: A B M 2
;
_chemical_formula_sum "Si O2"
_cell_formula_units_Z 48
_cell_length_a 6.114349
_cell_length_b 24.646132
_cell_length_c 14.230743
_cell_angle_alpha 90.000000
_cell_angle_beta 90.000000
_cell_angle_gamma 90.000000
_cell_volume 2144.502564
_symmetry_space_group_name_H-M "A B M 2"
_symmetry_group_IT_number 39
_symmetry_cell_setting 'orthorhombic'
loop_
_space_group_symop_operation_xyz
x,y,z
-x,-y,z
-x,1/2+y,z
x,1/2-y,z
x,1/2+y,1/2+z
-x,1/2-y,1/2+z
-x,y,1/2+z
x,-y,1/2+z
loop_
_atom_site_type_symbol
_atom_site_label
_atom_site_fract_x
_atom_site_fract_y
_atom_site_fract_z
Si Si1 0.500000 0.500000 0.606690
Si Si2 0.042348 0.250000 0.570566
Si Si3 0.653768 0.750000 0.915361
Si Si4 0.893396 0.558620 0.699252
Si Si5 0.765857 0.096206 0.547942
Si Si6 0.994246 0.250000 0.786010
Si Si7 0.624961 0.659276 0.504339
Si Si8 0.035270 0.131284 0.373361
O O1 0.647815 0.541404 0.668985
O O2 0.336127 0.535961 0.544648
O O3 0.194996 0.302881 0.555096
O O4 0.852309 0.250000 0.492004
O O5 0.948992 0.250000 0.675788
O O6 0.747125 0.750000 0.810669
O O7 0.505511 0.800707 0.936765
O O8 0.000000 0.500000 0.715229
O O9 0.029207 0.589127 0.617170
O O10 0.949016 0.594922 0.788800
O O11 0.556664 0.133774 0.572876
O O12 0.852467 0.121908 0.452449
O O13 0.928286 0.307158 0.834830
O O14 0.746383 0.617591 0.433793
#
# Coordination Sequence:
#
# PCOD9361944 Si02
#       8
#     4   4   4   8   8   4   8   8
#     4  10  24  46  74 104 140 186 240 300 372 436
#     4  11  25  43  65  97 143 191 241 301 350 434
#     4  11  22  47  62  98 142 184 238 293 345 447
#     4  10  26  48  72 108 144 186 247 307 361 439
#     4  11  24  44  73  99 142 184 238 297 367 437
#     4  12  25  42  67 101 145 185 235 296 357 425
#     4  11  23  43  69  95 143 188 236 289 366 426
#     4  12  26  44  71 104 148 186 237 302 365 437
#
# _framework density 22.382812000000001
#
# number of rings (size 3 to 8) (size 9 to 14) (size 15 to 20)
#    0.000    1.000    3.333    1.500    7.000    8.000 
#    3.000    0.000    0.000    0.000    0.000    0.000 
#    0.000    0.000    0.000    0.000    0.000    0.000 
#
# Total GULP energy -133826.481006 kJ/mol
# GULP energy per Si atom -5576.103375 kJ/mol
# Density = 2.233187 g / cm^3
# Si number density = 22.382812 Si / 1000 Ang^3
#
#
#
# Elastic Constant Matrix: (Units=GPa)
#
#
# Indices 1 2 3 4 5 6 
#
# 1 123.8461 46.8784 49.9761 0.0000 0.0000 0.0000
# 2 46.8784 106.4897 56.6537 0.0000 0.0000 0.0000
# 3 49.9761 56.6537 120.3397 0.0000 0.0000 0.0000
# 4 0.0000 0.0000 0.0000 24.4419 0.0000 0.0000
# 5 0.0000 0.0000 0.0000 0.0000 18.7111 0.0000
# 6 0.0000 0.0000 0.0000 0.0000 0.0000 54.4040
#
#
#
# Elastic Compliance Matrix: (Units=1/GPa)
#
#
# Indices 1 2 3 4 5 6 
#
# 1 0.010388 -0.003039 -0.002883 0.000000 0.000000 0.000000
# 2 -0.003039 0.013418 -0.005055 0.000000 0.000000 0.000000
# 3 -0.002883 -0.005055 0.011887 0.000000 0.000000 0.000000
# 4 0.000000 0.000000 0.000000 0.040913 0.000000 0.000000
# 5 0.000000 0.000000 0.000000 0.000000 0.053444 0.000000
# 6 0.000000 0.000000 0.000000 0.000000 0.000000 0.018381
#
#
# Mechanical properties :
#
#
# Convention : Reuss Voigt Hill
#
# Bulk Modulus (GPa) = 72.78809 73.07687 72.93248
# Shear Modulus (GPa) = 28.57706 32.65589 30.61648
#
# Velocity S-wave (km/s) = 3.57703 3.82379 3.70247
# Velocity P-wave (km/s) = 7.04630 7.22598 7.13671
#
# Compressibility (1/GPa) = 0.01373851
#
# Stress axis : x y z
#
# Youngs Moduli (GPa) = 96.26032 74.52917 84.12610
#
# Poissons Ratio (x) = 0.22650 0.24258
# Poissons Ratio (y) = 0.29255 0.42523
# Poissons Ratio (z) = 0.27757 0.37672
#
# Static dielectric constant tensor:
#      x y z
#    x 1.883480 0.000000 0.000000 
#    y 0.000000 1.871160 0.000000 
#    z 0.000000 0.000000 1.800940 
# 
# From -- ./inp_files/7603.got.cif
#   From: 2010.05.17/outbox.cif.g08.bks.cpg/sg39_4_cif.got.tgz:7603.got - 2010.06.03 18:22:40.
