data_PCOD9361188
_publ_section_title
;
Structure prediction by ZEFSAII (Michael W. Deem and Ramdas Pophale) SiO2 
 PCOD9361188
Probable space group: A B M 2
;
_chemical_formula_sum "Si O2"
_cell_formula_units_Z 60
_cell_length_a 11.387380
_cell_length_b 27.697358
_cell_length_c 8.557935
_cell_angle_alpha 90.000000
_cell_angle_beta 90.000000
_cell_angle_gamma 90.000000
_cell_volume 2699.175613
_symmetry_space_group_name_H-M "A B M 2"
_symmetry_group_IT_number 39
_symmetry_cell_setting 'orthorhombic'
loop_
_space_group_symop_operation_xyz
x,y,z
-x,-y,z
-x,1/2+y,z
x,1/2-y,z
x,1/2+y,1/2+z
-x,1/2-y,1/2+z
-x,y,1/2+z
x,-y,1/2+z
loop_
_atom_site_type_symbol
_atom_site_label
_atom_site_fract_x
_atom_site_fract_y
_atom_site_fract_z
Si Si1 0.808160 0.510775 0.148300
Si Si2 0.947823 0.438038 0.376949
Si Si3 0.476226 0.306387 0.729624
Si Si4 0.738044 0.824199 0.518950
Si Si5 0.896098 0.750000 0.356132
Si Si6 0.327339 0.808658 0.523977
Si Si7 0.108978 0.672607 0.331217
Si Si8 0.230029 0.933387 0.921032
O O1 0.889472 0.474518 0.251865
O O2 0.731517 0.546407 0.254011
O O3 0.886668 0.544703 0.037022
O O4 0.733786 0.473644 0.045739
O O5 0.920625 0.383665 0.326738
O O6 0.087342 0.438064 0.404919
O O7 0.492881 0.250000 0.765858
O O8 0.390134 0.309473 0.579336
O O9 0.601282 0.326832 0.674542
O O10 0.402390 0.327052 0.873753
O O11 0.795399 0.791603 0.386783
O O12 0.821060 0.814938 0.672113
O O13 0.739996 0.880052 0.472810
O O14 0.998380 0.707668 0.342361
O O15 0.330254 0.750000 0.527145
O O16 0.193471 0.820624 0.482294
#
# Coordination Sequence:
#
# PCOD9361188 Si02
#       8
#     8   8   8   8   4   8   8   8
#     4  10  21  34  52  78 109 146 187 246 272 327
#     4  11  19  33  54  78 111 147 190 226 285 335
#     4   9  18  36  59  79 107 145 194 240 279 319
#     4  11  22  37  56  81 116 163 186 225 285 345
#     4  12  22  36  50  80 126 154 190 210 260 352
#     4   9  18  36  59  79 107 145 194 240 279 319
#     4  11  22  37  56  81 116 163 186 225 285 345
#     4  11  19  33  54  78 111 147 190 226 285 335
#
# _framework density 22.229011
#
# number of rings (size 3 to 8) (size 9 to 14) (size 15 to 20)
#    0.000    1.600    4.000    3.600    0.000    0.000 
#    4.800    0.000    0.000    0.000    0.000    5.600 
#    0.000    0.000    0.000    0.000    0.000    0.000 
#
# Total GULP energy -167089.536393 kJ/mol
# GULP energy per Si atom -5569.651213 kJ/mol
# Density = 2.217842 g / cm^3
# Si number density = 22.229011 Si / 1000 Ang^3
#
#
#
# Elastic Constant Matrix: (Units=GPa)
#
#
# Indices 1 2 3 4 5 6 
#
# 1 69.7349 10.1528 16.3504 0.0000 0.0000 0.0000
# 2 10.1528 100.1129 5.8955 0.0000 0.0000 0.0000
# 3 16.3504 5.8955 45.4132 0.0000 0.0000 0.0000
# 4 0.0000 0.0000 0.0000 26.1219 0.0000 0.0000
# 5 0.0000 0.0000 0.0000 0.0000 16.1029 0.0000
# 6 0.0000 0.0000 0.0000 0.0000 0.0000 13.4867
#
#
#
# Elastic Compliance Matrix: (Units=1/GPa)
#
#
# Indices 1 2 3 4 5 6 
#
# 1 0.015823 -0.001279 -0.005531 0.000000 0.000000 0.000000
# 2 -0.001279 0.010169 -0.000860 0.000000 0.000000 0.000000
# 3 -0.005531 -0.000860 0.024123 0.000000 0.000000 0.000000
# 4 0.000000 0.000000 0.000000 0.038282 0.000000 0.000000
# 5 0.000000 0.000000 0.000000 0.000000 0.062101 0.000000
# 6 0.000000 0.000000 0.000000 0.000000 0.000000 0.074147
#
#
# Mechanical properties :
#
#
# Convention : Reuss Voigt Hill
#
# Bulk Modulus (GPa) = 28.75538 31.11760 29.93649
# Shear Modulus (GPa) = 19.87471 23.33310 21.60391
#
# Velocity S-wave (km/s) = 2.99338 3.24337 3.12088
# Velocity P-wave (km/s) = 4.99110 5.29670 5.14617
#
# Compressibility (1/GPa) = 0.03477610
#
# Stress axis : x y z
#
# Youngs Moduli (GPa) = 63.19911 98.33755 41.45433
#
# Poissons Ratio (x) = 0.12577 0.22928
# Poissons Ratio (y) = 0.08083 0.03564
# Poissons Ratio (z) = 0.34954 0.08454
#
# Static dielectric constant tensor:
#      x y z
#    x 1.850880 0.000000 0.000000 
#    y 0.000000 1.644620 0.000000 
#    z 0.000000 0.000000 1.999100 
# 
# From -- ./inp_files/2819.got.cif
#   From: 2010.05.17/outbox.cif.g08.bks.cpg/sg39_2_cif.got.tgz:2819.got - 2010.06.03 18:22:40.
