data_PCOD9361580
_publ_section_title
;
Structure prediction by ZEFSAII (Michael W. Deem and Ramdas Pophale) SiO2 
 PCOD9361580
Probable space group: A B M 2
;
_chemical_formula_sum "Si O2"
_cell_formula_units_Z 56
_cell_length_a 9.735205
_cell_length_b 14.196949
_cell_length_c 18.611300
_cell_angle_alpha 90.000000
_cell_angle_beta 90.000000
_cell_angle_gamma 90.000000
_cell_volume 2572.271661
_symmetry_space_group_name_H-M "A B M 2"
_symmetry_group_IT_number 39
_symmetry_cell_setting 'orthorhombic'
loop_
_space_group_symop_operation_xyz
x,y,z
-x,-y,z
-x,1/2+y,z
x,1/2-y,z
x,1/2+y,1/2+z
-x,1/2-y,1/2+z
-x,y,1/2+z
x,-y,1/2+z
loop_
_atom_site_type_symbol
_atom_site_label
_atom_site_fract_x
_atom_site_fract_y
_atom_site_fract_z
Si Si1 0.858962 0.022012 0.107760
Si Si2 0.274257 0.855377 0.518522
Si Si3 0.426125 0.145446 0.279293
Si Si4 0.862350 0.862286 0.470999
Si Si5 0.451102 0.605189 0.942654
Si Si6 0.102399 0.638115 0.371249
Si Si7 0.715101 0.449850 0.247678
O O1 0.763435 0.068000 0.166863
O O2 0.776624 0.934429 0.073330
O O3 0.000000 0.000000 0.148826
O O4 0.912431 0.087715 0.042992
O O5 0.237750 0.750000 0.542856
O O6 0.435914 0.858346 0.498719
O O7 0.198456 0.872202 0.442045
O O8 0.391213 0.250000 0.251212
O O9 0.441035 0.152485 0.365335
O O10 0.576113 0.109613 0.256746
O O11 0.322407 0.060581 0.259446
O O12 0.874763 0.750000 0.476094
O O13 0.703581 0.890681 0.469776
O O14 0.951851 0.890708 0.401361
O O15 0.500000 0.500000 0.927273
O O16 0.098288 0.750000 0.353481
O O17 0.173258 0.583074 0.306412
#
# Coordination Sequence:
#
# PCOD9361580 Si02
#       7
#     8   8   8   8   8   8   8
#     4  12  27  45  66 100 143 185 232 287 360 433
#     4  11  22  42  73 100 133 182 235 286 344 412
#     4  11  23  43  68 100 142 184 238 302 350 410
#     4  11  25  43  70 106 142 181 231 294 353 418
#     4  12  21  40  71 107 137 174 234 298 348 410
#     4  10  21  44  76 104 133 180 235 287 348 415
#     4  11  25  43  68 106 140 186 237 287 361 430
#
# _framework density 21.77064
#
# number of rings (size 3 to 8) (size 9 to 14) (size 15 to 20)
#    0.000    0.857    5.714    1.714    0.000    5.143 
#    0.000    0.000    0.000    0.000    0.000    0.000 
#    0.000    0.000    0.000    0.000    0.000    0.000 
#
# Total GULP energy -156502.521017 kJ/mol
# GULP energy per Si atom -5589.375751 kJ/mol
# Density = 2.172109 g / cm^3
# Si number density = 21.770640 Si / 1000 Ang^3
#
#
#
# Elastic Constant Matrix: (Units=GPa)
#
#
# Indices 1 2 3 4 5 6 
#
# 1 102.3448 4.0543 12.1330 0.0000 0.0000 0.0000
# 2 4.0543 111.2473 15.6753 0.0000 0.0000 0.0000
# 3 12.1330 15.6753 66.3168 0.0000 0.0000 0.0000
# 4 0.0000 0.0000 0.0000 -183.7323 0.0000 0.0000
# 5 0.0000 0.0000 0.0000 0.0000 5.7330 0.0000
# 6 0.0000 0.0000 0.0000 0.0000 0.0000 1.8650
#
#
#
# Elastic Compliance Matrix: (Units=1/GPa)
#
#
# Indices 1 2 3 4 5 6 
#
# 1 0.009989 -0.000110 -0.001801 0.000000 0.000000 0.000000
# 2 -0.000110 0.009300 -0.002178 0.000000 0.000000 0.000000
# 3 -0.001801 -0.002178 0.015924 0.000000 0.000000 0.000000
# 4 0.000000 0.000000 0.000000 -0.005443 0.000000 0.000000
# 5 0.000000 0.000000 0.000000 0.000000 0.174429 0.000000
# 6 0.000000 0.000000 0.000000 0.000000 0.000000 0.536195
#
#
# Mechanical properties :
#
#
# Convention : Reuss Voigt Hill
#
# Bulk Modulus (GPa) = 36.99205 38.18157 37.58681
# Shear Modulus (GPa) = 6.59993 -18.69044 -6.04526
#
# Velocity S-wave (km/s) = 1.74303 -2.93322 -1.66818
# Velocity P-wave (km/s) = 4.59124 2.47072 3.68673
#
# Compressibility (1/GPa) = 0.02703284
#
# Stress axis : x y z
#
# Youngs Moduli (GPa) = 100.11187 107.52806 62.80010
#
# Poissons Ratio (x) = 0.01185 0.11313
# Poissons Ratio (y) = 0.01103 0.13678
# Poissons Ratio (z) = 0.18035 0.23420
#
# Static dielectric constant tensor:
#      x y z
#    x 0.781860 0.000000 0.000000 
#    y 0.000000 2.182110 0.000000 
#    z 0.000000 0.000000 1.748750 
# 
# From -- ./inp_files/14058.got.cif
#   From: 2010.05.17/outbox.cif.g08.bks.cpg/sg39_8_cif.got.tgz:14058.got - 2010.06.03 18:22:40.
