data_PCOD9361838
_publ_section_title
;
Structure prediction by ZEFSAII (Michael W. Deem and Ramdas Pophale) SiO2 
 PCOD9361838
Probable space group: A B M 2
;
_chemical_formula_sum "Si O2"
_cell_formula_units_Z 40
_cell_length_a 8.370575
_cell_length_b 20.370627
_cell_length_c 10.315936
_cell_angle_alpha 90.000000
_cell_angle_beta 90.000000
_cell_angle_gamma 90.000000
_cell_volume 1759.010078
_symmetry_space_group_name_H-M "A B M 2"
_symmetry_group_IT_number 39
_symmetry_cell_setting 'orthorhombic'
loop_
_space_group_symop_operation_xyz
x,y,z
-x,-y,z
-x,1/2+y,z
x,1/2-y,z
x,1/2+y,1/2+z
-x,1/2-y,1/2+z
-x,y,1/2+z
x,-y,1/2+z
loop_
_atom_site_type_symbol
_atom_site_label
_atom_site_fract_x
_atom_site_fract_y
_atom_site_fract_z
Si Si1 0.834750 0.823231 0.317310
Si Si2 0.825024 0.034616 0.915774
Si Si3 0.399115 0.432677 0.619065
Si Si4 0.630192 0.907236 0.895936
Si Si5 0.892416 0.680188 0.024804
O O1 0.748617 0.750000 0.317238
O O2 0.787687 0.900268 0.331497
O O3 0.948571 0.819718 0.441601
O O4 0.920239 0.824627 0.177353
O O5 0.689710 0.981946 0.880003
O O6 0.779080 0.051483 0.065968
O O7 0.000000 0.000000 0.902127
O O8 0.500000 0.500000 0.637964
O O9 0.402844 0.388590 0.747595
O O10 0.488179 0.398813 0.497709
O O11 0.779507 0.873906 0.965148
O O12 0.808520 0.750000 0.001968
#
# Coordination Sequence:
#
# PCOD9361838 Si02
#       5
#     8   8   8   8   8
#     4  10  23  42  64  96 135 170 209 269 334 382
#     4  11  23  38  68 103 129 163 224 272 321 388
#     4  10  24  42  62  95 136 175 204 274 330 385
#     4  11  24  42  65  94 133 171 221 261 330 387
#     4  10  23  43  66  94 134 175 217 270 330 395
#
# _framework density 22.740062999999999
#
# number of rings (size 3 to 8) (size 9 to 14) (size 15 to 20)
#    0.000    1.600    2.000    1.800   11.200    0.800 
#    0.000    2.000    0.000    0.000    0.000    0.000 
#    0.000    0.000    0.000    0.000    0.000    0.000 
#
# Total GULP energy -111336.409726 kJ/mol
# GULP energy per Si atom -5566.820486 kJ/mol
# Density = 2.268831 g / cm^3
# Si number density = 22.740063 Si / 1000 Ang^3
#
#
#
# Elastic Constant Matrix: (Units=GPa)
#
#
# Indices 1 2 3 4 5 6 
#
# 1 30.0990 -4.0266 -4.4964 0.0000 0.0000 0.0000
# 2 -4.0266 113.4677 9.2571 0.0000 0.0000 0.0000
# 3 -4.4964 9.2571 127.4878 0.0000 0.0000 0.0000
# 4 0.0000 0.0000 0.0000 21.0743 0.0000 0.0000
# 5 0.0000 0.0000 0.0000 0.0000 27.8606 0.0000
# 6 0.0000 0.0000 0.0000 0.0000 0.0000 -2.0576
#
#
#
# Elastic Compliance Matrix: (Units=1/GPa)
#
#
# Indices 1 2 3 4 5 6 
#
# 1 0.033536 0.001100 0.001103 0.000000 0.000000 0.000000
# 2 0.001100 0.008902 -0.000608 0.000000 0.000000 0.000000
# 3 0.001103 -0.000608 0.007927 0.000000 0.000000 0.000000
# 4 0.000000 0.000000 0.000000 0.047451 0.000000 0.000000
# 5 0.000000 0.000000 0.000000 0.000000 0.035893 0.000000
# 6 0.000000 0.000000 0.000000 0.000000 0.000000 -0.486011
#
#
# Mechanical properties :
#
#
# Convention : Reuss Voigt Hill
#
# Bulk Modulus (GPa) = 18.67238 30.28030 24.47634
# Shear Modulus (GPa) = -14.80859 27.39685 6.29413
#
# Velocity S-wave (km/s) = -2.55465 3.47476 1.66549
# Velocity P-wave (km/s) = 0.68747 5.42618 3.80597
#
# Compressibility (1/GPa) = 0.05355502
#
# Stress axis : x y z
#
# Youngs Moduli (GPa) = 29.81906 112.33826 126.15273
#
# Poissons Ratio (x) = -0.12358 -0.13913
# Poissons Ratio (y) = -0.03280 0.07665
# Poissons Ratio (z) = -0.03289 0.06825
#
# Static dielectric constant tensor:
#      x y z
#    x 1.882770 0.000000 0.000000 
#    y 0.000000 2.258570 0.000000 
#    z 0.000000 0.000000 1.879890 
# 
# From -- ./inp_files/2112.got.cif
#   From: 2010.05.17/outbox.cif.g08.bks.cpg/sg39_2_cif.got.tgz:2112.got - 2010.06.03 18:22:40.
