data_PCOD9361946
_publ_section_title
;
Structure prediction by ZEFSAII (Michael W. Deem and Ramdas Pophale) SiO2 
 PCOD9361946
Probable space group: A B M 2
;
_chemical_formula_sum "Si O2"
_cell_formula_units_Z 40
_cell_length_a 4.982783
_cell_length_b 35.609348
_cell_length_c 9.433467
_cell_angle_alpha 90.000000
_cell_angle_beta 90.000000
_cell_angle_gamma 90.000000
_cell_volume 1673.814518
_symmetry_space_group_name_H-M "A B M 2"
_symmetry_group_IT_number 39
_symmetry_cell_setting 'orthorhombic'
loop_
_space_group_symop_operation_xyz
x,y,z
-x,-y,z
-x,1/2+y,z
x,1/2-y,z
x,1/2+y,1/2+z
-x,1/2-y,1/2+z
-x,y,1/2+z
x,-y,1/2+z
loop_
_atom_site_type_symbol
_atom_site_label
_atom_site_fract_x
_atom_site_fract_y
_atom_site_fract_z
Si Si1 0.327624 0.391604 0.457630
Si Si2 0.030681 0.911495 0.212214
Si Si3 0.500994 0.455649 0.129269
Si Si4 0.320840 0.321692 0.936996
Si Si5 0.819795 0.705631 0.618567
O O1 0.721762 0.439732 0.241695
O O2 0.387307 0.435607 0.487109
O O3 0.580686 0.365227 0.438654
O O4 0.121728 0.388666 0.331186
O O5 0.255144 0.809285 0.276316
O O6 0.171499 0.883340 0.102891
O O7 0.790712 0.937341 0.150267
O O8 0.500000 0.500000 0.125490
O O9 0.577181 0.301130 0.007519
O O10 0.078758 0.312257 0.042401
O O11 0.869117 0.750000 0.633675
#
# Coordination Sequence:
#
# PCOD9361946 Si02
#       5
#     8   8   8   8   8
#     4  10  28  47  77 112 157 207 266 326 393 478
#     4  10  25  46  73 106 157 198 271 323 396 464
#     4  10  24  46  74 110 153 209 266 335 394 463
#     4  12  29  50  85 115 167 209 262 328 406 470
#     4  12  27  52  83 122 159 206 262 325 402 493
#
# _framework density 23.897511999999999
#
# number of rings (size 3 to 8) (size 9 to 14) (size 15 to 20)
#    1.200    0.000    0.000    3.600    8.400    2.400 
#    3.600    2.000    0.000    0.000    0.000    0.000 
#    0.000    0.000    0.000    0.000    0.000    0.000 
#
# Total GULP energy -111785.262818 kJ/mol
# GULP energy per Si atom -5589.263141 kJ/mol
# Density = 2.384312 g / cm^3
# Si number density = 23.897512 Si / 1000 Ang^3
#
#
#
# Elastic Constant Matrix: (Units=GPa)
#
#
# Indices 1 2 3 4 5 6 
#
# 1 193.1074 49.2032 61.5079 0.0000 0.0000 0.0000
# 2 49.2032 150.4769 37.1370 0.0000 0.0000 0.0000
# 3 61.5079 37.1370 132.2968 0.0000 0.0000 0.0000
# 4 0.0000 0.0000 0.0000 28.1662 0.0000 0.0000
# 5 0.0000 0.0000 0.0000 0.0000 55.4595 0.0000
# 6 0.0000 0.0000 0.0000 0.0000 0.0000 30.0887
#
#
#
# Elastic Compliance Matrix: (Units=1/GPa)
#
#
# Indices 1 2 3 4 5 6 
#
# 1 0.006360 -0.001450 -0.002550 0.000000 0.000000 0.000000
# 2 -0.001450 0.007471 -0.001423 0.000000 0.000000 0.000000
# 3 -0.002550 -0.001423 0.009144 0.000000 0.000000 0.000000
# 4 0.000000 0.000000 0.000000 0.035504 0.000000 0.000000
# 5 0.000000 0.000000 0.000000 0.000000 0.018031 0.000000
# 6 0.000000 0.000000 0.000000 0.000000 0.000000 0.033235
#
#
# Mechanical properties :
#
#
# Convention : Reuss Voigt Hill
#
# Bulk Modulus (GPa) = 82.44972 85.73082 84.09027
# Shear Modulus (GPa) = 40.11760 44.61175 42.36468
#
# Velocity S-wave (km/s) = 4.10168 4.32533 4.21499
# Velocity P-wave (km/s) = 7.55037 7.80365 7.67805
#
# Compressibility (1/GPa) = 0.01212860
#
# Stress axis : x y z
#
# Youngs Moduli (GPa) = 157.22799 133.85204 109.36532
#
# Poissons Ratio (x) = 0.19413 0.27887
# Poissons Ratio (y) = 0.22804 0.15561
# Poissons Ratio (z) = 0.40091 0.19045
#
# Static dielectric constant tensor:
#      x y z
#    x 1.918620 0.000000 0.000000 
#    y 0.000000 1.932050 0.000000 
#    z 0.000000 0.000000 1.962980 
# 
# From -- ./inp_files/4597.got.cif
#   From: 2010.05.17/outbox.cif.g08.bks.cpg/sg39_3_cif.got.tgz:4597.got - 2010.06.03 18:22:40.
