data_PCOD9361232
_publ_section_title
;
Structure prediction by ZEFSAII (Michael W. Deem and Ramdas Pophale) SiO2 
 PCOD9361232
Probable space group: A B M 2
;
_chemical_formula_sum "Si O2"
_cell_formula_units_Z 56
_cell_length_a 20.403790
_cell_length_b 9.051617
_cell_length_c 15.431820
_cell_angle_alpha 90.000000
_cell_angle_beta 90.000000
_cell_angle_gamma 90.000000
_cell_volume 2850.061053
_symmetry_space_group_name_H-M "A B M 2"
_symmetry_group_IT_number 39
_symmetry_cell_setting 'orthorhombic'
loop_
_space_group_symop_operation_xyz
x,y,z
-x,-y,z
-x,1/2+y,z
x,1/2-y,z
x,1/2+y,1/2+z
-x,1/2-y,1/2+z
-x,y,1/2+z
x,-y,1/2+z
loop_
_atom_site_type_symbol
_atom_site_label
_atom_site_fract_x
_atom_site_fract_y
_atom_site_fract_z
Si Si1 0.070946 0.926361 0.686810
Si Si2 0.563379 0.584051 0.284523
Si Si3 0.304818 0.425655 0.529912
Si Si4 0.829293 0.073180 0.533868
Si Si5 0.160453 0.425500 0.830210
Si Si6 0.691965 0.425896 0.342576
Si Si7 0.436874 0.584824 0.579404
O O1 0.064731 0.750000 0.692696
O O2 0.111976 0.960927 0.599413
O O3 0.111807 0.986306 0.768803
O O4 0.000000 0.000000 0.684281
O O5 0.500000 0.500000 0.321706
O O6 0.571269 0.750000 0.321172
O O7 0.628834 0.488053 0.294411
O O8 0.551892 0.599921 0.182032
O O9 0.305035 0.250000 0.536122
O O10 0.236585 0.491444 0.564732
O O11 0.306562 0.484183 0.431708
O O12 0.370383 0.493657 0.569703
O O13 0.817091 0.250000 0.535307
O O14 0.843765 0.034977 0.432901
O O15 0.147201 0.250000 0.823384
O O16 0.236194 0.450439 0.801833
O O17 0.686173 0.250000 0.357793
O O18 0.500000 0.500000 0.542438
O O19 0.429909 0.750000 0.542065
#
# Coordination Sequence:
#
# PCOD9361232 Si02
#       7
#     8   8   8   8   8   8   8
#     4  11  24  41  64  93 125 159 201 243 294 358
#     4  10  21  36  55  80 112 150 194 242 294 352
#     4  11  22  36  58  86 114 149 196 242 291 352
#     4   9  21  42  63  88 123 163 200 247 303 356
#     4   9  20  40  63  89 123 159 199 246 300 355
#     4  10  21  38  59  83 115 151 191 241 296 351
#     4  10  21  37  55  79 113 151 193 243 296 350
#
# _framework density 19.648702
#
# number of rings (size 3 to 8) (size 9 to 14) (size 15 to 20)
#    0.000    2.000    0.000    3.857    2.000    6.857 
#    0.000    4.286    0.000    0.000    0.000    0.000 
#    0.000    0.000    0.000    0.000    0.000    0.000 
#
# Total GULP energy -156316.250837 kJ/mol
# GULP energy per Si atom -5582.723244 kJ/mol
# Density = 1.960398 g / cm^3
# Si number density = 19.648702 Si / 1000 Ang^3
#
#
#
# Elastic Constant Matrix: (Units=GPa)
#
#
# Indices 1 2 3 4 5 6 
#
# 1 191.8619 103.0189 59.7228 0.0000 0.0000 0.0000
# 2 103.0189 123.3455 39.7430 0.0000 0.0000 0.0000
# 3 59.7228 39.7430 60.9508 0.0000 0.0000 0.0000
# 4 0.0000 0.0000 0.0000 18.5722 0.0000 0.0000
# 5 0.0000 0.0000 0.0000 0.0000 33.7148 0.0000
# 6 0.0000 0.0000 0.0000 0.0000 0.0000 26.4422
#
#
#
# Elastic Compliance Matrix: (Units=1/GPa)
#
#
# Indices 1 2 3 4 5 6 
#
# 1 0.010965 -0.007211 -0.006042 0.000000 0.000000 0.000000
# 2 -0.007211 0.015006 -0.002719 0.000000 0.000000 0.000000
# 3 -0.006042 -0.002719 0.024100 0.000000 0.000000 0.000000
# 4 0.000000 0.000000 0.000000 0.053844 0.000000 0.000000
# 5 0.000000 0.000000 0.000000 0.000000 0.029661 0.000000
# 6 0.000000 0.000000 0.000000 0.000000 0.000000 0.037818
#
#
# Mechanical properties :
#
#
# Convention : Reuss Voigt Hill
#
# Bulk Modulus (GPa) = 55.16693 86.79196 70.97945
# Shear Modulus (GPa) = 23.88013 27.32409 25.60211
#
# Velocity S-wave (km/s) = 3.48997 3.73316 3.61361
# Velocity P-wave (km/s) = 6.66164 7.92778 7.32213
#
# Compressibility (1/GPa) = 0.01812680
#
# Stress axis : x y z
#
# Youngs Moduli (GPa) = 91.20161 66.63956 41.49431
#
# Poissons Ratio (x) = 0.48054 0.25070
# Poissons Ratio (y) = 0.65766 0.11282
# Poissons Ratio (z) = 0.55103 0.18119
#
# Static dielectric constant tensor:
#      x y z
#    x 1.682420 0.000000 0.000000 
#    y 0.000000 1.682310 0.000000 
#    z 0.000000 0.000000 1.719680 
# 
# From -- ./inp_files/10389.got.cif
#   From: 2010.05.17/outbox.cif.g08.bks.cpg/sg39_6_cif.got.tgz:10389.got - 2010.06.03 18:22:40.
