data_PCOD9361950
_publ_section_title
;
Structure prediction by ZEFSAII (Michael W. Deem and Ramdas Pophale) SiO2 
 PCOD9361950
Probable space group: A B M 2
;
_chemical_formula_sum "Si O2"
_cell_formula_units_Z 48
_cell_length_a 7.873980
_cell_length_b 24.687891
_cell_length_c 11.125512
_cell_angle_alpha 90.000000
_cell_angle_beta 90.000000
_cell_angle_gamma 90.000000
_cell_volume 2162.710083
_symmetry_space_group_name_H-M "A B M 2"
_symmetry_group_IT_number 39
_symmetry_cell_setting 'orthorhombic'
loop_
_space_group_symop_operation_xyz
x,y,z
-x,-y,z
-x,1/2+y,z
x,1/2-y,z
x,1/2+y,1/2+z
-x,1/2-y,1/2+z
-x,y,1/2+z
x,-y,1/2+z
loop_
_atom_site_type_symbol
_atom_site_label
_atom_site_fract_x
_atom_site_fract_y
_atom_site_fract_z
Si Si1 0.669142 0.250000 0.353150
Si Si2 0.609604 0.543647 0.303603
Si Si3 0.550856 0.632122 0.111596
Si Si4 0.853371 0.040589 0.224905
Si Si5 0.833324 0.364379 0.419932
Si Si6 0.473547 0.250000 0.112443
Si Si7 0.809645 0.108534 0.998697
O O1 0.765847 0.306371 0.375458
O O2 0.622305 0.250000 0.211983
O O3 0.527695 0.250000 0.464429
O O4 0.500000 0.500000 0.380482
O O5 0.534540 0.592100 0.223751
O O6 0.693876 0.499529 0.216049
O O7 0.742883 0.573721 0.387404
O O8 0.610710 0.692640 0.145497
O O9 0.363337 0.635622 0.051159
O O10 0.696968 0.614494 0.018735
O O11 0.835918 0.089263 0.318892
O O12 0.882531 0.067767 0.097790
O O13 0.000000 0.000000 0.262797
O O14 0.026905 0.356348 0.464404
#
# Coordination Sequence:
#
# PCOD9361950 Si02
#       7
#     4   8   8   8   8   4   8
#     4  10  24  49  79 109 152 193 259 318 371 459
#     4  12  26  42  69 105 141 187 242 304 362 447
#     4  11  26  47  73 104 143 188 251 300 369 445
#     4  12  25  43  68 101 146 187 237 300 366 443
#     4  11  26  48  72 106 145 189 246 303 367 442
#     4  10  24  47  77 105 148 195 245 318 371 437
#     4  12  27  44  73 104 144 195 237 302 374 434
#
# _framework density 22.194375000000001
#
# number of rings (size 3 to 8) (size 9 to 14) (size 15 to 20)
#    0.000    0.667    3.333    3.000   11.667    0.667 
#    0.000    1.667    0.000    0.000    0.000    0.000 
#    0.000    0.000    0.000    0.000    0.000    0.000 
#
# Total GULP energy -133820.390710 kJ/mol
# GULP energy per Si atom -5575.849613 kJ/mol
# Density = 2.214386 g / cm^3
# Si number density = 22.194375 Si / 1000 Ang^3
#
#
#
# Elastic Constant Matrix: (Units=GPa)
#
#
# Indices 1 2 3 4 5 6 
#
# 1 121.8656 37.2758 49.6766 0.0000 0.0000 0.0000
# 2 37.2758 144.0341 54.5099 0.0000 0.0000 0.0000
# 3 49.6766 54.5099 88.6337 0.0000 0.0000 0.0000
# 4 0.0000 0.0000 0.0000 11.3649 0.0000 0.0000
# 5 0.0000 0.0000 0.0000 0.0000 -111.9702 0.0000
# 6 0.0000 0.0000 0.0000 0.0000 0.0000 38.1363
#
#
#
# Elastic Compliance Matrix: (Units=1/GPa)
#
#
# Indices 1 2 3 4 5 6 
#
# 1 0.010682 -0.000650 -0.005587 0.000000 0.000000 0.000000
# 2 -0.000650 0.009088 -0.005225 0.000000 0.000000 0.000000
# 3 -0.005587 -0.005225 0.017627 0.000000 0.000000 0.000000
# 4 0.000000 0.000000 0.000000 0.087991 0.000000 0.000000
# 5 0.000000 0.000000 0.000000 0.000000 -0.008931 0.000000
# 6 0.000000 0.000000 0.000000 0.000000 0.000000 0.026222
#
#
# Mechanical properties :
#
#
# Convention : Reuss Voigt Hill
#
# Bulk Modulus (GPa) = 69.09337 70.82867 69.96102
# Shear Modulus (GPa) = 29.33782 1.71093 15.52438
#
# Velocity S-wave (km/s) = 3.63968 0.87895 2.64763
# Velocity P-wave (km/s) = 6.99011 5.74563 6.39820
#
# Compressibility (1/GPa) = 0.01447317
#
# Stress axis : x y z
#
# Youngs Moduli (GPa) = 93.61414 110.02951 56.73005
#
# Poissons Ratio (x) = 0.07152 0.31697
# Poissons Ratio (y) = 0.06085 0.29642
# Poissons Ratio (z) = 0.52305 0.57492
#
# Static dielectric constant tensor:
#      x y z
#    x 2.038360 0.000000 0.000000 
#    y 0.000000 1.779890 0.000000 
#    z 0.000000 0.000000 1.837360 
# 
# From -- ./inp_files/5216.got.cif
#   From: 2010.05.17/outbox.cif.g08.bks.cpg/sg39_3_cif.got.tgz:5216.got - 2010.06.03 18:22:40.
