data_PCOD9361458
_publ_section_title
;
Structure prediction by ZEFSAII (Michael W. Deem and Ramdas Pophale) SiO2 
 PCOD9361458
Probable space group: A B M 2
;
_chemical_formula_sum "Si O2"
_cell_formula_units_Z 64
_cell_length_a 9.710585
_cell_length_b 13.982545
_cell_length_c 22.489228
_cell_angle_alpha 90.000000
_cell_angle_beta 90.000000
_cell_angle_gamma 90.000000
_cell_volume 3053.557956
_symmetry_space_group_name_H-M "A B M 2"
_symmetry_group_IT_number 39
_symmetry_cell_setting 'orthorhombic'
loop_
_space_group_symop_operation_xyz
x,y,z
-x,-y,z
-x,1/2+y,z
x,1/2-y,z
x,1/2+y,1/2+z
-x,1/2-y,1/2+z
-x,y,1/2+z
x,-y,1/2+z
loop_
_atom_site_type_symbol
_atom_site_label
_atom_site_fract_x
_atom_site_fract_y
_atom_site_fract_z
Si Si1 0.055503 0.634687 0.047590
Si Si2 0.569635 0.358243 0.589996
Si Si3 0.710384 0.450388 0.127483
Si Si4 0.854160 0.862322 0.417366
Si Si5 0.656179 0.488068 0.385167
Si Si6 0.225482 0.455676 0.760937
Si Si7 0.770305 0.141468 0.486863
Si Si8 0.949618 0.138813 0.793101
O O1 0.070786 0.750000 0.056845
O O2 0.143401 0.580547 0.098242
O O3 0.893325 0.617278 0.033576
O O4 0.117499 0.603470 0.983724
O O5 0.588531 0.250000 0.612758
O O6 0.411035 0.389610 0.595859
O O7 0.663087 0.439580 0.620203
O O8 0.627500 0.358998 0.522994
O O9 0.707955 0.434554 0.197862
O O10 0.846636 0.750000 0.422779
O O11 0.959993 0.883933 0.364052
O O12 0.717382 0.906354 0.390940
O O13 0.500000 0.500000 0.402936
O O14 0.676456 0.450422 0.318270
O O15 0.746570 0.425089 0.430520
O O16 0.154984 0.561792 0.764497
O O17 0.099004 0.382713 0.767566
O O18 0.802809 0.250000 0.467107
O O19 0.909994 0.250000 0.785976
#
# Coordination Sequence:
#
# PCOD9361458 Si02
#       8
#     8   8   8   8   8   8   8   8
#     4  10  21  39  67  99 129 163 212 268 327 391
#     4  10  24  43  63  88 127 171 213 270 332 386
#     4  11  24  41  67  91 129 174 221 265 321 396
#     4   9  19  37  62  92 124 157 202 261 324 384
#     4  11  24  38  63  90 130 173 215 266 325 392
#     4  10  23  40  62  93 126 167 219 263 310 394
#     4  10  23  42  65  98 131 161 213 277 334 391
#     4   9  19  39  65  92 124 159 200 266 335 377
#
# _framework density 20.959157000000001
#
# number of rings (size 3 to 8) (size 9 to 14) (size 15 to 20)
#    0.000    2.000    0.000    1.875    5.250    8.500 
#    0.000    1.250    0.000    0.000    0.000    0.000 
#    0.000    0.000    0.000    0.000    0.000    0.000 
#
# Total GULP energy -178484.868763 kJ/mol
# GULP energy per Si atom -5577.652149 kJ/mol
# Density = 2.091145 g / cm^3
# Si number density = 20.959157 Si / 1000 Ang^3
#
#
#
# Elastic Constant Matrix: (Units=GPa)
#
#
# Indices 1 2 3 4 5 6 
#
# 1 91.6268 27.5826 27.9828 0.0000 0.0000 0.0000
# 2 27.5826 89.6795 23.8255 0.0000 0.0000 0.0000
# 3 27.9828 23.8255 82.9979 0.0000 0.0000 0.0000
# 4 0.0000 0.0000 0.0000 18.3022 0.0000 0.0000
# 5 0.0000 0.0000 0.0000 0.0000 20.5728 0.0000
# 6 0.0000 0.0000 0.0000 0.0000 0.0000 16.2413
#
#
#
# Elastic Compliance Matrix: (Units=1/GPa)
#
#
# Indices 1 2 3 4 5 6 
#
# 1 0.012890 -0.003042 -0.003473 0.000000 0.000000 0.000000
# 2 -0.003042 0.012789 -0.002646 0.000000 0.000000 0.000000
# 3 -0.003473 -0.002646 0.013979 0.000000 0.000000 0.000000
# 4 0.000000 0.000000 0.000000 0.054638 0.000000 0.000000
# 5 0.000000 0.000000 0.000000 0.000000 0.048608 0.000000
# 6 0.000000 0.000000 0.000000 0.000000 0.000000 0.061571
#
#
# Mechanical properties :
#
#
# Convention : Reuss Voigt Hill
#
# Bulk Modulus (GPa) = 46.86587 47.00955 46.93771
# Shear Modulus (GPa) = 21.74775 23.35083 22.54929
#
# Velocity S-wave (km/s) = 3.22471 3.34145 3.28360
# Velocity P-wave (km/s) = 6.02280 6.11268 6.06791
#
# Compressibility (1/GPa) = 0.02133749
#
# Stress axis : x y z
#
# Youngs Moduli (GPa) = 77.57876 78.19006 71.53689
#
# Poissons Ratio (x) = 0.23785 0.24842
# Poissons Ratio (y) = 0.23599 0.18927
# Poissons Ratio (z) = 0.26941 0.20687
#
# Static dielectric constant tensor:
#      x y z
#    x 1.800600 0.000000 0.000000 
#    y 0.000000 1.781150 0.000000 
#    z 0.000000 0.000000 1.764110 
# 
# From -- ./inp_files/15726.got.cif
#   From: 2010.05.17/outbox.cif.g08.bks.cpg/sg39_8_cif.got.tgz:15726.got - 2010.06.03 18:22:40.
