data_PCOD9361008
_publ_section_title
;
Structure prediction by ZEFSAII (Michael W. Deem and Ramdas Pophale) SiO2 
 PCOD9361008
Probable space group: A B M 2
;
_chemical_formula_sum "Si O2"
_cell_formula_units_Z 64
_cell_length_a 9.382869
_cell_length_b 22.793272
_cell_length_c 13.283198
_cell_angle_alpha 90.000000
_cell_angle_beta 90.000000
_cell_angle_gamma 90.000000
_cell_volume 2840.828213
_symmetry_space_group_name_H-M "A B M 2"
_symmetry_group_IT_number 39
_symmetry_cell_setting 'orthorhombic'
loop_
_space_group_symop_operation_xyz
x,y,z
-x,-y,z
-x,1/2+y,z
x,1/2-y,z
x,1/2+y,1/2+z
-x,1/2-y,1/2+z
-x,y,1/2+z
x,-y,1/2+z
loop_
_atom_site_type_symbol
_atom_site_label
_atom_site_fract_x
_atom_site_fract_y
_atom_site_fract_z
Si Si1 0.048550 0.064254 0.315260
Si Si2 0.123857 0.314362 0.477658
Si Si3 0.668316 0.892859 0.362698
Si Si4 0.352278 0.529054 0.058753
Si Si5 0.810969 0.316800 0.515674
Si Si6 0.812317 0.878729 0.684153
Si Si7 0.097553 0.554787 0.532495
Si Si8 0.600637 0.817923 0.831509
O O1 0.219088 0.067655 0.301692
O O2 0.952004 0.105899 0.247694
O O3 0.995755 0.069214 0.432098
O O4 0.000000 0.000000 0.288445
O O5 0.178314 0.250000 0.500546
O O6 0.221203 0.341695 0.392898
O O7 0.141805 0.350994 0.579015
O O8 0.957479 0.310389 0.452527
O O9 0.625277 0.926844 0.464641
O O10 0.530009 0.862697 0.318274
O O11 0.500000 0.500000 0.089368
O O12 0.279427 0.564614 0.150039
O O13 0.244189 0.479975 0.016719
O O14 0.796382 0.250000 0.564471
O O15 0.844455 0.380208 0.569692
O O16 0.678005 0.324921 0.440445
O O17 0.716020 0.835095 0.748209
O O18 0.000000 0.500000 0.577681
O O19 0.556706 0.750000 0.822550
#
# Coordination Sequence:
#
# PCOD9361008 Si02
#       8
#     8   8   8   8   8   8   8   8
#     4  11  22  40  64  94 123 166 218 279 331 390
#     4  10  20  38  62  87 121 165 219 270 323 394
#     4  11  21  40  66  91 120 170 226 267 325 393
#     4  11  24  39  64  94 127 167 209 271 339 400
#     4  10  20  37  65  94 122 170 223 270 329 407
#     4  11  24  41  59  95 133 170 212 272 349 388
#     4  11  18  39  65  92 126 166 221 274 327 389
#     4  11  23  40  64  93 134 178 222 276 335 404
#
# _framework density 22.528642999999999
#
# number of rings (size 3 to 8) (size 9 to 14) (size 15 to 20)
#    0.000    1.250    5.000    2.250    0.000    2.500 
#    0.000    4.375    0.000    5.250    0.000    0.000 
#    0.000    0.000    0.000    0.000    0.000    0.000 
#
# Total GULP energy -178316.554354 kJ/mol
# GULP energy per Si atom -5572.392324 kJ/mol
# Density = 2.247737 g / cm^3
# Si number density = 22.528643 Si / 1000 Ang^3
#
#
#
# Elastic Constant Matrix: (Units=GPa)
#
#
# Indices 1 2 3 4 5 6 
#
# 1 72.5976 30.8536 -16.4347 0.0000 0.0000 0.0000
# 2 30.8536 134.1801 19.1212 0.0000 0.0000 0.0000
# 3 -16.4347 19.1212 25.2537 0.0000 0.0000 0.0000
# 4 0.0000 0.0000 0.0000 11.2245 0.0000 0.0000
# 5 0.0000 0.0000 0.0000 0.0000 4.1020 0.0000
# 6 0.0000 0.0000 0.0000 0.0000 0.0000 33.8468
#
#
#
# Elastic Compliance Matrix: (Units=1/GPa)
#
#
# Indices 1 2 3 4 5 6 
#
# 1 0.021626 -0.007822 0.019996 0.000000 0.000000 0.000000
# 2 -0.007822 0.011183 -0.013558 0.000000 0.000000 0.000000
# 3 0.019996 -0.013558 0.062877 0.000000 0.000000 0.000000
# 4 0.000000 0.000000 0.000000 0.089091 0.000000 0.000000
# 5 0.000000 0.000000 0.000000 0.000000 0.243783 0.000000
# 6 0.000000 0.000000 0.000000 0.000000 0.000000 0.029545
#
#
# Mechanical properties :
#
#
# Convention : Reuss Voigt Hill
#
# Bulk Modulus (GPa) = 10.76211 33.23461 21.99836
# Shear Modulus (GPa) = 10.16577 23.06741 16.61659
#
# Velocity S-wave (km/s) = 2.12654 3.20334 2.71878
# Velocity P-wave (km/s) = 3.28892 5.33536 4.43187
#
# Compressibility (1/GPa) = 0.09291862
#
# Stress axis : x y z
#
# Youngs Moduli (GPa) = 46.24106 89.41795 15.90394
#
# Poissons Ratio (x) = 0.69945 -0.31802
# Poissons Ratio (y) = 0.36171 0.21563
# Poissons Ratio (z) = -0.92466 1.21236
#
# Static dielectric constant tensor:
#      x y z
#    x 2.465050 0.000000 0.000000 
#    y 0.000000 1.949140 0.000000 
#    z 0.000000 0.000000 1.834780 
# 
# From -- ./inp_files/8791.got.cif
#   From: 2010.05.17/outbox.cif.g08.bks.cpg/sg39_5_cif.got.tgz:8791.got - 2010.06.03 18:22:40.
