data_PCOD9361595
_publ_section_title
;
Structure prediction by ZEFSAII (Michael W. Deem and Ramdas Pophale) SiO2 
 PCOD9361595
Probable space group: A B M 2
;
_chemical_formula_sum "Si O2"
_cell_formula_units_Z 40
_cell_length_a 9.423781
_cell_length_b 8.482436
_cell_length_c 26.330343
_cell_angle_alpha 90.000000
_cell_angle_beta 90.000000
_cell_angle_gamma 90.000000
_cell_volume 2104.758602
_symmetry_space_group_name_H-M "A B M 2"
_symmetry_group_IT_number 39
_symmetry_cell_setting 'orthorhombic'
loop_
_space_group_symop_operation_xyz
x,y,z
-x,-y,z
-x,1/2+y,z
x,1/2-y,z
x,1/2+y,1/2+z
-x,1/2-y,1/2+z
-x,y,1/2+z
x,-y,1/2+z
loop_
_atom_site_type_symbol
_atom_site_label
_atom_site_fract_x
_atom_site_fract_y
_atom_site_fract_z
Si Si1 0.159746 0.560739 0.409930
Si Si2 0.341527 0.059661 0.005748
Si Si3 0.341490 0.940521 0.620811
Si Si4 0.660479 0.939258 0.314697
Si Si5 0.840405 0.559568 0.216367
O O1 0.158598 0.750000 0.409195
O O2 0.231839 0.507001 0.462793
O O3 0.255256 0.500715 0.363580
O O4 0.000000 0.500000 0.405219
O O5 0.344442 0.250000 0.005385
O O6 0.305421 0.008084 0.063270
O O7 0.500000 0.000000 0.994074
O O8 0.343791 0.750000 0.621361
O O9 0.232523 0.994395 0.663885
O O10 0.500000 0.000000 0.632282
O O11 0.658829 0.750000 0.315781
O O12 0.744174 0.991032 0.264001
O O13 0.500000 0.000000 0.314414
O O14 0.842642 0.750000 0.216154
O O15 0.000000 0.500000 0.221413
#
# Coordination Sequence:
#
# PCOD9361595 Si02
#       5
#     8   8   8   8   8
#     4  11  23  38  56  81 112 146 182 225 273 324
#     4   9  19  35  56  80 108 141 180 223 268 318
#     4   9  18  35  56  80 108 140 179 223 267 317
#     4  11  23  39  59  83 109 142 182 225 271 324
#     4  10  22  37  55  80 111 143 178 220 269 321
#
# _framework density 19.004555
#
# number of rings (size 3 to 8) (size 9 to 14) (size 15 to 20)
#    0.000    2.000    0.000    3.000    0.000    8.000 
#    0.000    0.000    0.000    0.000    0.000    0.000 
#    0.000    0.000    0.000    0.000    0.000    0.000 
#
# Total GULP energy -111725.668228 kJ/mol
# GULP energy per Si atom -5586.283411 kJ/mol
# Density = 1.896130 g / cm^3
# Si number density = 19.004555 Si / 1000 Ang^3
#
#
#
# Elastic Constant Matrix: (Units=GPa)
#
#
# Indices 1 2 3 4 5 6 
#
# 1 194.4955 29.9412 131.7896 0.0000 0.0000 0.0000
# 2 29.9412 21.9193 33.3061 0.0000 0.0000 0.0000
# 3 131.7896 33.3061 159.8193 0.0000 0.0000 0.0000
# 4 0.0000 0.0000 0.0000 23.2234 0.0000 0.0000
# 5 0.0000 0.0000 0.0000 0.0000 24.4431 0.0000
# 6 0.0000 0.0000 0.0000 0.0000 0.0000 37.3312
#
#
#
# Elastic Compliance Matrix: (Units=1/GPa)
#
#
# Indices 1 2 3 4 5 6 
#
# 1 0.011708 -0.001936 -0.009251 0.000000 0.000000 0.000000
# 2 -0.001936 0.067083 -0.012384 0.000000 0.000000 0.000000
# 3 -0.009251 -0.012384 0.016467 0.000000 0.000000 0.000000
# 4 0.000000 0.000000 0.000000 0.043060 0.000000 0.000000
# 5 0.000000 0.000000 0.000000 0.000000 0.040911 0.000000
# 6 0.000000 0.000000 0.000000 0.000000 0.000000 0.026787
#
#
# Mechanical properties :
#
#
# Convention : Reuss Voigt Hill
#
# Bulk Modulus (GPa) = 20.78303 85.14532 52.96417
# Shear Modulus (GPa) = 18.57376 29.07935 23.82655
#
# Velocity S-wave (km/s) = 3.12962 3.91593 3.54464
# Velocity P-wave (km/s) = 4.90091 8.08368 6.68449
#
# Compressibility (1/GPa) = 0.04811619
#
# Stress axis : x y z
#
# Youngs Moduli (GPa) = 85.41015 14.90689 60.72891
#
# Poissons Ratio (x) = 0.02886 0.56182
# Poissons Ratio (y) = 0.16534 0.75205
# Poissons Ratio (z) = 0.79016 0.18460
#
# Static dielectric constant tensor:
#      x y z
#    x 1.603980 0.000000 0.000000 
#    y 0.000000 1.655860 0.000000 
#    z 0.000000 0.000000 1.672850 
# 
# From -- ./inp_files/15449.got.cif
#   From: 2010.05.17/outbox.cif.g08.bks.cpg/sg39_8_cif.got.tgz:15449.got - 2010.06.03 18:22:40.
