data_PCOD9361682
_publ_section_title
;
Structure prediction by ZEFSAII (Michael W. Deem and Ramdas Pophale) SiO2 
 PCOD9361682
Probable space group: A B M 2
;
_chemical_formula_sum "Si O2"
_cell_formula_units_Z 32
_cell_length_a 7.764814
_cell_length_b 17.847667
_cell_length_c 9.454173
_cell_angle_alpha 90.000000
_cell_angle_beta 90.000000
_cell_angle_gamma 90.000000
_cell_volume 1310.195358
_symmetry_space_group_name_H-M "A B M 2"
_symmetry_group_IT_number 39
_symmetry_cell_setting 'orthorhombic'
loop_
_space_group_symop_operation_xyz
x,y,z
-x,-y,z
-x,1/2+y,z
x,1/2-y,z
x,1/2+y,1/2+z
-x,1/2-y,1/2+z
-x,y,1/2+z
x,-y,1/2+z
loop_
_atom_site_type_symbol
_atom_site_label
_atom_site_fract_x
_atom_site_fract_y
_atom_site_fract_z
Si Si1 0.616418 0.074796 0.780680
Si Si2 0.017650 0.581577 0.624821
Si Si3 0.845094 0.334465 0.368699
Si Si4 0.476709 0.834887 0.026321
O O1 0.521191 0.135626 0.680948
O O2 0.500000 0.000000 0.780557
O O3 0.803959 0.070514 0.711683
O O4 0.635365 0.106197 0.938981
O O5 0.879009 0.609418 0.739296
O O6 0.037660 0.641527 0.501082
O O7 0.884014 0.250000 0.321606
O O8 0.656331 0.336241 0.438572
O O9 0.000000 0.500000 0.556515
O O10 0.410512 0.750000 0.028323
#
# Coordination Sequence:
#
# PCOD9361682 Si02
#       4
#     8   8   8   8
#     4  11  23  39  60  87 118 153 194 238 286 342
#     4  11  23  39  60  87 118 153 194 238 286 342
#     4  10  22  40  61  87 118 151 191 239 289 343
#     4  10  22  40  61  87 118 151 191 239 289 343
#
# _framework density 24.423839000000001
#
# number of rings (size 3 to 8) (size 9 to 14) (size 15 to 20)
#    0.000    1.500    0.000    4.500    0.000   11.000 
#    0.000    0.000    0.000    0.000    0.000    0.000 
#    0.000    0.000    0.000    0.000    0.000    0.000 
#
# Total GULP energy -89586.286475 kJ/mol
# GULP energy per Si atom -5599.142905 kJ/mol
# Density = 2.436825 g / cm^3
# Si number density = 24.423839 Si / 1000 Ang^3
#
#
#
# Elastic Constant Matrix: (Units=GPa)
#
#
# Indices 1 2 3 4 5 6 
#
# 1 59.9519 6.4136 -6.6929 0.0000 0.0000 0.0000
# 2 6.4136 118.1632 12.2748 0.0000 0.0000 0.0000
# 3 -6.6929 12.2748 88.4006 0.0000 0.0000 0.0000
# 4 0.0000 0.0000 0.0000 32.3031 0.0000 0.0000
# 5 0.0000 0.0000 0.0000 0.0000 15.7217 0.0000
# 6 0.0000 0.0000 0.0000 0.0000 0.0000 11.7796
#
#
#
# Elastic Compliance Matrix: (Units=1/GPa)
#
#
# Indices 1 2 3 4 5 6 
#
# 1 0.016954 -0.001069 0.001432 0.000000 0.000000 0.000000
# 2 -0.001069 0.008654 -0.001283 0.000000 0.000000 0.000000
# 3 0.001432 -0.001283 0.011599 0.000000 0.000000 0.000000
# 4 0.000000 0.000000 0.000000 0.030957 0.000000 0.000000
# 5 0.000000 0.000000 0.000000 0.000000 0.063607 0.000000
# 6 0.000000 0.000000 0.000000 0.000000 0.000000 0.084893
#
#
# Mechanical properties :
#
#
# Convention : Reuss Voigt Hill
#
# Bulk Modulus (GPa) = 28.27416 32.27852 30.27634
# Shear Modulus (GPa) = 21.71163 28.92889 25.32026
#
# Velocity S-wave (km/s) = 2.98477 3.44532 3.22328
# Velocity P-wave (km/s) = 4.84562 5.39181 5.12600
#
# Compressibility (1/GPa) = 0.03536799
#
# Stress axis : x y z
#
# Youngs Moduli (GPa) = 58.98219 115.55175 86.21691
#
# Poissons Ratio (x) = 0.12352 -0.12347
# Poissons Ratio (y) = 0.06305 0.11058
# Poissons Ratio (z) = -0.08447 0.14821
#
# Static dielectric constant tensor:
#      x y z
#    x 2.022190 0.000000 0.000000 
#    y 0.000000 1.897170 0.000000 
#    z 0.000000 0.000000 1.875270 
# 
# From -- ./inp_files/4805.got.cif
#   From: 2010.05.17/outbox.cif.g08.bks.cpg/sg39_3_cif.got.tgz:4805.got - 2010.06.03 18:22:40.
