data_PCOD9361742
_publ_section_title
;
Structure prediction by ZEFSAII (Michael W. Deem and Ramdas Pophale) SiO2 
 PCOD9361742
Probable space group: A B M 2
;
_chemical_formula_sum "Si O2"
_cell_formula_units_Z 60
_cell_length_a 13.679676
_cell_length_b 23.594475
_cell_length_c 8.442254
_cell_angle_alpha 90.000000
_cell_angle_beta 90.000000
_cell_angle_gamma 90.000000
_cell_volume 2724.862199
_symmetry_space_group_name_H-M "A B M 2"
_symmetry_group_IT_number 39
_symmetry_cell_setting 'orthorhombic'
loop_
_space_group_symop_operation_xyz
x,y,z
-x,-y,z
-x,1/2+y,z
x,1/2-y,z
x,1/2+y,1/2+z
-x,1/2-y,1/2+z
-x,y,1/2+z
x,-y,1/2+z
loop_
_atom_site_type_symbol
_atom_site_label
_atom_site_fract_x
_atom_site_fract_y
_atom_site_fract_z
Si Si1 0.500000 0.000000 0.308560
Si Si2 0.648613 0.519211 0.059753
Si Si3 0.147934 0.814155 0.165199
Si Si4 0.461808 0.816069 0.833543
Si Si5 0.702370 0.109596 0.996410
Si Si6 0.641217 0.685644 0.999200
Si Si7 0.202399 0.894434 0.651759
Si Si8 0.945870 0.684796 0.013661
O O1 0.574972 0.964280 0.202052
O O2 0.421913 0.965982 0.413283
O O3 0.664608 0.451788 0.050936
O O4 0.754255 0.547160 0.080672
O O5 0.188084 0.750000 0.157900
O O6 0.231667 0.859078 0.126902
O O7 0.094202 0.820925 0.334749
O O8 0.062530 0.818262 0.033256
O O9 0.456404 0.750000 0.884310
O O10 0.388175 0.852523 0.938437
O O11 0.573778 0.833689 0.855865
O O12 0.428466 0.817586 0.652901
O O13 0.768783 0.104191 0.836294
O O14 0.672933 0.750000 0.973514
O O15 0.731651 0.649294 0.051599
O O16 0.097642 0.867178 0.616967
O O17 0.919925 0.750000 0.067919
#
# Coordination Sequence:
#
# PCOD9361742 Si02
#       8
#     4   8   8   8   8   8   8   8
#     4  10  24  42  60  82 124 170 220 266 300 356
#     4  11  24  40  61  90 122 168 217 260 311 358
#     4  10  22  41  67  96 125 159 199 248 309 374
#     4   9  19  33  50  76 110 148 188 236 294 353
#     4  11  23  38  60  87 120 159 206 256 306 365
#     4   9  19  33  50  76 110 148 188 236 294 353
#     4  11  23  38  60  87 120 159 206 256 306 365
#     4  10  22  41  67  96 125 159 199 248 309 374
#
# _framework density 22.019462999999998
#
# number of rings (size 3 to 8) (size 9 to 14) (size 15 to 20)
#    0.000    1.867    1.333    1.600    5.600    3.733 
#    0.000    3.333    0.000    3.200    0.000    0.000 
#    0.000    0.000    0.000    0.000    0.000    0.000 
#
# Total GULP energy -167512.532576 kJ/mol
# GULP energy per Si atom -5583.751086 kJ/mol
# Density = 2.196935 g / cm^3
# Si number density = 22.019463 Si / 1000 Ang^3
#
#
#
# Elastic Constant Matrix: (Units=GPa)
#
#
# Indices 1 2 3 4 5 6 
#
# 1 65.3439 35.6293 21.6967 0.0000 0.0000 0.0000
# 2 35.6293 105.3541 18.8342 0.0000 0.0000 0.0000
# 3 21.6967 18.8342 64.4952 0.0000 0.0000 0.0000
# 4 0.0000 0.0000 0.0000 16.1220 0.0000 0.0000
# 5 0.0000 0.0000 0.0000 0.0000 45.5695 0.0000
# 6 0.0000 0.0000 0.0000 0.0000 0.0000 1124.8754
#
#
#
# Elastic Compliance Matrix: (Units=1/GPa)
#
#
# Indices 1 2 3 4 5 6 
#
# 1 0.020222 -0.005932 -0.005070 0.000000 0.000000 0.000000
# 2 -0.005932 0.011755 -0.001437 0.000000 0.000000 0.000000
# 3 -0.005070 -0.001437 0.017630 0.000000 0.000000 0.000000
# 4 0.000000 0.000000 0.000000 0.062027 0.000000 0.000000
# 5 0.000000 0.000000 0.000000 0.000000 0.021945 0.000000
# 6 0.000000 0.000000 0.000000 0.000000 0.000000 0.000889
#
#
# Mechanical properties :
#
#
# Convention : Reuss Voigt Hill
#
# Bulk Modulus (GPa) = 40.44056 43.05706 41.74881
# Shear Modulus (GPa) = 29.83474 247.91558 138.87516
#
# Velocity S-wave (km/s) = 3.68493 10.62232 7.95023
# Velocity P-wave (km/s) = 6.04240 13.04000 10.16248
#
# Compressibility (1/GPa) = 0.02472765
#
# Stress axis : x y z
#
# Youngs Moduli (GPa) = 49.45140 85.07071 56.72013
#
# Poissons Ratio (x) = 0.50467 0.28760
# Poissons Ratio (y) = 0.29336 0.08151
# Poissons Ratio (z) = 0.25074 0.12225
#
# Static dielectric constant tensor:
#      x y z
#    x 1.824570 0.000000 0.000000 
#    y 0.000000 1.836370 0.000000 
#    z 0.000000 0.000000 1.872090 
# 
# From -- ./inp_files/3474.got.cif
#   From: 2010.05.17/outbox.cif.g08.bks.cpg/sg39_2_cif.got.tgz:3474.got - 2010.06.03 18:22:40.
