data_PCOD9361034
_publ_section_title
;
Structure prediction by ZEFSAII (Michael W. Deem and Ramdas Pophale) SiO2 
 PCOD9361034
Probable space group: A B M 2
;
_chemical_formula_sum "Si O2"
_cell_formula_units_Z 40
_cell_length_a 7.066149
_cell_length_b 10.145126
_cell_length_c 27.532390
_cell_angle_alpha 90.000000
_cell_angle_beta 90.000000
_cell_angle_gamma 90.000000
_cell_volume 1973.713669
_symmetry_space_group_name_H-M "A B M 2"
_symmetry_group_IT_number 39
_symmetry_cell_setting 'orthorhombic'
loop_
_space_group_symop_operation_xyz
x,y,z
-x,-y,z
-x,1/2+y,z
x,1/2-y,z
x,1/2+y,1/2+z
-x,1/2-y,1/2+z
-x,y,1/2+z
x,-y,1/2+z
loop_
_atom_site_type_symbol
_atom_site_label
_atom_site_fract_x
_atom_site_fract_y
_atom_site_fract_z
Si Si1 0.000000 0.500000 0.602330
Si Si2 0.794830 0.250000 0.764566
Si Si3 0.270718 0.486064 0.817173
Si Si4 0.065864 0.750000 0.170025
Si Si5 0.320561 0.597030 0.419450
Si Si6 0.316928 0.405537 0.027800
Si Si7 0.656165 0.250000 0.248434
O O1 0.043148 0.377436 0.636968
O O2 0.828699 0.456650 0.567609
O O3 0.819624 0.380198 0.797406
O O4 0.918605 0.250000 0.715576
O O5 0.570358 0.250000 0.751397
O O6 0.500000 0.500000 0.821463
O O7 0.208657 0.442125 0.870862
O O8 0.257104 0.374639 0.776457
O O9 0.272191 0.750000 0.194037
O O10 0.500000 0.500000 0.421796
O O11 0.380718 0.750000 0.413016
O O12 0.231253 0.586267 0.472954
O O13 0.500000 0.500000 0.029594
O O14 0.363643 0.250000 0.035494
#
# Coordination Sequence:
#
# PCOD9361034 Si02
#       7
#     4   4   8   4   8   8   4
#     4  12  26  46  64  92 128 166 216 282 334 370
#     4  10  22  38  57  89 123 157 210 252 303 382
#     4   9  17  32  58  89 123 160 194 244 306 369
#     4  12  26  42  64  86 120 168 216 272 326 374
#     4   9  17  32  59  94 126 160 201 245 305 380
#     4  10  23  43  69  98 128 168 215 263 322 390
#     4  10  20  38  61  85 117 161 202 254 309 370
#
# _framework density 20.266363999999999
#
# number of rings (size 3 to 8) (size 9 to 14) (size 15 to 20)
#    0.000    2.000    2.000    1.200    5.600    1.600 
#    0.000    2.000    0.000    0.000    0.000    0.000 
#    0.000    0.000    0.000    0.000    0.000    0.000 
#
# Total GULP energy -111631.420207 kJ/mol
# GULP energy per Si atom -5581.571010 kJ/mol
# Density = 2.022024 g / cm^3
# Si number density = 20.266364 Si / 1000 Ang^3
#
#
#
# Elastic Constant Matrix: (Units=GPa)
#
#
# Indices 1 2 3 4 5 6 
#
# 1 65.4961 28.4855 36.8671 0.0000 0.0000 0.0000
# 2 28.4855 183.4358 85.9891 0.0000 0.0000 0.0000
# 3 36.8671 85.9891 166.2470 0.0000 0.0000 0.0000
# 4 0.0000 0.0000 0.0000 38.4336 0.0000 0.0000
# 5 0.0000 0.0000 0.0000 0.0000 -158.9800 0.0000
# 6 0.0000 0.0000 0.0000 0.0000 0.0000 4.7956
#
#
#
# Elastic Compliance Matrix: (Units=1/GPa)
#
#
# Indices 1 2 3 4 5 6 
#
# 1 0.017642 -0.001196 -0.003294 0.000000 0.000000 0.000000
# 2 -0.001196 0.007277 -0.003499 0.000000 0.000000 0.000000
# 3 -0.003294 -0.003499 0.008555 0.000000 0.000000 0.000000
# 4 0.000000 0.000000 0.000000 0.026019 0.000000 0.000000
# 5 0.000000 0.000000 0.000000 0.000000 -0.006290 0.000000
# 6 0.000000 0.000000 0.000000 0.000000 0.000000 0.208523
#
#
# Mechanical properties :
#
#
# Convention : Reuss Voigt Hill
#
# Bulk Modulus (GPa) = 57.14944 79.76248 68.45596
# Shear Modulus (GPa) = 17.63444 -5.56101 6.03671
#
# Velocity S-wave (km/s) = 2.95300 -1.65829 1.72776
# Velocity P-wave (km/s) = 6.31564 5.98130 6.15074
#
# Compressibility (1/GPa) = 0.01749798
#
# Stress axis : x y z
#
# Youngs Moduli (GPa) = 56.68233 137.41219 116.88477
#
# Poissons Ratio (x) = 0.16428 0.38502
# Poissons Ratio (y) = 0.06776 0.40898
# Poissons Ratio (z) = 0.18671 0.48081
#
# Static dielectric constant tensor:
#      x y z
#    x 1.806000 0.000000 0.000000 
#    y 0.000000 1.790010 0.000000 
#    z 0.000000 0.000000 1.717180 
# 
# From -- ./inp_files/15484.got.cif
#   From: 2010.05.17/outbox.cif.g08.bks.cpg/sg39_8_cif.got.tgz:15484.got - 2010.06.03 18:22:40.
