data_PCOD9361134
_publ_section_title
;
Structure prediction by ZEFSAII (Michael W. Deem and Ramdas Pophale) SiO2 
 PCOD9361134
Probable space group: A B M 2
;
_chemical_formula_sum "Si O2"
_cell_formula_units_Z 40
_cell_length_a 9.314066
_cell_length_b 17.313440
_cell_length_c 10.357374
_cell_angle_alpha 90.000000
_cell_angle_beta 90.000000
_cell_angle_gamma 90.000000
_cell_volume 1670.214832
_symmetry_space_group_name_H-M "A B M 2"
_symmetry_group_IT_number 39
_symmetry_cell_setting 'orthorhombic'
loop_
_space_group_symop_operation_xyz
x,y,z
-x,-y,z
-x,1/2+y,z
x,1/2-y,z
x,1/2+y,1/2+z
-x,1/2-y,1/2+z
-x,y,1/2+z
x,-y,1/2+z
loop_
_atom_site_type_symbol
_atom_site_label
_atom_site_fract_x
_atom_site_fract_y
_atom_site_fract_z
Si Si1 0.759620 0.592516 0.898500
Si Si2 0.000000 0.500000 0.522008
Si Si3 0.348845 0.660800 0.950566
Si Si4 0.500000 0.500000 0.432077
Si Si5 0.116507 0.135975 0.655970
Si Si6 0.225014 0.162284 0.169851
O O1 0.912208 0.553710 0.926562
O O2 0.634770 0.535234 0.855762
O O3 0.793346 0.651439 0.784797
O O4 0.723248 0.619123 0.042583
O O5 0.106339 0.454346 0.616181
O O6 0.413890 0.750000 0.951522
O O7 0.432599 0.581131 0.993019
O O8 0.297170 0.641740 0.805022
O O9 0.205623 0.668156 0.036659
O O10 0.949623 0.157685 0.672733
O O11 0.264079 0.250000 0.147170
#
# Coordination Sequence:
#
# PCOD9361134 Si02
#       6
#     8   4   8   4   8   8
#     4  11  25  40  70 100 140 181 240 288 355 424
#     4  10  20  40  66 102 138 178 236 302 354 420
#     4  11  26  47  70 101 147 194 238 295 361 430
#     4  12  28  48  70 106 142 196 238 290 354 440
#     4  11  22  39  71 106 140 181 238 300 357 424
#     4  10  23  44  70 103 142 182 232 300 362 421
#
# _framework density 23.949013999999998
#
# number of rings (size 3 to 8) (size 9 to 14) (size 15 to 20)
#    0.000    1.200    2.000    3.600    5.600    7.200 
#    0.000    2.000    0.000    0.000    0.000    0.000 
#    0.000    0.000    0.000    0.000    0.000    0.000 
#
# Total GULP energy -111365.712898 kJ/mol
# GULP energy per Si atom -5568.285645 kJ/mol
# Density = 2.389450 g / cm^3
# Si number density = 23.949014 Si / 1000 Ang^3
#
#
#
# Elastic Constant Matrix: (Units=GPa)
#
#
# Indices 1 2 3 4 5 6 
#
# 1 89.9550 27.2762 27.9047 0.0000 0.0000 0.0000
# 2 27.2762 119.8016 31.2675 0.0000 0.0000 0.0000
# 3 27.9047 31.2675 122.3142 0.0000 0.0000 0.0000
# 4 0.0000 0.0000 0.0000 46.4998 0.0000 0.0000
# 5 0.0000 0.0000 0.0000 0.0000 0.7273 0.0000
# 6 0.0000 0.0000 0.0000 0.0000 0.0000 15.2529
#
#
#
# Elastic Compliance Matrix: (Units=1/GPa)
#
#
# Indices 1 2 3 4 5 6 
#
# 1 0.012506 -0.002253 -0.002277 0.000000 0.000000 0.000000
# 2 -0.002253 0.009350 -0.001876 0.000000 0.000000 0.000000
# 3 -0.002277 -0.001876 0.009175 0.000000 0.000000 0.000000
# 4 0.000000 0.000000 0.000000 0.021505 0.000000 0.000000
# 5 0.000000 0.000000 0.000000 0.000000 1.374968 0.000000
# 6 0.000000 0.000000 0.000000 0.000000 0.000000 0.065561
#
#
# Mechanical properties :
#
#
# Convention : Reuss Voigt Hill
#
# Bulk Modulus (GPa) = 54.89061 56.10752 55.49906
# Shear Modulus (GPa) = 3.30699 28.87082 16.08890
#
# Velocity S-wave (km/s) = 1.17637 3.47582 2.59472
# Velocity P-wave (km/s) = 4.98143 6.29183 5.67458
#
# Compressibility (1/GPa) = 0.01821805
#
# Stress axis : x y z
#
# Youngs Moduli (GPa) = 79.96005 106.95467 108.99447
#
# Poissons Ratio (x) = 0.24098 0.24820
# Poissons Ratio (y) = 0.18015 0.20448
# Poissons Ratio (z) = 0.18209 0.20066
#
# Static dielectric constant tensor:
#      x y z
#    x 1.927510 0.000000 0.000000 
#    y 0.000000 1.948020 0.000000 
#    z 0.000000 0.000000 1.991220 
# 
# From -- ./inp_files/2574.got.cif
#   From: 2010.05.17/outbox.cif.g08.bks.cpg/sg39_2_cif.got.tgz:2574.got - 2010.06.03 18:22:40.
