data_PCOD9361373
_publ_section_title
;
Structure prediction by ZEFSAII (Michael W. Deem and Ramdas Pophale) SiO2 
 PCOD9361373
Probable space group: A B M 2
;
_chemical_formula_sum "Si O2"
_cell_formula_units_Z 44
_cell_length_a 9.182250
_cell_length_b 13.799175
_cell_length_c 17.183900
_cell_angle_alpha 90.000000
_cell_angle_beta 90.000000
_cell_angle_gamma 90.000000
_cell_volume 2177.328574
_symmetry_space_group_name_H-M "A B M 2"
_symmetry_group_IT_number 39
_symmetry_cell_setting 'orthorhombic'
loop_
_space_group_symop_operation_xyz
x,y,z
-x,-y,z
-x,1/2+y,z
x,1/2-y,z
x,1/2+y,1/2+z
-x,1/2-y,1/2+z
-x,y,1/2+z
x,-y,1/2+z
loop_
_atom_site_type_symbol
_atom_site_label
_atom_site_fract_x
_atom_site_fract_y
_atom_site_fract_z
Si Si1 0.379433 0.921144 0.737250
Si Si2 0.245429 0.750000 0.458518
Si Si3 0.112916 0.250000 0.634131
Si Si4 0.009878 0.390970 0.902993
Si Si5 0.223793 0.750000 0.958530
Si Si6 0.245067 0.750000 0.633149
Si Si7 0.485185 0.250000 0.351331
Si Si8 0.876107 0.432928 0.235937
O O1 0.306659 0.845976 0.676221
O O2 0.447687 0.846830 0.801178
O O3 0.500000 0.000000 0.709181
O O4 0.250369 0.994074 0.763372
O O5 0.137152 0.840004 0.450047
O O6 0.305078 0.750000 0.545287
O O7 0.353152 0.750000 0.385442
O O8 0.182464 0.250000 0.548698
O O9 0.165717 0.154088 0.679488
O O10 0.933769 0.250000 0.632958
O O11 0.050977 0.386329 0.812328
O O12 0.000000 0.500000 0.927412
O O13 0.858447 0.340000 0.919368
O O14 0.386584 0.750000 0.928917
O O15 0.000000 0.500000 0.197216
#
# Coordination Sequence:
#
# PCOD9361373 Si02
#       8
#     8   4   4   8   4   4   4   8
#     4  11  25  44  68  98 129 172 222 271 324 391
#     4  11  23  43  66  94 134 180 208 263 342 387
#     4  12  23  40  66 100 134 175 214 275 328 386
#     4  10  21  38  63  93 127 168 225 270 313 377
#     4  11  24  38  60  97 130 170 216 264 324 382
#     4  11  24  45  67  95 137 171 216 273 330 393
#     4  11  24  44  69  92 137 174 218 269 322 394
#     4  11  22  38  67  94 126 172 225 269 318 379
#
# _framework density 20.20825
#
# number of rings (size 3 to 8) (size 9 to 14) (size 15 to 20)
#    0.000    1.091    3.636    4.364    2.545    5.091 
#    0.000    2.727    0.000    0.000    0.000    0.000 
#    0.000    0.000    0.000    0.000    0.000    0.000 
#
# Total GULP energy -122807.197525 kJ/mol
# GULP energy per Si atom -5582.145342 kJ/mol
# Density = 2.016226 g / cm^3
# Si number density = 20.208250 Si / 1000 Ang^3
#
#
#
# Elastic Constant Matrix: (Units=GPa)
#
#
# Indices 1 2 3 4 5 6 
#
# 1 53.1367 16.0969 3.4447 0.0000 0.0000 0.0000
# 2 16.0969 131.4743 45.1869 0.0000 0.0000 0.0000
# 3 3.4447 45.1869 93.4143 0.0000 0.0000 0.0000
# 4 0.0000 0.0000 0.0000 46.5639 0.0000 0.0000
# 5 0.0000 0.0000 0.0000 0.0000 27.9557 0.0000
# 6 0.0000 0.0000 0.0000 0.0000 0.0000 65.2192
#
#
#
# Elastic Compliance Matrix: (Units=1/GPa)
#
#
# Indices 1 2 3 4 5 6 
#
# 1 0.019566 -0.002576 0.000524 0.000000 0.000000 0.000000
# 2 -0.002576 0.009462 -0.004482 0.000000 0.000000 0.000000
# 3 0.000524 -0.004482 0.012854 0.000000 0.000000 0.000000
# 4 0.000000 0.000000 0.000000 0.021476 0.000000 0.000000
# 5 0.000000 0.000000 0.000000 0.000000 0.035771 0.000000
# 6 0.000000 0.000000 0.000000 0.000000 0.000000 0.015333
#
#
# Mechanical properties :
#
#
# Convention : Reuss Voigt Hill
#
# Bulk Modulus (GPa) = 34.70449 45.27581 39.99015
# Shear Modulus (GPa) = 36.46117 42.16756 39.31436
#
# Velocity S-wave (km/s) = 4.25228 4.57294 4.41552
# Velocity P-wave (km/s) = 6.42805 7.09476 6.76962
#
# Compressibility (1/GPa) = 0.02881472
#
# Stress axis : x y z
#
# Youngs Moduli (GPa) = 51.10996 105.68785 77.79864
#
# Poissons Ratio (x) = 0.27223 -0.04080
# Poissons Ratio (y) = 0.13165 0.34869
# Poissons Ratio (z) = -0.02681 0.47369
#
# Static dielectric constant tensor:
#      x y z
#    x 1.747840 0.000000 0.000000 
#    y 0.000000 1.713860 0.000000 
#    z 0.000000 0.000000 1.730580 
# 
# From -- ./inp_files/11575.got.cif
#   From: 2010.05.17/outbox.cif.g08.bks.cpg/sg39_6_cif.got.tgz:11575.got - 2010.06.03 18:22:40.
