data_PCOD9361406
_publ_section_title
;
Structure prediction by ZEFSAII (Michael W. Deem and Ramdas Pophale) SiO2 
 PCOD9361406
Probable space group: A B M 2
;
_chemical_formula_sum "Si O2"
_cell_formula_units_Z 56
_cell_length_a 5.083902
_cell_length_b 17.263341
_cell_length_c 31.768641
_cell_angle_alpha 90.000000
_cell_angle_beta 90.000000
_cell_angle_gamma 90.000000
_cell_volume 2788.179029
_symmetry_space_group_name_H-M "A B M 2"
_symmetry_group_IT_number 39
_symmetry_cell_setting 'orthorhombic'
loop_
_space_group_symop_operation_xyz
x,y,z
-x,-y,z
-x,1/2+y,z
x,1/2-y,z
x,1/2+y,1/2+z
-x,1/2-y,1/2+z
-x,y,1/2+z
x,-y,1/2+z
loop_
_atom_site_type_symbol
_atom_site_label
_atom_site_fract_x
_atom_site_fract_y
_atom_site_fract_z
Si Si1 0.730646 0.158374 0.785920
Si Si2 0.239496 0.658056 0.341325
Si Si3 0.580432 0.159356 0.972894
Si Si4 0.751698 0.945922 0.204896
Si Si5 0.093559 0.088662 0.113251
Si Si6 0.593741 0.159677 0.071007
Si Si7 0.918126 0.089005 0.429953
O O1 0.693932 0.250000 0.777736
O O2 0.517138 0.135557 0.821099
O O3 0.694442 0.110256 0.743623
O O4 0.017380 0.146822 0.805891
O O5 0.246659 0.750000 0.351852
O O6 0.166355 0.611556 0.382867
O O7 0.512897 0.250000 0.967682
O O8 0.329990 0.109333 0.959217
O O9 0.830949 0.138742 0.944574
O O10 0.648732 0.145647 0.021735
O O11 0.830169 0.901599 0.162167
O O12 0.500000 0.000000 0.195982
O O13 0.000000 0.000000 0.215899
O O14 0.350192 0.108239 0.086231
O O15 0.851289 0.140506 0.098002
O O16 0.000000 0.000000 0.108270
O O17 0.522102 0.250000 0.075904
O O18 0.000000 0.000000 0.432918
#
# Coordination Sequence:
#
# PCOD9361406 Si02
#       7
#     8   8   8   8   8   8   8
#     4  10  22  39  62  90 118 156 204 249 297 357
#     4  10  21  39  61  87 122 161 199 244 305 366
#     4  11  24  43  64  88 124 167 206 251 313 371
#     4  11  23  41  62  89 124 161 200 244 304 368
#     4  11  23  41  63  90 126 166 202 248 312 373
#     4  11  24  41  64  93 122 160 211 259 304 361
#     4  12  25  40  63  95 125 159 209 259 304 360
#
# _framework density 20.084792
#
# number of rings (size 3 to 8) (size 9 to 14) (size 15 to 20)
#    0.000    1.143    0.000    6.857    0.000    9.714 
#    0.000    1.429    0.000    0.000    0.000    0.000 
#    0.000    0.000    0.000    0.000    0.000    0.000 
#
# Total GULP energy -156690.406052 kJ/mol
# GULP energy per Si atom -5596.085930 kJ/mol
# Density = 2.003908 g / cm^3
# Si number density = 20.084792 Si / 1000 Ang^3
#
#
#
# Elastic Constant Matrix: (Units=GPa)
#
#
# Indices 1 2 3 4 5 6 
#
# 1 85.3358 5.3337 4.7107 0.0000 0.0000 0.0000
# 2 5.3337 40.2189 46.3598 0.0000 0.0000 0.0000
# 3 4.7107 46.3598 89.2664 0.0000 0.0000 0.0000
# 4 0.0000 0.0000 0.0000 21.0842 0.0000 0.0000
# 5 0.0000 0.0000 0.0000 0.0000 17.4967 0.0000
# 6 0.0000 0.0000 0.0000 0.0000 0.0000 32.2794
#
#
#
# Elastic Compliance Matrix: (Units=1/GPa)
#
#
# Indices 1 2 3 4 5 6 
#
# 1 0.011824 -0.002115 0.000474 0.000000 0.000000 0.000000
# 2 -0.002115 0.062327 -0.032258 0.000000 0.000000 0.000000
# 3 0.000474 -0.032258 0.027930 0.000000 0.000000 0.000000
# 4 0.000000 0.000000 0.000000 0.047429 0.000000 0.000000
# 5 0.000000 0.000000 0.000000 0.000000 0.057154 0.000000
# 6 0.000000 0.000000 0.000000 0.000000 0.000000 0.030979
#
#
# Mechanical properties :
#
#
# Convention : Reuss Voigt Hill
#
# Bulk Modulus (GPa) = 29.16678 36.40327 32.78502
# Shear Modulus (GPa) = 15.77942 24.73319 20.25630
#
# Velocity S-wave (km/s) = 2.80597 3.51299 3.17920
# Velocity P-wave (km/s) = 5.00513 5.88379 5.46215
#
# Compressibility (1/GPa) = 0.03428558
#
# Stress axis : x y z
#
# Youngs Moduli (GPa) = 84.57081 16.04436 35.80373
#
# Poissons Ratio (x) = 0.03393 -0.01698
# Poissons Ratio (y) = 0.17886 1.15494
# Poissons Ratio (z) = -0.04012 0.51755
#
# Static dielectric constant tensor:
#      x y z
#    x 1.683740 0.000000 0.000000 
#    y 0.000000 1.700920 0.000000 
#    z 0.000000 0.000000 1.683650 
# 
# From -- ./inp_files/17279.got.cif
#   From: 2010.05.17/outbox.cif.g08.bks.cpg/sg39_9_cif.got.tgz:17279.got - 2010.06.03 18:22:40.
