data_PCOD9361173
_publ_section_title
;
Structure prediction by ZEFSAII (Michael W. Deem and Ramdas Pophale) SiO2 
 PCOD9361173
Probable space group: A B M 2
;
_chemical_formula_sum "Si O2"
_cell_formula_units_Z 56
_cell_length_a 15.618901
_cell_length_b 13.828977
_cell_length_c 14.023982
_cell_angle_alpha 90.000000
_cell_angle_beta 90.000000
_cell_angle_gamma 90.000000
_cell_volume 3029.087872
_symmetry_space_group_name_H-M "A B M 2"
_symmetry_group_IT_number 39
_symmetry_cell_setting 'orthorhombic'
loop_
_space_group_symop_operation_xyz
x,y,z
-x,-y,z
-x,1/2+y,z
x,1/2-y,z
x,1/2+y,1/2+z
-x,1/2-y,1/2+z
-x,y,1/2+z
x,-y,1/2+z
loop_
_atom_site_type_symbol
_atom_site_label
_atom_site_fract_x
_atom_site_fract_y
_atom_site_fract_z
Si Si1 0.423500 0.574839 0.728570
Si Si2 0.462463 0.250000 0.799035
Si Si3 0.041641 0.361621 0.313602
Si Si4 0.678227 0.581918 0.840325
Si Si5 0.866518 0.445993 0.627445
Si Si6 0.150927 0.638854 0.232324
Si Si7 0.309861 0.364003 0.052488
Si Si8 0.000000 0.000000 0.975582
O O1 0.500000 0.500000 0.706626
O O2 0.464700 0.664929 0.782917
O O3 0.353948 0.516549 0.791077
O O4 0.380676 0.610111 0.630768
O O5 0.388204 0.334516 0.810686
O O6 0.062911 0.250000 0.331124
O O7 0.095085 0.402218 0.224634
O O8 0.941402 0.367599 0.283490
O O9 0.051262 0.427831 0.406322
O O10 0.772250 0.610610 0.803173
O O11 0.677562 0.578210 0.954527
O O12 0.848513 0.559023 0.649186
O O13 0.781592 0.391269 0.596408
O O14 0.936602 0.441299 0.544171
O O15 0.162028 0.750000 0.200503
O O16 0.313985 0.250000 0.030041
#
# Coordination Sequence:
#
# PCOD9361173 Si02
#       8
#     8   4   8   8   8   8   8   4
#     4  10  23  40  68  94 130 168 205 268 334 379
#     4  10  20  42  66  96 126 164 206 264 328 390
#     4  11  24  42  64  94 129 175 216 270 322 375
#     4  11  22  41  66  98 129 173 214 263 324 392
#     4  12  24  41  64  95 135 168 220 274 319 376
#     4  11  20  39  66  89 128 173 213 262 325 373
#     4  12  24  41  67 100 128 167 223 264 317 398
#     4  12  22  40  64  94 124 172 224 266 314 380
#
# _framework density 18.487413
#
# number of rings (size 3 to 8) (size 9 to 14) (size 15 to 20)
#    0.000    0.857    6.429    1.286    0.000    4.571 
#    0.000    0.000    1.571    0.000    0.000    0.000 
#    0.000    0.000    0.000    0.000    0.000    0.000 
#
# Total GULP energy -155894.282541 kJ/mol
# GULP energy per Si atom -5567.652948 kJ/mol
# Density = 1.844533 g / cm^3
# Si number density = 18.487413 Si / 1000 Ang^3
#
#
#
# Elastic Constant Matrix: (Units=GPa)
#
#
# Indices 1 2 3 4 5 6 
#
# 1 56.5242 -4.2614 -3.9320 0.0000 0.0000 0.0000
# 2 -4.2614 73.3066 5.0960 0.0000 0.0000 0.0000
# 3 -3.9320 5.0960 67.7015 0.0000 0.0000 0.0000
# 4 0.0000 0.0000 0.0000 16.4822 0.0000 0.0000
# 5 0.0000 0.0000 0.0000 0.0000 3.2792 0.0000
# 6 0.0000 0.0000 0.0000 0.0000 0.0000 24.2227
#
#
#
# Elastic Compliance Matrix: (Units=1/GPa)
#
#
# Indices 1 2 3 4 5 6 
#
# 1 0.017832 0.000970 0.000963 0.000000 0.000000 0.000000
# 2 0.000970 0.013766 -0.000980 0.000000 0.000000 0.000000
# 3 0.000963 -0.000980 0.014900 0.000000 0.000000 0.000000
# 4 0.000000 0.000000 0.000000 0.060672 0.000000 0.000000
# 5 0.000000 0.000000 0.000000 0.000000 0.304950 0.000000
# 6 0.000000 0.000000 0.000000 0.000000 0.000000 0.041284
#
#
# Mechanical properties :
#
#
# Convention : Reuss Voigt Hill
#
# Bulk Modulus (GPa) = 20.66002 21.25973 20.95987
# Shear Modulus (GPa) = 10.69216 22.17214 16.43215
#
# Velocity S-wave (km/s) = 2.40750 3.46686 2.98456
# Velocity P-wave (km/s) = 4.35057 5.24881 4.82066
#
# Compressibility (1/GPa) = 0.04840267
#
# Stress axis : x y z
#
# Youngs Moduli (GPa) = 56.08019 72.64374 67.11238
#
# Poissons Ratio (x) = -0.07044 -0.06461
# Poissons Ratio (y) = -0.05438 0.06576
# Poissons Ratio (z) = -0.05399 0.07118
#
# Static dielectric constant tensor:
#      x y z
#    x 1.629770 0.000000 0.000000 
#    y 0.000000 1.635240 0.000000 
#    z 0.000000 0.000000 1.621390 
# 
# From -- ./inp_files/6545.got.cif
#   From: 2010.05.17/outbox.cif.g08.bks.cpg/sg39_4_cif.got.tgz:6545.got - 2010.06.03 18:22:40.
