data_PCOD9361814
_publ_section_title
;
Structure prediction by ZEFSAII (Michael W. Deem and Ramdas Pophale) SiO2 
 PCOD9361814
Probable space group: A B M 2
;
_chemical_formula_sum "Si O2"
_cell_formula_units_Z 48
_cell_length_a 8.863023
_cell_length_b 29.101001
_cell_length_c 8.119755
_cell_angle_alpha 90.000000
_cell_angle_beta 90.000000
_cell_angle_gamma 90.000000
_cell_volume 2094.270279
_symmetry_space_group_name_H-M "A B M 2"
_symmetry_group_IT_number 39
_symmetry_cell_setting 'orthorhombic'
loop_
_space_group_symop_operation_xyz
x,y,z
-x,-y,z
-x,1/2+y,z
x,1/2-y,z
x,1/2+y,1/2+z
-x,1/2-y,1/2+z
-x,y,1/2+z
x,-y,1/2+z
loop_
_atom_site_type_symbol
_atom_site_label
_atom_site_fract_x
_atom_site_fract_y
_atom_site_fract_z
Si Si1 0.575961 0.650915 0.943210
Si Si2 0.076401 0.625102 0.852637
Si Si3 0.269120 0.932284 0.610800
Si Si4 0.703293 0.696007 0.268222
Si Si5 0.232432 0.604235 0.199761
Si Si6 0.659387 0.988133 0.844609
O O1 0.412189 0.668716 0.889517
O O2 0.654274 0.643734 0.763841
O O3 0.604152 0.600270 0.025758
O O4 0.655741 0.683297 0.079404
O O5 0.148873 0.599297 0.696927
O O6 0.130535 0.677125 0.815693
O O7 0.901865 0.612432 0.834505
O O8 0.155495 0.609964 0.022586
O O9 0.222179 0.971206 0.480243
O O10 0.321750 0.963982 0.757742
O O11 0.689114 0.750000 0.292555
O O12 0.317325 0.555195 0.219980
O O13 0.500000 0.000000 0.931424
#
# Coordination Sequence:
#
# PCOD9361814 Si02
#       6
#     8   8   8   8   8   8
#     4  10  23  40  69  98 139 184 227 291 358 416
#     4  11  24  44  71  96 139 185 229 290 362 424
#     4  10  23  38  62  96 134 180 226 281 335 406
#     4  11  23  42  69 104 137 178 236 294 357 433
#     4  11  24  45  68  98 137 183 234 284 357 420
#     4  11  23  37  62  96 136 176 235 283 332 404
#
# _framework density 22.919675999999999
#
# number of rings (size 3 to 8) (size 9 to 14) (size 15 to 20)
#    0.000    1.333    0.000    6.000   11.667    0.667 
#    0.000   10.833    0.000    0.000    0.000    0.000 
#    0.000    0.000    0.000    0.000    0.000    0.000 
#
# Total GULP energy -133673.274813 kJ/mol
# GULP energy per Si atom -5569.719784 kJ/mol
# Density = 2.286751 g / cm^3
# Si number density = 22.919676 Si / 1000 Ang^3
#
#
#
# Elastic Constant Matrix: (Units=GPa)
#
#
# Indices 1 2 3 4 5 6 
#
# 1 82.4964 51.5900 10.3877 0.0000 0.0000 0.0000
# 2 51.5900 117.2658 26.5460 0.0000 0.0000 0.0000
# 3 10.3877 26.5460 102.9506 0.0000 0.0000 0.0000
# 4 0.0000 0.0000 0.0000 33.4193 0.0000 0.0000
# 5 0.0000 0.0000 0.0000 0.0000 37.5908 0.0000
# 6 0.0000 0.0000 0.0000 0.0000 0.0000 34.0798
#
#
#
# Elastic Compliance Matrix: (Units=1/GPa)
#
#
# Indices 1 2 3 4 5 6 
#
# 1 0.016727 -0.007409 0.000223 0.000000 0.000000 0.000000
# 2 -0.007409 0.012338 -0.002434 0.000000 0.000000 0.000000
# 3 0.000223 -0.002434 0.010318 0.000000 0.000000 0.000000
# 4 0.000000 0.000000 0.000000 0.029923 0.000000 0.000000
# 5 0.000000 0.000000 0.000000 0.000000 0.026602 0.000000
# 6 0.000000 0.000000 0.000000 0.000000 0.000000 0.029343
#
#
# Mechanical properties :
#
#
# Convention : Reuss Voigt Hill
#
# Bulk Modulus (GPa) = 49.64497 53.30668 51.47582
# Shear Modulus (GPa) = 33.06716 35.29725 34.18221
#
# Velocity S-wave (km/s) = 3.80246 3.92859 3.86604
# Velocity P-wave (km/s) = 6.40201 6.62473 6.51432
#
# Compressibility (1/GPa) = 0.02014303
#
# Stress axis : x y z
#
# Youngs Moduli (GPa) = 59.78274 81.04842 96.91336
#
# Poissons Ratio (x) = 0.60052 -0.02159
# Poissons Ratio (y) = 0.44296 0.23587
# Poissons Ratio (z) = -0.01332 0.19726
#
# Static dielectric constant tensor:
#      x y z
#    x 1.921900 0.000000 0.000000 
#    y 0.000000 1.846430 0.000000 
#    z 0.000000 0.000000 1.980860 
# 
# From -- ./inp_files/2308.got.cif
#   From: 2010.05.17/outbox.cif.g08.bks.cpg/sg39_2_cif.got.tgz:2308.got - 2010.06.03 18:22:40.
