data_PCOD9361785
_publ_section_title
;
Structure prediction by ZEFSAII (Michael W. Deem and Ramdas Pophale) SiO2 
 PCOD9361785
Probable space group: A B M 2
;
_chemical_formula_sum "Si O2"
_cell_formula_units_Z 40
_cell_length_a 8.733364
_cell_length_b 15.575726
_cell_length_c 12.252705
_cell_angle_alpha 90.000000
_cell_angle_beta 90.000000
_cell_angle_gamma 90.000000
_cell_volume 1666.716895
_symmetry_space_group_name_H-M "A B M 2"
_symmetry_group_IT_number 39
_symmetry_cell_setting 'orthorhombic'
loop_
_space_group_symop_operation_xyz
x,y,z
-x,-y,z
-x,1/2+y,z
x,1/2-y,z
x,1/2+y,1/2+z
-x,1/2-y,1/2+z
-x,y,1/2+z
x,-y,1/2+z
loop_
_atom_site_type_symbol
_atom_site_label
_atom_site_fract_x
_atom_site_fract_y
_atom_site_fract_z
Si Si1 0.946583 0.150064 0.364440
Si Si2 0.287763 0.348072 0.684665
Si Si3 0.742300 0.094184 0.949598
Si Si4 0.155137 0.060059 0.068009
Si Si5 0.377290 0.852925 0.734592
O O1 0.982870 0.250000 0.342527
O O2 0.837153 0.115274 0.268454
O O3 0.875552 0.137592 0.484371
O O4 0.102299 0.098537 0.379739
O O5 0.303169 0.250000 0.722224
O O6 0.238377 0.349975 0.559028
O O7 0.458347 0.384125 0.690614
O O8 0.620498 0.127899 0.864017
O O9 0.729026 0.000583 0.000238
O O10 0.242697 0.096888 0.171799
O O11 0.000000 0.000000 0.084542
O O12 0.358161 0.750000 0.717993
#
# Coordination Sequence:
#
# PCOD9361785 Si02
#       5
#     8   8   8   8   8
#     4  10  22  43  71  99 136 186 236 289 351 424
#     4  10  24  44  69 104 142 184 243 297 350 433
#     4  11  25  44  69 101 142 182 236 296 362 422
#     4  10  25  43  69 101 142 180 235 296 354 425
#     4  11  25  46  73 101 141 191 239 295 363 430
#
# _framework density 23.999275000000001
#
# number of rings (size 3 to 8) (size 9 to 14) (size 15 to 20)
#    0.000    1.600    0.000    2.400   11.200    1.600 
#    0.000    0.000    0.000    0.000    0.000    0.000 
#    0.000    0.000    0.000    0.000    0.000    0.000 
#
# Total GULP energy -111679.864308 kJ/mol
# GULP energy per Si atom -5583.993215 kJ/mol
# Density = 2.394465 g / cm^3
# Si number density = 23.999275 Si / 1000 Ang^3
#
#
#
# Elastic Constant Matrix: (Units=GPa)
#
#
# Indices 1 2 3 4 5 6 
#
# 1 94.4347 14.5099 82.4758 0.0000 0.0000 0.0000
# 2 14.5099 77.5738 26.6309 0.0000 0.0000 0.0000
# 3 82.4758 26.6309 176.1228 0.0000 0.0000 0.0000
# 4 0.0000 0.0000 0.0000 19.5109 0.0000 0.0000
# 5 0.0000 0.0000 0.0000 0.0000 38.3256 0.0000
# 6 0.0000 0.0000 0.0000 0.0000 0.0000 16.3837
#
#
#
# Elastic Compliance Matrix: (Units=1/GPa)
#
#
# Indices 1 2 3 4 5 6 
#
# 1 0.017935 -0.000497 -0.008324 0.000000 0.000000 0.000000
# 2 -0.000497 0.013611 -0.001825 0.000000 0.000000 0.000000
# 3 -0.008324 -0.001825 0.009852 0.000000 0.000000 0.000000
# 4 0.000000 0.000000 0.000000 0.051253 0.000000 0.000000
# 5 0.000000 0.000000 0.000000 0.000000 0.026092 0.000000
# 6 0.000000 0.000000 0.000000 0.000000 0.000000 0.061036
#
#
# Mechanical properties :
#
#
# Convention : Reuss Voigt Hill
#
# Bulk Modulus (GPa) = 49.73784 66.15159 57.94471
# Shear Modulus (GPa) = 24.06471 29.81170 26.93821
#
# Velocity S-wave (km/s) = 3.17002 3.52830 3.35395
# Velocity P-wave (km/s) = 5.84538 6.64999 6.26062
#
# Compressibility (1/GPa) = 0.02010542
#
# Stress axis : x y z
#
# Youngs Moduli (GPa) = 55.75599 73.47253 101.50561
#
# Poissons Ratio (x) = 0.03653 0.84490
# Poissons Ratio (y) = 0.02772 0.18526
# Poissons Ratio (z) = 0.46409 0.13410
#
# Static dielectric constant tensor:
#      x y z
#    x 1.991700 0.000000 0.000000 
#    y 0.000000 1.970700 0.000000 
#    z 0.000000 0.000000 1.919170 
# 
# From -- ./inp_files/4928.got.cif
#   From: 2010.05.17/outbox.cif.g08.bks.cpg/sg39_3_cif.got.tgz:4928.got - 2010.06.03 18:22:40.
