data_PCOD9361656
_publ_section_title
;
Structure prediction by ZEFSAII (Michael W. Deem and Ramdas Pophale) SiO2 
 PCOD9361656
Probable space group: A B M 2
;
_chemical_formula_sum "Si O2"
_cell_formula_units_Z 56
_cell_length_a 13.640220
_cell_length_b 19.952383
_cell_length_c 9.625107
_cell_angle_alpha 90.000000
_cell_angle_beta 90.000000
_cell_angle_gamma 90.000000
_cell_volume 2619.519972
_symmetry_space_group_name_H-M "A B M 2"
_symmetry_group_IT_number 39
_symmetry_cell_setting 'orthorhombic'
loop_
_space_group_symop_operation_xyz
x,y,z
-x,-y,z
-x,1/2+y,z
x,1/2-y,z
x,1/2+y,1/2+z
-x,1/2-y,1/2+z
-x,y,1/2+z
x,-y,1/2+z
loop_
_atom_site_type_symbol
_atom_site_label
_atom_site_fract_x
_atom_site_fract_y
_atom_site_fract_z
Si Si1 0.262610 0.172970 0.447700
Si Si2 0.585417 0.677420 0.690412
Si Si3 0.903663 0.436316 0.341454
Si Si4 0.354686 0.174444 0.144156
Si Si5 0.916989 0.075916 0.010470
Si Si6 0.613604 0.979344 0.073960
Si Si7 0.685397 0.440719 0.314675
O O1 0.231465 0.250000 0.470063
O O2 0.356413 0.162568 0.548187
O O3 0.296757 0.166994 0.288981
O O4 0.174090 0.124826 0.488145
O O5 0.619346 0.750000 0.741207
O O6 0.470710 0.680162 0.669094
O O7 0.610628 0.619666 0.796123
O O8 0.898013 0.508832 0.418519
O O9 0.791919 0.412225 0.347945
O O10 0.983489 0.397713 0.435234
O O11 0.930209 0.437574 0.176328
O O12 0.326427 0.250000 0.086742
O O13 0.354125 0.099069 0.079854
O O14 0.500000 0.000000 0.104489
O O15 0.686949 0.020446 0.169501
O O16 0.639176 0.995744 0.916065
#
# Coordination Sequence:
#
# PCOD9361656 Si02
#       7
#     8   8   8   8   8   8   8
#     4  10  22  43  68  93 130 175 218 270 331 390
#     4  10  22  39  62  89 124 170 217 257 311 389
#     4  11  23  39  66  93 124 166 211 272 326 392
#     4  10  23  40  63  92 127 176 222 261 314 387
#     4  11  22  42  66  94 128 161 223 267 334 387
#     4  12  26  39  62  95 141 173 216 268 328 386
#     4  12  25  41  62  94 132 169 213 268 330 381
#
# _framework density 21.377962
#
# number of rings (size 3 to 8) (size 9 to 14) (size 15 to 20)
#    0.000    1.143    2.857    3.857    4.000    1.714 
#    0.000    1.429    0.000    0.000    0.000    0.000 
#    0.000    0.000    0.000    0.000    0.000    0.000 
#
# Total GULP energy -156112.593710 kJ/mol
# GULP energy per Si atom -5575.449775 kJ/mol
# Density = 2.132931 g / cm^3
# Si number density = 21.377962 Si / 1000 Ang^3
#
#
#
# Elastic Constant Matrix: (Units=GPa)
#
#
# Indices 1 2 3 4 5 6 
#
# 1 96.4959 4.7382 18.3937 0.0000 0.0000 0.0000
# 2 4.7382 71.3626 20.7624 0.0000 0.0000 0.0000
# 3 18.3937 20.7624 101.4526 0.0000 0.0000 0.0000
# 4 0.0000 0.0000 0.0000 -15.2976 0.0000 0.0000
# 5 0.0000 0.0000 0.0000 0.0000 53.8128 0.0000
# 6 0.0000 0.0000 0.0000 0.0000 0.0000 96.1115
#
#
#
# Elastic Compliance Matrix: (Units=1/GPa)
#
#
# Indices 1 2 3 4 5 6 
#
# 1 0.010736 -0.000156 -0.001915 0.000000 0.000000 0.000000
# 2 -0.000156 0.014902 -0.003022 0.000000 0.000000 0.000000
# 3 -0.001915 -0.003022 0.010822 0.000000 0.000000 0.000000
# 4 0.000000 0.000000 0.000000 -0.065370 0.000000 0.000000
# 5 0.000000 0.000000 0.000000 0.000000 0.018583 0.000000
# 6 0.000000 0.000000 0.000000 0.000000 0.000000 0.010405
#
#
# Mechanical properties :
#
#
# Convention : Reuss Voigt Hill
#
# Bulk Modulus (GPa) = 38.05658 39.67773 38.86715
# Shear Modulus (GPa) = 262.86934 41.95313 152.41124
#
# Velocity S-wave (km/s) = 11.10089 4.43476 8.45272
# Velocity P-wave (km/s) = 13.49617 6.69501 10.65293
#
# Compressibility (1/GPa) = 0.02627667
#
# Stress axis : x y z
#
# Youngs Moduli (GPa) = 93.14690 67.10332 92.40189
#
# Poissons Ratio (x) = 0.01045 0.17691
# Poissons Ratio (y) = 0.01451 0.27920
# Poissons Ratio (z) = 0.17833 0.20276
#
# Static dielectric constant tensor:
#      x y z
#    x 1.756200 0.000000 0.000000 
#    y 0.000000 1.859820 0.000000 
#    z 0.000000 0.000000 1.863480 
# 
# From -- ./inp_files/3420.got.cif
#   From: 2010.05.17/outbox.cif.g08.bks.cpg/sg39_2_cif.got.tgz:3420.got - 2010.06.03 18:22:40.
