data_PCOD9361786
_publ_section_title
;
Structure prediction by ZEFSAII (Michael W. Deem and Ramdas Pophale) SiO2 
 PCOD9361786
Probable space group: A B M 2
;
_chemical_formula_sum "Si O2"
_cell_formula_units_Z 56
_cell_length_a 13.572147
_cell_length_b 18.152168
_cell_length_c 9.632030
_cell_angle_alpha 90.000000
_cell_angle_beta 90.000000
_cell_angle_gamma 90.000000
_cell_volume 2372.984403
_symmetry_space_group_name_H-M "A B M 2"
_symmetry_group_IT_number 39
_symmetry_cell_setting 'orthorhombic'
loop_
_space_group_symop_operation_xyz
x,y,z
-x,-y,z
-x,1/2+y,z
x,1/2-y,z
x,1/2+y,1/2+z
-x,1/2-y,1/2+z
-x,y,1/2+z
x,-y,1/2+z
loop_
_atom_site_type_symbol
_atom_site_label
_atom_site_fract_x
_atom_site_fract_y
_atom_site_fract_z
Si Si1 0.813331 0.831837 0.626970
Si Si2 0.744797 0.526275 0.755470
Si Si3 0.982888 0.335654 0.461186
Si Si4 0.389763 0.534283 0.518680
Si Si5 0.930163 0.070585 0.706592
Si Si6 0.615366 0.663711 0.492639
Si Si7 0.547113 0.337575 0.696130
O O1 0.794010 0.750000 0.683660
O O2 0.799168 0.895609 0.738010
O O3 0.918036 0.833190 0.554343
O O4 0.731082 0.844875 0.508279
O O5 0.683097 0.510257 0.617691
O O6 0.829026 0.463851 0.766415
O O7 0.663593 0.530420 0.873293
O O8 0.953083 0.250000 0.436081
O O9 0.016752 0.378135 0.321999
O O10 0.913247 0.383689 0.563591
O O11 0.500000 0.500000 0.520655
O O12 0.392745 0.616053 0.583367
O O13 0.000000 0.000000 0.674384
O O14 0.594927 0.750000 0.475474
O O15 0.563138 0.647895 0.639859
O O16 0.569981 0.632218 0.350253
O O17 0.566651 0.250000 0.689496
#
# Coordination Sequence:
#
# PCOD9361786 Si02
#       7
#     8   8   8   8   8   8   8
#     4  10  22  43  72 103 142 189 243 301 364 441
#     4  12  28  47  73 106 144 197 247 295 382 439
#     4  11  25  47  77 111 148 192 239 303 371 437
#     4  12  29  46  70 102 145 189 245 313 363 442
#     4  12  26  47  77 107 151 193 245 303 368 452
#     4   9  20  38  64  97 136 184 241 298 364 434
#     4  10  23  41  66  96 134 187 244 308 369 432
#
# _framework density 23.598973999999998
#
# number of rings (size 3 to 8) (size 9 to 14) (size 15 to 20)
#    0.000    1.143    1.429    3.000   12.000    0.571 
#    0.000    0.714    0.000    0.857    0.000    0.000 
#    0.000    0.000    0.000    0.000    0.000    0.000 
#
# Total GULP energy -156556.477379 kJ/mol
# GULP energy per Si atom -5591.302764 kJ/mol
# Density = 2.354526 g / cm^3
# Si number density = 23.598974 Si / 1000 Ang^3
#
#
#
# Elastic Constant Matrix: (Units=GPa)
#
#
# Indices 1 2 3 4 5 6 
#
# 1 82.3555 18.1413 11.8452 0.0000 0.0000 0.0000
# 2 18.1413 166.0035 44.6391 0.0000 0.0000 0.0000
# 3 11.8452 44.6391 106.6848 0.0000 0.0000 0.0000
# 4 0.0000 0.0000 0.0000 32.9845 0.0000 0.0000
# 5 0.0000 0.0000 0.0000 0.0000 29.9204 0.0000
# 6 0.0000 0.0000 0.0000 0.0000 0.0000 23.4910
#
#
#
# Elastic Compliance Matrix: (Units=1/GPa)
#
#
# Indices 1 2 3 4 5 6 
#
# 1 0.012522 -0.001121 -0.000921 0.000000 0.000000 0.000000
# 2 -0.001121 0.006888 -0.002758 0.000000 0.000000 0.000000
# 3 -0.000921 -0.002758 0.010630 0.000000 0.000000 0.000000
# 4 0.000000 0.000000 0.000000 0.030317 0.000000 0.000000
# 5 0.000000 0.000000 0.000000 0.000000 0.033422 0.000000
# 6 0.000000 0.000000 0.000000 0.000000 0.000000 0.042570
#
#
# Mechanical properties :
#
#
# Convention : Reuss Voigt Hill
#
# Bulk Modulus (GPa) = 48.92364 56.03278 52.47821
# Shear Modulus (GPa) = 32.73088 35.97373 34.35230
#
# Velocity S-wave (km/s) = 3.72823 3.90856 3.81946
# Velocity P-wave (km/s) = 6.26971 6.64563 6.46040
#
# Compressibility (1/GPa) = 0.02044002
#
# Stress axis : x y z
#
# Youngs Moduli (GPa) = 79.86029 145.18041 94.07724
#
# Poissons Ratio (x) = 0.16270 0.08668
# Poissons Ratio (y) = 0.08950 0.25943
# Poissons Ratio (z) = 0.07358 0.40036
#
# Static dielectric constant tensor:
#      x y z
#    x 1.898270 0.000000 0.000000 
#    y 0.000000 2.015000 0.000000 
#    z 0.000000 0.000000 1.872630 
# 
# From -- ./inp_files/3398.got.cif
#   From: 2010.05.17/outbox.cif.g08.bks.cpg/sg39_2_cif.got.tgz:3398.got - 2010.06.03 18:22:40.
