data_PCOD9361355
_publ_section_title
;
Structure prediction by ZEFSAII (Michael W. Deem and Ramdas Pophale) SiO2 
 PCOD9361355
Probable space group: A B M 2
;
_chemical_formula_sum "Si O2"
_cell_formula_units_Z 64
_cell_length_a 13.124820
_cell_length_b 16.314300
_cell_length_c 13.848896
_cell_angle_alpha 90.000000
_cell_angle_beta 90.000000
_cell_angle_gamma 90.000000
_cell_volume 2965.356784
_symmetry_space_group_name_H-M "A B M 2"
_symmetry_group_IT_number 39
_symmetry_cell_setting 'orthorhombic'
loop_
_space_group_symop_operation_xyz
x,y,z
-x,-y,z
-x,1/2+y,z
x,1/2-y,z
x,1/2+y,1/2+z
-x,1/2-y,1/2+z
-x,y,1/2+z
x,-y,1/2+z
loop_
_atom_site_type_symbol
_atom_site_label
_atom_site_fract_x
_atom_site_fract_y
_atom_site_fract_z
Si Si1 0.111817 0.031544 0.364660
Si Si2 0.541396 0.408859 0.980749
Si Si3 0.053601 0.845125 0.714415
Si Si4 0.620197 0.843361 0.670074
Si Si5 0.174716 0.400913 0.735427
Si Si6 0.579364 0.847742 0.276957
Si Si7 0.153811 0.967324 0.567789
Si Si8 0.666075 0.845229 0.066447
O O1 0.117126 0.116231 0.305362
O O2 0.185918 0.960916 0.326359
O O3 0.115774 0.022284 0.478628
O O4 0.000000 0.000000 0.332893
O O5 0.500000 0.500000 0.976797
O O6 0.597069 0.386993 0.880967
O O7 0.614723 0.395048 0.072120
O O8 0.439643 0.356401 0.007737
O O9 0.079557 0.750000 0.699471
O O10 0.078854 0.901990 0.621454
O O11 0.932810 0.853877 0.735754
O O12 0.592311 0.750000 0.643998
O O13 0.728560 0.845015 0.720092
O O14 0.533922 0.874114 0.743278
O O15 0.176023 0.466512 0.649363
O O16 0.580781 0.750000 0.291545
O O17 0.645565 0.863612 0.180906
O O18 0.249219 0.910918 0.537324
O O19 0.697864 0.750000 0.057687
#
# Coordination Sequence:
#
# PCOD9361355 Si02
#       8
#     8   8   8   8   8   8   8   8
#     4   9  20  39  62  90 124 163 204 260 319 377
#     4  11  22  37  60  88 122 163 211 259 324 390
#     4  10  21  41  66  93 129 168 210 261 324 391
#     4  10  21  39  59  86 120 158 208 262 315 376
#     4  10  21  38  61  91 128 161 207 262 317 385
#     4   9  20  39  61  83 119 161 202 260 319 369
#     4  11  21  39  64  91 127 168 211 257 321 384
#     4  10  22  40  61  90 124 162 215 267 317 387
#
# _framework density 21.582564000000001
#
# number of rings (size 3 to 8) (size 9 to 14) (size 15 to 20)
#    0.000    2.000    0.000    5.250    1.750    3.000 
#    6.750    9.375    0.000    0.000    0.000    0.000 
#    0.000    0.000    0.000    0.000    0.000    0.000 
#
# Total GULP energy -178567.124669 kJ/mol
# GULP energy per Si atom -5580.222646 kJ/mol
# Density = 2.153344 g / cm^3
# Si number density = 21.582564 Si / 1000 Ang^3
#
#
#
# Elastic Constant Matrix: (Units=GPa)
#
#
# Indices 1 2 3 4 5 6 
#
# 1 48.4640 7.1406 -1.0379 0.0000 0.0000 0.0000
# 2 7.1406 81.8708 16.1517 0.0000 0.0000 0.0000
# 3 -1.0379 16.1517 87.6585 0.0000 0.0000 0.0000
# 4 0.0000 0.0000 0.0000 19.5898 0.0000 0.0000
# 5 0.0000 0.0000 0.0000 0.0000 13.0967 0.0000
# 6 0.0000 0.0000 0.0000 0.0000 0.0000 27.3941
#
#
#
# Elastic Compliance Matrix: (Units=1/GPa)
#
#
# Indices 1 2 3 4 5 6 
#
# 1 0.020933 -0.001945 0.000606 0.000000 0.000000 0.000000
# 2 -0.001945 0.012856 -0.002392 0.000000 0.000000 0.000000
# 3 0.000606 -0.002392 0.011856 0.000000 0.000000 0.000000
# 4 0.000000 0.000000 0.000000 0.051047 0.000000 0.000000
# 5 0.000000 0.000000 0.000000 0.000000 0.076355 0.000000
# 6 0.000000 0.000000 0.000000 0.000000 0.000000 0.036504
#
#
# Mechanical properties :
#
#
# Convention : Reuss Voigt Hill
#
# Bulk Modulus (GPa) = 26.18942 29.16691 27.67816
# Shear Modulus (GPa) = 21.76364 25.06538 23.41451
#
# Velocity S-wave (km/s) = 3.17896 3.41159 3.29733
# Velocity P-wave (km/s) = 5.06313 5.39092 5.22959
#
# Compressibility (1/GPa) = 0.03818336
#
# Stress axis : x y z
#
# Youngs Moduli (GPa) = 47.77035 77.78526 84.34697
#
# Poissons Ratio (x) = 0.15132 -0.05114
# Poissons Ratio (y) = 0.09293 0.20174
# Poissons Ratio (z) = -0.02896 0.18605
#
# Static dielectric constant tensor:
#      x y z
#    x 1.846590 0.000000 0.000000 
#    y 0.000000 1.758140 0.000000 
#    z 0.000000 0.000000 1.810590 
# 
# From -- ./inp_files/6609.got.cif
#   From: 2010.05.17/outbox.cif.g08.bks.cpg/sg39_4_cif.got.tgz:6609.got - 2010.06.03 18:22:40.
