data_PCOD9361148
_publ_section_title
;
Structure prediction by ZEFSAII (Michael W. Deem and Ramdas Pophale) SiO2 
 PCOD9361148
Probable space group: A B M 2
;
_chemical_formula_sum "Si O2"
_cell_formula_units_Z 56
_cell_length_a 14.379252
_cell_length_b 14.271471
_cell_length_c 11.599204
_cell_angle_alpha 90.000000
_cell_angle_beta 90.000000
_cell_angle_gamma 90.000000
_cell_volume 2380.308354
_symmetry_space_group_name_H-M "A B M 2"
_symmetry_group_IT_number 39
_symmetry_cell_setting 'orthorhombic'
loop_
_space_group_symop_operation_xyz
x,y,z
-x,-y,z
-x,1/2+y,z
x,1/2-y,z
x,1/2+y,1/2+z
-x,1/2-y,1/2+z
-x,y,1/2+z
x,-y,1/2+z
loop_
_atom_site_type_symbol
_atom_site_label
_atom_site_fract_x
_atom_site_fract_y
_atom_site_fract_z
Si Si1 0.320113 0.647718 0.081200
Si Si2 0.250370 0.642989 0.717254
Si Si3 0.109094 0.145299 0.655877
Si Si4 0.596091 0.038315 0.560107
Si Si5 0.167026 0.518604 0.353932
Si Si6 0.085430 0.645045 0.530472
Si Si7 0.649240 0.642358 0.850129
O O1 0.346239 0.750000 0.035689
O O2 0.208909 0.642225 0.093490
O O3 0.363181 0.639263 0.211788
O O4 0.353668 0.556225 0.017744
O O5 0.275509 0.750000 0.747248
O O6 0.336243 0.590649 0.651617
O O7 0.207959 0.582283 0.822189
O O8 0.164887 0.645986 0.627689
O O9 0.107732 0.250000 0.711256
O O10 0.112028 0.060112 0.744411
O O11 0.018096 0.140831 0.579424
O O12 0.579856 0.100155 0.445332
O O13 0.500000 0.000000 0.611109
O O14 0.104617 0.550415 0.459695
O O15 0.255800 0.586468 0.368228
O O16 0.093307 0.750000 0.473747
O O17 0.662844 0.750000 0.880828
#
# Coordination Sequence:
#
# PCOD9361148 Si02
#       7
#     8   8   8   8   8   8   8
#     4   9  20  42  66  93 135 179 223 280 343 411
#     4  11  24  44  67  98 139 179 234 296 348 415
#     4   9  18  36  65 102 134 169 229 285 334 416
#     4  12  24  40  69 100 137 174 232 286 357 419
#     4  11  20  40  70  98 135 185 232 279 344 413
#     4  10  21  40  71 102 133 181 230 281 350 422
#     4  10  20  40  69  95 126 177 228 271 332 413
#
# _framework density 23.526364000000001
#
# number of rings (size 3 to 8) (size 9 to 14) (size 15 to 20)
#    0.000    1.714    4.286    2.571    0.000    2.286 
#    0.000    7.857    0.000   10.286    0.000    0.000 
#    0.000    0.000    0.000    0.000    0.000    0.000 
#
# Total GULP energy -156376.039181 kJ/mol
# GULP energy per Si atom -5584.858542 kJ/mol
# Density = 2.347282 g / cm^3
# Si number density = 23.526364 Si / 1000 Ang^3
#
#
#
# Elastic Constant Matrix: (Units=GPa)
#
#
# Indices 1 2 3 4 5 6 
#
# 1 91.7825 65.8693 28.0028 0.0000 0.0000 0.0000
# 2 65.8693 185.6634 50.6230 0.0000 0.0000 0.0000
# 3 28.0028 50.6230 63.8005 0.0000 0.0000 0.0000
# 4 0.0000 0.0000 0.0000 13.4400 0.0000 0.0000
# 5 0.0000 0.0000 0.0000 0.0000 16.8949 0.0000
# 6 0.0000 0.0000 0.0000 0.0000 0.0000 14.0358
#
#
#
# Elastic Compliance Matrix: (Units=1/GPa)
#
#
# Indices 1 2 3 4 5 6 
#
# 1 0.015061 -0.004518 -0.003025 0.000000 0.000000 0.000000
# 2 -0.004518 0.008229 -0.004546 0.000000 0.000000 0.000000
# 3 -0.003025 -0.004546 0.020609 0.000000 0.000000 0.000000
# 4 0.000000 0.000000 0.000000 0.074405 0.000000 0.000000
# 5 0.000000 0.000000 0.000000 0.000000 0.059190 0.000000
# 6 0.000000 0.000000 0.000000 0.000000 0.000000 0.071247
#
#
# Mechanical properties :
#
#
# Convention : Reuss Voigt Hill
#
# Bulk Modulus (GPa) = 50.71215 70.02628 60.36922
# Shear Modulus (GPa) = 17.88963 21.99088 19.94025
#
# Velocity S-wave (km/s) = 2.76054 3.06066 2.91446
# Velocity P-wave (km/s) = 5.63587 6.50537 6.08617
#
# Compressibility (1/GPa) = 0.01971914
#
# Stress axis : x y z
#
# Youngs Moduli (GPa) = 66.39623 121.52713 48.52336
#
# Poissons Ratio (x) = 0.54912 0.14680
# Poissons Ratio (y) = 0.30001 0.22058
# Poissons Ratio (z) = 0.20087 0.55244
#
# Static dielectric constant tensor:
#      x y z
#    x 1.876880 0.000000 0.000000 
#    y 0.000000 1.911320 0.000000 
#    z 0.000000 0.000000 1.984620 
# 
# From -- ./inp_files/6520.got.cif
#   From: 2010.05.17/outbox.cif.g08.bks.cpg/sg39_4_cif.got.tgz:6520.got - 2010.06.03 18:22:40.
