data_PCOD9361402
_publ_section_title
;
Structure prediction by ZEFSAII (Michael W. Deem and Ramdas Pophale) SiO2 
 PCOD9361402
Probable space group: A B M 2
;
_chemical_formula_sum "Si O2"
_cell_formula_units_Z 44
_cell_length_a 16.043285
_cell_length_b 9.844793
_cell_length_c 14.629275
_cell_angle_alpha 90.000000
_cell_angle_beta 90.000000
_cell_angle_gamma 90.000000
_cell_volume 2310.588946
_symmetry_space_group_name_H-M "A B M 2"
_symmetry_group_IT_number 39
_symmetry_cell_setting 'orthorhombic'
loop_
_space_group_symop_operation_xyz
x,y,z
-x,-y,z
-x,1/2+y,z
x,1/2-y,z
x,1/2+y,1/2+z
-x,1/2-y,1/2+z
-x,y,1/2+z
x,-y,1/2+z
loop_
_atom_site_type_symbol
_atom_site_label
_atom_site_fract_x
_atom_site_fract_y
_atom_site_fract_z
Si Si1 0.000000 0.500000 0.801170
Si Si2 0.683454 0.087509 0.603820
Si Si3 0.720889 0.411731 0.928561
Si Si4 0.871829 0.589663 0.149291
Si Si5 0.878159 0.903748 0.942120
Si Si6 0.578175 0.591344 0.277795
O O1 0.074426 0.531909 0.731192
O O2 0.044314 0.400637 0.873686
O O3 0.681039 0.250000 0.582025
O O4 0.773316 0.060297 0.651233
O O5 0.611357 0.058526 0.676296
O O6 0.682941 0.991192 0.515841
O O7 0.733980 0.250000 0.944919
O O8 0.807933 0.489530 0.910053
O O9 0.655909 0.425977 0.846095
O O10 0.881848 0.750000 0.157233
O O11 0.900280 0.553065 0.046095
O O12 0.842969 0.750000 0.948185
O O13 0.500000 0.500000 0.303235
O O14 0.554779 0.750000 0.280261
#
# Coordination Sequence:
#
# PCOD9361402 Si02
#       6
#     4   8   8   8   8   8
#     4  12  20  32  56  84 110 144 188 234 276 328
#     4   9  19  39  61  80 109 149 187 226 277 333
#     4  10  21  39  61  83 110 148 191 232 277 332
#     4   9  19  36  54  75 108 146 182 224 275 328
#     4  10  22  38  56  81 113 149 188 232 283 335
#     4  10  22  38  58  86 118 149 183 228 282 338
#
# _framework density 19.042763000000001
#
# number of rings (size 3 to 8) (size 9 to 14) (size 15 to 20)
#    0.000    2.182    0.000    3.818    0.000    5.818 
#    0.000   16.364    0.000    0.000    0.000    0.000 
#    0.000    0.000    0.000    0.000    0.000    0.000 
#
# Total GULP energy -122596.599395 kJ/mol
# GULP energy per Si atom -5572.572700 kJ/mol
# Density = 1.899942 g / cm^3
# Si number density = 19.042763 Si / 1000 Ang^3
#
#
#
# Elastic Constant Matrix: (Units=GPa)
#
#
# Indices 1 2 3 4 5 6 
#
# 1 41.5416 38.4097 32.2514 0.0000 0.0000 0.0000
# 2 38.4097 82.2574 38.5237 0.0000 0.0000 0.0000
# 3 32.2514 38.5237 88.0405 0.0000 0.0000 0.0000
# 4 0.0000 0.0000 0.0000 -6.8326 0.0000 0.0000
# 5 0.0000 0.0000 0.0000 0.0000 16.5123 0.0000
# 6 0.0000 0.0000 0.0000 0.0000 0.0000 21.3761
#
#
#
# Elastic Compliance Matrix: (Units=1/GPa)
#
#
# Indices 1 2 3 4 5 6 
#
# 1 0.048309 -0.017948 -0.009843 0.000000 0.000000 0.000000
# 2 -0.017948 0.021958 -0.003034 0.000000 0.000000 0.000000
# 3 -0.009843 -0.003034 0.016292 0.000000 0.000000 0.000000
# 4 0.000000 0.000000 0.000000 -0.146358 0.000000 0.000000
# 5 0.000000 0.000000 0.000000 0.000000 0.060561 0.000000
# 6 0.000000 0.000000 0.000000 0.000000 0.000000 0.046781
#
#
# Mechanical properties :
#
#
# Convention : Reuss Voigt Hill
#
# Bulk Modulus (GPa) = 40.14522 47.80100 43.97311
# Shear Modulus (GPa) = 42.55507 13.05483 27.80495
#
# Velocity S-wave (km/s) = 4.73240 2.62115 3.82531
# Velocity P-wave (km/s) = 7.14060 5.85807 6.53090
#
# Compressibility (1/GPa) = 0.02490957
#
# Stress axis : x y z
#
# Youngs Moduli (GPa) = 20.70020 45.54111 61.38102
#
# Poissons Ratio (x) = 0.81735 0.60420
# Poissons Ratio (y) = 0.37152 0.18620
# Poissons Ratio (z) = 0.20376 0.13815
#
# Static dielectric constant tensor:
#      x y z
#    x 1.675990 0.000000 0.000000 
#    y 0.000000 1.660000 0.000000 
#    z 0.000000 0.000000 1.700890 
# 
# From -- ./inp_files/9968.got.cif
#   From: 2010.05.17/outbox.cif.g08.bks.cpg/sg39_5_cif.got.tgz:9968.got - 2010.06.03 18:22:40.
