data_PCOD9361702
_publ_section_title
;
Structure prediction by ZEFSAII (Michael W. Deem and Ramdas Pophale) SiO2 
 PCOD9361702
Probable space group: A B M 2
;
_chemical_formula_sum "Si O2"
_cell_formula_units_Z 48
_cell_length_a 6.831428
_cell_length_b 22.919169
_cell_length_c 14.446613
_cell_angle_alpha 90.000000
_cell_angle_beta 90.000000
_cell_angle_gamma 90.000000
_cell_volume 2261.915629
_symmetry_space_group_name_H-M "A B M 2"
_symmetry_group_IT_number 39
_symmetry_cell_setting 'orthorhombic'
loop_
_space_group_symop_operation_xyz
x,y,z
-x,-y,z
-x,1/2+y,z
x,1/2-y,z
x,1/2+y,1/2+z
-x,1/2-y,1/2+z
-x,y,1/2+z
x,-y,1/2+z
loop_
_atom_site_type_symbol
_atom_site_label
_atom_site_fract_x
_atom_site_fract_y
_atom_site_fract_z
Si Si1 0.463326 0.096352 0.250000
Si Si2 0.059346 0.566519 0.669297
Si Si3 0.841748 0.946294 0.841526
Si Si4 0.503369 0.184198 0.589304
Si Si5 0.105058 0.639388 0.499888
Si Si6 0.265143 0.816702 0.899681
O O1 0.288665 0.065617 0.193547
O O2 0.624804 0.053943 0.295779
O O3 0.546603 0.139911 0.171534
O O4 0.359385 0.136832 0.328742
O O5 0.000940 0.606615 0.584420
O O6 0.000000 0.500000 0.652178
O O7 0.956741 0.588982 0.762284
O O8 0.811876 0.912887 0.936812
O O9 0.000000 0.000000 0.855626
O O10 0.480561 0.250000 0.623848
O O11 0.724318 0.174968 0.550467
O O12 0.376404 0.176868 0.497242
O O13 0.959011 0.672751 0.431457
O O14 0.289199 0.750000 0.865604
#
# Coordination Sequence:
#
# PCOD9361702 Si02
#       6
#     8   8   8   8   8   8
#     4  11  22  42  65  94 130 171 216 270 324 387
#     4  10  23  41  65  90 127 170 219 265 323 385
#     4  11  23  40  65  93 128 172 218 268 327 385
#     4  10  22  40  65  94 130 172 215 265 326 389
#     4  11  21  41  64  95 129 168 213 268 324 385
#     4  11  22  39  64  96 129 166 214 263 324 389
#
# _framework density 21.220952
#
# number of rings (size 3 to 8) (size 9 to 14) (size 15 to 20)
#    0.000    1.333    3.333    2.500    0.000    2.667 
#    0.000    0.000    0.000    0.000    0.000    0.000 
#    0.000    0.000    0.000    0.000    0.000    0.000 
#
# Total GULP energy -133716.294000 kJ/mol
# GULP energy per Si atom -5571.512250 kJ/mol
# Density = 2.117265 g / cm^3
# Si number density = 21.220952 Si / 1000 Ang^3
#
#
#
# Elastic Constant Matrix: (Units=GPa)
#
#
# Indices 1 2 3 4 5 6 
#
# 1 80.3732 35.5612 -0.1479 0.0000 0.0000 0.0000
# 2 35.5612 84.9936 23.4756 0.0000 0.0000 0.0000
# 3 -0.1479 23.4756 69.5414 0.0000 0.0000 0.0000
# 4 0.0000 0.0000 0.0000 0.2545 0.0000 0.0000
# 5 0.0000 0.0000 0.0000 0.0000 46.9664 0.0000
# 6 0.0000 0.0000 0.0000 0.0000 0.0000 21.0369
#
#
#
# Elastic Compliance Matrix: (Units=1/GPa)
#
#
# Indices 1 2 3 4 5 6 
#
# 1 0.015645 -0.007229 0.002474 0.000000 0.000000 0.000000
# 2 -0.007229 0.016316 -0.005523 0.000000 0.000000 0.000000
# 3 0.002474 -0.005523 0.016250 0.000000 0.000000 0.000000
# 4 0.000000 0.000000 0.000000 3.928969 0.000000 0.000000
# 5 0.000000 0.000000 0.000000 0.000000 0.021292 0.000000
# 6 0.000000 0.000000 0.000000 0.000000 0.000000 0.047535
#
#
# Mechanical properties :
#
#
# Convention : Reuss Voigt Hill
#
# Bulk Modulus (GPa) = 36.16218 39.18735 37.67476
# Shear Modulus (GPa) = 1.22676 25.38619 13.30648
#
# Velocity S-wave (km/s) = 0.76115 3.46248 2.50680
# Velocity P-wave (km/s) = 4.22495 5.87294 5.11575
#
# Compressibility (1/GPa) = 0.02765320
#
# Stress axis : x y z
#
# Youngs Moduli (GPa) = 63.91808 61.29039 61.53956
#
# Poissons Ratio (x) = 0.44307 -0.15223
# Poissons Ratio (y) = 0.46207 0.33990
# Poissons Ratio (z) = -0.15811 0.33852
#
# Static dielectric constant tensor:
#      x y z
#    x 1.815620 0.000000 0.000000 
#    y 0.000000 1.797810 0.000000 
#    z 0.000000 0.000000 1.723010 
# 
# From -- ./inp_files/7552.got.cif
#   From: 2010.05.17/outbox.cif.g08.bks.cpg/sg39_4_cif.got.tgz:7552.got - 2010.06.03 18:22:40.
