data_PCOD9361768
_publ_section_title
;
Structure prediction by ZEFSAII (Michael W. Deem and Ramdas Pophale) SiO2 
 PCOD9361768
Probable space group: A B M 2
;
_chemical_formula_sum "Si O2"
_cell_formula_units_Z 48
_cell_length_a 12.457744
_cell_length_b 18.379968
_cell_length_c 8.225065
_cell_angle_alpha 90.000000
_cell_angle_beta 90.000000
_cell_angle_gamma 90.000000
_cell_volume 1883.317282
_symmetry_space_group_name_H-M "A B M 2"
_symmetry_group_IT_number 39
_symmetry_cell_setting 'orthorhombic'
loop_
_space_group_symop_operation_xyz
x,y,z
-x,-y,z
-x,1/2+y,z
x,1/2-y,z
x,1/2+y,1/2+z
-x,1/2-y,1/2+z
-x,y,1/2+z
x,-y,1/2+z
loop_
_atom_site_type_symbol
_atom_site_label
_atom_site_fract_x
_atom_site_fract_y
_atom_site_fract_z
Si Si1 0.861113 0.620341 0.751850
Si Si2 0.827810 0.750000 0.139728
Si Si3 0.989820 0.750000 0.833690
Si Si4 0.616266 0.166321 0.295598
Si Si5 0.197567 0.912232 0.582023
Si Si6 0.234981 0.052573 0.433109
Si Si7 0.462846 0.582928 0.996707
O O1 0.952211 0.679531 0.734123
O O2 0.744745 0.657243 0.788374
O O3 0.837628 0.581241 0.581606
O O4 0.886900 0.585777 0.930465
O O5 0.772964 0.671960 0.115939
O O6 0.882388 0.750000 0.318973
O O7 0.919239 0.750000 0.996614
O O8 0.592826 0.250000 0.252436
O O9 0.551791 0.143089 0.454703
O O10 0.571981 0.103327 0.178161
O O11 0.174048 0.943414 0.761590
O O12 0.273178 0.973342 0.499811
O O13 0.348395 0.093122 0.404342
O O14 0.500000 0.500000 0.980152
#
# Coordination Sequence:
#
# PCOD9361768 Si02
#       7
#     8   4   4   8   8   8   8
#     4  10  22  42  70  96 138 184 222 278 355 413
#     4  10  26  44  76 107 131 176 228 292 353 419
#     4  10  22  46  72 101 141 176 220 288 357 423
#     4  11  23  42  63  95 132 176 230 288 333 389
#     4  11  23  45  69 104 131 180 229 280 353 415
#     4  11  24  41  70  97 138 185 229 277 339 419
#     4  11  25  39  61  94 132 182 228 276 337 397
#
# _framework density 25.486941999999999
#
# number of rings (size 3 to 8) (size 9 to 14) (size 15 to 20)
#    0.000    1.333    2.500    2.000    9.333    0.000 
#    3.000    0.833    0.000    0.000    0.000    0.000 
#    0.000    0.000    0.000    0.000    0.000    0.000 
#
# Total GULP energy -133691.785953 kJ/mol
# GULP energy per Si atom -5570.491081 kJ/mol
# Density = 2.542893 g / cm^3
# Si number density = 25.486942 Si / 1000 Ang^3
#
#
#
# Elastic Constant Matrix: (Units=GPa)
#
#
# Indices 1 2 3 4 5 6 
#
# 1 46.4438 12.2121 28.4604 0.0000 0.0000 0.0000
# 2 12.2121 119.2809 60.7639 0.0000 0.0000 0.0000
# 3 28.4604 60.7639 154.7790 0.0000 0.0000 0.0000
# 4 0.0000 0.0000 0.0000 36.7887 0.0000 0.0000
# 5 0.0000 0.0000 0.0000 0.0000 29.9581 0.0000
# 6 0.0000 0.0000 0.0000 0.0000 0.0000 32.1204
#
#
#
# Elastic Compliance Matrix: (Units=1/GPa)
#
#
# Indices 1 2 3 4 5 6 
#
# 1 0.024272 -0.000264 -0.004359 0.000000 0.000000 0.000000
# 2 -0.000264 0.010482 -0.004067 0.000000 0.000000 0.000000
# 3 -0.004359 -0.004067 0.008859 0.000000 0.000000 0.000000
# 4 0.000000 0.000000 0.000000 0.027182 0.000000 0.000000
# 5 0.000000 0.000000 0.000000 0.000000 0.033380 0.000000
# 6 0.000000 0.000000 0.000000 0.000000 0.000000 0.031133
#
#
# Mechanical properties :
#
#
# Convention : Reuss Voigt Hill
#
# Bulk Modulus (GPa) = 38.12001 58.15294 48.13648
# Shear Modulus (GPa) = 30.97255 34.37790 32.67523
#
# Velocity S-wave (km/s) = 3.48980 3.67665 3.58444
# Velocity P-wave (km/s) = 5.58815 6.39452 6.00489
#
# Compressibility (1/GPa) = 0.02623294
#
# Stress axis : x y z
#
# Youngs Moduli (GPa) = 41.19930 95.39967 112.88093
#
# Poissons Ratio (x) = 0.02521 0.49209
# Poissons Ratio (y) = 0.01089 0.45904
# Poissons Ratio (z) = 0.17960 0.38795
#
# Static dielectric constant tensor:
#      x y z
#    x 2.080670 0.000000 0.000000 
#    y 0.000000 2.085670 0.000000 
#    z 0.000000 0.000000 2.124760 
# 
# From -- ./inp_files/3262.got.cif
#   From: 2010.05.17/outbox.cif.g08.bks.cpg/sg39_2_cif.got.tgz:3262.got - 2010.06.03 18:22:40.
