data_PCOD9361000
_publ_section_title
;
Structure prediction by ZEFSAII (Michael W. Deem and Ramdas Pophale) SiO2 
 PCOD9361000
Probable space group: A B M 2
;
_chemical_formula_sum "Si O2"
_cell_formula_units_Z 64
_cell_length_a 14.704894
_cell_length_b 18.373801
_cell_length_c 12.352682
_cell_angle_alpha 90.000000
_cell_angle_beta 90.000000
_cell_angle_gamma 90.000000
_cell_volume 3337.506867
_symmetry_space_group_name_H-M "A B M 2"
_symmetry_group_IT_number 39
_symmetry_cell_setting 'orthorhombic'
loop_
_space_group_symop_operation_xyz
x,y,z
-x,-y,z
-x,1/2+y,z
x,1/2-y,z
x,1/2+y,1/2+z
-x,1/2-y,1/2+z
-x,y,1/2+z
x,-y,1/2+z
loop_
_atom_site_type_symbol
_atom_site_label
_atom_site_fract_x
_atom_site_fract_y
_atom_site_fract_z
Si Si1 0.953736 0.578289 0.522110
Si Si2 0.250655 0.162368 0.917344
Si Si3 0.327310 0.668743 0.117046
Si Si4 0.441561 0.834890 0.324483
Si Si5 0.173098 0.414611 0.312931
Si Si6 0.359219 0.334552 0.363618
Si Si7 0.119091 0.836375 0.600356
Si Si8 0.176710 0.422981 0.723289
O O1 0.881792 0.591423 0.425837
O O2 0.906628 0.578133 0.640218
O O3 0.000000 0.500000 0.503053
O O4 0.033152 0.637578 0.530413
O O5 0.252158 0.250000 0.911490
O O6 0.353465 0.136055 0.890318
O O7 0.183891 0.132404 0.824030
O O8 0.209195 0.141075 0.032697
O O9 0.285202 0.750000 0.136250
O O10 0.410590 0.664005 0.199956
O O11 0.260118 0.604197 0.148908
O O12 0.354573 0.665700 0.993465
O O13 0.450905 0.750000 0.358623
O O14 0.541944 0.866657 0.334951
O O15 0.271985 0.378040 0.322864
O O16 0.119880 0.374361 0.216457
O O17 0.183716 0.497926 0.276179
O O18 0.352645 0.250000 0.325548
O O19 0.118988 0.750000 0.612626
#
# Coordination Sequence:
#
# PCOD9361000 Si02
#       8
#     8   8   8   8   8   8   8   8
#     4  12  26  44  64  88 116 163 215 257 310 382
#     4   9  20  40  64  94 127 163 209 255 307 368
#     4   9  18  36  61  93 124 161 213 261 311 367
#     4   8  16  33  61  92 125 165 207 249 304 371
#     4  12  26  42  64  91 129 159 210 262 318 380
#     4  10  20  37  63  94 126 163 207 261 314 369
#     4  11  26  42  62  93 128 163 203 259 320 368
#     4  11  22  40  66  85 121 164 206 261 311 374
#
# _framework density 19.175989999999999
#
# number of rings (size 3 to 8) (size 9 to 14) (size 15 to 20)
#    0.000    1.750    2.500    2.250    3.500    3.000 
#    0.000    6.250    0.000    3.000    0.000    0.000 
#    0.000    0.000    0.000    0.000    0.000    0.000 
#
# Total GULP energy -178467.021409 kJ/mol
# GULP energy per Si atom -5577.094419 kJ/mol
# Density = 1.913235 g / cm^3
# Si number density = 19.175990 Si / 1000 Ang^3
#
#
#
# Elastic Constant Matrix: (Units=GPa)
#
#
# Indices 1 2 3 4 5 6 
#
# 1 116.9138 39.6096 42.8256 0.0000 0.0000 0.0000
# 2 39.6096 29.5240 12.3277 0.0000 0.0000 0.0000
# 3 42.8256 12.3277 61.6909 0.0000 0.0000 0.0000
# 4 0.0000 0.0000 0.0000 24.9948 0.0000 0.0000
# 5 0.0000 0.0000 0.0000 0.0000 16.9394 0.0000
# 6 0.0000 0.0000 0.0000 0.0000 0.0000 13.2461
#
#
#
# Elastic Compliance Matrix: (Units=1/GPa)
#
#
# Indices 1 2 3 4 5 6 
#
# 1 0.019398 -0.022258 -0.009018 0.000000 0.000000 0.000000
# 2 -0.022258 0.062495 0.002963 0.000000 0.000000 0.000000
# 3 -0.009018 0.002963 0.021878 0.000000 0.000000 0.000000
# 4 0.000000 0.000000 0.000000 0.040008 0.000000 0.000000
# 5 0.000000 0.000000 0.000000 0.000000 0.059034 0.000000
# 6 0.000000 0.000000 0.000000 0.000000 0.000000 0.075494
#
#
# Mechanical properties :
#
#
# Convention : Reuss Voigt Hill
#
# Bulk Modulus (GPa) = 21.21124 44.18382 32.69753
# Shear Modulus (GPa) = 14.25932 18.59379 16.42656
#
# Velocity S-wave (km/s) = 2.72987 3.11728 2.92998
# Velocity P-wave (km/s) = 4.58493 6.00398 5.34179
#
# Compressibility (1/GPa) = 0.04714482
#
# Stress axis : x y z
#
# Youngs Moduli (GPa) = 51.55292 16.00118 45.70842
#
# Poissons Ratio (x) = 0.35616 0.41219
# Poissons Ratio (y) = 1.14749 -0.13545
# Poissons Ratio (z) = 0.46489 -0.04742
#
# Static dielectric constant tensor:
#      x y z
#    x 1.697540 0.000000 0.000000 
#    y 0.000000 1.668230 0.000000 
#    z 0.000000 0.000000 1.676110 
# 
# From -- ./inp_files/6677.got.cif
#   From: 2010.05.17/outbox.cif.g08.bks.cpg/sg39_4_cif.got.tgz:6677.got - 2010.06.03 18:22:40.
