data_PCOD9361688
_publ_section_title
;
Structure prediction by ZEFSAII (Michael W. Deem and Ramdas Pophale) SiO2 
 PCOD9361688
Probable space group: A B M 2
;
_chemical_formula_sum "Si O2"
_cell_formula_units_Z 40
_cell_length_a 10.316868
_cell_length_b 17.681122
_cell_length_c 8.830726
_cell_angle_alpha 90.000000
_cell_angle_beta 90.000000
_cell_angle_gamma 90.000000
_cell_volume 1610.846302
_symmetry_space_group_name_H-M "A B M 2"
_symmetry_group_IT_number 39
_symmetry_cell_setting 'orthorhombic'
loop_
_space_group_symop_operation_xyz
x,y,z
-x,-y,z
-x,1/2+y,z
x,1/2-y,z
x,1/2+y,1/2+z
-x,1/2-y,1/2+z
-x,y,1/2+z
x,-y,1/2+z
loop_
_atom_site_type_symbol
_atom_site_label
_atom_site_fract_x
_atom_site_fract_y
_atom_site_fract_z
Si Si1 0.018805 0.167597 0.651250
Si Si2 0.401817 0.617599 0.191988
Si Si3 0.186938 0.377818 0.909791
Si Si4 0.748930 0.333568 0.913127
Si Si5 0.684484 0.555183 0.177394
O O1 0.017150 0.250000 0.729423
O O2 0.077780 0.111078 0.779124
O O3 0.130332 0.168033 0.525661
O O4 0.890677 0.161133 0.548323
O O5 0.311021 0.657425 0.319179
O O6 0.555738 0.607430 0.196925
O O7 0.351401 0.531090 0.204172
O O8 0.368876 0.650178 0.027568
O O9 0.254337 0.442764 0.010633
O O10 0.733182 0.250000 0.842869
O O11 0.772019 0.403236 0.800908
#
# Coordination Sequence:
#
# PCOD9361688 Si02
#       5
#     8   8   8   8   8
#     4  10  22  41  63  91 131 175 214 267 341 400
#     4  10  23  43  66  95 134 179 221 268 333 401
#     4  11  22  39  66  94 122 169 224 266 313 393
#     4  10  22  40  62  95 135 171 219 278 331 390
#     4  11  22  41  68  96 132 178 223 270 332 398
#
# _framework density 24.831665000000001
#
# number of rings (size 3 to 8) (size 9 to 14) (size 15 to 20)
#    0.000    1.600    0.000    4.200    0.000    8.000 
#    0.000   23.000    0.000    0.000    0.000    0.000 
#    0.000    0.000    0.000    0.000    0.000    0.000 
#
# Total GULP energy -111432.442406 kJ/mol
# GULP energy per Si atom -5571.622120 kJ/mol
# Density = 2.477515 g / cm^3
# Si number density = 24.831665 Si / 1000 Ang^3
#
#
#
# Elastic Constant Matrix: (Units=GPa)
#
#
# Indices 1 2 3 4 5 6 
#
# 1 104.2072 14.8508 36.8368 0.0000 0.0000 0.0000
# 2 14.8508 60.2784 33.8685 0.0000 0.0000 0.0000
# 3 36.8368 33.8685 132.0484 0.0000 0.0000 0.0000
# 4 0.0000 0.0000 0.0000 28.3949 0.0000 0.0000
# 5 0.0000 0.0000 0.0000 0.0000 45.4228 0.0000
# 6 0.0000 0.0000 0.0000 0.0000 0.0000 8.8985
#
#
#
# Elastic Compliance Matrix: (Units=1/GPa)
#
#
# Indices 1 2 3 4 5 6 
#
# 1 0.010711 -0.001122 -0.002700 0.000000 0.000000 0.000000
# 2 -0.001122 0.019500 -0.004689 0.000000 0.000000 0.000000
# 3 -0.002700 -0.004689 0.009529 0.000000 0.000000 0.000000
# 4 0.000000 0.000000 0.000000 0.035218 0.000000 0.000000
# 5 0.000000 0.000000 0.000000 0.000000 0.022015 0.000000
# 6 0.000000 0.000000 0.000000 0.000000 0.000000 0.112379
#
#
# Mechanical properties :
#
#
# Convention : Reuss Voigt Hill
#
# Bulk Modulus (GPa) = 44.01629 51.96069 47.98849
# Shear Modulus (GPa) = 21.37247 30.60843 25.99045
#
# Velocity S-wave (km/s) = 2.93694 3.51470 3.23873
# Velocity P-wave (km/s) = 5.40973 6.11894 5.77523
#
# Compressibility (1/GPa) = 0.02271886
#
# Stress axis : x y z
#
# Youngs Moduli (GPa) = 93.36524 51.28090 104.94476
#
# Poissons Ratio (x) = 0.05752 0.28337
# Poissons Ratio (y) = 0.10472 0.49205
# Poissons Ratio (z) = 0.25211 0.24044
#
# Static dielectric constant tensor:
#      x y z
#    x 2.065970 0.000000 0.000000 
#    y 0.000000 2.003050 0.000000 
#    z 0.000000 0.000000 1.954210 
# 
# From -- ./inp_files/2526.got.cif
#   From: 2010.05.17/outbox.cif.g08.bks.cpg/sg39_2_cif.got.tgz:2526.got - 2010.06.03 18:22:40.
