data_PCOD9361749
_publ_section_title
;
Structure prediction by ZEFSAII (Michael W. Deem and Ramdas Pophale) SiO2 
 PCOD9361749
Probable space group: A B M 2
;
_chemical_formula_sum "Si O2"
_cell_formula_units_Z 56
_cell_length_a 5.523504
_cell_length_b 14.583920
_cell_length_c 27.917984
_cell_angle_alpha 90.000000
_cell_angle_beta 90.000000
_cell_angle_gamma 90.000000
_cell_volume 2248.914788
_symmetry_space_group_name_H-M "A B M 2"
_symmetry_group_IT_number 39
_symmetry_cell_setting 'orthorhombic'
loop_
_space_group_symop_operation_xyz
x,y,z
-x,-y,z
-x,1/2+y,z
x,1/2-y,z
x,1/2+y,1/2+z
-x,1/2-y,1/2+z
-x,y,1/2+z
x,-y,1/2+z
loop_
_atom_site_type_symbol
_atom_site_label
_atom_site_fract_x
_atom_site_fract_y
_atom_site_fract_z
Si Si1 0.662163 0.638800 0.297550
Si Si2 0.845622 0.859765 0.752753
Si Si3 0.573012 0.396594 0.160783
Si Si4 0.217203 0.250000 0.139856
Si Si5 0.914872 0.104636 0.078587
Si Si6 0.141011 0.353169 0.986702
Si Si7 0.216854 0.857115 0.907770
Si Si8 0.500000 0.500000 0.972354
O O1 0.650779 0.750000 0.292908
O O2 0.394981 0.605827 0.281219
O O3 0.738208 0.621129 0.352524
O O4 0.893079 0.602930 0.267832
O O5 0.857297 0.750000 0.761391
O O6 0.790311 0.873475 0.696883
O O7 0.500000 0.500000 0.166970
O O8 0.357178 0.328649 0.171580
O O9 0.665241 0.379691 0.106778
O O10 0.102160 0.170432 0.105268
O O11 0.916929 0.134363 0.023243
O O12 0.000000 0.000000 0.084940
O O13 0.236903 0.250000 0.991974
O O14 0.316446 0.435770 0.001023
O O15 0.050063 0.365432 0.931935
O O16 0.283521 0.750000 0.915034
O O17 0.370159 0.927309 0.938385
#
# Coordination Sequence:
#
# PCOD9361749 Si02
#       8
#     8   8   8   4   8   8   8   4
#     4   9  21  41  72 109 143 195 249 310 381 457
#     4  10  22  41  74 106 148 195 250 312 385 454
#     4  12  27  47  74 109 149 199 252 315 381 460
#     4  12  26  46  74 106 144 198 244 314 388 432
#     4  12  26  48  75 106 150 193 253 312 370 457
#     4  11  26  48  72 106 146 195 243 307 376 449
#     4  10  23  45  73 104 149 194 247 305 377 451
#     4  12  24  44  72 106 146 194 242 308 372 450
#
# _framework density 24.900898999999999
#
# number of rings (size 3 to 8) (size 9 to 14) (size 15 to 20)
#    0.000    1.143    2.857    2.143    4.000    2.286 
#    5.143    0.000    0.000    0.000    0.000    0.000 
#    0.000    0.000    0.000    0.000    0.000    0.000 
#
# Total GULP energy -156256.227705 kJ/mol
# GULP energy per Si atom -5580.579561 kJ/mol
# Density = 2.484422 g / cm^3
# Si number density = 24.900899 Si / 1000 Ang^3
#
#
#
# Elastic Constant Matrix: (Units=GPa)
#
#
# Indices 1 2 3 4 5 6 
#
# 1 105.7258 38.6224 44.4990 0.0000 0.0000 0.0000
# 2 38.6224 138.4957 18.9523 0.0000 0.0000 0.0000
# 3 44.4990 18.9523 101.5433 0.0000 0.0000 0.0000
# 4 0.0000 0.0000 0.0000 35.4332 0.0000 0.0000
# 5 0.0000 0.0000 0.0000 0.0000 31.5469 0.0000
# 6 0.0000 0.0000 0.0000 0.0000 0.0000 1.9794
#
#
#
# Elastic Compliance Matrix: (Units=1/GPa)
#
#
# Indices 1 2 3 4 5 6 
#
# 1 0.012592 -0.002829 -0.004990 0.000000 0.000000 0.000000
# 2 -0.002829 0.008045 -0.000262 0.000000 0.000000 0.000000
# 3 -0.004990 -0.000262 0.012084 0.000000 0.000000 0.000000
# 4 0.000000 0.000000 0.000000 0.028222 0.000000 0.000000
# 5 0.000000 0.000000 0.000000 0.000000 0.031699 0.000000
# 6 0.000000 0.000000 0.000000 0.000000 0.000000 0.505209
#
#
# Mechanical properties :
#
#
# Convention : Reuss Voigt Hill
#
# Bulk Modulus (GPa) = 60.38931 61.10136 60.74534
# Shear Modulus (GPa) = 8.07060 30.03797 19.05428
#
# Velocity S-wave (km/s) = 1.80225 3.47695 2.76923
# Velocity P-wave (km/s) = 5.35120 6.38044 5.88835
#
# Compressibility (1/GPa) = 0.01655922
#
# Stress axis : x y z
#
# Youngs Moduli (GPa) = 79.41473 124.29883 82.75568
#
# Poissons Ratio (x) = 0.35160 0.41297
# Poissons Ratio (y) = 0.22464 0.02168
# Poissons Ratio (z) = 0.39630 0.03256
#
# Static dielectric constant tensor:
#      x y z
#    x 2.128900 0.000000 0.000000 
#    y 0.000000 1.898070 0.000000 
#    z 0.000000 0.000000 1.953500 
# 
# From -- ./inp_files/17348.got.cif
#   From: 2010.05.17/outbox.cif.g08.bks.cpg/sg39_9_cif.got.tgz:17348.got - 2010.06.03 18:22:40.
