data_PCOD9361555
_publ_section_title
;
Structure prediction by ZEFSAII (Michael W. Deem and Ramdas Pophale) SiO2 
 PCOD9361555
Probable space group: A B M 2
;
_chemical_formula_sum "Si O2"
_cell_formula_units_Z 64
_cell_length_a 20.225779
_cell_length_b 15.630854
_cell_length_c 9.940367
_cell_angle_alpha 90.000000
_cell_angle_beta 90.000000
_cell_angle_gamma 90.000000
_cell_volume 3142.609240
_symmetry_space_group_name_H-M "A B M 2"
_symmetry_group_IT_number 39
_symmetry_cell_setting 'orthorhombic'
loop_
_space_group_symop_operation_xyz
x,y,z
-x,-y,z
-x,1/2+y,z
x,1/2-y,z
x,1/2+y,1/2+z
-x,1/2-y,1/2+z
-x,y,1/2+z
x,-y,1/2+z
loop_
_atom_site_type_symbol
_atom_site_label
_atom_site_fract_x
_atom_site_fract_y
_atom_site_fract_z
Si Si1 0.152470 0.346112 0.384580
Si Si2 0.079545 0.599402 0.623136
Si Si3 0.536602 0.590836 0.055578
Si Si4 0.659442 0.491623 0.698613
Si Si5 0.427531 0.346122 0.757320
Si Si6 0.253452 0.504916 0.945392
Si Si7 0.838551 0.152900 0.369638
Si Si8 0.070762 0.606781 0.123604
O O1 0.178584 0.250000 0.392986
O O2 0.130411 0.368593 0.234686
O O3 0.202823 0.417136 0.436886
O O4 0.088393 0.356238 0.478431
O O5 0.105630 0.633719 0.481679
O O6 0.078331 0.496181 0.620210
O O7 0.005026 0.627489 0.656899
O O8 0.500000 0.500000 0.030739
O O9 0.603900 0.570357 0.136562
O O10 0.488911 0.643225 0.154800
O O11 0.550750 0.631777 0.910353
O O12 0.626035 0.584587 0.710675
O O13 0.685768 0.471788 0.847170
O O14 0.720139 0.491508 0.595204
O O15 0.401988 0.250000 0.752558
O O16 0.217395 0.419124 0.891938
O O17 0.813735 0.250000 0.383593
O O18 0.875900 0.141705 0.228479
#
# Coordination Sequence:
#
# PCOD9361555 Si02
#       8
#     8   8   8   8   8   8   8   8
#     4  12  25  42  65  92 125 167 217 274 331 387
#     4  11  22  41  66  94 127 165 208 272 343 407
#     4  10  21  42  68 100 132 174 208 252 321 376
#     4  11  24  42  70  90 129 182 220 253 316 380
#     4  11  23  41  69 106 138 164 209 268 316 371
#     4  12  24  45  64  90 132 176 222 272 312 375
#     4  12  25  42  66  93 125 171 219 271 334 393
#     4  11  22  41  67  93 126 165 210 270 346 404
#
# _framework density 20.365243
#
# number of rings (size 3 to 8) (size 9 to 14) (size 15 to 20)
#    0.000    0.750    3.750    4.500    1.750    6.000 
#    0.000    1.250    0.000    0.000    0.000    0.000 
#    0.000    0.000    0.000    0.000    0.000    0.000 
#
# Total GULP energy -178997.066139 kJ/mol
# GULP energy per Si atom -5593.658317 kJ/mol
# Density = 2.031889 g / cm^3
# Si number density = 20.365243 Si / 1000 Ang^3
#
#
#
# Elastic Constant Matrix: (Units=GPa)
#
#
# Indices 1 2 3 4 5 6 
#
# 1 51.7529 16.7842 -8.9483 0.0000 0.0000 0.0000
# 2 16.7842 75.0812 2.0092 0.0000 0.0000 0.0000
# 3 -8.9483 2.0092 67.0441 0.0000 0.0000 0.0000
# 4 0.0000 0.0000 0.0000 48.4972 0.0000 0.0000
# 5 0.0000 0.0000 0.0000 0.0000 39.9778 0.0000
# 6 0.0000 0.0000 0.0000 0.0000 0.0000 0.9748
#
#
#
# Elastic Compliance Matrix: (Units=1/GPa)
#
#
# Indices 1 2 3 4 5 6 
#
# 1 0.021421 -0.004869 0.003005 0.000000 0.000000 0.000000
# 2 -0.004869 0.014436 -0.001083 0.000000 0.000000 0.000000
# 3 0.003005 -0.001083 0.015349 0.000000 0.000000 0.000000
# 4 0.000000 0.000000 0.000000 0.020620 0.000000 0.000000
# 5 0.000000 0.000000 0.000000 0.000000 0.025014 0.000000
# 6 0.000000 0.000000 0.000000 0.000000 0.000000 1.025845
#
#
# Mechanical properties :
#
#
# Convention : Reuss Voigt Hill
#
# Bulk Modulus (GPa) = 22.06849 23.72984 22.89917
# Shear Modulus (GPa) = 4.37184 30.15883 17.26534
#
# Velocity S-wave (km/s) = 1.46676 3.85242 2.91483
# Velocity P-wave (km/s) = 3.70518 5.60942 4.75363
#
# Compressibility (1/GPa) = 0.04531347
#
# Stress axis : x y z
#
# Youngs Moduli (GPa) = 46.68258 69.26955 65.15055
#
# Poissons Ratio (x) = 0.33728 -0.19578
# Poissons Ratio (y) = 0.22730 0.07053
# Poissons Ratio (z) = -0.14028 0.07499
#
# Static dielectric constant tensor:
#      x y z
#    x 1.720520 0.000000 0.000000 
#    y 0.000000 1.709740 0.000000 
#    z 0.000000 0.000000 1.684420 
# 
# From -- ./inp_files/4101.got.cif
#   From: 2010.05.17/outbox.cif.g08.bks.cpg/sg39_3_cif.got.tgz:4101.got - 2010.06.03 18:22:40.
