data_PCOD9361562
_publ_section_title
;
Structure prediction by ZEFSAII (Michael W. Deem and Ramdas Pophale) SiO2 
 PCOD9361562
Probable space group: A B M 2
;
_chemical_formula_sum "Si O2"
_cell_formula_units_Z 56
_cell_length_a 9.800332
_cell_length_b 15.955595
_cell_length_c 14.241667
_cell_angle_alpha 90.000000
_cell_angle_beta 90.000000
_cell_angle_gamma 90.000000
_cell_volume 2226.971295
_symmetry_space_group_name_H-M "A B M 2"
_symmetry_group_IT_number 39
_symmetry_cell_setting 'orthorhombic'
loop_
_space_group_symop_operation_xyz
x,y,z
-x,-y,z
-x,1/2+y,z
x,1/2-y,z
x,1/2+y,1/2+z
-x,1/2-y,1/2+z
-x,y,1/2+z
x,-y,1/2+z
loop_
_atom_site_type_symbol
_atom_site_label
_atom_site_fract_x
_atom_site_fract_y
_atom_site_fract_z
Si Si1 0.331507 0.586425 0.533850
Si Si2 0.315540 0.343358 0.329042
Si Si3 0.589452 0.423347 0.330829
Si Si4 0.177826 0.606707 0.204453
Si Si5 0.359864 0.112888 0.545555
Si Si6 0.046886 0.351114 0.073066
Si Si7 0.973971 0.651993 0.362960
O O1 0.337659 0.611995 0.423296
O O2 0.480668 0.611712 0.568896
O O3 0.315132 0.485593 0.540851
O O4 0.206497 0.630489 0.584249
O O5 0.298428 0.250000 0.293324
O O6 0.462729 0.371424 0.290458
O O7 0.336950 0.347937 0.442941
O O8 0.166075 0.386349 0.320484
O O9 0.500000 0.500000 0.370274
O O10 0.702399 0.447541 0.254481
O O11 0.270347 0.654019 0.127034
O O12 0.101468 0.645480 0.293878
O O13 0.045006 0.592279 0.140804
O O14 0.023562 0.250000 0.087149
O O15 0.008066 0.378544 0.967068
O O16 0.946039 0.750000 0.376463
#
# Coordination Sequence:
#
# PCOD9361562 Si02
#       7
#     8   8   8   8   8   8   8
#     4  10  21  45  68  98 144 190 232 298 372 433
#     4  10  21  42  70  97 136 189 232 288 366 430
#     4  11  23  44  71 105 143 188 243 308 360 438
#     4  12  25  42  70 104 134 193 240 298 361 438
#     4  10  22  42  67 100 139 178 238 299 355 434
#     4  11  24  44  68 102 148 191 240 299 365 442
#     4  10  22  42  65  97 140 181 231 297 361 429
#
# _framework density 25.146259000000001
#
# number of rings (size 3 to 8) (size 9 to 14) (size 15 to 20)
#    0.000    1.429    5.714    0.429    2.000    5.714 
#    2.571    1.429    0.000    0.000    0.000    0.000 
#    0.000    0.000    0.000    0.000    0.000    0.000 
#
# Total GULP energy -156118.140770 kJ/mol
# GULP energy per Si atom -5575.647885 kJ/mol
# Density = 2.508903 g / cm^3
# Si number density = 25.146259 Si / 1000 Ang^3
#
#
#
# Elastic Constant Matrix: (Units=GPa)
#
#
# Indices 1 2 3 4 5 6 
#
# 1 199.1570 36.4679 41.0962 0.0000 0.0000 0.0000
# 2 36.4679 39.9639 2.9585 0.0000 0.0000 0.0000
# 3 41.0962 2.9585 116.2230 0.0000 0.0000 0.0000
# 4 0.0000 0.0000 0.0000 -1.3206 0.0000 0.0000
# 5 0.0000 0.0000 0.0000 0.0000 63.0054 0.0000
# 6 0.0000 0.0000 0.0000 0.0000 0.0000 22.5938
#
#
#
# Elastic Compliance Matrix: (Units=1/GPa)
#
#
# Indices 1 2 3 4 5 6 
#
# 1 0.006529 -0.005798 -0.002161 0.000000 0.000000 0.000000
# 2 -0.005798 0.030218 0.001281 0.000000 0.000000 0.000000
# 3 -0.002161 0.001281 0.009336 0.000000 0.000000 0.000000
# 4 0.000000 0.000000 0.000000 -0.757222 0.000000 0.000000
# 5 0.000000 0.000000 0.000000 0.000000 0.015872 0.000000
# 6 0.000000 0.000000 0.000000 0.000000 0.000000 0.044260
#
#
# Mechanical properties :
#
#
# Convention : Reuss Voigt Hill
#
# Bulk Modulus (GPa) = 30.55575 57.37655 43.96615
# Shear Modulus (GPa) = -7.97775 35.17713 13.59969
#
# Velocity S-wave (km/s) = -1.78309 3.74425 2.32808
# Velocity P-wave (km/s) = 2.81751 6.44664 4.97481
#
# Compressibility (1/GPa) = 0.03272706
#
# Stress axis : x y z
#
# Youngs Moduli (GPa) = 153.17026 33.09265 107.11626
#
# Poissons Ratio (x) = 0.19186 0.23147
# Poissons Ratio (y) = 0.88802 -0.13720
# Poissons Ratio (z) = 0.33099 -0.04239
#
# Static dielectric constant tensor:
#      x y z
#    x 2.023340 0.000000 0.000000 
#    y 0.000000 2.047760 0.000000 
#    z 0.000000 0.000000 2.005990 
# 
# From -- ./inp_files/8630.got.cif
#   From: 2010.05.17/outbox.cif.g08.bks.cpg/sg39_5_cif.got.tgz:8630.got - 2010.06.03 18:22:40.
