data_PCOD9361734
_publ_section_title
;
Structure prediction by ZEFSAII (Michael W. Deem and Ramdas Pophale) SiO2 
 PCOD9361734
Probable space group: A B M 2
;
_chemical_formula_sum "Si O2"
_cell_formula_units_Z 56
_cell_length_a 5.459723
_cell_length_b 30.920949
_cell_length_c 13.875269
_cell_angle_alpha 90.000000
_cell_angle_beta 90.000000
_cell_angle_gamma 90.000000
_cell_volume 2342.420366
_symmetry_space_group_name_H-M "A B M 2"
_symmetry_group_IT_number 39
_symmetry_cell_setting 'orthorhombic'
loop_
_space_group_symop_operation_xyz
x,y,z
-x,-y,z
-x,1/2+y,z
x,1/2-y,z
x,1/2+y,1/2+z
-x,1/2-y,1/2+z
-x,y,1/2+z
x,-y,1/2+z
loop_
_atom_site_type_symbol
_atom_site_label
_atom_site_fract_x
_atom_site_fract_y
_atom_site_fract_z
Si Si1 0.240179 0.084177 0.721620
Si Si2 0.000000 0.500000 0.911095
Si Si3 0.704198 0.799245 0.249889
Si Si4 0.511764 0.147475 0.583736
Si Si5 0.500000 0.000000 0.791213
Si Si6 0.021408 0.364825 0.385822
Si Si7 0.621289 0.798439 0.925879
Si Si8 0.925105 0.578399 0.044014
O O1 0.341653 0.125786 0.664009
O O2 0.146706 0.101399 0.824319
O O3 0.025729 0.069096 0.649937
O O4 0.425053 0.044078 0.735103
O O5 0.755959 0.488955 0.848271
O O6 0.105958 0.464344 0.983630
O O7 0.811459 0.750000 0.254793
O O8 0.659858 0.815477 0.142688
O O9 0.459687 0.796667 0.314833
O O10 0.833102 0.839568 0.303215
O O11 0.428111 0.174645 0.490201
O O12 0.686562 0.108066 0.552295
O O13 0.863908 0.326221 0.431422
O O14 0.112717 0.394033 0.475282
O O15 0.644708 0.750000 0.960566
#
# Coordination Sequence:
#
# PCOD9361734 Si02
#       8
#     8   4   8   8   4   8   8   8
#     4  12  26  45  75 107 144 196 243 315 376 459
#     4  12  30  52  76 116 152 198 248 318 374 466
#     4  11  22  39  67 100 141 185 239 305 368 445
#     4  11  24  42  69 102 140 187 248 301 377 457
#     4  12  32  50  82 114 156 196 254 312 384 454
#     4  11  22  45  67 103 138 194 239 300 376 451
#     4  10  22  41  65  97 140 188 239 303 369 441
#     4  11  27  45  74 103 148 190 248 305 383 449
#
# _framework density 23.906894000000001
#
# number of rings (size 3 to 8) (size 9 to 14) (size 15 to 20)
#    0.000    0.857    4.286    1.714    8.000    0.000 
#    0.000    0.000    0.000    0.000    0.000    0.000 
#    0.000    0.000    0.000    0.000    0.000    0.000 
#
# Total GULP energy -156204.882542 kJ/mol
# GULP energy per Si atom -5578.745805 kJ/mol
# Density = 2.385248 g / cm^3
# Si number density = 23.906894 Si / 1000 Ang^3
#
#
#
# Elastic Constant Matrix: (Units=GPa)
#
#
# Indices 1 2 3 4 5 6 
#
# 1 47.4132 4.3791 7.3992 0.0000 0.0000 0.0000
# 2 4.3791 107.0391 39.7416 0.0000 0.0000 0.0000
# 3 7.3992 39.7416 96.1857 0.0000 0.0000 0.0000
# 4 0.0000 0.0000 0.0000 35.1970 0.0000 0.0000
# 5 0.0000 0.0000 0.0000 0.0000 25.2034 0.0000
# 6 0.0000 0.0000 0.0000 0.0000 0.0000 35.2324
#
#
#
# Elastic Compliance Matrix: (Units=1/GPa)
#
#
# Indices 1 2 3 4 5 6 
#
# 1 0.021356 -0.000312 -0.001514 0.000000 0.000000 0.000000
# 2 -0.000312 0.011040 -0.004537 0.000000 0.000000 0.000000
# 3 -0.001514 -0.004537 0.012388 0.000000 0.000000 0.000000
# 4 0.000000 0.000000 0.000000 0.028411 0.000000 0.000000
# 5 0.000000 0.000000 0.000000 0.000000 0.039677 0.000000
# 6 0.000000 0.000000 0.000000 0.000000 0.000000 0.028383
#
#
# Mechanical properties :
#
#
# Convention : Reuss Voigt Hill
#
# Bulk Modulus (GPa) = 31.19382 39.29754 35.24568
# Shear Modulus (GPa) = 30.36422 32.40110 31.38266
#
# Velocity S-wave (km/s) = 3.56772 3.68544 3.62706
# Velocity P-wave (km/s) = 5.48159 5.88076 5.68468
#
# Compressibility (1/GPa) = 0.03205763
#
# Stress axis : x y z
#
# Youngs Moduli (GPa) = 46.82469 90.58159 80.72472
#
# Poissons Ratio (x) = 0.02822 0.12223
# Poissons Ratio (y) = 0.01459 0.36628
# Poissons Ratio (z) = 0.07090 0.41100
#
# Static dielectric constant tensor:
#      x y z
#    x 2.034230 0.000000 0.000000 
#    y 0.000000 1.934510 0.000000 
#    z 0.000000 0.000000 1.979510 
# 
# From -- ./inp_files/7695.got.cif
#   From: 2010.05.17/outbox.cif.g08.bks.cpg/sg39_4_cif.got.tgz:7695.got - 2010.06.03 18:22:40.
