data_PCOD9361755
_publ_section_title
;
Structure prediction by ZEFSAII (Michael W. Deem and Ramdas Pophale) SiO2 
 PCOD9361755
Probable space group: A B M 2
;
_chemical_formula_sum "Si O2"
_cell_formula_units_Z 56
_cell_length_a 13.862902
_cell_length_b 16.944169
_cell_length_c 11.420428
_cell_angle_alpha 90.000000
_cell_angle_beta 90.000000
_cell_angle_gamma 90.000000
_cell_volume 2682.605482
_symmetry_space_group_name_H-M "A B M 2"
_symmetry_group_IT_number 39
_symmetry_cell_setting 'orthorhombic'
loop_
_space_group_symop_operation_xyz
x,y,z
-x,-y,z
-x,1/2+y,z
x,1/2-y,z
x,1/2+y,1/2+z
-x,1/2-y,1/2+z
-x,y,1/2+z
x,-y,1/2+z
loop_
_atom_site_type_symbol
_atom_site_label
_atom_site_fract_x
_atom_site_fract_y
_atom_site_fract_z
Si Si1 0.406066 0.539041 0.135120
Si Si2 0.964673 0.909067 0.291458
Si Si3 0.726992 0.601412 0.048225
Si Si4 0.433541 0.339891 0.436674
Si Si5 0.239033 0.339720 0.298233
Si Si6 0.953720 0.587205 0.031359
Si Si7 0.633762 0.337912 0.314219
O O1 0.500000 0.500000 0.194449
O O2 0.338074 0.474579 0.075828
O O3 0.345585 0.592651 0.223781
O O4 0.449590 0.597351 0.037768
O O5 0.850068 0.899154 0.311904
O O6 0.981371 0.876043 0.158961
O O7 0.013503 0.873669 0.408625
O O8 0.000000 0.000000 0.285862
O O9 0.724602 0.653749 0.165161
O O10 0.838518 0.579785 0.029569
O O11 0.687109 0.646136 0.935748
O O12 0.432602 0.250000 0.482990
O O13 0.330230 0.357061 0.379366
O O14 0.519665 0.342536 0.343316
O O15 0.205866 0.250000 0.321003
O O16 0.000000 0.500000 0.030829
O O17 0.656116 0.250000 0.270533
#
# Coordination Sequence:
#
# PCOD9361755 Si02
#       7
#     8   8   8   8   8   8   8
#     4  12  25  38  63  97 135 168 226 272 326 378
#     4   9  19  37  62  90 123 158 216 264 330 386
#     4  11  24  39  66  96 132 167 220 274 326 395
#     4  10  23  41  63  90 132 177 217 265 328 393
#     4  10  22  42  66  93 127 174 218 262 330 404
#     4   9  20  37  60  92 121 162 204 271 334 389
#     4  11  25  44  64  92 135 180 218 270 332 393
#
# _framework density 20.875226999999999
#
# number of rings (size 3 to 8) (size 9 to 14) (size 15 to 20)
#    0.000    1.714    1.429    1.714    8.000    3.429 
#    0.000    3.571    0.000    0.000    0.000    0.000 
#    0.000    0.000    0.000    0.000    0.000    0.000 
#
# Total GULP energy -156287.939948 kJ/mol
# GULP energy per Si atom -5581.712141 kJ/mol
# Density = 2.082771 g / cm^3
# Si number density = 20.875227 Si / 1000 Ang^3
#
#
#
# Elastic Constant Matrix: (Units=GPa)
#
#
# Indices 1 2 3 4 5 6 
#
# 1 77.3103 33.0215 19.4127 0.0000 0.0000 0.0000
# 2 33.0215 62.6515 15.7710 0.0000 0.0000 0.0000
# 3 19.4127 15.7710 95.3659 0.0000 0.0000 0.0000
# 4 0.0000 0.0000 0.0000 33.6588 0.0000 0.0000
# 5 0.0000 0.0000 0.0000 0.0000 29.9387 0.0000
# 6 0.0000 0.0000 0.0000 0.0000 0.0000 392.5374
#
#
#
# Elastic Compliance Matrix: (Units=1/GPa)
#
#
# Indices 1 2 3 4 5 6 
#
# 1 0.017077 -0.008479 -0.002074 0.000000 0.000000 0.000000
# 2 -0.008479 0.020864 -0.001724 0.000000 0.000000 0.000000
# 3 -0.002074 -0.001724 0.011193 0.000000 0.000000 0.000000
# 4 0.000000 0.000000 0.000000 0.029710 0.000000 0.000000
# 5 0.000000 0.000000 0.000000 0.000000 0.033402 0.000000
# 6 0.000000 0.000000 0.000000 0.000000 0.000000 0.002548
#
#
# Mechanical properties :
#
#
# Convention : Reuss Voigt Hill
#
# Bulk Modulus (GPa) = 40.68309 41.30422 40.99366
# Shear Modulus (GPa) = 33.88871 102.36847 68.12859
#
# Velocity S-wave (km/s) = 4.03351 7.01033 5.71900
# Velocity P-wave (km/s) = 6.42053 9.23880 7.95546
#
# Compressibility (1/GPa) = 0.02458024
#
# Stress axis : x y z
#
# Youngs Moduli (GPa) = 58.55757 47.92884 89.33906
#
# Poissons Ratio (x) = 0.40638 0.18530
# Poissons Ratio (y) = 0.49649 0.15406
# Poissons Ratio (z) = 0.12145 0.08265
#
# Static dielectric constant tensor:
#      x y z
#    x 1.721450 0.000000 0.000000 
#    y 0.000000 1.761920 0.000000 
#    z 0.000000 0.000000 1.785160 
# 
# From -- ./inp_files/6465.got.cif
#   From: 2010.05.17/outbox.cif.g08.bks.cpg/sg39_4_cif.got.tgz:6465.got - 2010.06.03 18:22:40.
