data_PCOD9361845
_publ_section_title
;
Structure prediction by ZEFSAII (Michael W. Deem and Ramdas Pophale) SiO2 
 PCOD9361845
Probable space group: A B M 2
;
_chemical_formula_sum "Si O2"
_cell_formula_units_Z 52
_cell_length_a 10.881774
_cell_length_b 22.887777
_cell_length_c 9.141756
_cell_angle_alpha 90.000000
_cell_angle_beta 90.000000
_cell_angle_gamma 90.000000
_cell_volume 2276.842245
_symmetry_space_group_name_H-M "A B M 2"
_symmetry_group_IT_number 39
_symmetry_cell_setting 'orthorhombic'
loop_
_space_group_symop_operation_xyz
x,y,z
-x,-y,z
-x,1/2+y,z
x,1/2-y,z
x,1/2+y,1/2+z
-x,1/2-y,1/2+z
-x,y,1/2+z
x,-y,1/2+z
loop_
_atom_site_type_symbol
_atom_site_label
_atom_site_fract_x
_atom_site_fract_y
_atom_site_fract_z
Si Si1 0.152495 0.820695 0.935500
Si Si2 0.000000 0.000000 0.206190
Si Si3 0.172668 0.532377 0.456559
Si Si4 0.493234 0.116403 0.725534
Si Si5 0.666617 0.419539 0.977789
Si Si6 0.671052 0.645646 0.973313
Si Si7 0.914961 0.317607 0.611135
O O1 0.166992 0.750000 0.939840
O O2 0.271895 0.855582 0.984814
O O3 0.123734 0.840673 0.769452
O O4 0.037510 0.840097 0.034518
O O5 0.911826 0.036908 0.313037
O O6 0.086112 0.037482 0.098574
O O7 0.230232 0.468036 0.460821
O O8 0.281446 0.578770 0.461857
O O9 0.577178 0.081126 0.839009
O O10 0.411206 0.074243 0.625126
O O11 0.405741 0.156579 0.826613
O O12 0.581232 0.150584 0.612576
O O13 0.798050 0.678498 0.003682
O O14 0.942814 0.250000 0.639131
#
# Coordination Sequence:
#
# PCOD9361845 Si02
#       7
#     8   4   8   8   8   8   8
#     4  10  23  42  66  94 125 162 205 257 318 377
#     4  10  24  38  52  96 126 158 208 238 322 380
#     4  11  24  37  62  90 128 167 201 252 316 362
#     4  10  24  41  63  90 122 168 219 245 312 360
#     4  11  23  42  62  91 125 166 207 263 300 374
#     4  11  23  42  62  91 125 166 207 263 300 374
#     4  10  23  42  66  94 125 162 205 257 318 377
#
# _framework density 22.838649
#
# number of rings (size 3 to 8) (size 9 to 14) (size 15 to 20)
#    0.000    1.538    1.538    1.846    6.462    3.692 
#    0.000    4.615    0.000    0.000    0.000    0.000 
#    0.000    0.000    0.000    0.000    0.000    0.000 
#
# Total GULP energy -145450.084322 kJ/mol
# GULP energy per Si atom -5594.234012 kJ/mol
# Density = 2.278667 g / cm^3
# Si number density = 22.838649 Si / 1000 Ang^3
#
#
#
# Elastic Constant Matrix: (Units=GPa)
#
#
# Indices 1 2 3 4 5 6 
#
# 1 120.5263 23.3623 63.1939 0.0000 0.0000 0.0000
# 2 23.3623 56.7879 15.2585 0.0000 0.0000 0.0000
# 3 63.1939 15.2585 138.1344 0.0000 0.0000 0.0000
# 4 0.0000 0.0000 0.0000 12.6502 0.0000 0.0000
# 5 0.0000 0.0000 0.0000 0.0000 48.3218 0.0000
# 6 0.0000 0.0000 0.0000 0.0000 0.0000 -7.8660
#
#
#
# Elastic Compliance Matrix: (Units=1/GPa)
#
#
# Indices 1 2 3 4 5 6 
#
# 1 0.011528 -0.003427 -0.004895 0.000000 0.000000 0.000000
# 2 -0.003427 0.019167 -0.000549 0.000000 0.000000 0.000000
# 3 -0.004895 -0.000549 0.009539 0.000000 0.000000 0.000000
# 4 0.000000 0.000000 0.000000 0.079050 0.000000 0.000000
# 5 0.000000 0.000000 0.000000 0.000000 0.020695 0.000000
# 6 0.000000 0.000000 0.000000 0.000000 0.000000 -0.127130
#
#
# Mechanical properties :
#
#
# Convention : Reuss Voigt Hill
#
# Bulk Modulus (GPa) = 44.46267 57.67534 51.06900
# Shear Modulus (GPa) = 131.26959 24.86346 78.06653
#
# Velocity S-wave (km/s) = 7.58958 3.30306 5.85286
# Velocity P-wave (km/s) = 9.81391 6.31309 8.25130
#
# Compressibility (1/GPa) = 0.02249078
#
# Stress axis : x y z
#
# Youngs Moduli (GPa) = 86.74597 52.17323 104.82753
#
# Poissons Ratio (x) = 0.17881 0.51315
# Poissons Ratio (y) = 0.29730 0.05758
# Poissons Ratio (z) = 0.42464 0.02866
#
# Static dielectric constant tensor:
#      x y z
#    x 1.835950 0.000000 0.000000 
#    y 0.000000 1.859130 0.000000 
#    z 0.000000 0.000000 1.852300 
# 
# From -- ./inp_files/2788.got.cif
#   From: 2010.05.17/outbox.cif.g08.bks.cpg/sg39_2_cif.got.tgz:2788.got - 2010.06.03 18:22:40.
