data_PCOD9361098
_publ_section_title
;
Structure prediction by ZEFSAII (Michael W. Deem and Ramdas Pophale) SiO2 
 PCOD9361098
Probable space group: A B M 2
;
_chemical_formula_sum "Si O2"
_cell_formula_units_Z 64
_cell_length_a 15.057007
_cell_length_b 8.867203
_cell_length_c 25.518817
_cell_angle_alpha 90.000000
_cell_angle_beta 90.000000
_cell_angle_gamma 90.000000
_cell_volume 3407.107534
_symmetry_space_group_name_H-M "A B M 2"
_symmetry_group_IT_number 39
_symmetry_cell_setting 'orthorhombic'
loop_
_space_group_symop_operation_xyz
x,y,z
-x,-y,z
-x,1/2+y,z
x,1/2-y,z
x,1/2+y,1/2+z
-x,1/2-y,1/2+z
-x,y,1/2+z
x,-y,1/2+z
loop_
_atom_site_type_symbol
_atom_site_label
_atom_site_fract_x
_atom_site_fract_y
_atom_site_fract_z
Si Si1 0.588702 0.071858 0.449360
Si Si2 0.342216 0.923632 0.850100
Si Si3 0.908529 0.932289 0.264785
Si Si4 0.711170 0.566420 0.236128
Si Si5 0.136364 0.576104 0.882614
Si Si6 0.400811 0.933184 0.633950
Si Si7 0.723056 0.933196 0.036948
Si Si8 0.093066 0.069638 0.993514
O O1 0.582415 0.250000 0.452377
O O2 0.671580 0.021434 0.484248
O O3 0.500000 0.000000 0.471918
O O4 0.601294 0.020493 0.389956
O O5 0.373526 0.750000 0.850083
O O6 0.334310 0.980727 0.790755
O O7 0.241925 0.924197 0.872597
O O8 0.088007 0.250000 0.263019
O O9 0.901324 0.976174 0.326437
O O10 0.815279 0.979967 0.237724
O O11 0.000000 0.000000 0.243218
O O12 0.713277 0.750000 0.237441
O O13 0.652163 0.521754 0.186697
O O14 0.891859 0.250000 0.891476
O O15 0.111292 0.480874 0.933397
O O16 0.407611 0.750000 0.632966
O O17 0.337130 0.981272 0.585804
O O18 0.500000 0.000000 0.631221
O O19 0.725139 0.750000 0.038952
O O20 0.824513 0.982819 0.029704
O O21 0.088936 0.250000 0.995023
O O22 0.000000 0.000000 0.010267
#
# Coordination Sequence:
#
# PCOD9361098 Si02
#       8
#     8   8   8   8   8   8   8   8
#     4  11  21  34  51  77 107 140 176 216 266 324
#     4   9  17  32  52  77 108 142 176 214 261 319
#     4   9  17  30  48  75 108 143 179 214 254 309
#     4   8  17  34  56  78 106 140 176 215 266 321
#     4   9  17  30  49  74 106 143 180 216 258 307
#     4  10  20  39  63  82 101 134 177 225 273 318
#     4   9  20  37  56  77 106 138 176 220 266 318
#     4  11  21  34  51  76 108 142 180 218 260 314
#
# _framework density 18.784261999999998
#
# number of rings (size 3 to 8) (size 9 to 14) (size 15 to 20)
#    0.000    2.500    1.250    3.000    0.000    2.000 
#    0.000    6.875    0.000    0.000    0.000    0.000 
#    0.000    0.000    0.000    0.000    0.000    0.000 
#
# Total GULP energy -178408.806113 kJ/mol
# GULP energy per Si atom -5575.275191 kJ/mol
# Density = 1.874151 g / cm^3
# Si number density = 18.784262 Si / 1000 Ang^3
#
#
#
# Elastic Constant Matrix: (Units=GPa)
#
#
# Indices 1 2 3 4 5 6 
#
# 1 155.8653 32.0682 75.0444 0.0000 0.0000 0.0000
# 2 32.0682 25.4012 24.3477 0.0000 0.0000 0.0000
# 3 75.0444 24.3477 111.0084 0.0000 0.0000 0.0000
# 4 0.0000 0.0000 0.0000 16.4810 0.0000 0.0000
# 5 0.0000 0.0000 0.0000 0.0000 18.5338 0.0000
# 6 0.0000 0.0000 0.0000 0.0000 0.0000 30.7107
#
#
#
# Elastic Compliance Matrix: (Units=1/GPa)
#
#
# Indices 1 2 3 4 5 6 
#
# 1 0.010754 -0.008367 -0.005435 0.000000 0.000000 0.000000
# 2 -0.008367 0.056358 -0.006705 0.000000 0.000000 0.000000
# 3 -0.005435 -0.006705 0.014153 0.000000 0.000000 0.000000
# 4 0.000000 0.000000 0.000000 0.060676 0.000000 0.000000
# 5 0.000000 0.000000 0.000000 0.000000 0.053955 0.000000
# 6 0.000000 0.000000 0.000000 0.000000 0.000000 0.032562
#
#
# Mechanical properties :
#
#
# Convention : Reuss Voigt Hill
#
# Bulk Modulus (GPa) = 24.84364 61.68840 43.26602
# Shear Modulus (GPa) = 17.67478 23.86607 20.77043
#
# Velocity S-wave (km/s) = 3.07080 3.56832 3.32887
# Velocity P-wave (km/s) = 5.08208 7.06322 6.15291
#
# Compressibility (1/GPa) = 0.04025174
#
# Stress axis : x y z
#
# Youngs Moduli (GPa) = 92.98909 17.74364 70.65681
#
# Poissons Ratio (x) = 0.14846 0.38400
# Poissons Ratio (y) = 0.77806 0.47374
# Poissons Ratio (z) = 0.50537 0.11897
#
# Static dielectric constant tensor:
#      x y z
#    x 1.683750 0.000000 0.000000 
#    y 0.000000 1.641050 0.000000 
#    z 0.000000 0.000000 1.648440 
# 
# From -- ./inp_files/16208.got.cif
#   From: 2010.05.17/outbox.cif.g08.bks.cpg/sg39_9_cif.got.tgz:16208.got - 2010.06.03 18:22:40.
