data_PCOD9361552
_publ_section_title
;
Structure prediction by ZEFSAII (Michael W. Deem and Ramdas Pophale) SiO2 
 PCOD9361552
Probable space group: A B M 2
;
_chemical_formula_sum "Si O2"
_cell_formula_units_Z 60
_cell_length_a 7.246984
_cell_length_b 19.897504
_cell_length_c 16.973905
_cell_angle_alpha 90.000000
_cell_angle_beta 90.000000
_cell_angle_gamma 90.000000
_cell_volume 2447.584365
_symmetry_space_group_name_H-M "A B M 2"
_symmetry_group_IT_number 39
_symmetry_cell_setting 'orthorhombic'
loop_
_space_group_symop_operation_xyz
x,y,z
-x,-y,z
-x,1/2+y,z
x,1/2-y,z
x,1/2+y,1/2+z
-x,1/2-y,1/2+z
-x,y,1/2+z
x,-y,1/2+z
loop_
_atom_site_type_symbol
_atom_site_label
_atom_site_fract_x
_atom_site_fract_y
_atom_site_fract_z
Si Si1 0.694894 0.750000 0.127470
Si Si2 0.758791 0.573435 0.399264
Si Si3 0.717152 0.518204 0.114361
Si Si4 0.231589 0.858143 0.506335
Si Si5 0.813968 0.423495 0.361318
Si Si6 0.664964 0.625697 0.235049
Si Si7 0.237222 0.615005 0.186292
Si Si8 0.805754 0.323615 0.027932
O O1 0.650640 0.690334 0.061688
O O2 0.741130 0.691296 0.193098
O O3 0.714102 0.495435 0.376569
O O4 0.689365 0.618869 0.327380
O O5 0.714647 0.613393 0.480424
O O6 0.980796 0.571905 0.396073
O O7 0.500000 0.500000 0.106785
O O8 0.768289 0.566841 0.043372
O O9 0.751498 0.560812 0.193271
O O10 0.814730 0.448330 0.131043
O O11 0.284593 0.867829 0.415666
O O12 0.026305 0.827922 0.513519
O O13 0.845079 0.398905 0.272134
O O14 0.451270 0.620094 0.210576
O O15 0.209383 0.673455 0.123094
O O16 0.743688 0.250000 0.999820
#
# Coordination Sequence:
#
# PCOD9361552 Si02
#       8
#     4   8   8   8   8   8   8   8
#     4  10  22  40  66  88 126 176 218 256 326 398
#     4  10  22  42  66  96 130 168 217 272 332 389
#     4   9  19  38  64  95 127 163 214 266 329 387
#     4  10  21  42  64  98 127 171 219 270 326 398
#     4  10  22  39  66 100 127 162 218 276 328 380
#     4  10  22  41  65  92 131 171 217 265 325 403
#     4  11  23  41  64  96 133 169 216 280 324 390
#     4  11  25  42  64  94 138 176 220 269 330 396
#
# _framework density 24.513964000000001
#
# number of rings (size 3 to 8) (size 9 to 14) (size 15 to 20)
#    0.000    1.867    2.000    0.800    5.600    1.600 
#   10.800    0.000    0.000    0.000    0.000    0.000 
#    0.000    0.000    0.000    0.000    0.000    0.000 
#
# Total GULP energy -167006.423658 kJ/mol
# GULP energy per Si atom -5566.880789 kJ/mol
# Density = 2.445817 g / cm^3
# Si number density = 24.513964 Si / 1000 Ang^3
#
#
#
# Elastic Constant Matrix: (Units=GPa)
#
#
# Indices 1 2 3 4 5 6 
#
# 1 52.9346 5.4194 5.4440 0.0000 0.0000 0.0000
# 2 5.4194 115.2905 71.7115 0.0000 0.0000 0.0000
# 3 5.4440 71.7115 197.6485 0.0000 0.0000 0.0000
# 4 0.0000 0.0000 0.0000 22.1528 0.0000 0.0000
# 5 0.0000 0.0000 0.0000 0.0000 27.7920 0.0000
# 6 0.0000 0.0000 0.0000 0.0000 0.0000 1.6923
#
#
#
# Elastic Compliance Matrix: (Units=1/GPa)
#
#
# Indices 1 2 3 4 5 6 
#
# 1 0.018993 -0.000733 -0.000257 0.000000 0.000000 0.000000
# 2 -0.000733 0.011230 -0.004054 0.000000 0.000000 0.000000
# 3 -0.000257 -0.004054 0.006538 0.000000 0.000000 0.000000
# 4 0.000000 0.000000 0.000000 0.045141 0.000000 0.000000
# 5 0.000000 0.000000 0.000000 0.000000 0.035982 0.000000
# 6 0.000000 0.000000 0.000000 0.000000 0.000000 0.590902
#
#
# Mechanical properties :
#
#
# Convention : Reuss Voigt Hill
#
# Bulk Modulus (GPa) = 37.49307 59.00261 48.24784
# Shear Modulus (GPa) = 6.87036 29.21400 18.04218
#
# Velocity S-wave (km/s) = 1.67592 3.45589 2.71587
# Velocity P-wave (km/s) = 4.36723 6.32815 5.43683
#
# Compressibility (1/GPa) = 0.02667159
#
# Stress axis : x y z
#
# Youngs Moduli (GPa) = 52.65173 89.04720 152.96191
#
# Poissons Ratio (x) = 0.06525 0.03935
# Poissons Ratio (y) = 0.03858 0.62016
# Poissons Ratio (z) = 0.01355 0.36103
#
# Static dielectric constant tensor:
#      x y z
#    x 2.049540 0.000000 0.000000 
#    y 0.000000 1.969710 0.000000 
#    z 0.000000 0.000000 1.965990 
# 
# From -- ./inp_files/11822.got.cif
#   From: 2010.05.17/outbox.cif.g08.bks.cpg/sg39_6_cif.got.tgz:11822.got - 2010.06.03 18:22:40.
