data_PCOD9361871
_publ_section_title
;
Structure prediction by ZEFSAII (Michael W. Deem and Ramdas Pophale) SiO2 
 PCOD9361871
Probable space group: A B M 2
;
_chemical_formula_sum "Si O2"
_cell_formula_units_Z 44
_cell_length_a 9.405318
_cell_length_b 13.762186
_cell_length_c 17.060680
_cell_angle_alpha 90.000000
_cell_angle_beta 90.000000
_cell_angle_gamma 90.000000
_cell_volume 2208.295789
_symmetry_space_group_name_H-M "A B M 2"
_symmetry_group_IT_number 39
_symmetry_cell_setting 'orthorhombic'
loop_
_space_group_symop_operation_xyz
x,y,z
-x,-y,z
-x,1/2+y,z
x,1/2-y,z
x,1/2+y,1/2+z
-x,1/2-y,1/2+z
-x,y,1/2+z
x,-y,1/2+z
loop_
_atom_site_type_symbol
_atom_site_label
_atom_site_fract_x
_atom_site_fract_y
_atom_site_fract_z
Si Si1 0.905250 0.750000 0.723691
Si Si2 0.026283 0.250000 0.952955
Si Si3 0.248202 0.250000 0.243560
Si Si4 0.239095 0.250000 0.556938
Si Si5 0.712029 0.250000 0.560067
Si Si6 0.523228 0.391936 0.008144
Si Si7 0.374636 0.064681 0.335714
Si Si8 0.880655 0.079232 0.336413
O O1 0.855992 0.750000 0.634368
O O2 0.847346 0.652682 0.765414
O O3 0.075547 0.750000 0.740680
O O4 0.062506 0.346614 0.902967
O O5 0.129596 0.250000 0.027629
O O6 0.864941 0.250000 0.982020
O O7 0.295268 0.250000 0.153303
O O8 0.307887 0.152927 0.285948
O O9 0.346393 0.159633 0.551601
O O10 0.623651 0.161285 0.524824
O O11 0.500000 0.500000 0.035235
O O12 0.560578 0.391904 0.915875
O O13 0.500000 0.000000 0.296622
O O14 0.253934 0.986278 0.358554
O O15 0.000000 0.000000 0.315166
#
# Coordination Sequence:
#
# PCOD9361871 Si02
#       8
#     4   4   4   4   4   8   8   8
#     4  11  25  44  64  97 140 169 216 272 322 392
#     4  11  22  38  65  96 125 171 224 267 319 388
#     4  12  24  43  67  94 139 177 210 274 334 389
#     4  11  23  41  68  95 130 177 212 262 337 383
#     4  11  24  40  62  96 134 168 210 267 332 386
#     4  10  23  44  66  93 131 168 218 273 319 383
#     4  11  24  43  70  98 126 174 225 271 327 389
#     4  11  23  41  66  93 128 172 221 270 316 382
#
# _framework density 19.924866999999999
#
# number of rings (size 3 to 8) (size 9 to 14) (size 15 to 20)
#    0.000    1.091    2.727    4.364    2.545    6.545 
#    0.000    0.909    0.000    0.000    0.000    0.000 
#    0.000    0.000    0.000    0.000    0.000    0.000 
#
# Total GULP energy -122897.461449 kJ/mol
# GULP energy per Si atom -5586.248248 kJ/mol
# Density = 1.987952 g / cm^3
# Si number density = 19.924867 Si / 1000 Ang^3
#
#
#
# Elastic Constant Matrix: (Units=GPa)
#
#
# Indices 1 2 3 4 5 6 
#
# 1 83.3415 32.0075 18.4455 0.0000 0.0000 0.0000
# 2 32.0075 148.9642 43.7766 0.0000 0.0000 0.0000
# 3 18.4455 43.7766 92.9452 0.0000 0.0000 0.0000
# 4 0.0000 0.0000 0.0000 79.9655 0.0000 0.0000
# 5 0.0000 0.0000 0.0000 0.0000 34.2657 0.0000
# 6 0.0000 0.0000 0.0000 0.0000 0.0000 9.6015
#
#
#
# Elastic Compliance Matrix: (Units=1/GPa)
#
#
# Indices 1 2 3 4 5 6 
#
# 1 0.013255 -0.002408 -0.001496 0.000000 0.000000 0.000000
# 2 -0.002408 0.008229 -0.003398 0.000000 0.000000 0.000000
# 3 -0.001496 -0.003398 0.012656 0.000000 0.000000 0.000000
# 4 0.000000 0.000000 0.000000 0.012505 0.000000 0.000000
# 5 0.000000 0.000000 0.000000 0.000000 0.029184 0.000000
# 6 0.000000 0.000000 0.000000 0.000000 0.000000 0.104150
#
#
# Mechanical properties :
#
#
# Convention : Reuss Voigt Hill
#
# Bulk Modulus (GPa) = 51.18899 57.07887 54.13393
# Shear Modulus (GPa) = 24.86372 40.16796 32.51584
#
# Velocity S-wave (km/s) = 3.53636 4.49483 4.04409
# Velocity P-wave (km/s) = 6.51316 7.45971 7.00244
#
# Compressibility (1/GPa) = 0.01953545
#
# Stress axis : x y z
#
# Youngs Moduli (GPa) = 75.44379 121.52085 79.01184
#
# Poissons Ratio (x) = 0.29266 0.11822
# Poissons Ratio (y) = 0.18169 0.26847
# Poissons Ratio (z) = 0.11288 0.41291
#
# Static dielectric constant tensor:
#      x y z
#    x 1.704490 0.000000 0.000000 
#    y 0.000000 1.674820 0.000000 
#    z 0.000000 0.000000 1.698570 
# 
# From -- ./inp_files/11581.got.cif
#   From: 2010.05.17/outbox.cif.g08.bks.cpg/sg39_6_cif.got.tgz:11581.got - 2010.06.03 18:22:40.
