data_PCOD9361279
_publ_section_title
;
Structure prediction by ZEFSAII (Michael W. Deem and Ramdas Pophale) SiO2 
 PCOD9361279
Probable space group: A B M 2
;
_chemical_formula_sum "Si O2"
_cell_formula_units_Z 64
_cell_length_a 25.212475
_cell_length_b 13.360712
_cell_length_c 9.828446
_cell_angle_alpha 90.000000
_cell_angle_beta 90.000000
_cell_angle_gamma 90.000000
_cell_volume 3310.777073
_symmetry_space_group_name_H-M "A B M 2"
_symmetry_group_IT_number 39
_symmetry_cell_setting 'orthorhombic'
loop_
_space_group_symop_operation_xyz
x,y,z
-x,-y,z
-x,1/2+y,z
x,1/2-y,z
x,1/2+y,1/2+z
-x,1/2-y,1/2+z
-x,y,1/2+z
x,-y,1/2+z
loop_
_atom_site_type_symbol
_atom_site_label
_atom_site_fract_x
_atom_site_fract_y
_atom_site_fract_z
Si Si1 0.964001 0.902571 0.037080
Si Si2 0.816699 0.369531 0.915670
Si Si3 0.689420 0.869818 0.405313
Si Si4 0.050158 0.850954 0.244383
Si Si5 0.864942 0.490028 0.656686
Si Si6 0.641267 0.494313 0.653981
Si Si7 0.458966 0.132236 0.057935
Si Si8 0.445812 0.633369 0.253664
O O1 0.996282 0.858877 0.161241
O O2 0.902307 0.916496 0.069882
O O3 0.966394 0.846545 0.898080
O O4 0.000000 0.000000 0.008297
O O5 0.833655 0.250000 0.917767
O O6 0.752966 0.368756 0.915340
O O7 0.835361 0.428478 0.776896
O O8 0.835186 0.436339 0.047951
O O9 0.671905 0.750000 0.410453
O O10 0.668309 0.939887 0.531896
O O11 0.673659 0.924788 0.261766
O O12 0.078994 0.750000 0.199355
O O13 0.089577 0.942275 0.225988
O O14 0.594754 0.425372 0.591943
O O15 0.608331 0.573686 0.742948
O O16 0.449558 0.250000 0.084027
O O17 0.471422 0.118354 0.900209
O O18 0.510683 0.104391 0.143074
O O19 0.433962 0.750000 0.235448
#
# Coordination Sequence:
#
# PCOD9361279 Si02
#       8
#     8   8   8   8   8   8   8   8
#     4  10  21  37  57  87 130 167 206 260 309 380
#     4  11  25  46  70  95 128 169 215 276 338 381
#     4  11  26  45  68  99 127 164 222 275 328 393
#     4  11  22  36  59  93 129 168 210 257 316 379
#     4  11  22  44  66  92 129 169 217 267 319 388
#     4  12  22  42  67  91 128 175 208 267 331 377
#     4  10  22  38  59  91 129 167 211 258 311 383
#     4  10  22  38  59  92 128 166 213 258 311 384
#
# _framework density 19.330808999999999
#
# number of rings (size 3 to 8) (size 9 to 14) (size 15 to 20)
#    0.000    1.250    2.500    3.750    3.500    2.000 
#    0.000    0.000    0.000    5.250    0.000    0.000 
#    0.000    0.000    0.000    0.000    0.000    0.000 
#
# Total GULP energy -178173.753508 kJ/mol
# GULP energy per Si atom -5567.929797 kJ/mol
# Density = 1.928681 g / cm^3
# Si number density = 19.330809 Si / 1000 Ang^3
#
#
#
# Elastic Constant Matrix: (Units=GPa)
#
#
# Indices 1 2 3 4 5 6 
#
# 1 73.3868 26.1114 29.9724 0.0000 0.0000 0.0000
# 2 26.1114 105.7797 35.0844 0.0000 0.0000 0.0000
# 3 29.9724 35.0844 88.0746 0.0000 0.0000 0.0000
# 4 0.0000 0.0000 0.0000 22.5222 0.0000 0.0000
# 5 0.0000 0.0000 0.0000 0.0000 33.0157 0.0000
# 6 0.0000 0.0000 0.0000 0.0000 0.0000 16.2304
#
#
#
# Elastic Compliance Matrix: (Units=1/GPa)
#
#
# Indices 1 2 3 4 5 6 
#
# 1 0.016394 -0.002531 -0.004571 0.000000 0.000000 0.000000
# 2 -0.002531 0.011283 -0.003634 0.000000 0.000000 0.000000
# 3 -0.004571 -0.003634 0.014357 0.000000 0.000000 0.000000
# 4 0.000000 0.000000 0.000000 0.044401 0.000000 0.000000
# 5 0.000000 0.000000 0.000000 0.000000 0.030289 0.000000
# 6 0.000000 0.000000 0.000000 0.000000 0.000000 0.061613
#
#
# Mechanical properties :
#
#
# Convention : Reuss Voigt Hill
#
# Bulk Modulus (GPa) = 48.62874 49.95305 49.29089
# Shear Modulus (GPa) = 24.19425 26.09186 25.14305
#
# Velocity S-wave (km/s) = 3.54162 3.67789 3.61040
# Velocity P-wave (km/s) = 6.47571 6.62820 6.55240
#
# Compressibility (1/GPa) = 0.02056397
#
# Stress axis : x y z
#
# Youngs Moduli (GPa) = 60.99923 88.62533 69.65300
#
# Poissons Ratio (x) = 0.22429 0.31837
# Poissons Ratio (y) = 0.15437 0.25309
# Poissons Ratio (z) = 0.27881 0.32202
#
# Static dielectric constant tensor:
#      x y z
#    x 1.709860 0.000000 0.000000 
#    y 0.000000 2.310740 0.000000 
#    z 0.000000 0.000000 1.710810 
# 
# From -- ./inp_files/4093.got.cif
#   From: 2010.05.17/outbox.cif.g08.bks.cpg/sg39_3_cif.got.tgz:4093.got - 2010.06.03 18:22:40.
