data_PCOD9361923
_publ_section_title
;
Structure prediction by ZEFSAII (Michael W. Deem and Ramdas Pophale) SiO2 
 PCOD9361923
Probable space group: A B M 2
;
_chemical_formula_sum "Si O2"
_cell_formula_units_Z 40
_cell_length_a 10.526017
_cell_length_b 17.654913
_cell_length_c 9.462267
_cell_angle_alpha 90.000000
_cell_angle_beta 90.000000
_cell_angle_gamma 90.000000
_cell_volume 1758.429040
_symmetry_space_group_name_H-M "A B M 2"
_symmetry_group_IT_number 39
_symmetry_cell_setting 'orthorhombic'
loop_
_space_group_symop_operation_xyz
x,y,z
-x,-y,z
-x,1/2+y,z
x,1/2-y,z
x,1/2+y,1/2+z
-x,1/2-y,1/2+z
-x,y,1/2+z
x,-y,1/2+z
loop_
_atom_site_type_symbol
_atom_site_label
_atom_site_fract_x
_atom_site_fract_y
_atom_site_fract_z
Si Si1 0.670430 0.750000 0.081380
Si Si2 0.726212 0.629169 0.479770
Si Si3 0.849388 0.665079 0.765450
Si Si4 0.533932 0.750000 0.363810
Si Si5 0.131415 0.363722 0.207495
Si Si6 0.145430 0.973785 0.481396
O O1 0.555602 0.750000 0.196318
O O2 0.761661 0.680980 0.121560
O O3 0.604616 0.750000 0.930252
O O4 0.749624 0.654338 0.639309
O O5 0.604834 0.674093 0.421286
O O6 0.837319 0.653316 0.370194
O O7 0.747396 0.538567 0.468215
O O8 0.848859 0.750000 0.825768
O O9 0.835941 0.597797 0.878125
O O10 0.985916 0.657260 0.687406
O O11 0.145737 0.447835 0.145844
O O12 0.000000 0.000000 0.452863
#
# Coordination Sequence:
#
# PCOD9361923 Si02
#       6
#     4   8   8   4   8   8
#     4  10  24  43  68  90 124 173 243 292 339 378
#     4  11  23  41  64  96 136 182 216 279 344 407
#     4  12  23  37  63 104 145 176 214 267 339 428
#     4  10  24  47  68  92 128 177 241 296 333 398
#     4  11  22  38  64  94 133 178 218 274 339 411
#     4  12  24  37  64 101 149 174 212 266 343 425
#
# _framework density 22.747577
#
# number of rings (size 3 to 8) (size 9 to 14) (size 15 to 20)
#    0.000    0.800    6.000    1.200    1.400    3.200 
#    0.000    1.000    0.000    4.800    0.000    0.000 
#    0.000    0.000    0.000    0.000    0.000    0.000 
#
# Total GULP energy -111683.853759 kJ/mol
# GULP energy per Si atom -5584.192688 kJ/mol
# Density = 2.269580 g / cm^3
# Si number density = 22.747577 Si / 1000 Ang^3
#
#
#
# Elastic Constant Matrix: (Units=GPa)
#
#
# Indices 1 2 3 4 5 6 
#
# 1 64.5398 18.0539 8.4223 0.0000 0.0000 0.0000
# 2 18.0539 147.8895 21.6865 0.0000 0.0000 0.0000
# 3 8.4223 21.6865 85.8980 0.0000 0.0000 0.0000
# 4 0.0000 0.0000 0.0000 121.6790 0.0000 0.0000
# 5 0.0000 0.0000 0.0000 0.0000 36.8392 0.0000
# 6 0.0000 0.0000 0.0000 0.0000 0.0000 4.2317
#
#
#
# Elastic Compliance Matrix: (Units=1/GPa)
#
#
# Indices 1 2 3 4 5 6 
#
# 1 0.016147 -0.001806 -0.001127 0.000000 0.000000 0.000000
# 2 -0.001806 0.007224 -0.001647 0.000000 0.000000 0.000000
# 3 -0.001127 -0.001647 0.012168 0.000000 0.000000 0.000000
# 4 0.000000 0.000000 0.000000 0.008218 0.000000 0.000000
# 5 0.000000 0.000000 0.000000 0.000000 0.027145 0.000000
# 6 0.000000 0.000000 0.000000 0.000000 0.000000 0.236309
#
#
# Mechanical properties :
#
#
# Convention : Reuss Voigt Hill
#
# Bulk Modulus (GPa) = 37.90936 43.85030 40.87983
# Shear Modulus (GPa) = 15.37689 49.22762 32.30226
#
# Velocity S-wave (km/s) = 2.60278 4.65702 3.77242
# Velocity P-wave (km/s) = 5.07287 6.94520 6.08152
#
# Compressibility (1/GPa) = 0.02637871
#
# Stress axis : x y z
#
# Youngs Moduli (GPa) = 61.93267 138.43268 82.18289
#
# Poissons Ratio (x) = 0.24999 0.09264
# Poissons Ratio (y) = 0.11184 0.13533
# Poissons Ratio (z) = 0.06981 0.22796
#
# Static dielectric constant tensor:
#      x y z
#    x 1.797960 0.000000 0.000000 
#    y 0.000000 1.851460 0.000000 
#    z 0.000000 0.000000 1.885670 
# 
# From -- ./inp_files/2563.got.cif
#   From: 2010.05.17/outbox.cif.g08.bks.cpg/sg39_2_cif.got.tgz:2563.got - 2010.06.03 18:22:40.
