data_PCOD9361937
_publ_section_title
;
Structure prediction by ZEFSAII (Michael W. Deem and Ramdas Pophale) SiO2 
 PCOD9361937
Probable space group: A B M 2
;
_chemical_formula_sum "Si O2"
_cell_formula_units_Z 64
_cell_length_a 15.730332
_cell_length_b 8.744828
_cell_length_c 24.050697
_cell_angle_alpha 90.000000
_cell_angle_beta 90.000000
_cell_angle_gamma 90.000000
_cell_volume 3308.390976
_symmetry_space_group_name_H-M "A B M 2"
_symmetry_group_IT_number 39
_symmetry_cell_setting 'orthorhombic'
loop_
_space_group_symop_operation_xyz
x,y,z
-x,-y,z
-x,1/2+y,z
x,1/2-y,z
x,1/2+y,1/2+z
-x,1/2-y,1/2+z
-x,y,1/2+z
x,-y,1/2+z
loop_
_atom_site_type_symbol
_atom_site_label
_atom_site_fract_x
_atom_site_fract_y
_atom_site_fract_z
Si Si1 0.743269 0.067442 0.947240
Si Si2 0.408092 0.932085 0.251878
Si Si3 0.089444 0.567578 0.249687
Si Si4 0.661433 0.567522 0.629014
Si Si5 0.247691 0.932394 0.816282
Si Si6 0.589428 0.431727 0.516248
Si Si7 0.911778 0.433059 0.016888
Si Si8 0.148882 0.567157 0.633029
O O1 0.729137 0.250000 0.954640
O O2 0.749781 0.035722 0.881930
O O3 0.831134 0.028938 0.978365
O O4 0.665907 0.979584 0.975827
O O5 0.407436 0.750000 0.260657
O O6 0.386684 0.960542 0.186906
O O7 0.500000 0.000000 0.265420
O O8 0.333488 0.008151 0.287549
O O9 0.086055 0.750000 0.247858
O O10 0.167599 0.512749 0.287448
O O11 0.106790 0.503049 0.187934
O O12 0.000000 0.500000 0.269943
O O13 0.673832 0.750000 0.622590
O O14 0.610934 0.503115 0.576446
O O15 0.753204 0.487461 0.631507
O O16 0.240379 0.750000 0.808073
O O17 0.500000 0.500000 0.496492
O O18 0.583811 0.250000 0.520864
O O19 0.917354 0.250000 0.021539
O O20 0.894804 0.504513 0.077412
O O21 0.000000 0.500000 0.994617
O O22 0.144158 0.750000 0.634882
#
# Coordination Sequence:
#
# PCOD9361937 Si02
#       8
#     8   8   8   8   8   8   8   8
#     4  10  24  45  67  91 125 167 213 267 320 373
#     4  11  24  41  65  95 129 169 210 259 316 378
#     4  12  25  43  66  95 130 170 212 262 318 377
#     4  11  22  39  64  95 132 167 206 256 317 381
#     4  11  24  44  68  94 125 166 215 268 320 377
#     4  12  25  41  66  96 129 169 213 261 317 377
#     4  11  23  41  65  93 130 167 208 259 315 378
#     4  12  23  38  64  97 130 167 209 255 316 382
#
# _framework density 19.344752
#
# number of rings (size 3 to 8) (size 9 to 14) (size 15 to 20)
#    0.000    0.750    2.500    5.625    0.000    5.000 
#    0.000    1.250    0.000    0.000    0.000    0.000 
#    0.000    0.000    0.000    0.000    0.000    0.000 
#
# Total GULP energy -179146.076116 kJ/mol
# GULP energy per Si atom -5598.314879 kJ/mol
# Density = 1.930072 g / cm^3
# Si number density = 19.344752 Si / 1000 Ang^3
#
#
#
# Elastic Constant Matrix: (Units=GPa)
#
#
# Indices 1 2 3 4 5 6 
#
# 1 179.0676 85.2840 60.0374 0.0000 0.0000 0.0000
# 2 85.2840 137.1171 78.3351 0.0000 0.0000 0.0000
# 3 60.0374 78.3351 108.7669 0.0000 0.0000 0.0000
# 4 0.0000 0.0000 0.0000 22.8797 0.0000 0.0000
# 5 0.0000 0.0000 0.0000 0.0000 -9.8635 0.0000
# 6 0.0000 0.0000 0.0000 0.0000 0.0000 35.3261
#
#
#
# Elastic Compliance Matrix: (Units=1/GPa)
#
#
# Indices 1 2 3 4 5 6 
#
# 1 0.008063 -0.004201 -0.001425 0.000000 0.000000 0.000000
# 2 -0.004201 0.014580 -0.008182 0.000000 0.000000 0.000000
# 3 -0.001425 -0.008182 0.015873 0.000000 0.000000 0.000000
# 4 0.000000 0.000000 0.000000 0.043707 0.000000 0.000000
# 5 0.000000 0.000000 0.000000 0.000000 -0.101383 0.000000
# 6 0.000000 0.000000 0.000000 0.000000 0.000000 0.028308
#
#
# Mechanical properties :
#
#
# Convention : Reuss Voigt Hill
#
# Bulk Modulus (GPa) = 91.73804 96.91831 94.32818
# Shear Modulus (GPa) = 123.76935 23.08812 73.42873
#
# Velocity S-wave (km/s) = 8.00748 3.45847 6.16769
# Velocity P-wave (km/s) = 11.53337 8.13372 9.97938
#
# Compressibility (1/GPa) = 0.01090060
#
# Stress axis : x y z
#
# Youngs Moduli (GPa) = 124.02282 68.58557 62.99809
#
# Poissons Ratio (x) = 0.28812 0.08978
# Poissons Ratio (y) = 0.52100 0.51546
# Poissons Ratio (z) = 0.17675 0.56118
#
# Static dielectric constant tensor:
#      x y z
#    x 1.662600 0.000000 0.000000 
#    y 0.000000 1.646390 0.000000 
#    z 0.000000 0.000000 1.649300 
# 
# From -- ./inp_files/16192.got.cif
#   From: 2010.05.17/outbox.cif.g08.bks.cpg/sg39_9_cif.got.tgz:16192.got - 2010.06.03 18:22:40.
