data_PCOD9361558
_publ_section_title
;
Structure prediction by ZEFSAII (Michael W. Deem and Ramdas Pophale) SiO2 
 PCOD9361558
Probable space group: A B M 2
;
_chemical_formula_sum "Si O2"
_cell_formula_units_Z 44
_cell_length_a 8.636860
_cell_length_b 27.686798
_cell_length_c 8.192902
_cell_angle_alpha 90.000000
_cell_angle_beta 90.000000
_cell_angle_gamma 90.000000
_cell_volume 1959.144062
_symmetry_space_group_name_H-M "A B M 2"
_symmetry_group_IT_number 39
_symmetry_cell_setting 'orthorhombic'
loop_
_space_group_symop_operation_xyz
x,y,z
-x,-y,z
-x,1/2+y,z
x,1/2-y,z
x,1/2+y,1/2+z
-x,1/2-y,1/2+z
-x,y,1/2+z
x,-y,1/2+z
loop_
_atom_site_type_symbol
_atom_site_label
_atom_site_fract_x
_atom_site_fract_y
_atom_site_fract_z
Si Si1 0.301935 0.304498 0.123520
Si Si2 0.469014 0.852693 0.926123
Si Si3 0.310036 0.940071 0.014473
Si Si4 0.500000 0.000000 0.260084
Si Si5 0.192525 0.390031 0.958463
Si Si6 0.949931 0.445030 0.762303
O O1 0.259162 0.250000 0.165054
O O2 0.365942 0.336862 0.273320
O O3 0.453065 0.305796 0.005910
O O4 0.169660 0.335513 0.029752
O O5 0.358042 0.884776 0.039107
O O6 0.625993 0.885372 0.913879
O O7 0.416863 0.960114 0.867362
O O8 0.143142 0.944236 0.934355
O O9 0.364387 0.974871 0.157219
O O10 0.094264 0.409891 0.806440
O O11 0.153243 0.424513 0.113199
O O12 0.000000 0.500000 0.733045
#
# Coordination Sequence:
#
# PCOD9361558 Si02
#       6
#     8   8   8   4   8   8
#     4  10  21  43  73 100 126 164 218 280 343 395
#     4  10  21  42  68  97 130 159 222 284 335 386
#     4  11  22  39  61  92 128 174 219 282 319 390
#     4  10  24  34  62  94 128 168 238 276 326 370
#     4  10  26  44  62 103 133 177 223 276 328 403
#     4  12  26  42  65  91 143 189 225 258 331 407
#
# _framework density 22.458786
#
# number of rings (size 3 to 8) (size 9 to 14) (size 15 to 20)
#    1.091    0.364    1.818    3.273   10.182    1.455 
#    0.000    0.909    0.000    0.000    0.000    0.000 
#    0.000    0.000    0.000    0.000    0.000    0.000 
#
# Total GULP energy -122664.164682 kJ/mol
# GULP energy per Si atom -5575.643849 kJ/mol
# Density = 2.240767 g / cm^3
# Si number density = 22.458786 Si / 1000 Ang^3
#
#
#
# Elastic Constant Matrix: (Units=GPa)
#
#
# Indices 1 2 3 4 5 6 
#
# 1 63.1568 44.3778 4.6450 0.0000 0.0000 0.0000
# 2 44.3778 145.6397 29.7469 0.0000 0.0000 0.0000
# 3 4.6450 29.7469 72.4116 0.0000 0.0000 0.0000
# 4 0.0000 0.0000 0.0000 23.0489 0.0000 0.0000
# 5 0.0000 0.0000 0.0000 0.0000 34.3219 0.0000
# 6 0.0000 0.0000 0.0000 0.0000 0.0000 26.9865
#
#
#
# Elastic Compliance Matrix: (Units=1/GPa)
#
#
# Indices 1 2 3 4 5 6 
#
# 1 0.020267 -0.006451 0.001350 0.000000 0.000000 0.000000
# 2 -0.006451 0.009549 -0.003509 0.000000 0.000000 0.000000
# 3 0.001350 -0.003509 0.015165 0.000000 0.000000 0.000000
# 4 0.000000 0.000000 0.000000 0.043386 0.000000 0.000000
# 5 0.000000 0.000000 0.000000 0.000000 0.029136 0.000000
# 6 0.000000 0.000000 0.000000 0.000000 0.000000 0.037056
#
#
# Mechanical properties :
#
#
# Convention : Reuss Voigt Hill
#
# Bulk Modulus (GPa) = 36.02200 48.74971 42.38585
# Shear Modulus (GPa) = 27.61938 30.36737 28.99337
#
# Velocity S-wave (km/s) = 3.51063 3.68113 3.59689
# Velocity P-wave (km/s) = 5.70146 6.31039 6.01364
#
# Compressibility (1/GPa) = 0.02776082
#
# Stress axis : x y z
#
# Youngs Moduli (GPa) = 49.34009 104.72565 65.94232
#
# Poissons Ratio (x) = 0.67563 -0.08903
# Poissons Ratio (y) = 0.31832 0.23138
# Poissons Ratio (z) = -0.06662 0.36746
#
# Static dielectric constant tensor:
#      x y z
#    x 1.967460 0.000000 0.000000 
#    y 0.000000 1.989350 0.000000 
#    z 0.000000 0.000000 1.942000 
# 
# From -- ./inp_files/2253.got.cif
#   From: 2010.05.17/outbox.cif.g08.bks.cpg/sg39_2_cif.got.tgz:2253.got - 2010.06.03 18:22:40.
