data_PCOD9361935
_publ_section_title
;
Structure prediction by ZEFSAII (Michael W. Deem and Ramdas Pophale) SiO2 
 PCOD9361935
Probable space group: A B M 2
;
_chemical_formula_sum "Si O2"
_cell_formula_units_Z 36
_cell_length_a 5.138606
_cell_length_b 15.980582
_cell_length_c 17.482759
_cell_angle_alpha 90.000000
_cell_angle_beta 90.000000
_cell_angle_gamma 90.000000
_cell_volume 1435.647710
_symmetry_space_group_name_H-M "A B M 2"
_symmetry_group_IT_number 39
_symmetry_cell_setting 'orthorhombic'
loop_
_space_group_symop_operation_xyz
x,y,z
-x,-y,z
-x,1/2+y,z
x,1/2-y,z
x,1/2+y,1/2+z
-x,1/2-y,1/2+z
-x,y,1/2+z
x,-y,1/2+z
loop_
_atom_site_type_symbol
_atom_site_label
_atom_site_fract_x
_atom_site_fract_y
_atom_site_fract_z
Si Si1 0.570551 0.597229 0.633050
Si Si2 0.000000 0.500000 0.284714
Si Si3 0.629584 0.921252 0.907478
Si Si4 0.067644 0.346490 0.042618
Si Si5 0.669241 0.155579 0.775618
O O1 0.500000 0.500000 0.643373
O O2 0.834004 0.605725 0.584549
O O3 0.566746 0.642075 0.715673
O O4 0.335860 0.641718 0.588397
O O5 0.773657 0.466714 0.338541
O O6 0.872203 0.583241 0.249398
O O7 0.428053 0.861139 0.862962
O O8 0.500000 0.000000 0.951898
O O9 0.846441 0.878209 0.959153
O O10 0.990356 0.250000 0.039752
O O11 0.769592 0.250000 0.769452
#
# Coordination Sequence:
#
# PCOD9361935 Si02
#       5
#     8   4   8   8   8
#     4  12  28  48  75 107 155 207 254 316 393 461
#     4  10  24  44  74 106 146 198 256 318 388 462
#     4  10  24  45  74 107 151 203 256 313 388 462
#     4  12  27  47  73 111 151 199 259 320 383 458
#     4  11  25  47  75 113 153 202 259 321 387 468
#
# _framework density 25.075790000000001
#
# number of rings (size 3 to 8) (size 9 to 14) (size 15 to 20)
#    0.000    0.889    0.000    6.000   15.556    1.778 
#    0.000    0.000    0.000    0.000    0.000    0.000 
#    0.000    0.000    0.000    0.000    0.000    0.000 
#
# Total GULP energy -100742.118086 kJ/mol
# GULP energy per Si atom -5596.784338 kJ/mol
# Density = 2.501872 g / cm^3
# Si number density = 25.075790 Si / 1000 Ang^3
#
#
#
# Elastic Constant Matrix: (Units=GPa)
#
#
# Indices 1 2 3 4 5 6 
#
# 1 131.4424 40.4423 37.0227 0.0000 0.0000 0.0000
# 2 40.4423 187.6829 45.9781 0.0000 0.0000 0.0000
# 3 37.0227 45.9781 86.4600 0.0000 0.0000 0.0000
# 4 0.0000 0.0000 0.0000 21.1759 0.0000 0.0000
# 5 0.0000 0.0000 0.0000 0.0000 11.1310 0.0000
# 6 0.0000 0.0000 0.0000 0.0000 0.0000 33.2402
#
#
#
# Elastic Compliance Matrix: (Units=1/GPa)
#
#
# Indices 1 2 3 4 5 6 
#
# 1 0.008853 -0.001126 -0.003192 0.000000 0.000000 0.000000
# 2 -0.001126 0.006269 -0.002852 0.000000 0.000000 0.000000
# 3 -0.003192 -0.002852 0.014450 0.000000 0.000000 0.000000
# 4 0.000000 0.000000 0.000000 0.047223 0.000000 0.000000
# 5 0.000000 0.000000 0.000000 0.000000 0.089840 0.000000
# 6 0.000000 0.000000 0.000000 0.000000 0.000000 0.030084
#
#
# Mechanical properties :
#
#
# Convention : Reuss Voigt Hill
#
# Bulk Modulus (GPa) = 65.64983 72.49682 69.07333
# Shear Modulus (GPa) = 23.13346 31.91890 27.52618
#
# Velocity S-wave (km/s) = 3.04063 3.57164 3.31678
# Velocity P-wave (km/s) = 6.21004 6.78105 6.50182
#
# Compressibility (1/GPa) = 0.01523233
#
# Stress axis : x y z
#
# Youngs Moduli (GPa) = 112.95031 159.50595 69.20566
#
# Poissons Ratio (x) = 0.17955 0.22094
# Poissons Ratio (y) = 0.12715 0.19737
# Poissons Ratio (z) = 0.36059 0.45490
#
# Static dielectric constant tensor:
#      x y z
#    x 2.049710 0.000000 0.000000 
#    y 0.000000 1.999620 0.000000 
#    z 0.000000 0.000000 2.032920 
# 
# From -- ./inp_files/13408.got.cif
#   From: 2010.05.17/outbox.cif.g08.bks.cpg/sg39_7_cif.got.tgz:13408.got - 2010.06.03 18:22:40.
