data_PCOD9361612
_publ_section_title
;
Structure prediction by ZEFSAII (Michael W. Deem and Ramdas Pophale) SiO2 
 PCOD9361612
Probable space group: A B M 2
;
_chemical_formula_sum "Si O2"
_cell_formula_units_Z 60
_cell_length_a 15.724242
_cell_length_b 9.769145
_cell_length_c 21.865063
_cell_angle_alpha 90.000000
_cell_angle_beta 90.000000
_cell_angle_gamma 90.000000
_cell_volume 3358.744806
_symmetry_space_group_name_H-M "A B M 2"
_symmetry_group_IT_number 39
_symmetry_cell_setting 'orthorhombic'
loop_
_space_group_symop_operation_xyz
x,y,z
-x,-y,z
-x,1/2+y,z
x,1/2-y,z
x,1/2+y,1/2+z
-x,1/2-y,1/2+z
-x,y,1/2+z
x,-y,1/2+z
loop_
_atom_site_type_symbol
_atom_site_label
_atom_site_fract_x
_atom_site_fract_y
_atom_site_fract_z
Si Si1 0.923879 0.594484 0.887210
Si Si2 0.500000 0.000000 0.006735
Si Si3 0.749297 0.903298 0.955535
Si Si4 0.268297 0.088880 0.690766
Si Si5 0.663716 0.095836 0.582188
Si Si6 0.387248 0.595642 0.900567
Si Si7 0.576554 0.086977 0.282900
Si Si8 0.914965 0.085483 0.244398
O O1 0.954625 0.750000 0.885619
O O2 0.844391 0.586442 0.931918
O O3 0.899288 0.560300 0.816998
O O4 0.000000 0.500000 0.907337
O O5 0.547932 0.097117 0.957979
O O6 0.426158 0.062177 0.049150
O O7 0.717098 0.750000 0.935899
O O8 0.697648 0.027662 0.926840
O O9 0.732916 0.909119 0.027643
O O10 0.265204 0.250000 0.675840
O O11 0.334956 0.073929 0.746597
O O12 0.172246 0.047153 0.709442
O O13 0.308036 0.006584 0.634655
O O14 0.659329 0.250000 0.606622
O O15 0.377579 0.750000 0.877234
O O16 0.412767 0.489723 0.847533
O O17 0.557187 0.250000 0.288680
O O18 0.500000 0.000000 0.251671
O O19 0.928359 0.250000 0.236584
O O20 0.000000 0.000000 0.227603
#
# Coordination Sequence:
#
# PCOD9361612 Si02
#       8
#     8   4   8   8   8   8   8   8
#     4   9  17  32  56  84 114 144 177 223 283 342
#     4  10  22  38  56  80 112 146 184 234 286 334
#     4   9  19  36  55  78 112 150 183 226 282 332
#     4  10  23  41  58  80 114 153 190 237 290 336
#     4  10  22  38  58  80 107 149 197 236 275 330
#     4  11  21  34  57  84 110 142 184 230 278 335
#     4  11  23  38  56  81 115 151 187 231 284 339
#     4   9  18  35  59  85 111 143 182 228 287 344
#
# _framework density 17.863816
#
# number of rings (size 3 to 8) (size 9 to 14) (size 15 to 20)
#    0.000    2.133    0.667    2.000    0.933    8.000 
#    0.000    3.333    0.000    3.200    0.000    0.000 
#    0.000    0.000    0.000    0.000    0.000    0.000 
#
# Total GULP energy -167176.937413 kJ/mol
# GULP energy per Si atom -5572.564580 kJ/mol
# Density = 1.782316 g / cm^3
# Si number density = 17.863816 Si / 1000 Ang^3
#
#
#
# Elastic Constant Matrix: (Units=GPa)
#
#
# Indices 1 2 3 4 5 6 
#
# 1 111.3218 68.5544 55.4992 0.0000 0.0000 0.0000
# 2 68.5544 105.2608 50.0767 0.0000 0.0000 0.0000
# 3 55.4992 50.0767 67.5321 0.0000 0.0000 0.0000
# 4 0.0000 0.0000 0.0000 23.0713 0.0000 0.0000
# 5 0.0000 0.0000 0.0000 0.0000 21.5746 0.0000
# 6 0.0000 0.0000 0.0000 0.0000 0.0000 -0.7820
#
#
#
# Elastic Compliance Matrix: (Units=1/GPa)
#
#
# Indices 1 2 3 4 5 6 
#
# 1 0.018284 -0.007354 -0.009573 0.000000 0.000000 0.000000
# 2 -0.007354 0.017636 -0.007034 0.000000 0.000000 0.000000
# 3 -0.009573 -0.007034 0.027891 0.000000 0.000000 0.000000
# 4 0.000000 0.000000 0.000000 0.043344 0.000000 0.000000
# 5 0.000000 0.000000 0.000000 0.000000 0.046351 0.000000
# 6 0.000000 0.000000 0.000000 0.000000 0.000000 -1.278771
#
#
# Mechanical properties :
#
#
# Convention : Reuss Voigt Hill
#
# Bulk Modulus (GPa) = 62.93601 70.26394 66.59998
# Shear Modulus (GPa) = -4.66398 16.10507 5.72055
#
# Velocity S-wave (km/s) = -1.61757 3.00583 1.79144
# Velocity P-wave (km/s) = 5.64081 7.17393 6.45306
#
# Compressibility (1/GPa) = 0.01588915
#
# Stress axis : x y z
#
# Youngs Moduli (GPa) = 54.69128 56.70232 35.85345
#
# Poissons Ratio (x) = 0.41698 0.34324
# Poissons Ratio (y) = 0.40219 0.25219
# Poissons Ratio (z) = 0.52359 0.39884
#
# Static dielectric constant tensor:
#      x y z
#    x 1.618890 0.000000 0.000000 
#    y 0.000000 1.616450 0.000000 
#    z 0.000000 0.000000 1.602140 
# 
# From -- ./inp_files/16108.got.cif
#   From: 2010.05.17/outbox.cif.g08.bks.cpg/sg39_9_cif.got.tgz:16108.got - 2010.06.03 18:22:40.
