data_PCOD9361228
_publ_section_title
;
Structure prediction by ZEFSAII (Michael W. Deem and Ramdas Pophale) SiO2 
 PCOD9361228
Probable space group: A B M 2
;
_chemical_formula_sum "Si O2"
_cell_formula_units_Z 56
_cell_length_a 20.484297
_cell_length_b 8.858827
_cell_length_c 15.332150
_cell_angle_alpha 90.000000
_cell_angle_beta 90.000000
_cell_angle_gamma 90.000000
_cell_volume 2782.276862
_symmetry_space_group_name_H-M "A B M 2"
_symmetry_group_IT_number 39
_symmetry_cell_setting 'orthorhombic'
loop_
_space_group_symop_operation_xyz
x,y,z
-x,-y,z
-x,1/2+y,z
x,1/2-y,z
x,1/2+y,1/2+z
-x,1/2-y,1/2+z
-x,y,1/2+z
x,-y,1/2+z
loop_
_atom_site_type_symbol
_atom_site_label
_atom_site_fract_x
_atom_site_fract_y
_atom_site_fract_z
Si Si1 0.072087 0.431429 0.101170
Si Si2 0.693150 0.072760 0.930133
Si Si3 0.696851 0.073041 0.243336
Si Si4 0.160160 0.929903 0.949303
Si Si5 0.436342 0.584214 0.695505
Si Si6 0.564262 0.919171 0.988814
Si Si7 0.157598 0.566963 0.254243
O O1 0.070334 0.250000 0.104264
O O2 0.104993 0.498014 0.188770
O O3 0.000000 0.500000 0.092843
O O4 0.114717 0.487902 0.018950
O O5 0.688952 0.250000 0.906917
O O6 0.763351 0.051776 0.975483
O O7 0.695247 0.968905 0.845009
O O8 0.628525 0.020322 0.978913
O O9 0.691029 0.250000 0.227864
O O10 0.770139 0.026385 0.216691
O O11 0.633170 0.994594 0.205653
O O12 0.146601 0.750000 0.947280
O O13 0.152132 0.998467 0.851823
O O14 0.500000 0.500000 0.731547
O O15 0.432423 0.750000 0.735509
O O16 0.446826 0.597280 0.592018
O O17 0.573574 0.750000 0.952203
O O18 0.500000 0.000000 0.951452
O O19 0.153258 0.750000 0.258262
#
# Coordination Sequence:
#
# PCOD9361228 Si02
#       7
#     8   8   8   8   8   8   8
#     4  12  26  44  68  98 131 168 211 256 306 372
#     4  10  21  37  59  85 116 152 195 245 297 356
#     4  10  21  37  59  85 116 152 195 245 297 356
#     4  10  22  42  66  96 131 168 210 259 313 371
#     4  10  21  36  54  79 112 151 196 246 299 357
#     4  10  21  36  54  79 112 151 196 246 299 357
#     4  10  22  42  66  96 131 168 210 259 313 371
#
# _framework density 20.127400000000002
#
# number of rings (size 3 to 8) (size 9 to 14) (size 15 to 20)
#    0.000    1.714    0.000    3.857    2.000    6.286 
#    0.000    5.714    0.000    0.000    0.000    0.000 
#    0.000    0.000    0.000    0.000    0.000    0.000 
#
# Total GULP energy -156327.752297 kJ/mol
# GULP energy per Si atom -5583.134011 kJ/mol
# Density = 2.008159 g / cm^3
# Si number density = 20.127400 Si / 1000 Ang^3
#
#
#
# Elastic Constant Matrix: (Units=GPa)
#
#
# Indices 1 2 3 4 5 6 
#
# 1 161.6538 67.8271 43.5524 0.0000 0.0000 0.0000
# 2 67.8271 95.2222 16.5264 0.0000 0.0000 0.0000
# 3 43.5524 16.5264 54.2902 0.0000 0.0000 0.0000
# 4 0.0000 0.0000 0.0000 36.5850 0.0000 0.0000
# 5 0.0000 0.0000 0.0000 0.0000 40.0765 0.0000
# 6 0.0000 0.0000 0.0000 0.0000 0.0000 -8.6082
#
#
#
# Elastic Compliance Matrix: (Units=1/GPa)
#
#
# Indices 1 2 3 4 5 6 
#
# 1 0.010673 -0.006457 -0.006596 0.000000 0.000000 0.000000
# 2 -0.006457 0.014994 0.000616 0.000000 0.000000 0.000000
# 3 -0.006596 0.000616 0.023524 0.000000 0.000000 0.000000
# 4 0.000000 0.000000 0.000000 0.027334 0.000000 0.000000
# 5 0.000000 0.000000 0.000000 0.000000 0.024952 0.000000
# 6 0.000000 0.000000 0.000000 0.000000 0.000000 -0.116168
#
#
# Mechanical properties :
#
#
# Convention : Reuss Voigt Hill
#
# Bulk Modulus (GPa) = 41.12635 62.99755 52.06195
# Shear Modulus (GPa) = 273.39958 25.82801 149.61379
#
# Velocity S-wave (km/s) = 11.66745 3.58610 8.63104
# Velocity P-wave (km/s) = 14.21208 6.96521 11.19146
#
# Compressibility (1/GPa) = 0.02431531
#
# Stress axis : x y z
#
# Youngs Moduli (GPa) = 93.69872 66.69132 42.51064
#
# Poissons Ratio (x) = 0.43065 0.28040
# Poissons Ratio (y) = 0.60504 -0.02617
# Poissons Ratio (z) = 0.61804 -0.04106
#
# Static dielectric constant tensor:
#      x y z
#    x 1.729220 0.000000 0.000000 
#    y 0.000000 1.706490 0.000000 
#    z 0.000000 0.000000 1.711090 
# 
# From -- ./inp_files/10406.got.cif
#   From: 2010.05.17/outbox.cif.g08.bks.cpg/sg39_6_cif.got.tgz:10406.got - 2010.06.03 18:22:40.
