data_PCOD9361158
_publ_section_title
;
Structure prediction by ZEFSAII (Michael W. Deem and Ramdas Pophale) SiO2 
 PCOD9361158
Probable space group: A B M 2
;
_chemical_formula_sum "Si O2"
_cell_formula_units_Z 48
_cell_length_a 8.341745
_cell_length_b 22.780629
_cell_length_c 11.449111
_cell_angle_alpha 90.000000
_cell_angle_beta 90.000000
_cell_angle_gamma 90.000000
_cell_volume 2175.676831
_symmetry_space_group_name_H-M "A B M 2"
_symmetry_group_IT_number 39
_symmetry_cell_setting 'orthorhombic'
loop_
_space_group_symop_operation_xyz
x,y,z
-x,-y,z
-x,1/2+y,z
x,1/2-y,z
x,1/2+y,1/2+z
-x,1/2-y,1/2+z
-x,y,1/2+z
x,-y,1/2+z
loop_
_atom_site_type_symbol
_atom_site_label
_atom_site_fract_x
_atom_site_fract_y
_atom_site_fract_z
Si Si1 0.779171 0.595382 0.243420
Si Si2 0.884295 0.393563 0.357630
Si Si3 0.723948 0.681687 0.673073
Si Si4 0.393026 0.903139 0.980864
Si Si5 0.084246 0.815180 0.570606
Si Si6 0.282996 0.475292 0.033131
O O1 0.661502 0.611017 0.349221
O O2 0.794689 0.645838 0.145999
O O3 0.728495 0.538647 0.170287
O O4 0.961018 0.587781 0.285544
O O5 0.741602 0.365338 0.279262
O O6 0.935353 0.340141 0.441571
O O7 0.842633 0.445258 0.446919
O O8 0.677635 0.750000 0.699586
O O9 0.621965 0.651130 0.569502
O O10 0.908476 0.684456 0.628187
O O11 0.557515 0.939604 0.992207
O O12 0.272329 0.955240 0.018770
O O13 0.147210 0.750000 0.566368
#
# Coordination Sequence:
#
# PCOD9361158 Si02
#       6
#     8   8   8   8   8   8
#     4  10  22  41  61  97 123 164 220 268 324 380
#     4  10  20  41  63  94 126 164 217 269 318 382
#     4  10  21  37  62  92 125 167 210 261 320 381
#     4  11  24  43  64  92 128 175 216 259 337 391
#     4   9  18  37  63  93 127 165 211 263 321 379
#     4  10  26  42  65  91 130 173 213 269 330 397
#
# _framework density 22.062100999999998
#
# number of rings (size 3 to 8) (size 9 to 14) (size 15 to 20)
#    0.000    2.000    1.667    0.500    4.667    3.333 
#    3.000    4.167    0.000    0.000    0.000    0.000 
#    0.000    0.000    0.000    0.000    0.000    0.000 
#
# Total GULP energy -133912.231658 kJ/mol
# GULP energy per Si atom -5579.676319 kJ/mol
# Density = 2.201189 g / cm^3
# Si number density = 22.062101 Si / 1000 Ang^3
#
#
#
# Elastic Constant Matrix: (Units=GPa)
#
#
# Indices 1 2 3 4 5 6 
#
# 1 36.9895 0.8193 3.6336 0.0000 0.0000 0.0000
# 2 0.8193 66.3310 0.3219 0.0000 0.0000 0.0000
# 3 3.6336 0.3219 65.6091 0.0000 0.0000 0.0000
# 4 0.0000 0.0000 0.0000 4.5812 0.0000 0.0000
# 5 0.0000 0.0000 0.0000 0.0000 23.1403 0.0000
# 6 0.0000 0.0000 0.0000 0.0000 0.0000 19.7555
#
#
#
# Elastic Compliance Matrix: (Units=1/GPa)
#
#
# Indices 1 2 3 4 5 6 
#
# 1 0.027190 -0.000329 -0.001504 0.000000 0.000000 0.000000
# 2 -0.000329 0.015080 -0.000056 0.000000 0.000000 0.000000
# 3 -0.001504 -0.000056 0.015325 0.000000 0.000000 0.000000
# 4 0.000000 0.000000 0.000000 0.218281 0.000000 0.000000
# 5 0.000000 0.000000 0.000000 0.000000 0.043215 0.000000
# 6 0.000000 0.000000 0.000000 0.000000 0.000000 0.050619
#
#
# Mechanical properties :
#
#
# Convention : Reuss Voigt Hill
#
# Bulk Modulus (GPa) = 18.58105 19.83101 19.20603
# Shear Modulus (GPa) = 12.77378 20.43907 16.60642
#
# Velocity S-wave (km/s) = 2.40884 3.04704 2.74654
# Velocity P-wave (km/s) = 4.02208 4.62466 4.33385
#
# Compressibility (1/GPa) = 0.05381827
#
# Stress axis : x y z
#
# Youngs Moduli (GPa) = 36.77854 66.31193 65.25133
#
# Poissons Ratio (x) = 0.02179 0.09815
# Poissons Ratio (y) = 0.01208 0.00364
# Poissons Ratio (z) = 0.05532 0.00370
#
# Static dielectric constant tensor:
#      x y z
#    x 1.884440 0.000000 0.000000 
#    y 0.000000 1.861260 0.000000 
#    z 0.000000 0.000000 1.818950 
# 
# From -- ./inp_files/5174.got.cif
#   From: 2010.05.17/outbox.cif.g08.bks.cpg/sg39_3_cif.got.tgz:5174.got - 2010.06.03 18:22:40.
