data_PCOD9361259
_publ_section_title
;
Structure prediction by ZEFSAII (Michael W. Deem and Ramdas Pophale) SiO2 
 PCOD9361259
Probable space group: A B M 2
;
_chemical_formula_sum "Si O2"
_cell_formula_units_Z 64
_cell_length_a 12.377874
_cell_length_b 29.415097
_cell_length_c 8.676820
_cell_angle_alpha 90.000000
_cell_angle_beta 90.000000
_cell_angle_gamma 90.000000
_cell_volume 3159.198616
_symmetry_space_group_name_H-M "A B M 2"
_symmetry_group_IT_number 39
_symmetry_cell_setting 'orthorhombic'
loop_
_space_group_symop_operation_xyz
x,y,z
-x,-y,z
-x,1/2+y,z
x,1/2-y,z
x,1/2+y,1/2+z
-x,1/2-y,1/2+z
-x,y,1/2+z
x,-y,1/2+z
loop_
_atom_site_type_symbol
_atom_site_label
_atom_site_fract_x
_atom_site_fract_y
_atom_site_fract_z
Si Si1 0.030137 0.892860 0.420850
Si Si2 0.379456 0.596249 0.156873
Si Si3 0.353478 0.696363 0.717146
Si Si4 0.853038 0.635399 0.204084
Si Si5 0.475254 0.151152 0.931392
Si Si6 0.754915 0.536531 0.179557
Si Si7 0.857378 0.939467 0.641692
Si Si8 0.611859 0.981423 0.895920
O O1 0.104528 0.862453 0.529910
O O2 0.101574 0.924609 0.310659
O O3 0.954342 0.861416 0.316741
O O4 0.950930 0.923854 0.525649
O O5 0.400486 0.633076 0.292311
O O6 0.254588 0.588043 0.112124
O O7 0.409266 0.550288 0.248196
O O8 0.457209 0.610761 0.016970
O O9 0.338559 0.750000 0.706409
O O10 0.242128 0.669572 0.740955
O O11 0.435497 0.683481 0.854325
O O12 0.406578 0.676161 0.561613
O O13 0.813446 0.583117 0.215331
O O14 0.831091 0.493123 0.142825
O O15 0.684882 0.521615 0.326714
O O16 0.678193 0.542775 0.030960
O O17 0.500000 0.000000 0.955977
#
# Coordination Sequence:
#
# PCOD9361259 Si02
#       8
#     8   8   8   8   8   8   8   8
#     4  10  22  38  62  84 114 160 202 251 297 343
#     4  10  22  37  58  87 124 161 198 242 287 353
#     4  11  23  42  66  92 120 149 190 251 309 373
#     4  11  23  40  60  85 117 153 203 247 303 352
#     4  10  22  38  65  91 119 159 197 234 299 370
#     4  11  23  37  53  82 120 164 204 254 283 343
#     4  10  21  37  54  86 120 157 206 248 285 334
#     4  11  24  33  52  81 126 166 208 233 285 342
#
# _framework density 20.258300999999999
#
# number of rings (size 3 to 8) (size 9 to 14) (size 15 to 20)
#    0.000    1.500    0.000    5.250    8.750    3.000 
#    0.000    0.625    0.000    0.000    0.000    0.000 
#    0.000    0.000    0.000    0.000    0.000    0.000 
#
# Total GULP energy -179056.677485 kJ/mol
# GULP energy per Si atom -5595.521171 kJ/mol
# Density = 2.021219 g / cm^3
# Si number density = 20.258301 Si / 1000 Ang^3
#
#
#
# Elastic Constant Matrix: (Units=GPa)
#
#
# Indices 1 2 3 4 5 6 
#
# 1 51.5706 25.5260 -6.2988 0.0000 0.0000 0.0000
# 2 25.5260 70.6629 -6.3404 0.0000 0.0000 0.0000
# 3 -6.2988 -6.3404 50.4557 0.0000 0.0000 0.0000
# 4 0.0000 0.0000 0.0000 15.0127 0.0000 0.0000
# 5 0.0000 0.0000 0.0000 0.0000 37.0412 0.0000
# 6 0.0000 0.0000 0.0000 0.0000 0.0000 11.5386
#
#
#
# Elastic Compliance Matrix: (Units=1/GPa)
#
#
# Indices 1 2 3 4 5 6 
#
# 1 0.023794 -0.008424 0.001912 0.000000 0.000000 0.000000
# 2 -0.008424 0.017295 0.001122 0.000000 0.000000 0.000000
# 3 0.001912 0.001122 0.020199 0.000000 0.000000 0.000000
# 4 0.000000 0.000000 0.000000 0.066610 0.000000 0.000000
# 5 0.000000 0.000000 0.000000 0.000000 0.026997 0.000000
# 6 0.000000 0.000000 0.000000 0.000000 0.000000 0.086666
#
#
# Mechanical properties :
#
#
# Convention : Reuss Voigt Hill
#
# Bulk Modulus (GPa) = 19.79882 22.05142 20.92512
# Shear Modulus (GPa) = 18.57510 23.37199 20.97355
#
# Velocity S-wave (km/s) = 3.03134 3.40030 3.22111
# Velocity P-wave (km/s) = 4.69537 5.13077 4.91789
#
# Compressibility (1/GPa) = 0.05050807
#
# Stress axis : x y z
#
# Youngs Moduli (GPa) = 42.02767 57.81931 49.50741
#
# Poissons Ratio (x) = 0.48705 -0.09465
# Poissons Ratio (y) = 0.35403 -0.05554
# Poissons Ratio (z) = -0.08035 -0.06486
#
# Static dielectric constant tensor:
#      x y z
#    x 1.739660 0.000000 0.000000 
#    y 0.000000 1.696510 0.000000 
#    z 0.000000 0.000000 1.757690 
# 
# From -- ./inp_files/2911.got.cif
#   From: 2010.05.17/outbox.cif.g08.bks.cpg/sg39_2_cif.got.tgz:2911.got - 2010.06.03 18:22:40.
