data_PCOD9361533
_publ_section_title
;
Structure prediction by ZEFSAII (Michael W. Deem and Ramdas Pophale) SiO2 
 PCOD9361533
Probable space group: A B M 2
;
_chemical_formula_sum "Si O2"
_cell_formula_units_Z 64
_cell_length_a 22.058393
_cell_length_b 16.109719
_cell_length_c 8.925931
_cell_angle_alpha 90.000000
_cell_angle_beta 90.000000
_cell_angle_gamma 90.000000
_cell_volume 3171.869862
_symmetry_space_group_name_H-M "A B M 2"
_symmetry_group_IT_number 39
_symmetry_cell_setting 'orthorhombic'
loop_
_space_group_symop_operation_xyz
x,y,z
-x,-y,z
-x,1/2+y,z
x,1/2-y,z
x,1/2+y,1/2+z
-x,1/2-y,1/2+z
-x,y,1/2+z
x,-y,1/2+z
loop_
_atom_site_type_symbol
_atom_site_label
_atom_site_fract_x
_atom_site_fract_y
_atom_site_fract_z
Si Si1 0.682694 0.156779 0.360710
Si Si2 0.764232 0.999947 0.394023
Si Si3 0.685653 0.844287 0.501640
Si Si4 0.437733 0.906676 0.500160
Si Si5 0.070173 0.655560 0.764598
Si Si6 0.435733 0.591719 0.861235
Si Si7 0.150727 0.488009 0.143620
Si Si8 0.038416 0.915591 0.086355
O O1 0.706848 0.250000 0.386576
O O2 0.618191 0.146980 0.441501
O O3 0.724652 0.082061 0.419221
O O4 0.676032 0.145689 0.180755
O O5 0.729770 0.916426 0.441254
O O6 0.829957 0.006448 0.471562
O O7 0.784356 0.998131 0.221682
O O8 0.708232 0.750000 0.476582
O O9 0.621958 0.857045 0.416995
O O10 0.439545 0.911575 0.680713
O O11 0.501613 0.876125 0.432973
O O12 0.428454 0.998732 0.429259
O O13 0.089061 0.750000 0.760974
O O14 0.120285 0.597972 0.687899
O O15 0.006745 0.641788 0.678720
O O16 0.058328 0.625572 0.932658
O O17 0.099172 0.556649 0.172684
O O18 0.000000 0.000000 0.055535
#
# Coordination Sequence:
#
# PCOD9361533 Si02
#       8
#     8   8   8   8   8   8   8   8
#     4  11  25  44  66  95 130 172 219 272 331 391
#     4  12  24  45  67  93 128 176 220 269 317 376
#     4  11  25  44  67  95 130 172 219 272 332 392
#     4  11  22  39  66  96 130 169 216 270 333 396
#     4  11  23  40  65 100 132 162 208 267 316 372
#     4  11  22  39  66  97 127 170 215 269 334 395
#     4  11  24  42  69  91 125 175 218 256 317 384
#     4  10  21  41  65  93 128 170 208 251 319 381
#
# _framework density 20.177372999999999
#
# number of rings (size 3 to 8) (size 9 to 14) (size 15 to 20)
#    0.000    1.000    3.750    4.500    3.500    2.000 
#    0.000    1.250    0.000    0.000    0.000    0.000 
#    0.000    0.000    0.000    0.000    0.000    0.000 
#
# Total GULP energy -178766.748481 kJ/mol
# GULP energy per Si atom -5586.460890 kJ/mol
# Density = 2.013145 g / cm^3
# Si number density = 20.177373 Si / 1000 Ang^3
#
#
#
# Elastic Constant Matrix: (Units=GPa)
#
#
# Indices 1 2 3 4 5 6 
#
# 1 97.4630 47.8244 24.3463 0.0000 0.0000 0.0000
# 2 47.8244 101.7588 27.2234 0.0000 0.0000 0.0000
# 3 24.3463 27.2234 73.8472 0.0000 0.0000 0.0000
# 4 0.0000 0.0000 0.0000 -4.6864 0.0000 0.0000
# 5 0.0000 0.0000 0.0000 0.0000 69.6535 0.0000
# 6 0.0000 0.0000 0.0000 0.0000 0.0000 7.5830
#
#
#
# Elastic Compliance Matrix: (Units=1/GPa)
#
#
# Indices 1 2 3 4 5 6 
#
# 1 0.013702 -0.005804 -0.002378 0.000000 0.000000 0.000000
# 2 -0.005804 0.013360 -0.003012 0.000000 0.000000 0.000000
# 3 -0.002378 -0.003012 0.015436 0.000000 0.000000 0.000000
# 4 0.000000 0.000000 0.000000 -0.213385 0.000000 0.000000
# 5 0.000000 0.000000 0.000000 0.000000 0.014357 0.000000
# 6 0.000000 0.000000 0.000000 0.000000 0.000000 0.131873
#
#
# Mechanical properties :
#
#
# Convention : Reuss Voigt Hill
#
# Bulk Modulus (GPa) = 49.72266 52.42856 51.07561
# Shear Modulus (GPa) = 1127.68837 26.08836 576.88837
#
# Velocity S-wave (km/s) = 23.66645 3.59966 16.92717
# Velocity P-wave (km/s) = 27.77584 6.58157 20.18433
#
# Compressibility (1/GPa) = 0.02011156
#
# Stress axis : x y z
#
# Youngs Moduli (GPa) = 72.98174 74.84771 64.78454
#
# Poissons Ratio (x) = 0.43438 0.15405
# Poissons Ratio (y) = 0.42355 0.19513
# Poissons Ratio (z) = 0.17355 0.22544
#
# Static dielectric constant tensor:
#      x y z
#    x 1.672970 0.000000 0.000000 
#    y 0.000000 1.706810 0.000000 
#    z 0.000000 0.000000 1.687020 
# 
# From -- ./inp_files/4085.got.cif
#   From: 2010.05.17/outbox.cif.g08.bks.cpg/sg39_3_cif.got.tgz:4085.got - 2010.06.03 18:22:40.
