data_PCOD9361947
_publ_section_title
;
Structure prediction by ZEFSAII (Michael W. Deem and Ramdas Pophale) SiO2 
 PCOD9361947
Probable space group: A B M 2
;
_chemical_formula_sum "Si O2"
_cell_formula_units_Z 24
_cell_length_a 5.001412
_cell_length_b 19.763671
_cell_length_c 9.841761
_cell_angle_alpha 90.000000
_cell_angle_beta 90.000000
_cell_angle_gamma 90.000000
_cell_volume 972.821279
_symmetry_space_group_name_H-M "A B M 2"
_symmetry_group_IT_number 39
_symmetry_cell_setting 'orthorhombic'
loop_
_space_group_symop_operation_xyz
x,y,z
-x,-y,z
-x,1/2+y,z
x,1/2-y,z
x,1/2+y,1/2+z
-x,1/2-y,1/2+z
-x,y,1/2+z
x,-y,1/2+z
loop_
_atom_site_type_symbol
_atom_site_label
_atom_site_fract_x
_atom_site_fract_y
_atom_site_fract_z
Si Si1 0.458725 0.171100 0.817750
Si Si2 0.709484 0.057405 0.667488
Si Si3 0.071411 0.399917 0.430290
O O1 0.422131 0.250000 0.795731
O O2 0.565595 0.129852 0.687194
O O3 0.187604 0.134867 0.863357
O O4 0.695001 0.156150 0.927030
O O5 0.960371 0.070026 0.569720
O O6 0.800567 0.046419 0.823894
O O7 0.500000 0.000000 0.624066
#
# Coordination Sequence:
#
# PCOD9361947 Si02
#       3
#     8   8   8
#     4  10  24  46  77 117 159 207 264 328 405 481
#     4  10  26  52  79 117 161 210 273 332 407 481
#     4  10  25  48  74 116 152 213 263 334 398 477
#
# _framework density 24.670515000000002
#
# number of rings (size 3 to 8) (size 9 to 14) (size 15 to 20)
#    2.000    0.000    0.000    1.000    4.667    5.333 
#    6.000    1.667    0.000    0.000    0.000    0.000 
#    0.000    0.000    0.000    0.000    0.000    0.000 
#
# Total GULP energy -67006.381868 kJ/mol
# GULP energy per Si atom -5583.865156 kJ/mol
# Density = 2.461436 g / cm^3
# Si number density = 24.670515 Si / 1000 Ang^3
#
#
#
# Elastic Constant Matrix: (Units=GPa)
#
#
# Indices 1 2 3 4 5 6 
#
# 1 163.5639 25.8844 35.3673 0.0000 0.0000 0.0000
# 2 25.8844 116.6074 11.6932 0.0000 0.0000 0.0000
# 3 35.3673 11.6932 119.9837 0.0000 0.0000 0.0000
# 4 0.0000 0.0000 0.0000 8.1569 0.0000 0.0000
# 5 0.0000 0.0000 0.0000 0.0000 39.9046 0.0000
# 6 0.0000 0.0000 0.0000 0.0000 0.0000 39.4098
#
#
#
# Elastic Compliance Matrix: (Units=1/GPa)
#
#
# Indices 1 2 3 4 5 6 
#
# 1 0.006721 -0.001306 -0.001854 0.000000 0.000000 0.000000
# 2 -0.001306 0.008914 -0.000484 0.000000 0.000000 0.000000
# 3 -0.001854 -0.000484 0.008928 0.000000 0.000000 0.000000
# 4 0.000000 0.000000 0.000000 0.122595 0.000000 0.000000
# 5 0.000000 0.000000 0.000000 0.000000 0.025060 0.000000
# 6 0.000000 0.000000 0.000000 0.000000 0.000000 0.025374
#
#
# Mechanical properties :
#
#
# Convention : Reuss Voigt Hill
#
# Bulk Modulus (GPa) = 57.88349 60.67165 59.27757
# Shear Modulus (GPa) = 23.73723 39.30827 31.52275
#
# Velocity S-wave (km/s) = 3.10525 3.99598 3.57844
# Velocity P-wave (km/s) = 6.03078 6.77766 6.41510
#
# Compressibility (1/GPa) = 0.01727608
#
# Stress axis : x y z
#
# Youngs Moduli (GPa) = 148.77873 112.18033 112.00597
#
# Poissons Ratio (x) = 0.14652 0.20765
# Poissons Ratio (y) = 0.19432 0.05418
# Poissons Ratio (z) = 0.27583 0.05427
#
# Static dielectric constant tensor:
#      x y z
#    x 2.148160 0.000000 0.000000 
#    y 0.000000 1.963220 0.000000 
#    z 0.000000 0.000000 2.035750 
# 
# From -- ./inp_files/1647.got.cif
#   From: 2010.05.17/outbox.cif.g08.bks.cpg/sg39_1_cif.got.tgz:1647.got - 2010.06.03 18:22:40.
