data_PCOD9361046
_publ_section_title
;
Structure prediction by ZEFSAII (Michael W. Deem and Ramdas Pophale) SiO2 
 PCOD9361046
Probable space group: A B M 2
;
_chemical_formula_sum "Si O2"
_cell_formula_units_Z 56
_cell_length_a 11.474191
_cell_length_b 15.691493
_cell_length_c 13.713540
_cell_angle_alpha 90.000000
_cell_angle_beta 90.000000
_cell_angle_gamma 90.000000
_cell_volume 2469.084311
_symmetry_space_group_name_H-M "A B M 2"
_symmetry_group_IT_number 39
_symmetry_cell_setting 'orthorhombic'
loop_
_space_group_symop_operation_xyz
x,y,z
-x,-y,z
-x,1/2+y,z
x,1/2-y,z
x,1/2+y,1/2+z
-x,1/2-y,1/2+z
-x,y,1/2+z
x,-y,1/2+z
loop_
_atom_site_type_symbol
_atom_site_label
_atom_site_fract_x
_atom_site_fract_y
_atom_site_fract_z
Si Si1 0.302369 0.931941 0.481760
Si Si2 0.810468 0.652312 0.165863
Si Si3 0.204935 0.022101 0.779745
Si Si4 0.703445 0.627705 0.522906
Si Si5 0.920328 0.343641 0.149154
Si Si6 0.442257 0.415309 0.681284
Si Si7 0.482213 0.345448 0.374328
O O1 0.267616 0.871360 0.571463
O O2 0.211049 0.947246 0.392111
O O3 0.425723 0.903218 0.434731
O O4 0.302069 0.026072 0.525505
O O5 0.787081 0.750000 0.198883
O O6 0.805968 0.577045 0.247799
O O7 0.943914 0.650087 0.126348
O O8 0.113341 0.079317 0.720321
O O9 0.329216 0.053201 0.739555
O O10 0.831258 0.653075 0.557553
O O11 0.606981 0.651527 0.604239
O O12 0.645113 0.653245 0.422324
O O13 0.900262 0.250000 0.195736
O O14 0.500000 0.500000 0.639186
O O15 0.524631 0.376340 0.763475
O O16 0.530029 0.250000 0.376117
#
# Coordination Sequence:
#
# PCOD9361046 Si02
#       7
#     8   8   8   8   8   8   8
#     4  11  22  41  68  96 125 177 224 279 337 416
#     4  11  23  44  68  99 136 177 230 292 346 406
#     4  10  22  40  67  94 132 174 222 278 344 409
#     4  11  22  40  67  91 128 174 225 268 334 398
#     4  10  22  42  66  92 132 177 225 277 341 408
#     4  10  20  38  62  87 124 169 214 261 332 399
#     4  11  23  37  59  97 132 165 219 274 329 403
#
# _framework density 22.680475000000001
#
# number of rings (size 3 to 8) (size 9 to 14) (size 15 to 20)
#    0.000    1.429    2.857    4.286    0.000    6.286 
#    5.143    3.571    0.000    0.000    0.000    0.000 
#    0.000    0.000    0.000    0.000    0.000    0.000 
#
# Total GULP energy -156291.453868 kJ/mol
# GULP energy per Si atom -5581.837638 kJ/mol
# Density = 2.262885 g / cm^3
# Si number density = 22.680475 Si / 1000 Ang^3
#
#
#
# Elastic Constant Matrix: (Units=GPa)
#
#
# Indices 1 2 3 4 5 6 
#
# 1 48.2797 -1.5451 16.6608 0.0000 0.0000 0.0000
# 2 -1.5451 134.9416 19.1253 0.0000 0.0000 0.0000
# 3 16.6608 19.1253 60.8008 0.0000 0.0000 0.0000
# 4 0.0000 0.0000 0.0000 7.0533 0.0000 0.0000
# 5 0.0000 0.0000 0.0000 0.0000 27.2952 0.0000
# 6 0.0000 0.0000 0.0000 0.0000 0.0000 19.3263
#
#
#
# Elastic Compliance Matrix: (Units=1/GPa)
#
#
# Indices 1 2 3 4 5 6 
#
# 1 0.023064 0.001214 -0.006702 0.000000 0.000000 0.000000
# 2 0.001214 0.007820 -0.002793 0.000000 0.000000 0.000000
# 3 -0.006702 -0.002793 0.019162 0.000000 0.000000 0.000000
# 4 0.000000 0.000000 0.000000 0.141777 0.000000 0.000000
# 5 0.000000 0.000000 0.000000 0.000000 0.036636 0.000000
# 6 0.000000 0.000000 0.000000 0.000000 0.000000 0.051743
#
#
# Mechanical properties :
#
#
# Convention : Reuss Voigt Hill
#
# Bulk Modulus (GPa) = 29.86373 34.72268 32.29320
# Shear Modulus (GPa) = 16.23765 24.72038 20.47901
#
# Velocity S-wave (km/s) = 2.67859 3.30501 3.00815
# Velocity P-wave (km/s) = 4.77097 5.46871 5.13172
#
# Compressibility (1/GPa) = 0.03348544
#
# Stress axis : x y z
#
# Youngs Moduli (GPa) = 43.35711 127.87226 52.18647
#
# Poissons Ratio (x) = -0.15523 0.34975
# Poissons Ratio (y) = -0.05263 0.14573
# Poissons Ratio (z) = 0.29058 0.35709
#
# Static dielectric constant tensor:
#      x y z
#    x 1.878420 0.000000 0.000000 
#    y 0.000000 1.859170 0.000000 
#    z 0.000000 0.000000 1.945440 
# 
# From -- ./inp_files/9297.got.cif
#   From: 2010.05.17/outbox.cif.g08.bks.cpg/sg39_5_cif.got.tgz:9297.got - 2010.06.03 18:22:40.
