data_PCOD9361394
_publ_section_title
;
Structure prediction by ZEFSAII (Michael W. Deem and Ramdas Pophale) SiO2 
 PCOD9361394
Probable space group: A B M 2
;
_chemical_formula_sum "Si O2"
_cell_formula_units_Z 60
_cell_length_a 13.430256
_cell_length_b 16.408971
_cell_length_c 14.229815
_cell_angle_alpha 90.000000
_cell_angle_beta 90.000000
_cell_angle_gamma 90.000000
_cell_volume 3135.919404
_symmetry_space_group_name_H-M "A B M 2"
_symmetry_group_IT_number 39
_symmetry_cell_setting 'orthorhombic'
loop_
_space_group_symop_operation_xyz
x,y,z
-x,-y,z
-x,1/2+y,z
x,1/2-y,z
x,1/2+y,1/2+z
-x,1/2-y,1/2+z
-x,y,1/2+z
x,-y,1/2+z
loop_
_atom_site_type_symbol
_atom_site_label
_atom_site_fract_x
_atom_site_fract_y
_atom_site_fract_z
Si Si1 0.616130 0.420562 0.317950
Si Si2 0.224532 0.659405 0.782445
Si Si3 0.411075 0.606445 0.896299
Si Si4 0.000000 0.000000 0.658430
Si Si5 0.401077 0.444977 0.597557
Si Si6 0.192951 0.154239 0.913693
Si Si7 0.208251 0.552954 0.598245
Si Si8 0.996792 0.345279 0.797137
O O1 0.605489 0.512382 0.360261
O O2 0.521195 0.372372 0.359492
O O3 0.607314 0.416868 0.205209
O O4 0.722409 0.388011 0.350901
O O5 0.223640 0.750000 0.739897
O O6 0.319031 0.651883 0.849156
O O7 0.228233 0.593651 0.699502
O O8 0.117346 0.648731 0.832655
O O9 0.409574 0.614530 0.008703
O O10 0.897133 0.006934 0.602121
O O11 0.005859 0.083319 0.719787
O O12 0.500000 0.500000 0.592619
O O13 0.301526 0.496011 0.577438
O O14 0.210483 0.250000 0.911965
O O15 0.082988 0.139009 0.872269
O O16 0.201237 0.120290 0.018154
O O17 0.009446 0.250000 0.764297
#
# Coordination Sequence:
#
# PCOD9361394 Si02
#       8
#     8   8   8   4   8   8   8   8
#     4  11  21  38  59  87 119 156 194 250 300 364
#     4  10  21  39  59  84 119 157 198 250 305 357
#     4  11  21  36  61  88 116 156 195 248 302 363
#     4  10  22  36  62  90 116 164 208 254 314 368
#     4  12  20  35  59  88 117 148 199 244 297 354
#     4  11  23  39  58  85 122 161 199 252 313 367
#     4  11  21  35  59  90 115 154 207 248 292 369
#     4   9  21  39  59  85 122 162 204 258 311 364
#
# _framework density 19.133144999999999
#
# number of rings (size 3 to 8) (size 9 to 14) (size 15 to 20)
#    0.000    1.333    5.333    1.200    1.867    2.667 
#    0.000    0.667    0.000    7.200    0.000    0.000 
#    0.000    0.000    0.000    0.000    0.000    0.000 
#
# Total GULP energy -167350.245777 kJ/mol
# GULP energy per Si atom -5578.341526 kJ/mol
# Density = 1.908960 g / cm^3
# Si number density = 19.133145 Si / 1000 Ang^3
#
#
#
# Elastic Constant Matrix: (Units=GPa)
#
#
# Indices 1 2 3 4 5 6 
#
# 1 108.5580 16.1596 11.5115 0.0000 0.0000 0.0000
# 2 16.1596 27.9947 1.1668 0.0000 0.0000 0.0000
# 3 11.5115 1.1668 82.1093 0.0000 0.0000 0.0000
# 4 0.0000 0.0000 0.0000 8.3735 0.0000 0.0000
# 5 0.0000 0.0000 0.0000 0.0000 -566.6635 0.0000
# 6 0.0000 0.0000 0.0000 0.0000 0.0000 18.7517
#
#
#
# Elastic Compliance Matrix: (Units=1/GPa)
#
#
# Indices 1 2 3 4 5 6 
#
# 1 0.010225 -0.005846 -0.001350 0.000000 0.000000 0.000000
# 2 -0.005846 0.039085 0.000264 0.000000 0.000000 0.000000
# 3 -0.001350 0.000264 0.012364 0.000000 0.000000 0.000000
# 4 0.000000 0.000000 0.000000 0.119425 0.000000 0.000000
# 5 0.000000 0.000000 0.000000 0.000000 -0.001765 0.000000
# 6 0.000000 0.000000 0.000000 0.000000 0.000000 0.053328
#
#
# Mechanical properties :
#
#
# Convention : Reuss Voigt Hill
#
# Bulk Modulus (GPa) = 20.91629 30.70417 25.81023
# Shear Modulus (GPa) = 19.05023 -95.25271 -38.10124
#
# Velocity S-wave (km/s) = 3.15884 -7.06344 -4.46732
# Velocity P-wave (km/s) = 4.92545 7.10215 3.61804
#
# Compressibility (1/GPa) = 0.04780962
#
# Stress axis : x y z
#
# Youngs Moduli (GPa) = 97.79871 25.58551 80.87690
#
# Poissons Ratio (x) = 0.14957 0.10922
# Poissons Ratio (y) = 0.57173 -0.02137
# Poissons Ratio (z) = 0.13207 -0.00676
#
# Static dielectric constant tensor:
#      x y z
#    x 1.668200 0.000000 0.000000 
#    y 0.000000 1.674810 0.000000 
#    z 0.000000 0.000000 1.651440 
# 
# From -- ./inp_files/9399.got.cif
#   From: 2010.05.17/outbox.cif.g08.bks.cpg/sg39_5_cif.got.tgz:9399.got - 2010.06.03 18:22:40.
