data_PCOD9361966
_publ_section_title
;
Structure prediction by ZEFSAII (Michael W. Deem and Ramdas Pophale) SiO2 
 PCOD9361966
Probable space group: A B M 2
;
_chemical_formula_sum "Si O2"
_cell_formula_units_Z 40
_cell_length_a 8.139540
_cell_length_b 17.491689
_cell_length_c 12.220303
_cell_angle_alpha 90.000000
_cell_angle_beta 90.000000
_cell_angle_gamma 90.000000
_cell_volume 1739.857113
_symmetry_space_group_name_H-M "A B M 2"
_symmetry_group_IT_number 39
_symmetry_cell_setting 'orthorhombic'
loop_
_space_group_symop_operation_xyz
x,y,z
-x,-y,z
-x,1/2+y,z
x,1/2-y,z
x,1/2+y,1/2+z
-x,1/2-y,1/2+z
-x,y,1/2+z
x,-y,1/2+z
loop_
_atom_site_type_symbol
_atom_site_label
_atom_site_fract_x
_atom_site_fract_y
_atom_site_fract_z
Si Si1 0.615988 0.575250 0.088720
Si Si2 0.180267 0.963492 0.403559
Si Si3 0.686700 0.880638 0.483299
Si Si4 0.835553 0.159369 0.217636
Si Si5 0.778005 0.168697 0.758715
O O1 0.500000 0.500000 0.101002
O O2 0.660898 0.606225 0.206300
O O3 0.788853 0.572335 0.023447
O O4 0.501188 0.630528 0.016650
O O5 0.222607 0.902174 0.309769
O O6 0.296187 0.036523 0.424591
O O7 0.000000 0.000000 0.386332
O O8 0.782072 0.870464 0.597890
O O9 0.759845 0.829391 0.388754
O O10 0.786748 0.250000 0.231113
O O11 0.032280 0.156755 0.230197
O O12 0.725835 0.250000 0.711163
#
# Coordination Sequence:
#
# PCOD9361966 Si02
#       5
#     8   8   8   8   8
#     4  10  26  44  71 102 144 186 239 297 359 430
#     4  11  23  44  75 103 139 190 243 293 357 427
#     4  11  25  45  72 104 147 187 240 294 363 429
#     4  11  26  47  73 106 146 189 242 302 363 431
#     4  11  25  45  71 102 142 189 240 296 363 436
#
# _framework density 22.990394999999999
#
# number of rings (size 3 to 8) (size 9 to 14) (size 15 to 20)
#    0.000    1.200    2.000    1.800    8.400    4.000 
#    0.000    0.000    0.000    0.000    0.000    0.000 
#    0.000    0.000    0.000    0.000    0.000    0.000 
#
# Total GULP energy -111475.562063 kJ/mol
# GULP energy per Si atom -5573.778103 kJ/mol
# Density = 2.293807 g / cm^3
# Si number density = 22.990395 Si / 1000 Ang^3
#
#
#
# Elastic Constant Matrix: (Units=GPa)
#
#
# Indices 1 2 3 4 5 6 
#
# 1 39.0245 32.1269 46.1151 0.0000 0.0000 0.0000
# 2 32.1269 126.1602 82.8590 0.0000 0.0000 0.0000
# 3 46.1151 82.8590 171.1132 0.0000 0.0000 0.0000
# 4 0.0000 0.0000 0.0000 -1.6552 0.0000 0.0000
# 5 0.0000 0.0000 0.0000 0.0000 16.8508 0.0000
# 6 0.0000 0.0000 0.0000 0.0000 0.0000 -4.8247
#
#
#
# Elastic Compliance Matrix: (Units=1/GPa)
#
#
# Indices 1 2 3 4 5 6 
#
# 1 0.039245 -0.004469 -0.008413 0.000000 0.000000 0.000000
# 2 -0.004469 0.012132 -0.004670 0.000000 0.000000 0.000000
# 3 -0.008413 -0.004670 0.010373 0.000000 0.000000 0.000000
# 4 0.000000 0.000000 0.000000 -0.604171 0.000000 0.000000
# 5 0.000000 0.000000 0.000000 0.000000 0.059344 0.000000
# 6 0.000000 0.000000 0.000000 0.000000 0.000000 -0.207267
#
#
# Mechanical properties :
#
#
# Convention : Reuss Voigt Hill
#
# Bulk Modulus (GPa) = 37.52856 73.16665 55.34760
# Shear Modulus (GPa) = -7.73563 13.75400 3.00918
#
# Velocity S-wave (km/s) = -1.83631 2.44857 1.14531
# Velocity P-wave (km/s) = 3.44427 6.31569 5.08679
#
# Compressibility (1/GPa) = 0.02664638
#
# Stress axis : x y z
#
# Youngs Moduli (GPa) = 25.48102 82.42863 96.40552
#
# Poissons Ratio (x) = 0.36833 0.81103
# Poissons Ratio (y) = 0.11386 0.45025
# Poissons Ratio (z) = 0.21436 0.38497
#
# Static dielectric constant tensor:
#      x y z
#    x 1.850310 0.000000 0.000000 
#    y 0.000000 2.113850 0.000000 
#    z 0.000000 0.000000 1.862310 
# 
# From -- ./inp_files/4920.got.cif
#   From: 2010.05.17/outbox.cif.g08.bks.cpg/sg39_3_cif.got.tgz:4920.got - 2010.06.03 18:22:40.
