data_PCOD9361105
_publ_section_title
;
Structure prediction by ZEFSAII (Michael W. Deem and Ramdas Pophale) SiO2 
 PCOD9361105
Probable space group: A B M 2
;
_chemical_formula_sum "Si O2"
_cell_formula_units_Z 64
_cell_length_a 18.078013
_cell_length_b 15.558462
_cell_length_c 10.568406
_cell_angle_alpha 90.000000
_cell_angle_beta 90.000000
_cell_angle_gamma 90.000000
_cell_volume 2972.534109
_symmetry_space_group_name_H-M "A B M 2"
_symmetry_group_IT_number 39
_symmetry_cell_setting 'orthorhombic'
loop_
_space_group_symop_operation_xyz
x,y,z
-x,-y,z
-x,1/2+y,z
x,1/2-y,z
x,1/2+y,1/2+z
-x,1/2-y,1/2+z
-x,y,1/2+z
x,-y,1/2+z
loop_
_atom_site_type_symbol
_atom_site_label
_atom_site_fract_x
_atom_site_fract_y
_atom_site_fract_z
Si Si1 0.366771 0.151328 0.847230
Si Si2 0.787312 0.348185 0.399931
Si Si3 0.945560 0.849276 0.878812
Si Si4 0.202721 0.150768 0.595956
Si Si5 0.353858 0.650803 0.950309
Si Si6 0.956409 0.412441 0.095020
Si Si7 0.515960 0.344432 0.566912
Si Si8 0.577514 0.520469 0.265475
O O1 0.354238 0.250000 0.796706
O O2 0.295400 0.122542 0.930960
O O3 0.383910 0.072310 0.754327
O O4 0.435986 0.158734 0.939918
O O5 0.789535 0.250000 0.447578
O O6 0.867162 0.387818 0.429308
O O7 0.784661 0.351105 0.246735
O O8 0.929896 0.750000 0.847202
O O9 0.967102 0.889186 0.743502
O O10 0.005177 0.853037 0.989494
O O11 0.182993 0.250000 0.564152
O O12 0.278756 0.129875 0.525478
O O13 0.131457 0.092019 0.570528
O O14 0.346622 0.750000 0.905816
O O15 0.367753 0.582241 0.840876
O O16 0.430396 0.648234 0.029006
O O17 0.000000 0.500000 0.073365
O O18 0.524879 0.250000 0.632214
O O19 0.547910 0.422755 0.648651
O O20 0.500000 0.500000 0.337501
#
# Coordination Sequence:
#
# PCOD9361105 Si02
#       8
#     8   8   8   8   8   8   8   8
#     4  10  22  41  61  85 122 164 209 259 312 372
#     4   8  17  35  60  88 115 160 211 252 300 374
#     4  10  20  39  65  91 125 167 215 258 314 391
#     4   9  19  37  63  92 125 165 213 255 312 393
#     4  10  22  41  63  88 120 163 211 263 317 375
#     4  11  22  38  63  96 130 163 204 266 325 386
#     4  10  23  41  61  86 117 157 206 264 318 368
#     4  12  25  36  61  86 122 154 209 261 317 371
#
# _framework density 21.530452
#
# number of rings (size 3 to 8) (size 9 to 14) (size 15 to 20)
#    0.000    2.000    1.250    2.625    3.500    1.500 
#    0.000    2.500    0.000    4.500    0.000    0.000 
#    0.000    0.000    0.000    0.000    0.000    0.000 
#
# Total GULP energy -178351.156868 kJ/mol
# GULP energy per Si atom -5573.473652 kJ/mol
# Density = 2.148145 g / cm^3
# Si number density = 21.530452 Si / 1000 Ang^3
#
#
#
# Elastic Constant Matrix: (Units=GPa)
#
#
# Indices 1 2 3 4 5 6 
#
# 1 146.2504 34.1274 25.7487 0.0000 0.0000 0.0000
# 2 34.1274 121.4549 29.2047 0.0000 0.0000 0.0000
# 3 25.7487 29.2047 27.6060 0.0000 0.0000 0.0000
# 4 0.0000 0.0000 0.0000 28.6530 0.0000 0.0000
# 5 0.0000 0.0000 0.0000 0.0000 29.6948 0.0000
# 6 0.0000 0.0000 0.0000 0.0000 0.0000 18.6300
#
#
#
# Elastic Compliance Matrix: (Units=1/GPa)
#
#
# Indices 1 2 3 4 5 6 
#
# 1 0.008216 -0.000625 -0.007002 0.000000 0.000000 0.000000
# 2 -0.000625 0.011090 -0.011149 0.000000 0.000000 0.000000
# 3 -0.007002 -0.011149 0.054550 0.000000 0.000000 0.000000
# 4 0.000000 0.000000 0.000000 0.034900 0.000000 0.000000
# 5 0.000000 0.000000 0.000000 0.000000 0.033676 0.000000
# 6 0.000000 0.000000 0.000000 0.000000 0.000000 0.053677
#
#
# Mechanical properties :
#
#
# Convention : Reuss Voigt Hill
#
# Bulk Modulus (GPa) = 27.54577 52.60811 40.07694
# Shear Modulus (GPa) = 20.34471 29.14427 24.74449
#
# Velocity S-wave (km/s) = 3.07730 3.68316 3.39378
# Velocity P-wave (km/s) = 5.04460 6.52495 5.83193
#
# Compressibility (1/GPa) = 0.03630322
#
# Stress axis : x y z
#
# Youngs Moduli (GPa) = 121.71030 90.17093 18.33172
#
# Poissons Ratio (x) = 0.05635 0.12837
# Poissons Ratio (y) = 0.07606 0.20439
# Poissons Ratio (z) = 0.85226 1.00535
#
# Static dielectric constant tensor:
#      x y z
#    x 1.832100 0.000000 0.000000 
#    y 0.000000 1.857810 0.000000 
#    z 0.000000 0.000000 1.771940 
# 
# From -- ./inp_files/6892.got.cif
#   From: 2010.05.17/outbox.cif.g08.bks.cpg/sg39_4_cif.got.tgz:6892.got - 2010.06.03 18:22:40.
