data_PCOD9361649
_publ_section_title
;
Structure prediction by ZEFSAII (Michael W. Deem and Ramdas Pophale) SiO2 
 PCOD9361649
Probable space group: A B M 2
;
_chemical_formula_sum "Si O2"
_cell_formula_units_Z 36
_cell_length_a 5.287331
_cell_length_b 13.405396
_cell_length_c 22.043845
_cell_angle_alpha 90.000000
_cell_angle_beta 90.000000
_cell_angle_gamma 90.000000
_cell_volume 1562.440528
_symmetry_space_group_name_H-M "A B M 2"
_symmetry_group_IT_number 39
_symmetry_cell_setting 'orthorhombic'
loop_
_space_group_symop_operation_xyz
x,y,z
-x,-y,z
-x,1/2+y,z
x,1/2-y,z
x,1/2+y,1/2+z
-x,1/2-y,1/2+z
-x,y,1/2+z
x,-y,1/2+z
loop_
_atom_site_type_symbol
_atom_site_label
_atom_site_fract_x
_atom_site_fract_y
_atom_site_fract_z
Si Si1 0.831614 0.629294 0.973700
Si Si2 0.831614 0.129294 0.611034
Si Si3 0.500000 0.000000 0.792367
Si Si4 0.327506 0.130519 0.398000
Si Si5 0.327506 0.869481 0.186734
O O1 0.836274 0.750000 0.977947
O O2 0.587852 0.607000 0.933140
O O3 0.092172 0.602903 0.940485
O O4 0.810008 0.590747 0.042367
O O5 0.836274 0.250000 0.606787
O O6 0.587852 0.107000 0.651593
O O7 0.092172 0.102903 0.644248
O O8 0.666360 0.070682 0.835479
O O9 0.333640 0.070682 0.749255
O O10 0.318095 0.250000 0.387059
O O11 0.318095 0.750000 0.197675
#
# Coordination Sequence:
#
# PCOD9361649 Si02
#       5
#     8   8   4   8   8
#     4   9  18  37  64  90 116 148 189 241 299 348
#     4   9  18  37  64  90 116 148 189 241 299 348
#     4  12  26  42  58  84 120 162 202 236 276 340
#     4  10  22  39  61  87 117 154 193 238 288 342
#     4  10  22  39  61  87 117 154 193 238 288 342
#
# _framework density 23.040877999999999
#
# number of rings (size 3 to 8) (size 9 to 14) (size 15 to 20)
#    0.000    2.222    0.000    2.000    0.000   10.667 
#    0.000   13.333    0.000    0.000    0.000    0.000 
#    0.000    0.000    0.000    0.000    0.000    0.000 
#
# Total GULP energy -100844.445811 kJ/mol
# GULP energy per Si atom -5602.469212 kJ/mol
# Density = 2.298844 g / cm^3
# Si number density = 23.040878 Si / 1000 Ang^3
#
#
#
# Elastic Constant Matrix: (Units=GPa)
#
#
# Indices 1 2 3 4 5 6 
#
# 1 182.5052 34.4420 90.1789 0.0000 0.0000 0.0000
# 2 34.4420 105.4170 57.2691 0.0000 0.0000 0.0000
# 3 90.1789 57.2691 200.9490 0.0000 0.0000 0.0000
# 4 0.0000 0.0000 0.0000 42.2683 0.0000 0.0000
# 5 0.0000 0.0000 0.0000 0.0000 19.8499 0.0000
# 6 0.0000 0.0000 0.0000 0.0000 0.0000 30.8567
#
#
#
# Elastic Compliance Matrix: (Units=1/GPa)
#
#
# Indices 1 2 3 4 5 6 
#
# 1 0.007083 -0.000695 -0.002981 0.000000 0.000000 0.000000
# 2 -0.000695 0.011292 -0.002906 0.000000 0.000000 0.000000
# 3 -0.002981 -0.002906 0.007142 0.000000 0.000000 0.000000
# 4 0.000000 0.000000 0.000000 0.023658 0.000000 0.000000
# 5 0.000000 0.000000 0.000000 0.000000 0.050378 0.000000
# 6 0.000000 0.000000 0.000000 0.000000 0.000000 0.032408
#
#
# Mechanical properties :
#
#
# Convention : Reuss Voigt Hill
#
# Bulk Modulus (GPa) = 80.94696 94.73902 87.84299
# Shear Modulus (GPa) = 33.50227 39.06040 36.28133
#
# Velocity S-wave (km/s) = 3.81732 4.12183 3.97249
# Velocity P-wave (km/s) = 7.39171 7.99122 7.69731
#
# Compressibility (1/GPa) = 0.01235377
#
# Stress axis : x y z
#
# Youngs Moduli (GPa) = 141.17838 88.55771 140.01160
#
# Poissons Ratio (x) = 0.06155 0.41732
# Poissons Ratio (y) = 0.09812 0.40691
# Poissons Ratio (z) = 0.42080 0.25737
#
# Static dielectric constant tensor:
#      x y z
#    x 1.799670 0.000000 0.000000 
#    y 0.000000 1.933180 0.000000 
#    z 0.000000 0.000000 1.812670 
# 
# From -- ./inp_files/7346.got.cif
#   From: 2010.05.17/outbox.cif.g08.bks.cpg/sg39_4_cif.got.tgz:7346.got - 2010.06.03 18:22:40.
