data_PCOD9361679
_publ_section_title
;
Structure prediction by ZEFSAII (Michael W. Deem and Ramdas Pophale) SiO2 
 PCOD9361679
Probable space group: A B M 2
;
_chemical_formula_sum "Si O2"
_cell_formula_units_Z 56
_cell_length_a 14.793897
_cell_length_b 20.588574
_cell_length_c 8.572128
_cell_angle_alpha 90.000000
_cell_angle_beta 90.000000
_cell_angle_gamma 90.000000
_cell_volume 2610.943691
_symmetry_space_group_name_H-M "A B M 2"
_symmetry_group_IT_number 39
_symmetry_cell_setting 'orthorhombic'
loop_
_space_group_symop_operation_xyz
x,y,z
-x,-y,z
-x,1/2+y,z
x,1/2-y,z
x,1/2+y,1/2+z
-x,1/2-y,1/2+z
-x,y,1/2+z
x,-y,1/2+z
loop_
_atom_site_type_symbol
_atom_site_label
_atom_site_fract_x
_atom_site_fract_y
_atom_site_fract_z
Si Si1 0.060233 0.824880 0.143470
Si Si2 0.130523 0.174385 0.997627
Si Si3 0.199050 0.918751 0.998904
Si Si4 0.775042 0.448558 0.634442
Si Si5 0.499917 0.641602 0.325455
Si Si6 0.642518 0.820335 0.584695
Si Si7 0.572905 0.946504 0.076222
O O1 0.077980 0.750000 0.102636
O O2 0.093110 0.834652 0.321460
O O3 0.116213 0.870639 0.029476
O O4 0.953751 0.834370 0.115651
O O5 0.162805 0.250000 0.010160
O O6 0.199383 0.116882 0.040669
O O7 0.216462 0.933891 0.817437
O O8 0.286773 0.879154 0.065571
O O9 0.173381 0.986180 0.084598
O O10 0.673861 0.469599 0.588063
O O11 0.565981 0.674892 0.449495
O O12 0.455514 0.579875 0.409369
O O13 0.416039 0.676658 0.243342
O O14 0.563739 0.614877 0.189715
O O15 0.688790 0.750000 0.574329
O O16 0.500000 0.000000 0.119680
#
# Coordination Sequence:
#
# PCOD9361679 Si02
#       7
#     8   8   8   8   8   8   8
#     4  10  22  45  74 105 140 179 223 276 348 427
#     4  10  23  45  75 106 139 179 223 281 350 419
#     4  12  26  42  65  98 136 181 229 285 347 409
#     4  12  26  43  65 101 137 176 236 290 337 417
#     4  10  22  40  60  91 122 169 230 281 344 405
#     4  11  23  42  64  92 131 176 227 287 347 411
#     4  11  23  39  65  91 131 181 225 283 342 404
#
# _framework density 21.448181999999999
#
# number of rings (size 3 to 8) (size 9 to 14) (size 15 to 20)
#    0.000    1.143    1.429    4.714    6.000    2.857 
#    0.000    3.571    0.000    0.000    0.000    0.000 
#    0.000    0.000    0.000    0.000    0.000    0.000 
#
# Total GULP energy -156397.369270 kJ/mol
# GULP energy per Si atom -5585.620331 kJ/mol
# Density = 2.139936 g / cm^3
# Si number density = 21.448182 Si / 1000 Ang^3
#
#
#
# Elastic Constant Matrix: (Units=GPa)
#
#
# Indices 1 2 3 4 5 6 
#
# 1 55.8583 35.2425 3.8040 0.0000 0.0000 0.0000
# 2 35.2425 122.1639 25.9543 0.0000 0.0000 0.0000
# 3 3.8040 25.9543 47.2017 0.0000 0.0000 0.0000
# 4 0.0000 0.0000 0.0000 25.5652 0.0000 0.0000
# 5 0.0000 0.0000 0.0000 0.0000 20.5477 0.0000
# 6 0.0000 0.0000 0.0000 0.0000 0.0000 32.4810
#
#
#
# Elastic Compliance Matrix: (Units=1/GPa)
#
#
# Indices 1 2 3 4 5 6 
#
# 1 0.022043 -0.006773 0.001948 0.000000 0.000000 0.000000
# 2 -0.006773 0.011349 -0.005695 0.000000 0.000000 0.000000
# 3 0.001948 -0.005695 0.024160 0.000000 0.000000 0.000000
# 4 0.000000 0.000000 0.000000 0.039116 0.000000 0.000000
# 5 0.000000 0.000000 0.000000 0.000000 0.048667 0.000000
# 6 0.000000 0.000000 0.000000 0.000000 0.000000 0.030787
#
#
# Mechanical properties :
#
#
# Convention : Reuss Voigt Hill
#
# Bulk Modulus (GPa) = 27.38783 39.46950 33.42866
# Shear Modulus (GPa) = 23.88534 26.40033 25.14284
#
# Velocity S-wave (km/s) = 3.34073 3.51221 3.42754
# Velocity P-wave (km/s) = 5.26096 5.90675 5.59318
#
# Compressibility (1/GPa) = 0.03651257
#
# Stress axis : x y z
#
# Youngs Moduli (GPa) = 45.36591 88.10972 41.39060
#
# Poissons Ratio (x) = 0.59676 -0.08062
# Poissons Ratio (y) = 0.30726 0.23571
# Poissons Ratio (z) = -0.08836 0.50177
#
# Static dielectric constant tensor:
#      x y z
#    x 1.822830 0.000000 0.000000 
#    y 0.000000 1.813600 0.000000 
#    z 0.000000 0.000000 1.773030 
# 
# From -- ./inp_files/3393.got.cif
#   From: 2010.05.17/outbox.cif.g08.bks.cpg/sg39_2_cif.got.tgz:3393.got - 2010.06.03 18:22:40.
