data_PCOD9361244
_publ_section_title
;
Structure prediction by ZEFSAII (Michael W. Deem and Ramdas Pophale) SiO2 
 PCOD9361244
Probable space group: A B M 2
;
_chemical_formula_sum "Si O2"
_cell_formula_units_Z 48
_cell_length_a 8.285567
_cell_length_b 10.351419
_cell_length_c 29.058402
_cell_angle_alpha 90.000000
_cell_angle_beta 90.000000
_cell_angle_gamma 90.000000
_cell_volume 2492.262881
_symmetry_space_group_name_H-M "A B M 2"
_symmetry_group_IT_number 39
_symmetry_cell_setting 'orthorhombic'
loop_
_space_group_symop_operation_xyz
x,y,z
-x,-y,z
-x,1/2+y,z
x,1/2-y,z
x,1/2+y,1/2+z
-x,1/2-y,1/2+z
-x,y,1/2+z
x,-y,1/2+z
loop_
_atom_site_type_symbol
_atom_site_label
_atom_site_fract_x
_atom_site_fract_y
_atom_site_fract_z
Si Si1 0.176570 0.250000 0.036901
Si Si2 0.646381 0.899639 0.394722
Si Si3 0.797062 0.250000 0.157278
Si Si4 0.803093 0.011795 0.704911
Si Si5 0.190195 0.250000 0.142864
Si Si6 0.207445 0.750000 0.051853
Si Si7 0.307083 0.009528 0.491354
Si Si8 0.854041 0.600512 0.302251
O O1 0.239884 0.250000 0.089599
O O2 0.985190 0.250000 0.044981
O O3 0.231683 0.376560 0.009245
O O4 0.593705 0.750000 0.402998
O O5 0.743490 0.947103 0.439951
O O6 0.749870 0.901470 0.348385
O O7 0.500000 0.000000 0.388994
O O8 0.746497 0.375174 0.185862
O O9 0.739009 0.250000 0.104831
O O10 0.993594 0.250000 0.149866
O O11 0.754131 0.122522 0.669313
O O12 0.759824 0.053245 0.756592
O O13 0.000000 0.000000 0.705343
O O14 0.267475 0.622290 0.026776
O O15 0.500000 0.000000 0.489152
O O16 0.907594 0.750000 0.293875
O O17 0.000000 0.500000 0.308014
#
# Coordination Sequence:
#
# PCOD9361244 Si02
#       8
#     4   8   4   8   4   4   8   8
#     4  11  23  35  62  93 118 156 201 249 300 335
#     4  10  23  43  63  83 111 155 200 237 287 360
#     4   9  18  29  52  81 116 150 189 237 290 343
#     4   9  16  29  50  80 116 151 183 230 289 348
#     4   9  16  31  50  81 114 150 187 231 286 347
#     4  11  21  39  60  91 124 150 203 259 290 343
#     4  11  23  41  61  85 118 164 200 239 299 368
#     4  10  21  36  58  91 121 147 189 246 295 339
#
# _framework density 19.259606000000002
#
# number of rings (size 3 to 8) (size 9 to 14) (size 15 to 20)
#    0.000    2.000    1.667    2.000    7.000    4.667 
#    0.000    0.000    0.000    6.000    0.000    0.000 
#    0.000    0.000    0.000    0.000    0.000    0.000 
#
# Total GULP energy -133917.391770 kJ/mol
# GULP energy per Si atom -5579.891324 kJ/mol
# Density = 1.921577 g / cm^3
# Si number density = 19.259606 Si / 1000 Ang^3
#
#
#
# Elastic Constant Matrix: (Units=GPa)
#
#
# Indices 1 2 3 4 5 6 
#
# 1 17.8170 20.9528 19.5900 0.0000 0.0000 0.0000
# 2 20.9528 205.9148 98.6264 0.0000 0.0000 0.0000
# 3 19.5900 98.6264 174.7201 0.0000 0.0000 0.0000
# 4 0.0000 0.0000 0.0000 46.4891 0.0000 0.0000
# 5 0.0000 0.0000 0.0000 0.0000 52.2147 0.0000
# 6 0.0000 0.0000 0.0000 0.0000 0.0000 23.7723
#
#
#
# Elastic Compliance Matrix: (Units=1/GPa)
#
#
# Indices 1 2 3 4 5 6 
#
# 1 0.066805 -0.004400 -0.005007 0.000000 0.000000 0.000000
# 2 -0.004400 0.006946 -0.003427 0.000000 0.000000 0.000000
# 3 -0.005007 -0.003427 0.008220 0.000000 0.000000 0.000000
# 4 0.000000 0.000000 0.000000 0.021510 0.000000 0.000000
# 5 0.000000 0.000000 0.000000 0.000000 0.019152 0.000000
# 6 0.000000 0.000000 0.000000 0.000000 0.000000 0.042066
#
#
# Mechanical properties :
#
#
# Convention : Reuss Voigt Hill
#
# Bulk Modulus (GPa) = 17.76111 75.19892 46.48002
# Shear Modulus (GPa) = 23.90814 41.78073 32.84443
#
# Velocity S-wave (km/s) = 3.52712 4.66268 4.13407
# Velocity P-wave (km/s) = 5.08226 8.25331 6.85370
#
# Compressibility (1/GPa) = 0.05630278
#
# Stress axis : x y z
#
# Youngs Moduli (GPa) = 14.96886 143.97433 121.66138
#
# Poissons Ratio (x) = 0.63344 0.60914
# Poissons Ratio (y) = 0.06586 0.41698
# Poissons Ratio (z) = 0.07495 0.49346
#
# Static dielectric constant tensor:
#      x y z
#    x 1.673530 0.000000 0.000000 
#    y 0.000000 1.647180 0.000000 
#    z 0.000000 0.000000 1.683210 
# 
# From -- ./inp_files/17689.got.cif
#   From: 2010.05.17/outbox.cif.g08.bks.cpg/sg39_9_cif.got.tgz:17689.got - 2010.06.03 18:22:40.
