data_PCOD9361004
_publ_section_title
;
Structure prediction by ZEFSAII (Michael W. Deem and Ramdas Pophale) SiO2 
 PCOD9361004
Probable space group: A B M 2
;
_chemical_formula_sum "Si O2"
_cell_formula_units_Z 48
_cell_length_a 7.960662
_cell_length_b 16.824462
_cell_length_c 16.899686
_cell_angle_alpha 90.000000
_cell_angle_beta 90.000000
_cell_angle_gamma 90.000000
_cell_volume 2263.440100
_symmetry_space_group_name_H-M "A B M 2"
_symmetry_group_IT_number 39
_symmetry_cell_setting 'orthorhombic'
loop_
_space_group_symop_operation_xyz
x,y,z
-x,-y,z
-x,1/2+y,z
x,1/2-y,z
x,1/2+y,1/2+z
-x,1/2-y,1/2+z
-x,y,1/2+z
x,-y,1/2+z
loop_
_atom_site_type_symbol
_atom_site_label
_atom_site_fract_x
_atom_site_fract_y
_atom_site_fract_z
Si Si1 0.692545 0.343472 0.719460
Si Si2 0.661929 0.446001 0.027736
Si Si3 0.894053 0.067809 0.591364
Si Si4 0.015910 0.905415 0.306351
Si Si5 0.682656 0.345593 0.192453
Si Si6 0.087851 0.157331 0.464157
O O1 0.710634 0.250000 0.703658
O O2 0.749618 0.393030 0.642679
O O3 0.496581 0.357659 0.736778
O O4 0.835739 0.369350 0.780322
O O5 0.500000 0.500000 0.015642
O O6 0.809323 0.511257 0.027498
O O7 0.662101 0.398438 0.112077
O O8 0.727903 0.383176 0.963910
O O9 0.005582 0.133526 0.548736
O O10 0.000000 0.000000 0.638316
O O11 0.161145 0.874357 0.246521
O O12 0.033824 0.873407 0.395309
O O13 0.000000 0.000000 0.309070
O O14 0.700092 0.250000 0.175556
O O15 0.106193 0.250000 0.457604
#
# Coordination Sequence:
#
# PCOD9361004 Si02
#       6
#     8   8   8   8   8   8
#     4  11  22  39  64  97 130 170 221 278 336 397
#     4  11  21  40  67  97 132 167 221 279 332 397
#     4  10  20  37  64  94 126 169 223 274 336 400
#     4  12  25  43  67  93 136 178 227 277 336 402
#     4  11  24  42  68 101 132 174 224 278 339 402
#     4  11  24  44  65  93 132 179 223 274 341 407
#
# _framework density 21.206658000000001
#
# number of rings (size 3 to 8) (size 9 to 14) (size 15 to 20)
#    0.000    1.000    1.667    7.500    0.000    0.000 
#    6.000    0.000    0.000    0.000    0.000    0.000 
#    0.000    0.000    0.000    0.000    0.000    0.000 
#
# Total GULP energy -133866.157308 kJ/mol
# GULP energy per Si atom -5577.756554 kJ/mol
# Density = 2.115839 g / cm^3
# Si number density = 21.206658 Si / 1000 Ang^3
#
#
#
# Elastic Constant Matrix: (Units=GPa)
#
#
# Indices 1 2 3 4 5 6 
#
# 1 134.3973 58.7874 28.1937 0.0000 0.0000 0.0000
# 2 58.7874 161.6386 32.6121 0.0000 0.0000 0.0000
# 3 28.1937 32.6121 63.3905 0.0000 0.0000 0.0000
# 4 0.0000 0.0000 0.0000 28.7522 0.0000 0.0000
# 5 0.0000 0.0000 0.0000 0.0000 20.3466 0.0000
# 6 0.0000 0.0000 0.0000 0.0000 0.0000 38.2951
#
#
#
# Elastic Compliance Matrix: (Units=1/GPa)
#
#
# Indices 1 2 3 4 5 6 
#
# 1 0.009232 -0.002822 -0.002654 0.000000 0.000000 0.000000
# 2 -0.002822 0.007766 -0.002740 0.000000 0.000000 0.000000
# 3 -0.002654 -0.002740 0.018365 0.000000 0.000000 0.000000
# 4 0.000000 0.000000 0.000000 0.034780 0.000000 0.000000
# 5 0.000000 0.000000 0.000000 0.000000 0.049148 0.000000
# 6 0.000000 0.000000 0.000000 0.000000 0.000000 0.026113
#
#
# Mechanical properties :
#
#
# Convention : Reuss Voigt Hill
#
# Bulk Modulus (GPa) = 52.82492 66.51256 59.66874
# Shear Modulus (GPa) = 29.73590 33.46766 31.60178
#
# Velocity S-wave (km/s) = 3.74865 3.97693 3.86448
# Velocity P-wave (km/s) = 6.61061 7.24707 6.93614
#
# Compressibility (1/GPa) = 0.01893046
#
# Stress axis : x y z
#
# Youngs Moduli (GPa) = 108.32088 128.76858 54.45032
#
# Poissons Ratio (x) = 0.36340 0.14452
# Poissons Ratio (y) = 0.30569 0.14920
# Poissons Ratio (z) = 0.28750 0.35284
#
# Static dielectric constant tensor:
#      x y z
#    x 1.803110 0.000000 0.000000 
#    y 0.000000 1.751640 0.000000 
#    z 0.000000 0.000000 1.830910 
# 
# From -- ./inp_files/11622.got.cif
#   From: 2010.05.17/outbox.cif.g08.bks.cpg/sg39_6_cif.got.tgz:11622.got - 2010.06.03 18:22:40.
