data_PCOD9361568
_publ_section_title
;
Structure prediction by ZEFSAII (Michael W. Deem and Ramdas Pophale) SiO2 
 PCOD9361568
Probable space group: A B M 2
;
_chemical_formula_sum "Si O2"
_cell_formula_units_Z 64
_cell_length_a 10.523690
_cell_length_b 31.529538
_cell_length_c 9.054816
_cell_angle_alpha 90.000000
_cell_angle_beta 90.000000
_cell_angle_gamma 90.000000
_cell_volume 3004.452091
_symmetry_space_group_name_H-M "A B M 2"
_symmetry_group_IT_number 39
_symmetry_cell_setting 'orthorhombic'
loop_
_space_group_symop_operation_xyz
x,y,z
-x,-y,z
-x,1/2+y,z
x,1/2-y,z
x,1/2+y,1/2+z
-x,1/2-y,1/2+z
-x,y,1/2+z
x,-y,1/2+z
loop_
_atom_site_type_symbol
_atom_site_label
_atom_site_fract_x
_atom_site_fract_y
_atom_site_fract_z
Si Si1 0.616174 0.914774 0.644570
Si Si2 0.399678 0.152961 0.130601
Si Si3 0.249278 0.089773 0.960871
Si Si4 0.280543 0.001039 0.602270
Si Si5 0.609689 0.200032 0.943299
Si Si6 0.000516 0.386353 0.305783
Si Si7 0.877837 0.971332 0.351340
Si Si8 0.824809 0.646290 0.540618
O O1 0.487559 0.888812 0.643895
O O2 0.672521 0.909053 0.808141
O O3 0.718174 0.891039 0.539231
O O4 0.609565 0.963855 0.599955
O O5 0.379181 0.175195 0.287517
O O6 0.277563 0.132655 0.052397
O O7 0.482522 0.183896 0.026121
O O8 0.102166 0.091678 0.915031
O O9 0.287910 0.045631 0.035524
O O10 0.241030 0.992695 0.770152
O O11 0.162087 0.025478 0.522296
O O12 0.604651 0.250000 0.919152
O O13 0.732807 0.186975 0.041783
O O14 0.919073 0.364843 0.176209
O O15 0.093467 0.426162 0.276298
O O16 0.087020 0.354000 0.396908
O O17 0.000000 0.000000 0.328401
#
# Coordination Sequence:
#
# PCOD9361568 Si02
#       8
#     8   8   8   8   8   8   8   8
#     4  10  21  43  58  95 134 173 229 286 318 382
#     4  11  24  45  74  96 130 170 218 278 350 407
#     4  11  23  39  61  94 134 178 229 271 328 386
#     4  12  22  35  57  90 132 179 232 276 316 362
#     4  11  25  48  77 103 126 159 217 282 344 422
#     4  11  22  39  62  95 137 180 220 267 326 389
#     4  12  22  33  55  89 127 176 231 275 304 365
#     4  10  23  39  67  97 133 173 214 263 335 395
#
# _framework density 21.301718999999999
#
# number of rings (size 3 to 8) (size 9 to 14) (size 15 to 20)
#    0.000    1.000    5.000    2.250    3.500    0.500 
#    0.000    1.875    0.000    0.000    0.000    0.000 
#    0.000    0.000    0.000    0.000    0.000    0.000 
#
# Total GULP energy -178713.973526 kJ/mol
# GULP energy per Si atom -5584.811673 kJ/mol
# Density = 2.125324 g / cm^3
# Si number density = 21.301719 Si / 1000 Ang^3
#
#
#
# Elastic Constant Matrix: (Units=GPa)
#
#
# Indices 1 2 3 4 5 6 
#
# 1 47.6109 36.0899 12.3523 0.0000 0.0000 0.0000
# 2 36.0899 121.7531 34.5223 0.0000 0.0000 0.0000
# 3 12.3523 34.5223 72.5239 0.0000 0.0000 0.0000
# 4 0.0000 0.0000 0.0000 23.1980 0.0000 0.0000
# 5 0.0000 0.0000 0.0000 0.0000 23.2269 0.0000
# 6 0.0000 0.0000 0.0000 0.0000 0.0000 20.6128
#
#
#
# Elastic Compliance Matrix: (Units=1/GPa)
#
#
# Indices 1 2 3 4 5 6 
#
# 1 0.027143 -0.007786 -0.000917 0.000000 0.000000 0.000000
# 2 -0.007786 0.011728 -0.004257 0.000000 0.000000 0.000000
# 3 -0.000917 -0.004257 0.015971 0.000000 0.000000 0.000000
# 4 0.000000 0.000000 0.000000 0.043107 0.000000 0.000000
# 5 0.000000 0.000000 0.000000 0.000000 0.043054 0.000000
# 6 0.000000 0.000000 0.000000 0.000000 0.000000 0.048514
#
#
# Mechanical properties :
#
#
# Convention : Reuss Voigt Hill
#
# Bulk Modulus (GPa) = 34.57384 45.31299 39.94341
# Shear Modulus (GPa) = 22.21466 24.00243 23.10854
#
# Velocity S-wave (km/s) = 3.23283 3.36040 3.29723
# Velocity P-wave (km/s) = 5.49552 6.03113 5.76954
#
# Compressibility (1/GPa) = 0.02892360
#
# Stress axis : x y z
#
# Youngs Moduli (GPa) = 36.84158 85.26503 62.61370
#
# Poissons Ratio (x) = 0.66385 0.05741
# Poissons Ratio (y) = 0.28684 0.26653
# Poissons Ratio (z) = 0.03378 0.36294
#
# Static dielectric constant tensor:
#      x y z
#    x 1.809360 0.000000 0.000000 
#    y 0.000000 1.750210 0.000000 
#    z 0.000000 0.000000 1.808830 
# 
# From -- ./inp_files/2923.got.cif
#   From: 2010.05.17/outbox.cif.g08.bks.cpg/sg39_2_cif.got.tgz:2923.got - 2010.06.03 18:22:40.
