data_PCOD9361096
_publ_section_title
;
Structure prediction by ZEFSAII (Michael W. Deem and Ramdas Pophale) SiO2 
 PCOD9361096
Probable space group: A B M 2
;
_chemical_formula_sum "Si O2"
_cell_formula_units_Z 56
_cell_length_a 5.680750
_cell_length_b 32.719146
_cell_length_c 13.701129
_cell_angle_alpha 90.000000
_cell_angle_beta 90.000000
_cell_angle_gamma 90.000000
_cell_volume 2546.619101
_symmetry_space_group_name_H-M "A B M 2"
_symmetry_group_IT_number 39
_symmetry_cell_setting 'orthorhombic'
loop_
_space_group_symop_operation_xyz
x,y,z
-x,-y,z
-x,1/2+y,z
x,1/2-y,z
x,1/2+y,1/2+z
-x,1/2-y,1/2+z
-x,y,1/2+z
x,-y,1/2+z
loop_
_atom_site_type_symbol
_atom_site_label
_atom_site_fract_x
_atom_site_fract_y
_atom_site_fract_z
Si Si1 0.749929 0.477138 0.210890
Si Si2 0.511677 0.147725 0.993525
Si Si3 0.345789 0.203504 0.323999
Si Si4 0.807181 0.408063 0.356094
Si Si5 0.912140 0.083591 0.044475
Si Si6 0.637246 0.296663 0.145012
Si Si7 0.045066 0.854177 0.686582
O O1 0.500000 0.500000 0.193268
O O2 0.691554 0.446039 0.299956
O O3 0.825869 0.453258 0.111902
O O4 0.000000 0.500000 0.236617
O O5 0.631039 0.183231 0.928334
O O6 0.345110 0.124081 0.918301
O O7 0.690752 0.113302 0.029617
O O8 0.445463 0.175166 0.087992
O O9 0.254763 0.250000 0.326773
O O10 0.585985 0.204672 0.260864
O O11 0.200381 0.172339 0.258957
O O12 0.910369 0.382556 0.265934
O O13 0.987876 0.425301 0.437311
O O14 0.103530 0.110995 0.105548
O O15 0.633954 0.250000 0.110713
O O16 0.879950 0.320640 0.133954
#
# Coordination Sequence:
#
# PCOD9361096 Si02
#       7
#     8   8   8   8   8   8   8
#     4  11  29  52  75 111 150 179 229 295 368 446
#     4  11  22  39  65  94 127 172 240 273 342 420
#     4  11  21  35  59  90 133 178 226 290 341 393
#     4  11  23  43  72  99 131 184 226 289 350 434
#     4  10  24  43  71  99 133 183 226 285 349 428
#     4  10  21  37  56  86 129 175 221 286 341 389
#     4  10  20  39  61  91 129 175 232 278 340 418
#
# _framework density 21.989937999999999
#
# number of rings (size 3 to 8) (size 9 to 14) (size 15 to 20)
#    0.000    1.429    2.857    1.714    4.000    0.571 
#    0.000    0.000    0.000    0.000    0.000    0.000 
#    0.000    0.000    0.000    0.000    0.000    0.000 
#
# Total GULP energy -155915.111740 kJ/mol
# GULP energy per Si atom -5568.396848 kJ/mol
# Density = 2.193989 g / cm^3
# Si number density = 21.989938 Si / 1000 Ang^3
#
#
#
# Elastic Constant Matrix: (Units=GPa)
#
#
# Indices 1 2 3 4 5 6 
#
# 1 19.3693 17.2683 -8.2632 0.0000 0.0000 0.0000
# 2 17.2683 92.7423 44.7956 0.0000 0.0000 0.0000
# 3 -8.2632 44.7956 90.3554 0.0000 0.0000 0.0000
# 4 0.0000 0.0000 0.0000 28.5969 0.0000 0.0000
# 5 0.0000 0.0000 0.0000 0.0000 14.0221 0.0000
# 6 0.0000 0.0000 0.0000 0.0000 0.0000 32.7420
#
#
#
# Elastic Compliance Matrix: (Units=1/GPa)
#
#
# Indices 1 2 3 4 5 6 
#
# 1 0.082358 -0.024947 0.019900 0.000000 0.000000 0.000000
# 2 -0.024947 0.021734 -0.013057 0.000000 0.000000 0.000000
# 3 0.019900 -0.013057 0.019360 0.000000 0.000000 0.000000
# 4 0.000000 0.000000 0.000000 0.034969 0.000000 0.000000
# 5 0.000000 0.000000 0.000000 0.000000 0.071316 0.000000
# 6 0.000000 0.000000 0.000000 0.000000 0.000000 0.030542
#
#
# Mechanical properties :
#
#
# Convention : Reuss Voigt Hill
#
# Bulk Modulus (GPa) = 11.46188 34.45204 22.95696
# Shear Modulus (GPa) = 15.35777 24.98329 20.17053
#
# Velocity S-wave (km/s) = 2.64559 3.37430 3.03192
# Velocity P-wave (km/s) = 3.81521 5.55719 4.76646
#
# Compressibility (1/GPa) = 0.08724570
#
# Stress axis : x y z
#
# Youngs Moduli (GPa) = 12.14207 46.01089 51.65202
#
# Poissons Ratio (x) = 1.14782 -1.02786
# Poissons Ratio (y) = 0.30290 0.67440
# Poissons Ratio (z) = -0.24162 0.60074
#
# Static dielectric constant tensor:
#      x y z
#    x 1.950290 0.000000 0.000000 
#    y 0.000000 1.825540 0.000000 
#    z 0.000000 0.000000 1.879630 
# 
# From -- ./inp_files/7679.got.cif
#   From: 2010.05.17/outbox.cif.g08.bks.cpg/sg39_4_cif.got.tgz:7679.got - 2010.06.03 18:22:40.
