data_PCOD9361014
_publ_section_title
;
Structure prediction by ZEFSAII (Michael W. Deem and Ramdas Pophale) SiO2 
 PCOD9361014
Probable space group: A B M 2
;
_chemical_formula_sum "Si O2"
_cell_formula_units_Z 64
_cell_length_a 13.761017
_cell_length_b 19.160868
_cell_length_c 13.104752
_cell_angle_alpha 90.000000
_cell_angle_beta 90.000000
_cell_angle_gamma 90.000000
_cell_volume 3455.369671
_symmetry_space_group_name_H-M "A B M 2"
_symmetry_group_IT_number 39
_symmetry_cell_setting 'orthorhombic'
loop_
_space_group_symop_operation_xyz
x,y,z
-x,-y,z
-x,1/2+y,z
x,1/2-y,z
x,1/2+y,1/2+z
-x,1/2-y,1/2+z
-x,y,1/2+z
x,-y,1/2+z
loop_
_atom_site_type_symbol
_atom_site_label
_atom_site_fract_x
_atom_site_fract_y
_atom_site_fract_z
Si Si1 0.922543 0.556896 0.349250
Si Si2 0.694480 0.330429 0.319405
Si Si3 0.999536 0.667541 0.002713
Si Si4 0.388832 0.478881 0.850400
Si Si5 0.238568 0.033036 0.508488
Si Si6 0.750708 0.058739 0.697173
Si Si7 0.217221 0.169582 0.045184
Si Si8 0.201177 0.830268 0.105166
O O1 0.974380 0.621931 0.403785
O O2 0.855048 0.522354 0.437350
O O3 0.843058 0.578286 0.266098
O O4 0.000000 0.500000 0.312507
O O5 0.655774 0.250000 0.312782
O O6 0.623558 0.397312 0.320614
O O7 0.749097 0.335671 0.427922
O O8 0.765341 0.339713 0.221887
O O9 0.994233 0.750000 0.977289
O O10 0.086678 0.658049 0.083966
O O11 0.895290 0.646669 0.046472
O O12 0.500000 0.500000 0.859576
O O13 0.333861 0.527061 0.766980
O O14 0.329029 0.496334 0.953651
O O15 0.253228 0.115171 0.529610
O O16 0.219201 0.001403 0.618649
O O17 0.723626 0.122798 0.624173
O O18 0.223146 0.250000 0.075404
O O19 0.222164 0.750000 0.077611
#
# Coordination Sequence:
#
# PCOD9361014 Si02
#       8
#     8   8   8   8   8   8   8   8
#     4  10  22  33  52  82 118 157 193 237 282 328
#     4  10  20  38  63  87 118 151 190 244 296 348
#     4   9  19  34  54  82 118 162 204 231 277 339
#     4  11  24  42  63  87 112 149 197 247 308 359
#     4  10  20  38  57  81 118 151 193 242 289 355
#     4  11  22  37  57  83 117 150 196 239 293 354
#     4  10  21  37  57  84 121 160 194 240 288 345
#     4   9  18  35  59  87 118 157 198 239 281 340
#
# _framework density 18.521896999999999
#
# number of rings (size 3 to 8) (size 9 to 14) (size 15 to 20)
#    0.000    2.000    2.500    0.750    1.750    4.500 
#    0.000    5.625    0.000    3.000    0.000    0.000 
#    0.000    0.000    0.000    0.000    0.000    0.000 
#
# Total GULP energy -178422.095109 kJ/mol
# GULP energy per Si atom -5575.690472 kJ/mol
# Density = 1.847974 g / cm^3
# Si number density = 18.521897 Si / 1000 Ang^3
#
#
#
# Elastic Constant Matrix: (Units=GPa)
#
#
# Indices 1 2 3 4 5 6 
#
# 1 51.1023 35.5921 5.3204 0.0000 0.0000 0.0000
# 2 35.5921 106.7827 22.5063 0.0000 0.0000 0.0000
# 3 5.3204 22.5063 51.0485 0.0000 0.0000 0.0000
# 4 0.0000 0.0000 0.0000 34.1081 0.0000 0.0000
# 5 0.0000 0.0000 0.0000 0.0000 8.0424 0.0000
# 6 0.0000 0.0000 0.0000 0.0000 0.0000 19.9090
#
#
#
# Elastic Compliance Matrix: (Units=1/GPa)
#
#
# Indices 1 2 3 4 5 6 
#
# 1 0.025552 -0.008770 0.001204 0.000000 0.000000 0.000000
# 2 -0.008770 0.013335 -0.004965 0.000000 0.000000 0.000000
# 3 0.001204 -0.004965 0.021653 0.000000 0.000000 0.000000
# 4 0.000000 0.000000 0.000000 0.029319 0.000000 0.000000
# 5 0.000000 0.000000 0.000000 0.000000 0.124341 0.000000
# 6 0.000000 0.000000 0.000000 0.000000 0.000000 0.050229
#
#
# Mechanical properties :
#
#
# Convention : Reuss Voigt Hill
#
# Bulk Modulus (GPa) = 28.18832 37.30791 32.74812
# Shear Modulus (GPa) = 16.59390 22.11287 19.35339
#
# Velocity S-wave (km/s) = 2.99642 3.45900 3.23599
# Velocity P-wave (km/s) = 5.21760 6.01159 5.62861
#
# Compressibility (1/GPa) = 0.03547568
#
# Stress axis : x y z
#
# Youngs Moduli (GPa) = 39.13624 74.99309 46.18361
#
# Poissons Ratio (x) = 0.65772 -0.05559
# Poissons Ratio (y) = 0.34324 0.22930
# Poissons Ratio (z) = -0.04711 0.37233
#
# Static dielectric constant tensor:
#      x y z
#    x 1.604390 0.000000 0.000000 
#    y 0.000000 1.695250 0.000000 
#    z 0.000000 0.000000 1.635640 
# 
# From -- ./inp_files/6621.got.cif
#   From: 2010.05.17/outbox.cif.g08.bks.cpg/sg39_4_cif.got.tgz:6621.got - 2010.06.03 18:22:40.
