data_PCOD9361879
_publ_section_title
;
Structure prediction by ZEFSAII (Michael W. Deem and Ramdas Pophale) SiO2 
 PCOD9361879
Probable space group: A B M 2
;
_chemical_formula_sum "Si O2"
_cell_formula_units_Z 32
_cell_length_a 4.867476
_cell_length_b 21.645826
_cell_length_c 12.188821
_cell_angle_alpha 90.000000
_cell_angle_beta 90.000000
_cell_angle_gamma 90.000000
_cell_volume 1284.220745
_symmetry_space_group_name_H-M "A B M 2"
_symmetry_group_IT_number 39
_symmetry_cell_setting 'orthorhombic'
loop_
_space_group_symop_operation_xyz
x,y,z
-x,-y,z
-x,1/2+y,z
x,1/2-y,z
x,1/2+y,1/2+z
-x,1/2-y,1/2+z
-x,y,1/2+z
x,-y,1/2+z
loop_
_atom_site_type_symbol
_atom_site_label
_atom_site_fract_x
_atom_site_fract_y
_atom_site_fract_z
Si Si1 0.000000 0.000000 0.581861
Si Si2 0.426411 0.623975 0.333706
Si Si3 0.353938 0.750000 0.016902
Si Si4 0.500000 0.500000 0.222929
Si Si5 0.931351 0.626338 0.468614
Si Si6 0.458484 0.750000 0.253048
O O1 0.252613 0.973744 0.651245
O O2 0.120229 0.058915 0.518328
O O3 0.368926 0.556028 0.289803
O O4 0.751521 0.626338 0.356510
O O5 0.331590 0.681508 0.260677
O O6 0.253804 0.631091 0.444985
O O7 0.557355 0.750000 0.123963
O O8 0.174054 0.812305 0.027178
O O9 0.433039 0.750000 0.884505
#
# Coordination Sequence:
#
# PCOD9361879 Si02
#       6
#     4   8   4   4   8   4
#     4  12  24  40  64  98 134 182 234 292 352 420
#     4  11  23  43  66  97 136 184 232 289 352 422
#     4  10  23  44  73 106 144 186 238 294 356 424
#     4  12  24  40  64  98 136 182 234 292 352 420
#     4  11  23  43  67  97 136 184 233 289 352 422
#     4  10  23  44  71 106 142 186 236 294 356 424
#
# _framework density 24.917832000000001
#
# number of rings (size 3 to 8) (size 9 to 14) (size 15 to 20)
#    0.000    1.000    0.000    6.750    0.000    2.000 
#    0.000   16.250    0.000    0.000    0.000    0.000 
#    0.000    0.000    0.000    0.000    0.000    0.000 
#
# Total GULP energy -89078.858547 kJ/mol
# GULP energy per Si atom -5567.428659 kJ/mol
# Density = 2.486112 g / cm^3
# Si number density = 24.917832 Si / 1000 Ang^3
#
#
#
# Elastic Constant Matrix: (Units=GPa)
#
#
# Indices 1 2 3 4 5 6 
#
# 1 72.7661 0.9055 24.0702 0.0000 0.0000 0.0000
# 2 0.9055 199.1055 56.3031 0.0000 0.0000 0.0000
# 3 24.0702 56.3031 124.1985 0.0000 0.0000 0.0000
# 4 0.0000 0.0000 0.0000 507.3042 0.0000 0.0000
# 5 0.0000 0.0000 0.0000 0.0000 18.1764 0.0000
# 6 0.0000 0.0000 0.0000 0.0000 0.0000 18.7213
#
#
#
# Elastic Compliance Matrix: (Units=1/GPa)
#
#
# Indices 1 2 3 4 5 6 
#
# 1 0.014809 0.000854 -0.003257 0.000000 0.000000 0.000000
# 2 0.000854 0.005810 -0.002799 0.000000 0.000000 0.000000
# 3 -0.003257 -0.002799 0.009952 0.000000 0.000000 0.000000
# 4 0.000000 0.000000 0.000000 0.001971 0.000000 0.000000
# 5 0.000000 0.000000 0.000000 0.000000 0.055016 0.000000
# 6 0.000000 0.000000 0.000000 0.000000 0.000000 0.053415
#
#
# Mechanical properties :
#
#
# Convention : Reuss Voigt Hill
#
# Bulk Modulus (GPa) = 49.58861 62.06974 55.82918
# Shear Modulus (GPa) = 31.62516 129.82646 80.72581
#
# Velocity S-wave (km/s) = 3.56642 7.22599 5.69799
# Velocity P-wave (km/s) = 6.07480 9.72542 8.10823
#
# Compressibility (1/GPa) = 0.02016592
#
# Stress axis : x y z
#
# Youngs Moduli (GPa) = 67.52433 172.11122 100.48298
#
# Poissons Ratio (x) = -0.14693 0.32729
# Poissons Ratio (y) = -0.05765 0.28129
# Poissons Ratio (z) = 0.21994 0.48181
#
# Static dielectric constant tensor:
#      x y z
#    x 1.911160 0.000000 0.000000 
#    y 0.000000 0.739940 0.000000 
#    z 0.000000 0.000000 2.037340 
# 
# From -- ./inp_files/4407.got.cif
#   From: 2010.05.17/outbox.cif.g08.bks.cpg/sg39_3_cif.got.tgz:4407.got - 2010.06.03 18:22:40.
