data_PCOD9361082
_publ_section_title
;
Structure prediction by ZEFSAII (Michael W. Deem and Ramdas Pophale) SiO2 
 PCOD9361082
Probable space group: A B M 2
;
_chemical_formula_sum "Si O2"
_cell_formula_units_Z 64
_cell_length_a 15.580387
_cell_length_b 24.144474
_cell_length_c 8.541225
_cell_angle_alpha 90.000000
_cell_angle_beta 90.000000
_cell_angle_gamma 90.000000
_cell_volume 3213.040146
_symmetry_space_group_name_H-M "A B M 2"
_symmetry_group_IT_number 39
_symmetry_cell_setting 'orthorhombic'
loop_
_space_group_symop_operation_xyz
x,y,z
-x,-y,z
-x,1/2+y,z
x,1/2-y,z
x,1/2+y,1/2+z
-x,1/2-y,1/2+z
-x,y,1/2+z
x,-y,1/2+z
loop_
_atom_site_type_symbol
_atom_site_label
_atom_site_fract_x
_atom_site_fract_y
_atom_site_fract_z
Si Si1 0.733763 0.926183 0.638740
Si Si2 0.022005 0.184349 0.352067
Si Si3 0.720396 0.310888 0.708365
Si Si4 0.392830 0.586659 0.658071
Si Si5 0.811919 0.811525 0.547735
Si Si6 0.229835 0.966612 0.486288
Si Si7 0.452400 0.557781 0.995843
Si Si8 0.879860 0.635899 0.057293
O O1 0.772405 0.864548 0.633384
O O2 0.750893 0.952448 0.807355
O O3 0.633080 0.928367 0.593308
O O4 0.779931 0.968004 0.516016
O O5 0.015722 0.250000 0.311196
O O6 0.088811 0.181211 0.498177
O O7 0.063641 0.149804 0.210677
O O8 0.933090 0.158553 0.410279
O O9 0.689122 0.250000 0.671392
O O10 0.647486 0.355961 0.710897
O O11 0.792676 0.329669 0.584920
O O12 0.764900 0.310534 0.878377
O O13 0.315395 0.551936 0.581029
O O14 0.427136 0.557833 0.814894
O O15 0.470054 0.598368 0.538814
O O16 0.800986 0.750000 0.619607
O O17 0.151372 0.927536 0.541064
O O18 0.500000 0.500000 0.033992
#
# Coordination Sequence:
#
# PCOD9361082 Si02
#       8
#     8   8   8   8   8   8   8   8
#     4  12  24  43  66  96 131 174 216 273 330 403
#     4  10  20  38  67  99 131 171 222 275 322 379
#     4   9  18  38  63  89 128 174 214 267 329 392
#     4  11  22  39  57  96 125 165 215 272 332 387
#     4   9  20  39  67  94 125 173 220 269 326 389
#     4  11  26  41  65  94 133 174 217 269 334 399
#     4  12  23  36  65  96 126 161 218 275 326 388
#     4  10  22  39  64  97 131 166 224 271 328 386
#
# _framework density 19.91883
#
# number of rings (size 3 to 8) (size 9 to 14) (size 15 to 20)
#    0.000    1.500    2.500    3.750    5.250    0.000 
#    0.000    5.000    0.000    0.000    0.000    0.000 
#    0.000    0.000    0.000    0.000    0.000    0.000 
#
# Total GULP energy -178735.005910 kJ/mol
# GULP energy per Si atom -5585.468935 kJ/mol
# Density = 1.987349 g / cm^3
# Si number density = 19.918830 Si / 1000 Ang^3
#
#
#
# Elastic Constant Matrix: (Units=GPa)
#
#
# Indices 1 2 3 4 5 6 
#
# 1 89.5675 43.5791 32.0135 0.0000 0.0000 0.0000
# 2 43.5791 112.5832 19.7688 0.0000 0.0000 0.0000
# 3 32.0135 19.7688 71.9484 0.0000 0.0000 0.0000
# 4 0.0000 0.0000 0.0000 24.3276 0.0000 0.0000
# 5 0.0000 0.0000 0.0000 0.0000 35.1999 0.0000
# 6 0.0000 0.0000 0.0000 0.0000 0.0000 9.7040
#
#
#
# Elastic Compliance Matrix: (Units=1/GPa)
#
#
# Indices 1 2 3 4 5 6 
#
# 1 0.015617 -0.005070 -0.005556 0.000000 0.000000 0.000000
# 2 -0.005070 0.010978 -0.000761 0.000000 0.000000 0.000000
# 3 -0.005556 -0.000761 0.016580 0.000000 0.000000 0.000000
# 4 0.000000 0.000000 0.000000 0.041106 0.000000 0.000000
# 5 0.000000 0.000000 0.000000 0.000000 0.028409 0.000000
# 6 0.000000 0.000000 0.000000 0.000000 0.000000 0.103050
#
#
# Mechanical properties :
#
#
# Convention : Reuss Voigt Hill
#
# Bulk Modulus (GPa) = 49.01250 51.64687 50.32968
# Shear Modulus (GPa) = 20.38208 25.76216 23.07212
#
# Velocity S-wave (km/s) = 3.20231 3.60023 3.40708
# Velocity P-wave (km/s) = 6.19133 6.57778 6.38748
#
# Compressibility (1/GPa) = 0.02040296
#
# Stress axis : x y z
#
# Youngs Moduli (GPa) = 64.03201 91.08923 60.31372
#
# Poissons Ratio (x) = 0.46178 0.33510
# Poissons Ratio (y) = 0.32462 0.04588
# Poissons Ratio (z) = 0.35576 0.06929
#
# Static dielectric constant tensor:
#      x y z
#    x 1.718310 0.000000 0.000000 
#    y 0.000000 1.738970 0.000000 
#    z 0.000000 0.000000 1.724200 
# 
# From -- ./inp_files/3504.got.cif
#   From: 2010.05.17/outbox.cif.g08.bks.cpg/sg39_2_cif.got.tgz:3504.got - 2010.06.03 18:22:40.
