data_PCOD9361563
_publ_section_title
;
Structure prediction by ZEFSAII (Michael W. Deem and Ramdas Pophale) SiO2 
 PCOD9361563
Probable space group: A B M 2
;
_chemical_formula_sum "Si O2"
_cell_formula_units_Z 36
_cell_length_a 4.905245
_cell_length_b 25.041172
_cell_length_c 11.163227
_cell_angle_alpha 90.000000
_cell_angle_beta 90.000000
_cell_angle_gamma 90.000000
_cell_volume 1371.213597
_symmetry_space_group_name_H-M "A B M 2"
_symmetry_group_IT_number 39
_symmetry_cell_setting 'orthorhombic'
loop_
_space_group_symop_operation_xyz
x,y,z
-x,-y,z
-x,1/2+y,z
x,1/2-y,z
x,1/2+y,1/2+z
-x,1/2-y,1/2+z
-x,y,1/2+z
x,-y,1/2+z
loop_
_atom_site_type_symbol
_atom_site_label
_atom_site_fract_x
_atom_site_fract_y
_atom_site_fract_z
Si Si1 0.941728 0.827813 0.985010
Si Si2 0.068923 0.556688 0.895457
Si Si3 0.754240 0.250000 0.807505
Si Si4 0.558582 0.827434 0.631979
Si Si5 0.428651 0.443396 0.729211
O O1 0.987952 0.890669 0.966425
O O2 0.057817 0.796202 0.873491
O O3 0.134092 0.812561 0.097838
O O4 0.633507 0.814072 0.018366
O O5 0.375943 0.559270 0.846597
O O6 0.000000 0.500000 0.956253
O O7 0.878228 0.556869 0.777260
O O8 0.564047 0.204003 0.742159
O O9 0.530007 0.890415 0.653853
O O10 0.500000 0.500000 0.669665
#
# Coordination Sequence:
#
# PCOD9361563 Si02
#       5
#     8   8   4   8   8
#     4  12  27  45  72 107 135 186 244 285 356 424
#     4  10  21  42  71 103 144 189 229 288 363 423
#     4  12  28  50  72  96 150 188 226 314 342 418
#     4  12  27  45  72 107 135 186 244 285 356 424
#     4  10  21  42  71 103 144 189 229 288 363 423
#
# _framework density 26.254117000000001
#
# number of rings (size 3 to 8) (size 9 to 14) (size 15 to 20)
#    0.000    0.889    2.222    4.000    0.000    3.556 
#    0.000    0.000    0.000    0.000    0.000    0.000 
#    0.000    0.000    0.000    0.000    0.000    0.000 
#
# Total GULP energy -100510.049129 kJ/mol
# GULP energy per Si atom -5583.891618 kJ/mol
# Density = 2.619436 g / cm^3
# Si number density = 26.254117 Si / 1000 Ang^3
#
#
#
# Elastic Constant Matrix: (Units=GPa)
#
#
# Indices 1 2 3 4 5 6 
#
# 1 90.8976 5.8490 22.8014 0.0000 0.0000 0.0000
# 2 5.8490 214.9129 23.1234 0.0000 0.0000 0.0000
# 3 22.8014 23.1234 68.9472 0.0000 0.0000 0.0000
# 4 0.0000 0.0000 0.0000 69.2202 0.0000 0.0000
# 5 0.0000 0.0000 0.0000 0.0000 53.5861 0.0000
# 6 0.0000 0.0000 0.0000 0.0000 0.0000 20.1974
#
#
#
# Elastic Compliance Matrix: (Units=1/GPa)
#
#
# Indices 1 2 3 4 5 6 
#
# 1 0.011999 0.000104 -0.004003 0.000000 0.000000 0.000000
# 2 0.000104 0.004828 -0.001654 0.000000 0.000000 0.000000
# 3 -0.004003 -0.001654 0.016382 0.000000 0.000000 0.000000
# 4 0.000000 0.000000 0.000000 0.014447 0.000000 0.000000
# 5 0.000000 0.000000 0.000000 0.000000 0.018662 0.000000
# 6 0.000000 0.000000 0.000000 0.000000 0.000000 0.049511
#
#
# Mechanical properties :
#
#
# Convention : Reuss Voigt Hill
#
# Bulk Modulus (GPa) = 45.24047 53.14503 49.19275
# Shear Modulus (GPa) = 37.22952 50.13301 43.68126
#
# Velocity S-wave (km/s) = 3.76978 4.37456 4.08338
# Velocity P-wave (km/s) = 6.01810 6.76773 6.40389
#
# Compressibility (1/GPa) = 0.02210410
#
# Stress axis : x y z
#
# Youngs Moduli (GPa) = 83.34142 207.11904 61.04152
#
# Poissons Ratio (x) = -0.02157 0.24435
# Poissons Ratio (y) = -0.00868 0.10094
# Poissons Ratio (z) = 0.33362 0.34251
#
# Static dielectric constant tensor:
#      x y z
#    x 1.969840 0.000000 0.000000 
#    y 0.000000 1.992390 0.000000 
#    z 0.000000 0.000000 2.055840 
# 
# From -- ./inp_files/4473.got.cif
#   From: 2010.05.17/outbox.cif.g08.bks.cpg/sg39_3_cif.got.tgz:4473.got - 2010.06.03 18:22:40.
