data_PCOD9361733
_publ_section_title
;
Structure prediction by ZEFSAII (Michael W. Deem and Ramdas Pophale) SiO2 
 PCOD9361733
Probable space group: A B M 2
;
_chemical_formula_sum "Si O2"
_cell_formula_units_Z 48
_cell_length_a 8.870859
_cell_length_b 25.207439
_cell_length_c 8.975379
_cell_angle_alpha 90.000000
_cell_angle_beta 90.000000
_cell_angle_gamma 90.000000
_cell_volume 2006.999192
_symmetry_space_group_name_H-M "A B M 2"
_symmetry_group_IT_number 39
_symmetry_cell_setting 'orthorhombic'
loop_
_space_group_symop_operation_xyz
x,y,z
-x,-y,z
-x,1/2+y,z
x,1/2-y,z
x,1/2+y,1/2+z
-x,1/2-y,1/2+z
-x,y,1/2+z
x,-y,1/2+z
loop_
_atom_site_type_symbol
_atom_site_label
_atom_site_fract_x
_atom_site_fract_y
_atom_site_fract_z
Si Si1 0.637357 0.539803 0.074570
Si Si2 0.171673 0.017280 0.794899
Si Si3 0.025814 0.813181 0.519201
Si Si4 0.182200 0.637421 0.243014
Si Si5 0.682305 0.809433 0.216138
Si Si6 0.467438 0.849661 0.444032
O O1 0.500000 0.500000 0.055867
O O2 0.714502 0.527023 0.231460
O O3 0.567333 0.595964 0.031185
O O4 0.773132 0.529171 0.960821
O O5 0.189312 0.074403 0.713413
O O6 0.000000 0.000000 0.786850
O O7 0.029856 0.750000 0.485832
O O8 0.064208 0.847930 0.374956
O O9 0.161546 0.824867 0.636516
O O10 0.873609 0.830657 0.600197
O O11 0.339268 0.655038 0.316257
O O12 0.699259 0.750000 0.275267
O O13 0.619874 0.844566 0.351087
O O14 0.566102 0.808889 0.076308
#
# Coordination Sequence:
#
# PCOD9361733 Si02
#       6
#     8   8   8   8   8   8
#     4  11  26  44  69 100 136 181 230 285 347 415
#     4  11  26  43  69 102 137 179 230 287 344 414
#     4  10  22  42  67  97 135 177 225 277 340 413
#     4  10  24  41  65  97 131 179 218 274 343 400
#     4  10  22  41  65  94 132 173 219 276 339 409
#     4  10  24  41  65  97 130 176 221 277 341 403
#
# _framework density 23.916302000000002
#
# number of rings (size 3 to 8) (size 9 to 14) (size 15 to 20)
#    0.000    1.667    0.000    2.000   16.333    3.333 
#    0.000    0.000    0.000    0.000    0.000    0.000 
#    0.000    0.000    0.000    0.000    0.000    0.000 
#
# Total GULP energy -134232.675333 kJ/mol
# GULP energy per Si atom -5593.028139 kJ/mol
# Density = 2.386187 g / cm^3
# Si number density = 23.916302 Si / 1000 Ang^3
#
#
#
# Elastic Constant Matrix: (Units=GPa)
#
#
# Indices 1 2 3 4 5 6 
#
# 1 53.2032 39.7170 35.0364 0.0000 0.0000 0.0000
# 2 39.7170 66.3012 36.7539 0.0000 0.0000 0.0000
# 3 35.0364 36.7539 49.7173 0.0000 0.0000 0.0000
# 4 0.0000 0.0000 0.0000 30.7399 0.0000 0.0000
# 5 0.0000 0.0000 0.0000 0.0000 41.8595 0.0000
# 6 0.0000 0.0000 0.0000 0.0000 0.0000 24.1956
#
#
#
# Elastic Compliance Matrix: (Units=1/GPa)
#
#
# Indices 1 2 3 4 5 6 
#
# 1 0.042311 -0.014939 -0.018773 0.000000 0.000000 0.000000
# 2 -0.014939 0.030830 -0.012264 0.000000 0.000000 0.000000
# 3 -0.018773 -0.012264 0.042409 0.000000 0.000000 0.000000
# 4 0.000000 0.000000 0.000000 0.032531 0.000000 0.000000
# 5 0.000000 0.000000 0.000000 0.000000 0.023889 0.000000
# 6 0.000000 0.000000 0.000000 0.000000 0.000000 0.041330
#
#
# Mechanical properties :
#
#
# Convention : Reuss Voigt Hill
#
# Bulk Modulus (GPa) = 42.37535 43.58182 42.97859
# Shear Modulus (GPa) = 15.96835 23.20662 19.58748
#
# Velocity S-wave (km/s) = 2.58675 3.11839 2.86492
# Velocity P-wave (km/s) = 5.16511 5.58820 5.38081
#
# Compressibility (1/GPa) = 0.02359862
#
# Stress axis : x y z
#
# Youngs Moduli (GPa) = 23.63445 32.43585 23.57963
#
# Poissons Ratio (x) = 0.48456 0.44267
# Poissons Ratio (y) = 0.35308 0.28917
# Poissons Ratio (z) = 0.44370 0.39778
#
# Static dielectric constant tensor:
#      x y z
#    x 1.892520 0.000000 0.000000 
#    y 0.000000 1.943300 0.000000 
#    z 0.000000 0.000000 1.911680 
# 
# From -- ./inp_files/2312.got.cif
#   From: 2010.05.17/outbox.cif.g08.bks.cpg/sg39_2_cif.got.tgz:2312.got - 2010.06.03 18:22:40.
