data_PCOD9361703
_publ_section_title
;
Structure prediction by ZEFSAII (Michael W. Deem and Ramdas Pophale) SiO2 
 PCOD9361703
Probable space group: A B M 2
;
_chemical_formula_sum "Si O2"
_cell_formula_units_Z 64
_cell_length_a 15.660092
_cell_length_b 20.982989
_cell_length_c 9.932731
_cell_angle_alpha 90.000000
_cell_angle_beta 90.000000
_cell_angle_gamma 90.000000
_cell_volume 3263.851088
_symmetry_space_group_name_H-M "A B M 2"
_symmetry_group_IT_number 39
_symmetry_cell_setting 'orthorhombic'
loop_
_space_group_symop_operation_xyz
x,y,z
-x,-y,z
-x,1/2+y,z
x,1/2-y,z
x,1/2+y,1/2+z
-x,1/2-y,1/2+z
-x,y,1/2+z
x,-y,1/2+z
loop_
_atom_site_type_symbol
_atom_site_label
_atom_site_fract_x
_atom_site_fract_y
_atom_site_fract_z
Si Si1 0.934474 0.677561 0.162030
Si Si2 0.978239 0.600310 0.426622
Si Si3 0.765155 0.117965 0.602203
Si Si4 0.861331 0.016475 0.438854
Si Si5 0.695209 0.531389 0.298699
Si Si6 0.589273 0.960410 0.569912
Si Si7 0.459717 0.675566 0.181001
Si Si8 0.390573 0.322967 0.975796
O O1 0.959451 0.750000 0.184296
O O2 0.943663 0.637956 0.298854
O O3 0.835907 0.672085 0.115533
O O4 0.992334 0.645868 0.046786
O O5 0.908366 0.549120 0.475521
O O6 0.063118 0.561141 0.382969
O O7 0.719596 0.100840 0.741589
O O8 0.691755 0.132848 0.493832
O O9 0.819670 0.055847 0.560439
O O10 0.783115 0.001876 0.341583
O O11 0.632395 0.534226 0.424755
O O12 0.648886 0.494496 0.178965
O O13 0.583040 0.885948 0.611132
O O14 0.500000 0.000000 0.570147
O O15 0.430860 0.750000 0.155973
O O16 0.552685 0.672595 0.111030
O O17 0.447231 0.664521 0.341755
O O18 0.360952 0.250000 0.964302
#
# Coordination Sequence:
#
# PCOD9361703 Si02
#       8
#     8   8   8   8   8   8   8   8
#     4  11  23  41  64  93 126 168 211 254 310 387
#     4  10  23  39  67  92 130 162 211 253 321 380
#     4  11  22  40  65  95 126 165 215 265 327 375
#     4  10  22  40  65  96 126 165 204 265 318 381
#     4  12  24  41  64  95 132 166 214 271 328 379
#     4  12  27  41  66  96 133 171 219 273 327 385
#     4  10  24  43  65  92 128 175 223 266 328 393
#     4  10  22  42  65  90 127 172 219 268 319 389
#
# _framework density 19.608739
#
# number of rings (size 3 to 8) (size 9 to 14) (size 15 to 20)
#    0.000    1.250    2.500    2.625    7.000    1.000 
#    0.000    0.625    0.000    3.750    0.000    0.000 
#    0.000    0.000    0.000    0.000    0.000    0.000 
#
# Total GULP energy -178570.258543 kJ/mol
# GULP energy per Si atom -5580.320579 kJ/mol
# Density = 1.956411 g / cm^3
# Si number density = 19.608739 Si / 1000 Ang^3
#
#
#
# Elastic Constant Matrix: (Units=GPa)
#
#
# Indices 1 2 3 4 5 6 
#
# 1 98.3334 40.3207 34.3817 0.0000 0.0000 0.0000
# 2 40.3207 87.7933 28.4493 0.0000 0.0000 0.0000
# 3 34.3817 28.4493 85.2837 0.0000 0.0000 0.0000
# 4 0.0000 0.0000 0.0000 16.5992 0.0000 0.0000
# 5 0.0000 0.0000 0.0000 0.0000 25.4851 0.0000
# 6 0.0000 0.0000 0.0000 0.0000 0.0000 19.2186
#
#
#
# Elastic Compliance Matrix: (Units=1/GPa)
#
#
# Indices 1 2 3 4 5 6 
#
# 1 0.013542 -0.004990 -0.003795 0.000000 0.000000 0.000000
# 2 -0.004990 0.014609 -0.002862 0.000000 0.000000 0.000000
# 3 -0.003795 -0.002862 0.014210 0.000000 0.000000 0.000000
# 4 0.000000 0.000000 0.000000 0.060244 0.000000 0.000000
# 5 0.000000 0.000000 0.000000 0.000000 0.039239 0.000000
# 6 0.000000 0.000000 0.000000 0.000000 0.000000 0.052033
#
#
# Mechanical properties :
#
#
# Convention : Reuss Voigt Hill
#
# Bulk Modulus (GPa) = 52.44219 53.07932 52.76076
# Shear Modulus (GPa) = 22.36864 23.47781 22.92322
#
# Velocity S-wave (km/s) = 3.38116 3.46398 3.42282
# Velocity P-wave (km/s) = 6.48424 6.56710 6.52580
#
# Compressibility (1/GPa) = 0.01906861
#
# Stress axis : x y z
#
# Youngs Moduli (GPa) = 73.84197 68.44883 70.37209
#
# Poissons Ratio (x) = 0.34155 0.26706
# Poissons Ratio (y) = 0.36846 0.20139
# Poissons Ratio (z) = 0.28023 0.19589
#
# Static dielectric constant tensor:
#      x y z
#    x 1.693530 0.000000 0.000000 
#    y 0.000000 1.718940 0.000000 
#    z 0.000000 0.000000 1.671700 
# 
# From -- ./inp_files/3537.got.cif
#   From: 2010.05.17/outbox.cif.g08.bks.cpg/sg39_2_cif.got.tgz:3537.got - 2010.06.03 18:22:40.
