data_PCOD9361723
_publ_section_title
;
Structure prediction by ZEFSAII (Michael W. Deem and Ramdas Pophale) SiO2 
 PCOD9361723
Probable space group: A B M 2
;
_chemical_formula_sum "Si O2"
_cell_formula_units_Z 64
_cell_length_a 24.172033
_cell_length_b 8.713686
_cell_length_c 15.737901
_cell_angle_alpha 90.000000
_cell_angle_beta 90.000000
_cell_angle_gamma 90.000000
_cell_volume 3314.834830
_symmetry_space_group_name_H-M "A B M 2"
_symmetry_group_IT_number 39
_symmetry_cell_setting 'orthorhombic'
loop_
_space_group_symop_operation_xyz
x,y,z
-x,-y,z
-x,1/2+y,z
x,1/2-y,z
x,1/2+y,1/2+z
-x,1/2-y,1/2+z
-x,y,1/2+z
x,-y,1/2+z
loop_
_atom_site_type_symbol
_atom_site_label
_atom_site_fract_x
_atom_site_fract_y
_atom_site_fract_z
Si Si1 0.244291 0.932161 0.597320
Si Si2 0.060849 0.566508 0.497878
Si Si3 0.872640 0.067088 0.153587
Si Si4 0.141692 0.565096 0.344038
Si Si5 0.560852 0.565011 0.500939
Si Si6 0.253841 0.567198 0.909214
Si Si7 0.625761 0.565817 0.332726
Si Si8 0.641329 0.933290 0.654977
O O1 0.237760 0.750000 0.604114
O O2 0.189479 0.013308 0.632222
O O3 0.251307 0.981371 0.499236
O O4 0.299175 0.986957 0.645567
O O5 0.058366 0.750000 0.497544
O O6 0.086652 0.510533 0.586480
O O7 0.102014 0.518776 0.421598
O O8 0.000000 0.500000 0.485458
O O9 0.876402 0.250000 0.143659
O O10 0.883398 0.027920 0.252022
O O11 0.149555 0.750000 0.347985
O O12 0.200878 0.485358 0.355739
O O13 0.500000 0.500000 0.513930
O O14 0.558793 0.750000 0.501791
O O15 0.585928 0.518213 0.409857
O O16 0.602671 0.518698 0.576131
O O17 0.251961 0.750000 0.924726
O O18 0.311445 0.532870 0.862646
O O19 0.621125 0.750000 0.321308
O O20 0.615131 0.482201 0.244291
O O21 0.648795 0.750000 0.650886
#
# Coordination Sequence:
#
# PCOD9361723 Si02
#       8
#     8   8   8   8   8   8   8   8
#     4  12  23  37  61  93 127 163 202 248 305 368
#     4  11  24  43  64  89 122 163 209 259 307 359
#     4  11  23  41  65  94 126 163 203 252 308 364
#     4  10  23  41  62  92 127 159 201 251 303 365
#     4  10  23  43  63  86 121 160 206 256 306 361
#     4  11  21  37  63  91 125 163 199 245 306 366
#     4  10  22  41  62  90 125 159 200 250 304 366
#     4  11  23  41  63  91 124 161 204 252 305 365
#
# _framework density 19.307144999999998
#
# number of rings (size 3 to 8) (size 9 to 14) (size 15 to 20)
#    0.000    1.250    2.500    3.375    0.000    7.000 
#    0.000    3.750    0.000    0.000    0.000    0.000 
#    0.000    0.000    0.000    0.000    0.000    0.000 
#
# Total GULP energy -178969.820481 kJ/mol
# GULP energy per Si atom -5592.806890 kJ/mol
# Density = 1.926320 g / cm^3
# Si number density = 19.307145 Si / 1000 Ang^3
#
#
#
# Elastic Constant Matrix: (Units=GPa)
#
#
# Indices 1 2 3 4 5 6 
#
# 1 61.2151 6.1868 -12.3916 0.0000 0.0000 0.0000
# 2 6.1868 29.1638 13.6586 0.0000 0.0000 0.0000
# 3 -12.3916 13.6586 76.4357 0.0000 0.0000 0.0000
# 4 0.0000 0.0000 0.0000 30.9252 0.0000 0.0000
# 5 0.0000 0.0000 0.0000 0.0000 5.1649 0.0000
# 6 0.0000 0.0000 0.0000 0.0000 0.0000 33.7887
#
#
#
# Elastic Compliance Matrix: (Units=1/GPa)
#
#
# Indices 1 2 3 4 5 6 
#
# 1 0.017679 -0.005558 0.003859 0.000000 0.000000 0.000000
# 2 -0.005558 0.039168 -0.007900 0.000000 0.000000 0.000000
# 3 0.003859 -0.007900 0.015120 0.000000 0.000000 0.000000
# 4 0.000000 0.000000 0.000000 0.032336 0.000000 0.000000
# 5 0.000000 0.000000 0.000000 0.000000 0.193613 0.000000
# 6 0.000000 0.000000 0.000000 0.000000 0.000000 0.029596
#
#
# Mechanical properties :
#
#
# Convention : Reuss Voigt Hill
#
# Bulk Modulus (GPa) = 18.95029 20.19135 19.57082
# Shear Modulus (GPa) = 13.72497 24.59982 19.16240
#
# Velocity S-wave (km/s) = 2.66912 3.57337 3.15382
# Velocity P-wave (km/s) = 4.39720 5.24461 4.83949
#
# Compressibility (1/GPa) = 0.05276964
#
# Stress axis : x y z
#
# Youngs Moduli (GPa) = 56.56510 25.53099 66.13656
#
# Poissons Ratio (x) = 0.14190 -0.25523
# Poissons Ratio (y) = 0.31438 0.52249
# Poissons Ratio (z) = -0.21830 0.20170
#
# Static dielectric constant tensor:
#      x y z
#    x 1.638590 0.000000 0.000000 
#    y 0.000000 1.650860 0.000000 
#    z 0.000000 0.000000 1.682590 
# 
# From -- ./inp_files/10609.got.cif
#   From: 2010.05.17/outbox.cif.g08.bks.cpg/sg39_6_cif.got.tgz:10609.got - 2010.06.03 18:22:40.
