data_PCOD9361321
_publ_section_title
;
Structure prediction by ZEFSAII (Michael W. Deem and Ramdas Pophale) SiO2 
 PCOD9361321
Probable space group: A B M 2
;
_chemical_formula_sum "Si O2"
_cell_formula_units_Z 36
_cell_length_a 16.955306
_cell_length_b 20.896703
_cell_length_c 5.288323
_cell_angle_alpha 90.000000
_cell_angle_beta 90.000000
_cell_angle_gamma 90.000000
_cell_volume 1873.705689
_symmetry_space_group_name_H-M "A B M 2"
_symmetry_group_IT_number 39
_symmetry_cell_setting 'orthorhombic'
loop_
_space_group_symop_operation_xyz
x,y,z
-x,-y,z
-x,1/2+y,z
x,1/2-y,z
x,1/2+y,1/2+z
-x,1/2-y,1/2+z
-x,y,1/2+z
x,-y,1/2+z
loop_
_atom_site_type_symbol
_atom_site_label
_atom_site_fract_x
_atom_site_fract_y
_atom_site_fract_z
Si Si1 0.052276 0.250000 0.714980
Si Si2 0.730050 0.827626 0.252798
Si Si3 0.033210 0.928653 0.379550
Si Si4 0.454640 0.672242 0.783759
Si Si5 0.821948 0.364295 0.249343
O O1 0.110784 0.190061 0.743325
O O2 0.010084 0.250000 0.443569
O O3 0.738720 0.750000 0.273056
O O4 0.637466 0.843684 0.268209
O O5 0.775444 0.859589 0.487491
O O6 0.765816 0.849956 0.986320
O O7 0.123929 0.926521 0.296571
O O8 0.019315 0.898219 0.655106
O O9 0.000000 0.000000 0.416098
O O10 0.458032 0.750000 0.784448
O O11 0.503318 0.650039 0.539742
#
# Coordination Sequence:
#
# PCOD9361321 Si02
#       5
#     4   8   8   8   8
#     4  12  22  32  46  66  96 132 172 210 254 314
#     4  11  20  33  48  73 107 140 174 217 264 304
#     4  10  21  38  56  72  94 133 177 221 273 311
#     4   9  17  29  46  67  95 138 181 207 239 304
#     4  12  21  34  50  73 102 136 175 225 266 303
#
# _framework density 19.213263999999999
#
# number of rings (size 3 to 8) (size 9 to 14) (size 15 to 20)
#    0.000    1.333    2.222    5.333    0.000    3.556 
#    0.000    0.000    0.000    0.000    0.000    0.000 
#    0.000    0.000    0.000  280.000    0.000    0.000 
#
# Total GULP energy -100509.609831 kJ/mol
# GULP energy per Si atom -5583.867213 kJ/mol
# Density = 1.916953 g / cm^3
# Si number density = 19.213264 Si / 1000 Ang^3
#
#
#
# Elastic Constant Matrix: (Units=GPa)
#
#
# Indices 1 2 3 4 5 6 
#
# 1 82.3231 11.0350 12.9710 0.0000 0.0000 0.0000
# 2 11.0350 31.4336 -9.5656 0.0000 0.0000 0.0000
# 3 12.9710 -9.5656 121.1502 0.0000 0.0000 0.0000
# 4 0.0000 0.0000 0.0000 7.3735 0.0000 0.0000
# 5 0.0000 0.0000 0.0000 0.0000 45.8050 0.0000
# 6 0.0000 0.0000 0.0000 0.0000 0.0000 18.0527
#
#
#
# Elastic Compliance Matrix: (Units=1/GPa)
#
#
# Indices 1 2 3 4 5 6 
#
# 1 0.013124 -0.005159 -0.001813 0.000000 0.000000 0.000000
# 2 -0.005159 0.034624 0.003286 0.000000 0.000000 0.000000
# 3 -0.001813 0.003286 0.008708 0.000000 0.000000 0.000000
# 4 0.000000 0.000000 0.000000 0.135620 0.000000 0.000000
# 5 0.000000 0.000000 0.000000 0.000000 0.021832 0.000000
# 6 0.000000 0.000000 0.000000 0.000000 0.000000 0.055393
#
#
# Mechanical properties :
#
#
# Convention : Reuss Voigt Hill
#
# Bulk Modulus (GPa) = 20.37253 29.30974 24.84113
# Shear Modulus (GPa) = 17.06283 28.94400 23.00342
#
# Velocity S-wave (km/s) = 2.98329 3.88552 3.46391
# Velocity P-wave (km/s) = 4.74269 5.95129 5.38103
#
# Compressibility (1/GPa) = 0.04908571
#
# Stress axis : x y z
#
# Youngs Moduli (GPa) = 76.19406 28.88148 114.84039
#
# Poissons Ratio (x) = 0.14900 0.20815
# Poissons Ratio (y) = 0.39309 -0.37738
# Poissons Ratio (z) = 0.13810 -0.09491
#
# Static dielectric constant tensor:
#      x y z
#    x 1.654130 0.000000 0.000000 
#    y 0.000000 1.842390 0.000000 
#    z 0.000000 0.000000 1.709060 
# 
# From -- ./inp_files/315.got.cif
#   From: 2010.05.17/outbox.cif.g08.bks.cpg/sg39_1_cif.got.tgz:315.got - 2010.06.03 18:22:40.
