data_PCOD9361169
_publ_section_title
;
Structure prediction by ZEFSAII (Michael W. Deem and Ramdas Pophale) SiO2 
 PCOD9361169
Probable space group: A B M 2
;
_chemical_formula_sum "Si O2"
_cell_formula_units_Z 52
_cell_length_a 13.407249
_cell_length_b 21.986526
_cell_length_c 8.222863
_cell_angle_alpha 90.000000
_cell_angle_beta 90.000000
_cell_angle_gamma 90.000000
_cell_volume 2423.925924
_symmetry_space_group_name_H-M "A B M 2"
_symmetry_group_IT_number 39
_symmetry_cell_setting 'orthorhombic'
loop_
_space_group_symop_operation_xyz
x,y,z
-x,-y,z
-x,1/2+y,z
x,1/2-y,z
x,1/2+y,1/2+z
-x,1/2-y,1/2+z
-x,y,1/2+z
x,-y,1/2+z
loop_
_atom_site_type_symbol
_atom_site_label
_atom_site_fract_x
_atom_site_fract_y
_atom_site_fract_z
Si Si1 0.567667 0.250000 0.209530
Si Si2 0.864935 0.447634 0.108874
Si Si3 0.597604 0.356747 0.775099
Si Si4 0.084788 0.572436 0.733421
Si Si5 0.469188 0.069341 0.975821
Si Si6 0.794142 0.179351 0.613583
Si Si7 0.302601 0.133504 0.774773
O O1 0.479466 0.197636 0.238354
O O2 0.651136 0.304891 0.199650
O O3 0.853377 0.520140 0.136795
O O4 0.776006 0.405681 0.172757
O O5 0.966901 0.435376 0.208376
O O6 0.886857 0.434859 0.921025
O O7 0.565345 0.387938 0.942370
O O8 0.580988 0.409642 0.642378
O O9 0.707613 0.331945 0.748046
O O10 0.115179 0.637121 0.662978
O O11 0.390914 0.088494 0.835798
O O12 0.500000 0.000000 0.973626
O O13 0.817869 0.250000 0.604833
O O14 0.749014 0.157439 0.441808
#
# Coordination Sequence:
#
# PCOD9361169 Si02
#       7
#     4   8   8   8   8   8   8
#     4  10  20  42  62  92 122 184 218 272 312 392
#     4  11  23  47  70 105 127 172 213 275 335 406
#     4  10  22  38  63  85 130 173 222 264 329 381
#     4  11  24  44  75  98 136 165 218 268 342 396
#     4  10  22  38  58  93 128 171 217 277 324 383
#     4  11  22  42  63  98 131 182 219 275 321 397
#     4  10  22  41  68  89 135 177 227 268 332 383
#
# _framework density 21.452801000000001
#
# number of rings (size 3 to 8) (size 9 to 14) (size 15 to 20)
#    0.000    1.538    1.538    4.154    2.154    3.077 
#    8.308    0.000    0.000    0.000    0.000    0.000 
#    0.000    0.000    0.000    0.000    0.000    0.000 
#
# Total GULP energy -144867.696904 kJ/mol
# GULP energy per Si atom -5571.834496 kJ/mol
# Density = 2.140397 g / cm^3
# Si number density = 21.452801 Si / 1000 Ang^3
#
#
#
# Elastic Constant Matrix: (Units=GPa)
#
#
# Indices 1 2 3 4 5 6 
#
# 1 61.1336 49.3502 -0.8215 0.0000 0.0000 0.0000
# 2 49.3502 191.5381 34.5755 0.0000 0.0000 0.0000
# 3 -0.8215 34.5755 43.1633 0.0000 0.0000 0.0000
# 4 0.0000 0.0000 0.0000 5.0210 0.0000 0.0000
# 5 0.0000 0.0000 0.0000 0.0000 32.6254 0.0000
# 6 0.0000 0.0000 0.0000 0.0000 0.0000 44.0102
#
#
#
# Elastic Compliance Matrix: (Units=1/GPa)
#
#
# Indices 1 2 3 4 5 6 
#
# 1 0.021808 -0.006656 0.005747 0.000000 0.000000 0.000000
# 2 -0.006656 0.008135 -0.006643 0.000000 0.000000 0.000000
# 3 0.005747 -0.006643 0.028599 0.000000 0.000000 0.000000
# 4 0.000000 0.000000 0.000000 0.199165 0.000000 0.000000
# 5 0.000000 0.000000 0.000000 0.000000 0.030651 0.000000
# 6 0.000000 0.000000 0.000000 0.000000 0.000000 0.022722
#
#
# Mechanical properties :
#
#
# Convention : Reuss Voigt Hill
#
# Bulk Modulus (GPa) = 23.02187 51.33816 37.18001
# Shear Modulus (GPa) = 14.67720 30.51334 22.59527
#
# Velocity S-wave (km/s) = 2.61849 3.77549 3.24891
# Velocity P-wave (km/s) = 4.46057 6.55656 5.60737
#
# Compressibility (1/GPa) = 0.04343695
#
# Stress axis : x y z
#
# Youngs Moduli (GPa) = 45.85430 122.92374 34.96662
#
# Poissons Ratio (x) = 0.81823 -0.20096
# Poissons Ratio (y) = 0.30522 0.23229
# Poissons Ratio (z) = -0.26353 0.81661
#
# Static dielectric constant tensor:
#      x y z
#    x 1.782090 0.000000 0.000000 
#    y 0.000000 1.739460 0.000000 
#    z 0.000000 0.000000 1.835020 
# 
# From -- ./inp_files/3340.got.cif
#   From: 2010.05.17/outbox.cif.g08.bks.cpg/sg39_2_cif.got.tgz:3340.got - 2010.06.03 18:22:40.
