data_PCOD9361484
_publ_section_title
;
Structure prediction by ZEFSAII (Michael W. Deem and Ramdas Pophale) SiO2 
 PCOD9361484
Probable space group: A B M 2
;
_chemical_formula_sum "Si O2"
_cell_formula_units_Z 48
_cell_length_a 19.140252
_cell_length_b 8.715104
_cell_length_c 15.236821
_cell_angle_alpha 90.000000
_cell_angle_beta 90.000000
_cell_angle_gamma 90.000000
_cell_volume 2541.643244
_symmetry_space_group_name_H-M "A B M 2"
_symmetry_group_IT_number 39
_symmetry_cell_setting 'orthorhombic'
loop_
_space_group_symop_operation_xyz
x,y,z
-x,-y,z
-x,1/2+y,z
x,1/2-y,z
x,1/2+y,1/2+z
-x,1/2-y,1/2+z
-x,y,1/2+z
x,-y,1/2+z
loop_
_atom_site_type_symbol
_atom_site_label
_atom_site_fract_x
_atom_site_fract_y
_atom_site_fract_z
Si Si1 0.339263 0.433194 0.626750
Si Si2 0.837897 0.432953 0.799774
Si Si3 0.923858 0.432594 0.452934
Si Si4 0.811522 0.435036 0.598568
Si Si5 0.576388 0.566630 0.968602
Si Si6 0.677084 0.565464 0.319852
O O1 0.344302 0.250000 0.630406
O O2 0.263007 0.482940 0.590578
O O3 0.396374 0.501699 0.561257
O O4 0.344444 0.504160 0.723968
O O5 0.846362 0.250000 0.809860
O O6 0.894492 0.516367 0.858774
O O7 0.840221 0.468272 0.696263
O O8 0.759222 0.473674 0.830691
O O9 0.927976 0.250000 0.457140
O O10 0.866839 0.482974 0.525264
O O11 0.000000 0.500000 0.469653
O O12 0.800235 0.250000 0.593384
O O13 0.500000 0.500000 0.949516
O O14 0.574754 0.750000 0.970468
O O15 0.630176 0.508850 0.894656
O O16 0.670991 0.750000 0.321892
#
# Coordination Sequence:
#
# PCOD9361484 Si02
#       6
#     8   8   8   8   8   8
#     4  11  22  38  62  91 119 153 194 238 288 344
#     4   9  19  37  60  84 112 144 184 232 282 335
#     4  11  23  37  55  80 113 150 189 232 285 342
#     4   9  20  39  60  83 112 149 190 237 286 337
#     4  12  25  41  60  86 120 157 196 240 290 346
#     4  10  21  40  64  90 118 151 192 241 291 344
#
# _framework density 18.885421000000001
#
# number of rings (size 3 to 8) (size 9 to 14) (size 15 to 20)
#    0.000    1.667    0.000    6.000    0.000    8.667 
#    0.000    5.000    0.000    0.000    0.000    0.000 
#    0.000    0.000    0.000    0.000    0.000    0.000 
#
# Total GULP energy -134175.459469 kJ/mol
# GULP energy per Si atom -5590.644145 kJ/mol
# Density = 1.884244 g / cm^3
# Si number density = 18.885421 Si / 1000 Ang^3
#
#
#
# Elastic Constant Matrix: (Units=GPa)
#
#
# Indices 1 2 3 4 5 6 
#
# 1 28.5989 16.1241 11.7558 0.0000 0.0000 0.0000
# 2 16.1241 72.5280 9.7294 0.0000 0.0000 0.0000
# 3 11.7558 9.7294 34.4841 0.0000 0.0000 0.0000
# 4 0.0000 0.0000 0.0000 31.6218 0.0000 0.0000
# 5 0.0000 0.0000 0.0000 0.0000 3.9254 0.0000
# 6 0.0000 0.0000 0.0000 0.0000 0.0000 18.1091
#
#
#
# Elastic Compliance Matrix: (Units=1/GPa)
#
#
# Indices 1 2 3 4 5 6 
#
# 1 0.044963 -0.008252 -0.013000 0.000000 0.000000 0.000000
# 2 -0.008252 0.015845 -0.001657 0.000000 0.000000 0.000000
# 3 -0.013000 -0.001657 0.033898 0.000000 0.000000 0.000000
# 4 0.000000 0.000000 0.000000 0.031624 0.000000 0.000000
# 5 0.000000 0.000000 0.000000 0.000000 0.254751 0.000000
# 6 0.000000 0.000000 0.000000 0.000000 0.000000 0.055221
#
#
# Mechanical properties :
#
#
# Convention : Reuss Voigt Hill
#
# Bulk Modulus (GPa) = 20.45521 23.42552 21.94036
# Shear Modulus (GPa) = 10.03182 17.26471 13.64826
#
# Velocity S-wave (km/s) = 2.30726 3.02682 2.69120
# Velocity P-wave (km/s) = 4.23706 4.96452 4.61515
#
# Compressibility (1/GPa) = 0.04888731
#
# Stress axis : x y z
#
# Youngs Moduli (GPa) = 22.24075 63.11277 29.50023
#
# Poissons Ratio (x) = 0.52081 0.38349
# Poissons Ratio (y) = 0.18353 0.04889
# Poissons Ratio (z) = 0.28912 0.10460
#
# Static dielectric constant tensor:
#      x y z
#    x 1.632450 0.000000 0.000000 
#    y 0.000000 1.626890 0.000000 
#    z 0.000000 0.000000 1.643970 
# 
# From -- ./inp_files/10028.got.cif
#   From: 2010.05.17/outbox.cif.g08.bks.cpg/sg39_6_cif.got.tgz:10028.got - 2010.06.03 18:22:40.
