data_PCOD9361670
_publ_section_title
;
Structure prediction by ZEFSAII (Michael W. Deem and Ramdas Pophale) SiO2 
 PCOD9361670
Probable space group: A B M 2
;
_chemical_formula_sum "Si O2"
_cell_formula_units_Z 64
_cell_length_a 8.394543
_cell_length_b 30.704734
_cell_length_c 11.861925
_cell_angle_alpha 90.000000
_cell_angle_beta 90.000000
_cell_angle_gamma 90.000000
_cell_volume 3057.437382
_symmetry_space_group_name_H-M "A B M 2"
_symmetry_group_IT_number 39
_symmetry_cell_setting 'orthorhombic'
loop_
_space_group_symop_operation_xyz
x,y,z
-x,-y,z
-x,1/2+y,z
x,1/2-y,z
x,1/2+y,1/2+z
-x,1/2-y,1/2+z
-x,y,1/2+z
x,-y,1/2+z
loop_
_atom_site_type_symbol
_atom_site_label
_atom_site_fract_x
_atom_site_fract_y
_atom_site_fract_z
Si Si1 0.216025 0.428465 0.859710
Si Si2 0.683150 0.985025 0.450939
Si Si3 0.410374 0.637635 0.490113
Si Si4 0.798754 0.167003 0.672015
Si Si5 0.345739 0.798075 0.892505
Si Si6 0.135555 0.589371 0.827989
Si Si7 0.346608 0.417427 0.634925
Si Si8 0.875486 0.653719 0.546640
O O1 0.219227 0.470835 0.937183
O O2 0.353995 0.430639 0.764655
O O3 0.042394 0.426994 0.804558
O O4 0.263533 0.386054 0.930392
O O5 0.745971 0.949486 0.360861
O O6 0.709388 0.960061 0.568152
O O7 0.500000 0.000000 0.441107
O O8 0.341424 0.670760 0.581634
O O9 0.524424 0.663221 0.403857
O O10 0.508304 0.601175 0.560046
O O11 0.758391 0.196631 0.779131
O O12 0.800611 0.118441 0.726105
O O13 0.965791 0.170389 0.606744
O O14 0.416655 0.750000 0.896260
O O15 0.230472 0.807070 0.998566
O O16 0.111893 0.621458 0.937135
O O17 0.224818 0.376647 0.631257
#
# Coordination Sequence:
#
# PCOD9361670 Si02
#       8
#     8   8   8   8   8   8   8   8
#     4  12  22  39  64  86 127 170 223 274 321 384
#     4  11  24  39  56  91 130 169 212 274 325 380
#     4  11  23  40  66  93 122 176 218 270 328 400
#     4  11  21  40  73  93 121 173 222 260 334 396
#     4  10  24  43  63  99 139 161 207 277 336 407
#     4  10  22  40  60  95 126 167 218 271 315 383
#     4  10  22  40  58  89 125 171 218 264 327 384
#     4   9  19  40  66  90 126 164 214 257 320 392
#
# _framework density 20.932562000000001
#
# number of rings (size 3 to 8) (size 9 to 14) (size 15 to 20)
#    0.000    1.500    3.750    1.875    1.750    2.500 
#    0.000    1.250    0.000    0.000    0.000    0.000 
#    0.000    0.000    0.000    0.000    0.000    0.000 
#
# Total GULP energy -178509.923983 kJ/mol
# GULP energy per Si atom -5578.435124 kJ/mol
# Density = 2.088492 g / cm^3
# Si number density = 20.932562 Si / 1000 Ang^3
#
#
#
# Elastic Constant Matrix: (Units=GPa)
#
#
# Indices 1 2 3 4 5 6 
#
# 1 62.5663 8.6729 5.6944 0.0000 0.0000 0.0000
# 2 8.6729 69.9811 5.7078 0.0000 0.0000 0.0000
# 3 5.6944 5.7078 43.8326 0.0000 0.0000 0.0000
# 4 0.0000 0.0000 0.0000 11.9254 0.0000 0.0000
# 5 0.0000 0.0000 0.0000 0.0000 29.0060 0.0000
# 6 0.0000 0.0000 0.0000 0.0000 0.0000 13.6834
#
#
#
# Elastic Compliance Matrix: (Units=1/GPa)
#
#
# Indices 1 2 3 4 5 6 
#
# 1 0.016416 -0.001880 -0.001888 0.000000 0.000000 0.000000
# 2 -0.001880 0.014658 -0.001664 0.000000 0.000000 0.000000
# 3 -0.001888 -0.001664 0.023276 0.000000 0.000000 0.000000
# 4 0.000000 0.000000 0.000000 0.083855 0.000000 0.000000
# 5 0.000000 0.000000 0.000000 0.000000 0.034476 0.000000
# 6 0.000000 0.000000 0.000000 0.000000 0.000000 0.073081
#
#
# Mechanical properties :
#
#
# Convention : Reuss Voigt Hill
#
# Bulk Modulus (GPa) = 22.99661 24.05891 23.52776
# Shear Modulus (GPa) = 18.44191 21.34329 19.89260
#
# Velocity S-wave (km/s) = 2.97141 3.19662 3.08607
# Velocity P-wave (km/s) = 4.77308 5.01427 4.89516
#
# Compressibility (1/GPa) = 0.04348466
#
# Stress axis : x y z
#
# Youngs Moduli (GPa) = 60.91797 68.22037 42.96260
#
# Poissons Ratio (x) = 0.12828 0.08110
# Poissons Ratio (y) = 0.11455 0.07151
# Poissons Ratio (z) = 0.11500 0.11355
#
# Static dielectric constant tensor:
#      x y z
#    x 1.771940 0.000000 0.000000 
#    y 0.000000 1.740980 0.000000 
#    z 0.000000 0.000000 1.749170 
# 
# From -- ./inp_files/5385.got.cif
#   From: 2010.05.17/outbox.cif.g08.bks.cpg/sg39_3_cif.got.tgz:5385.got - 2010.06.03 18:22:40.
