data_PCOD9361648
_publ_section_title
;
Structure prediction by ZEFSAII (Michael W. Deem and Ramdas Pophale) SiO2 
 PCOD9361648
Probable space group: A B M 2
;
_chemical_formula_sum "Si O2"
_cell_formula_units_Z 64
_cell_length_a 19.275951
_cell_length_b 17.422804
_cell_length_c 9.986934
_cell_angle_alpha 90.000000
_cell_angle_beta 90.000000
_cell_angle_gamma 90.000000
_cell_volume 3354.023062
_symmetry_space_group_name_H-M "A B M 2"
_symmetry_group_IT_number 39
_symmetry_cell_setting 'orthorhombic'
loop_
_space_group_symop_operation_xyz
x,y,z
-x,-y,z
-x,1/2+y,z
x,1/2-y,z
x,1/2+y,1/2+z
-x,1/2-y,1/2+z
-x,y,1/2+z
x,-y,1/2+z
loop_
_atom_site_type_symbol
_atom_site_label
_atom_site_fract_x
_atom_site_fract_y
_atom_site_fract_z
Si Si1 0.705624 0.940328 0.346840
Si Si2 0.693502 0.415392 0.536141
Si Si3 0.428111 0.342331 0.386871
Si Si4 0.846609 0.381749 0.489796
Si Si5 0.099775 0.837154 0.202222
Si Si6 0.143954 0.434570 0.458231
Si Si7 0.062173 0.660734 0.746137
Si Si8 0.546705 0.341937 0.584551
O O1 0.647195 0.880233 0.392027
O O2 0.782440 0.915171 0.389974
O O3 0.691557 0.018841 0.424949
O O4 0.701459 0.948980 0.186651
O O5 0.764503 0.368821 0.511551
O O6 0.621335 0.370339 0.533951
O O7 0.421597 0.250000 0.395162
O O8 0.481700 0.370579 0.498798
O O9 0.458659 0.362122 0.240734
O O10 0.871892 0.344607 0.352299
O O11 0.858896 0.473628 0.473926
O O12 0.889852 0.352404 0.616496
O O13 0.109920 0.750000 0.153713
O O14 0.017567 0.853114 0.206835
O O15 0.136682 0.896194 0.103164
O O16 0.086024 0.397155 0.362499
O O17 0.068050 0.750000 0.790037
O O18 0.546307 0.250000 0.574603
#
# Coordination Sequence:
#
# PCOD9361648 Si02
#       8
#     8   8   8   8   8   8   8   8
#     4  10  22  39  61  86 118 156 195 243 292 349
#     4  10  22  39  61  86 118 156 195 243 292 349
#     4   9  19  37  59  86 118 153 196 240 286 345
#     4  11  23  40  62  88 120 158 202 248 298 358
#     4  11  25  41  59  89 124 153 196 255 305 354
#     4  11  23  40  62  88 120 158 202 248 298 358
#     4  11  23  41  63  87 118 159 200 245 303 364
#     4   9  19  37  59  86 118 153 196 240 286 345
#
# _framework density 19.081561000000001
#
# number of rings (size 3 to 8) (size 9 to 14) (size 15 to 20)
#    0.000    1.750    1.250    2.250    5.250    8.500 
#    0.000    2.500    0.000    0.000    0.000    0.000 
#    0.000    0.000    0.000    0.000    0.000    0.000 
#
# Total GULP energy -178757.536943 kJ/mol
# GULP energy per Si atom -5586.173029 kJ/mol
# Density = 1.903813 g / cm^3
# Si number density = 19.081561 Si / 1000 Ang^3
#
#
#
# Elastic Constant Matrix: (Units=GPa)
#
#
# Indices 1 2 3 4 5 6 
#
# 1 57.5021 14.3340 4.0819 0.0000 0.0000 0.0000
# 2 14.3340 26.5654 -2.6745 0.0000 0.0000 0.0000
# 3 4.0819 -2.6745 39.0423 0.0000 0.0000 0.0000
# 4 0.0000 0.0000 0.0000 26.4832 0.0000 0.0000
# 5 0.0000 0.0000 0.0000 0.0000 33.7072 0.0000
# 6 0.0000 0.0000 0.0000 0.0000 0.0000 27.1633
#
#
#
# Elastic Compliance Matrix: (Units=1/GPa)
#
#
# Indices 1 2 3 4 5 6 
#
# 1 0.020416 -0.011309 -0.002909 0.000000 0.000000 0.000000
# 2 -0.011309 0.044169 0.004208 0.000000 0.000000 0.000000
# 3 -0.002909 0.004208 0.026206 0.000000 0.000000 0.000000
# 4 0.000000 0.000000 0.000000 0.037760 0.000000 0.000000
# 5 0.000000 0.000000 0.000000 0.000000 0.029667 0.000000
# 6 0.000000 0.000000 0.000000 0.000000 0.000000 0.036814
#
#
# Mechanical properties :
#
#
# Convention : Reuss Voigt Hill
#
# Bulk Modulus (GPa) = 14.13026 17.17698 15.65362
# Shear Modulus (GPa) = 20.95185 24.62862 22.79024
#
# Velocity S-wave (km/s) = 3.31723 3.59653 3.45970
# Velocity P-wave (km/s) = 4.70035 5.12525 4.91739
#
# Compressibility (1/GPa) = 0.07077009
#
# Stress axis : x y z
#
# Youngs Moduli (GPa) = 48.98052 22.64053 38.15973
#
# Poissons Ratio (x) = 0.25604 0.11102
# Poissons Ratio (y) = 0.55392 -0.16058
# Poissons Ratio (z) = 0.14250 -0.09527
#
# Static dielectric constant tensor:
#      x y z
#    x 1.646960 0.000000 0.000000 
#    y 0.000000 1.648800 0.000000 
#    z 0.000000 0.000000 1.649220 
# 
# From -- ./inp_files/3870.got.cif
#   From: 2010.05.17/outbox.cif.g08.bks.cpg/sg39_2_cif.got.tgz:3870.got - 2010.06.03 18:22:40.
