data_PCOD9361334
_publ_section_title
;
Structure prediction by ZEFSAII (Michael W. Deem and Ramdas Pophale) SiO2 
 PCOD9361334
Probable space group: A B M 2
;
_chemical_formula_sum "Si O2"
_cell_formula_units_Z 64
_cell_length_a 8.770782
_cell_length_b 16.486612
_cell_length_c 21.546113
_cell_angle_alpha 90.000000
_cell_angle_beta 90.000000
_cell_angle_gamma 90.000000
_cell_volume 3115.578277
_symmetry_space_group_name_H-M "A B M 2"
_symmetry_group_IT_number 39
_symmetry_cell_setting 'orthorhombic'
loop_
_space_group_symop_operation_xyz
x,y,z
-x,-y,z
-x,1/2+y,z
x,1/2-y,z
x,1/2+y,1/2+z
-x,1/2-y,1/2+z
-x,y,1/2+z
x,-y,1/2+z
loop_
_atom_site_type_symbol
_atom_site_label
_atom_site_fract_x
_atom_site_fract_y
_atom_site_fract_z
Si Si1 0.567742 0.092076 0.669790
Si Si2 0.572066 0.345484 0.426472
Si Si3 0.062698 0.409716 0.797469
Si Si4 0.082033 0.347905 0.933551
Si Si5 0.105218 0.655968 0.679048
Si Si6 0.428786 0.089773 0.793294
Si Si7 0.569693 0.410409 0.046627
Si Si8 0.102014 0.152594 0.557860
O O1 0.748140 0.097753 0.677805
O O2 0.491886 0.130521 0.730775
O O3 0.520981 0.130046 0.604015
O O4 0.500000 0.000000 0.667228
O O5 0.585684 0.250000 0.427107
O O6 0.743045 0.378459 0.439802
O O7 0.523081 0.371091 0.358020
O O8 0.459354 0.370639 0.480474
O O9 0.023901 0.378744 0.866859
O O10 0.245859 0.409956 0.791367
O O11 0.000000 0.500000 0.790659
O O12 0.989202 0.358081 0.742016
O O13 0.083646 0.250000 0.931021
O O14 0.985903 0.369822 0.994369
O O15 0.156413 0.750000 0.676259
O O16 0.002389 0.640568 0.618382
O O17 0.500000 0.000000 0.794349
O O18 0.500000 0.500000 0.040586
O O19 0.746379 0.400949 0.062746
O O20 0.138938 0.250000 0.555119
#
# Coordination Sequence:
#
# PCOD9361334 Si02
#       8
#     8   8   8   8   8   8   8   8
#     4  10  22  41  62  89 124 160 202 254 309 368
#     4  10  21  38  60  86 120 161 202 250 305 361
#     4  11  22  38  62  90 124 163 203 253 307 362
#     4   9  20  39  60  85 118 157 204 254 305 362
#     4  11  24  42  66  94 124 162 207 255 309 370
#     4  10  21  39  60  86 122 160 202 250 302 361
#     4  11  23  39  60  89 123 159 201 249 304 368
#     4  10  22  40  63  91 123 160 205 257 309 364
#
# _framework density 20.541931999999999
#
# number of rings (size 3 to 8) (size 9 to 14) (size 15 to 20)
#    0.000    1.750    0.000    4.125    0.000    8.000 
#    0.000    3.125    0.000    0.000    0.000    0.000 
#    0.000    0.000    0.000    0.000    0.000    0.000 
#
# Total GULP energy -178704.257395 kJ/mol
# GULP energy per Si atom -5584.508044 kJ/mol
# Density = 2.049518 g / cm^3
# Si number density = 20.541932 Si / 1000 Ang^3
#
#
#
# Elastic Constant Matrix: (Units=GPa)
#
#
# Indices 1 2 3 4 5 6 
#
# 1 57.6586 15.5288 22.2312 0.0000 0.0000 0.0000
# 2 15.5288 36.0397 12.8860 0.0000 0.0000 0.0000
# 3 22.2312 12.8860 132.2449 0.0000 0.0000 0.0000
# 4 0.0000 0.0000 0.0000 -16.0795 0.0000 0.0000
# 5 0.0000 0.0000 0.0000 0.0000 38.3023 0.0000
# 6 0.0000 0.0000 0.0000 0.0000 0.0000 24.1451
#
#
#
# Elastic Compliance Matrix: (Units=1/GPa)
#
#
# Indices 1 2 3 4 5 6 
#
# 1 0.020497 -0.007874 -0.002678 0.000000 0.000000 0.000000
# 2 -0.007874 0.031774 -0.001772 0.000000 0.000000 0.000000
# 3 -0.002678 -0.001772 0.008185 0.000000 0.000000 0.000000
# 4 0.000000 0.000000 0.000000 -0.062191 0.000000 0.000000
# 5 0.000000 0.000000 0.000000 0.000000 0.026108 0.000000
# 6 0.000000 0.000000 0.000000 0.000000 0.000000 0.041416
#
#
# Mechanical properties :
#
#
# Convention : Reuss Voigt Hill
#
# Bulk Modulus (GPa) = 27.92860 36.35947 32.14403
# Shear Modulus (GPa) = 48.84079 20.96006 34.90042
#
# Velocity S-wave (km/s) = 4.88137 3.19776 4.12635
# Velocity P-wave (km/s) = 6.73764 5.60114 6.19551
#
# Compressibility (1/GPa) = 0.03580559
#
# Stress axis : x y z
#
# Youngs Moduli (GPa) = 48.78799 31.47257 122.17948
#
# Poissons Ratio (x) = 0.24782 0.32724
# Poissons Ratio (y) = 0.38416 0.21655
# Poissons Ratio (z) = 0.13067 0.05578
#
# Static dielectric constant tensor:
#      x y z
#    x 1.727630 0.000000 0.000000 
#    y 0.000000 1.662310 0.000000 
#    z 0.000000 0.000000 1.773150 
# 
# From -- ./inp_files/14186.got.cif
#   From: 2010.05.17/outbox.cif.g08.bks.cpg/sg39_8_cif.got.tgz:14186.got - 2010.06.03 18:22:40.
