data_PCOD9361657
_publ_section_title
;
Structure prediction by ZEFSAII (Michael W. Deem and Ramdas Pophale) SiO2 
 PCOD9361657
Probable space group: A B M 2
;
_chemical_formula_sum "Si O2"
_cell_formula_units_Z 48
_cell_length_a 19.388557
_cell_length_b 8.757128
_cell_length_c 15.412182
_cell_angle_alpha 90.000000
_cell_angle_beta 90.000000
_cell_angle_gamma 90.000000
_cell_volume 2616.804719
_symmetry_space_group_name_H-M "A B M 2"
_symmetry_group_IT_number 39
_symmetry_cell_setting 'orthorhombic'
loop_
_space_group_symop_operation_xyz
x,y,z
-x,-y,z
-x,1/2+y,z
x,1/2-y,z
x,1/2+y,1/2+z
-x,1/2-y,1/2+z
-x,y,1/2+z
x,-y,1/2+z
loop_
_atom_site_type_symbol
_atom_site_label
_atom_site_fract_x
_atom_site_fract_y
_atom_site_fract_z
Si Si1 0.817583 0.566444 0.407820
Si Si2 0.328615 0.933070 0.466242
Si Si3 0.829143 0.432809 0.707592
Si Si4 0.576120 0.066189 0.306449
Si Si5 0.923938 0.432943 0.059832
Si Si6 0.319132 0.933387 0.154041
O O1 0.806835 0.750000 0.413254
O O2 0.746172 0.485077 0.431763
O O3 0.838345 0.529618 0.309203
O O4 0.875647 0.524556 0.477911
O O5 0.329458 0.750000 0.474743
O O6 0.385379 0.979605 0.395178
O O7 0.340096 0.009311 0.559198
O O8 0.829900 0.250000 0.698119
O O9 0.886755 0.504535 0.645869
O O10 0.754891 0.495903 0.677826
O O11 0.572253 0.250000 0.305662
O O12 0.624976 0.020281 0.226225
O O13 0.500000 0.000000 0.299943
O O14 0.927205 0.250000 0.063765
O O15 0.000000 0.500000 0.050844
O O16 0.312804 0.750000 0.154379
#
# Coordination Sequence:
#
# PCOD9361657 Si02
#       6
#     8   8   8   8   8   8
#     4  10  22  39  62  91 123 159 202 249 302 361
#     4  11  22  38  62  92 121 158 206 251 300 363
#     4  11  22  38  63  94 122 159 205 251 303 363
#     4  10  24  42  61  88 125 162 202 251 309 363
#     4  11  24  42  62  89 126 164 202 253 309 360
#     4  11  22  39  61  90 123 160 204 253 303 360
#
# _framework density 18.342981999999999
#
# number of rings (size 3 to 8) (size 9 to 14) (size 15 to 20)
#    0.000    1.333    3.333    2.000    0.000    5.333 
#    0.000    5.000    0.000    0.000    0.000    0.000 
#    0.000    0.000    0.000    0.000    0.000    0.000 
#
# Total GULP energy -134168.446851 kJ/mol
# GULP energy per Si atom -5590.351952 kJ/mol
# Density = 1.830123 g / cm^3
# Si number density = 18.342982 Si / 1000 Ang^3
#
#
#
# Elastic Constant Matrix: (Units=GPa)
#
#
# Indices 1 2 3 4 5 6 
#
# 1 108.2672 25.9080 31.5541 0.0000 0.0000 0.0000
# 2 25.9080 37.3191 32.8474 0.0000 0.0000 0.0000
# 3 31.5541 32.8474 123.0390 0.0000 0.0000 0.0000
# 4 0.0000 0.0000 0.0000 28.6584 0.0000 0.0000
# 5 0.0000 0.0000 0.0000 0.0000 32.0650 0.0000
# 6 0.0000 0.0000 0.0000 0.0000 0.0000 37.6080
#
#
#
# Elastic Compliance Matrix: (Units=1/GPa)
#
#
# Indices 1 2 3 4 5 6 
#
# 1 0.011177 -0.006845 -0.001039 0.000000 0.000000 0.000000
# 2 -0.006845 0.039218 -0.008715 0.000000 0.000000 0.000000
# 3 -0.001039 -0.008715 0.010720 0.000000 0.000000 0.000000
# 4 0.000000 0.000000 0.000000 0.034894 0.000000 0.000000
# 5 0.000000 0.000000 0.000000 0.000000 0.031187 0.000000
# 6 0.000000 0.000000 0.000000 0.000000 0.000000 0.026590
#
#
# Mechanical properties :
#
#
# Convention : Reuss Voigt Hill
#
# Bulk Modulus (GPa) = 35.81828 49.91607 42.86717
# Shear Modulus (GPa) = 25.47253 31.55400 28.51327
#
# Velocity S-wave (km/s) = 3.73054 4.15206 3.94693
# Velocity P-wave (km/s) = 6.17457 7.08927 6.64767
#
# Compressibility (1/GPa) = 0.02791871
#
# Stress axis : x y z
#
# Youngs Moduli (GPa) = 89.46761 25.49835 93.27940
#
# Poissons Ratio (x) = 0.17454 0.09693
# Poissons Ratio (y) = 0.61240 0.81289
# Poissons Ratio (z) = 0.09296 0.22221
#
# Static dielectric constant tensor:
#      x y z
#    x 1.584760 0.000000 0.000000 
#    y 0.000000 1.617410 0.000000 
#    z 0.000000 0.000000 1.626860 
# 
# From -- ./inp_files/10027.got.cif
#   From: 2010.05.17/outbox.cif.g08.bks.cpg/sg39_6_cif.got.tgz:10027.got - 2010.06.03 18:22:40.
