data_PCOD9361500
_publ_section_title
;
Structure prediction by ZEFSAII (Michael W. Deem and Ramdas Pophale) SiO2 
 PCOD9361500
Probable space group: A B M 2
;
_chemical_formula_sum "Si O2"
_cell_formula_units_Z 64
_cell_length_a 20.534031
_cell_length_b 16.232036
_cell_length_c 9.586929
_cell_angle_alpha 90.000000
_cell_angle_beta 90.000000
_cell_angle_gamma 90.000000
_cell_volume 3195.410968
_symmetry_space_group_name_H-M "A B M 2"
_symmetry_group_IT_number 39
_symmetry_cell_setting 'orthorhombic'
loop_
_space_group_symop_operation_xyz
x,y,z
-x,-y,z
-x,1/2+y,z
x,1/2-y,z
x,1/2+y,1/2+z
-x,1/2-y,1/2+z
-x,y,1/2+z
x,-y,1/2+z
loop_
_atom_site_type_symbol
_atom_site_label
_atom_site_fract_x
_atom_site_fract_y
_atom_site_fract_z
Si Si1 0.626517 0.926294 0.950810
Si Si2 0.923088 0.845165 0.263379
Si Si3 0.583649 0.080412 0.135519
Si Si4 0.243253 0.999032 0.401599
Si Si5 0.556268 0.842576 0.168932
Si Si6 0.966461 0.411697 0.063856
Si Si7 0.662976 0.655587 0.404186
Si Si8 0.844219 0.000032 0.657224
O O1 0.610884 0.933410 0.789139
O O2 0.703683 0.936319 0.963076
O O3 0.595031 0.847887 0.023531
O O4 0.594570 0.000685 0.039023
O O5 0.902016 0.750000 0.257883
O O6 0.945541 0.868235 0.420443
O O7 0.869563 0.912149 0.214197
O O8 0.983100 0.860244 0.156800
O O9 0.508850 0.104747 0.155097
O O10 0.625474 0.147986 0.051513
O O11 0.279964 0.087549 0.398870
O O12 0.217835 0.975466 0.249458
O O13 0.180496 0.997330 0.499433
O O14 0.535562 0.750000 0.201567
O O15 0.608235 0.866589 0.287936
O O16 0.903937 0.436377 0.157354
O O17 0.000000 0.500000 0.028445
O O18 0.684139 0.750000 0.380403
#
# Coordination Sequence:
#
# PCOD9361500 Si02
#       8
#     8   8   8   8   8   8   8   8
#     4  11  23  39  60  86 120 156 207 255 310 368
#     4  11  23  40  66 100 134 162 200 260 314 355
#     4  11  22  38  61  89 117 153 202 261 322 389
#     4  11  22  40  61  86 121 167 215 254 291 363
#     4  11  23  39  60  87 119 153 197 259 330 391
#     4  10  21  40  66  97 130 167 206 249 306 367
#     4  10  22  40  61  88 123 163 205 262 326 379
#     4  11  22  40  65  91 123 171 218 248 295 371
#
# _framework density 20.028724
#
# number of rings (size 3 to 8) (size 9 to 14) (size 15 to 20)
#    0.000    1.250    1.250    6.750    1.750    4.500 
#    0.000    0.625    0.000    2.250    0.000    0.000 
#    0.000    0.000    0.000    0.000    0.000    0.000 
#
# Total GULP energy -178733.688901 kJ/mol
# GULP energy per Si atom -5585.427778 kJ/mol
# Density = 1.998314 g / cm^3
# Si number density = 20.028724 Si / 1000 Ang^3
#
#
#
# Elastic Constant Matrix: (Units=GPa)
#
#
# Indices 1 2 3 4 5 6 
#
# 1 74.9586 13.2766 8.8228 0.0000 0.0000 0.0000
# 2 13.2766 49.2156 15.5669 0.0000 0.0000 0.0000
# 3 8.8228 15.5669 103.4336 0.0000 0.0000 0.0000
# 4 0.0000 0.0000 0.0000 8.6881 0.0000 0.0000
# 5 0.0000 0.0000 0.0000 0.0000 73.7227 0.0000
# 6 0.0000 0.0000 0.0000 0.0000 0.0000 10.7219
#
#
#
# Elastic Compliance Matrix: (Units=1/GPa)
#
#
# Indices 1 2 3 4 5 6 
#
# 1 0.014053 -0.003582 -0.000660 0.000000 0.000000 0.000000
# 2 -0.003582 0.022248 -0.003043 0.000000 0.000000 0.000000
# 3 -0.000660 -0.003043 0.010182 0.000000 0.000000 0.000000
# 4 0.000000 0.000000 0.000000 0.115100 0.000000 0.000000
# 5 0.000000 0.000000 0.000000 0.000000 0.013564 0.000000
# 6 0.000000 0.000000 0.000000 0.000000 0.000000 0.093267
#
#
# Mechanical properties :
#
#
# Convention : Reuss Voigt Hill
#
# Bulk Modulus (GPa) = 31.33478 33.66005 32.49742
# Shear Modulus (GPa) = 17.02872 31.28929 24.15901
#
# Velocity S-wave (km/s) = 2.91901 3.95678 3.47683
# Velocity P-wave (km/s) = 5.19997 6.14143 5.69021
#
# Compressibility (1/GPa) = 0.03191342
#
# Stress axis : x y z
#
# Youngs Moduli (GPa) = 71.16010 44.94871 98.21033
#
# Poissons Ratio (x) = 0.16102 0.06477
# Poissons Ratio (y) = 0.25492 0.29883
# Poissons Ratio (z) = 0.04693 0.13677
#
# Static dielectric constant tensor:
#      x y z
#    x 1.706350 0.000000 0.000000 
#    y 0.000000 1.735460 0.000000 
#    z 0.000000 0.000000 1.692390 
# 
# From -- ./inp_files/4014.got.cif
#   From: 2010.05.17/outbox.cif.g08.bks.cpg/sg39_3_cif.got.tgz:4014.got - 2010.06.03 18:22:40.
