data_PCOD9361535
_publ_section_title
;
Structure prediction by ZEFSAII (Michael W. Deem and Ramdas Pophale) SiO2 
 PCOD9361535
Probable space group: A B M 2
;
_chemical_formula_sum "Si O2"
_cell_formula_units_Z 64
_cell_length_a 24.235858
_cell_length_b 8.546987
_cell_length_c 15.069143
_cell_angle_alpha 90.000000
_cell_angle_beta 90.000000
_cell_angle_gamma 90.000000
_cell_volume 3121.475976
_symmetry_space_group_name_H-M "A B M 2"
_symmetry_group_IT_number 39
_symmetry_cell_setting 'orthorhombic'
loop_
_space_group_symop_operation_xyz
x,y,z
-x,-y,z
-x,1/2+y,z
x,1/2-y,z
x,1/2+y,1/2+z
-x,1/2-y,1/2+z
-x,y,1/2+z
x,-y,1/2+z
loop_
_atom_site_type_symbol
_atom_site_label
_atom_site_fract_x
_atom_site_fract_y
_atom_site_fract_z
Si Si1 0.754927 0.065240 0.302030
Si Si2 0.612538 0.937011 0.065596
Si Si3 0.129927 0.565519 0.838633
Si Si4 0.939174 0.436160 0.180720
Si Si5 0.266672 0.935253 0.512363
Si Si6 0.559482 0.564855 0.396694
Si Si7 0.636372 0.562854 0.747466
Si Si8 0.853882 0.938217 0.036096
O O1 0.764771 0.250000 0.285310
O O2 0.739021 0.049574 0.406137
O O3 0.700730 0.012172 0.249333
O O4 0.811558 0.972863 0.291038
O O5 0.610049 0.750000 0.052353
O O6 0.604474 0.981030 0.167472
O O7 0.674527 0.998267 0.042807
O O8 0.571078 0.018505 0.998277
O O9 0.124730 0.750000 0.851506
O O10 0.082621 0.502839 0.774249
O O11 0.131269 0.483125 0.934684
O O12 0.940021 0.250000 0.184500
O O13 0.000000 0.500000 0.161531
O O14 0.896750 0.491164 0.104924
O O15 0.267946 0.750000 0.532347
O O16 0.209127 0.997502 0.551735
O O17 0.500000 0.500000 0.369375
O O18 0.561798 0.750000 0.385107
O O19 0.606970 0.483929 0.338526
O O20 0.635608 0.750000 0.738230
O O21 0.854076 0.750000 0.043515
#
# Coordination Sequence:
#
# PCOD9361535 Si02
#       8
#     8   8   8   8   8   8   8   8
#     4   9  18  37  62  90 128 171 211 260 317 376
#     4  11  22  40  64  97 132 169 211 262 317 377
#     4  11  23  40  63  95 130 169 213 263 318 377
#     4  12  26  45  66  93 126 168 217 267 319 381
#     4   8  16  34  61  90 126 166 205 253 312 370
#     4  12  26  46  69  94 125 170 217 266 320 379
#     4  11  23  41  64  96 132 169 212 263 318 378
#     4  10  21  41  65  95 129 168 211 262 319 378
#
# _framework density 20.503122000000001
#
# number of rings (size 3 to 8) (size 9 to 14) (size 15 to 20)
#    0.000    1.500    1.250    5.250    1.750    2.000 
#    0.000    6.250    0.000    0.000    0.000    0.000 
#    0.000    0.000    0.000    0.000    0.000    0.000 
#
# Total GULP energy -178908.641524 kJ/mol
# GULP energy per Si atom -5590.895048 kJ/mol
# Density = 2.045646 g / cm^3
# Si number density = 20.503122 Si / 1000 Ang^3
#
#
#
# Elastic Constant Matrix: (Units=GPa)
#
#
# Indices 1 2 3 4 5 6 
#
# 1 73.8626 9.4320 -3.9887 0.0000 0.0000 0.0000
# 2 9.4320 59.3880 -12.5921 0.0000 0.0000 0.0000
# 3 -3.9887 -12.5921 32.1777 0.0000 0.0000 0.0000
# 4 0.0000 0.0000 0.0000 31.2872 0.0000 0.0000
# 5 0.0000 0.0000 0.0000 0.0000 27.9661 0.0000
# 6 0.0000 0.0000 0.0000 0.0000 0.0000 26.1122
#
#
#
# Elastic Compliance Matrix: (Units=1/GPa)
#
#
# Indices 1 2 3 4 5 6 
#
# 1 0.013845 -0.002001 0.000933 0.000000 0.000000 0.000000
# 2 -0.002001 0.018651 0.007051 0.000000 0.000000 0.000000
# 3 0.000933 0.007051 0.033952 0.000000 0.000000 0.000000
# 4 0.000000 0.000000 0.000000 0.031962 0.000000 0.000000
# 5 0.000000 0.000000 0.000000 0.000000 0.035758 0.000000
# 6 0.000000 0.000000 0.000000 0.000000 0.000000 0.038296
#
#
# Mechanical properties :
#
#
# Convention : Reuss Voigt Hill
#
# Bulk Modulus (GPa) = 12.75283 16.79228 14.77255
# Shear Modulus (GPa) = 26.79012 28.57823 27.68418
#
# Velocity S-wave (km/s) = 3.61866 3.73748 3.67855
# Velocity P-wave (km/s) = 4.86755 5.18005 5.02623
#
# Compressibility (1/GPa) = 0.07841398
#
# Stress axis : x y z
#
# Youngs Moduli (GPa) = 72.23058 53.61583 29.45309
#
# Poissons Ratio (x) = 0.10728 -0.02748
# Poissons Ratio (y) = 0.14453 -0.20767
# Poissons Ratio (z) = -0.06740 -0.37803
#
# Static dielectric constant tensor:
#      x y z
#    x 1.727240 0.000000 0.000000 
#    y 0.000000 1.682780 0.000000 
#    z 0.000000 0.000000 1.727390 
# 
# From -- ./inp_files/10678.got.cif
#   From: 2010.05.17/outbox.cif.g08.bks.cpg/sg39_6_cif.got.tgz:10678.got - 2010.06.03 18:22:40.
