data_PCOD9361294
_publ_section_title
;
Structure prediction by ZEFSAII (Michael W. Deem and Ramdas Pophale) SiO2 
 PCOD9361294
Probable space group: A B M 2
;
_chemical_formula_sum "Si O2"
_cell_formula_units_Z 56
_cell_length_a 18.100013
_cell_length_b 24.394777
_cell_length_c 5.328891
_cell_angle_alpha 90.000000
_cell_angle_beta 90.000000
_cell_angle_gamma 90.000000
_cell_volume 2352.949338
_symmetry_space_group_name_H-M "A B M 2"
_symmetry_group_IT_number 39
_symmetry_cell_setting 'orthorhombic'
loop_
_space_group_symop_operation_xyz
x,y,z
-x,-y,z
-x,1/2+y,z
x,1/2-y,z
x,1/2+y,1/2+z
-x,1/2-y,1/2+z
-x,y,1/2+z
x,-y,1/2+z
loop_
_atom_site_type_symbol
_atom_site_label
_atom_site_fract_x
_atom_site_fract_y
_atom_site_fract_z
Si Si1 0.175002 0.137899 0.602060
Si Si2 0.047463 0.186152 0.318447
Si Si3 0.342114 0.360975 0.439082
Si Si4 0.688601 0.750000 0.282391
Si Si5 0.376850 0.016989 0.344307
Si Si6 0.208253 0.027675 0.877149
Si Si7 0.453724 0.184014 0.777755
Si Si8 0.213597 0.250000 0.790784
O O1 0.112385 0.144583 0.393060
O O2 0.254157 0.136190 0.466160
O O3 0.180093 0.086110 0.784045
O O4 0.169296 0.193884 0.762620
O O5 0.073902 0.250000 0.329739
O O6 0.011111 0.178936 0.046432
O O7 0.357739 0.305665 0.282877
O O8 0.365106 0.418294 0.324809
O O9 0.379342 0.349163 0.709739
O O10 0.731531 0.750000 0.549067
O O11 0.742769 0.750000 0.049188
O O12 0.415632 0.006480 0.604673
O O13 0.297983 0.982856 0.371369
O O14 0.182768 0.986670 0.655839
O O15 0.439526 0.250000 0.776046
O O16 0.496296 0.170484 0.032202
#
# Coordination Sequence:
#
# PCOD9361294 Si02
#       8
#     8   8   8   4   8   8   8   4
#     4  11  22  41  68  97 131 162 222 273 320 383
#     4  10  23  43  62  90 132 175 208 253 329 401
#     4  11  22  41  68  97 131 162 222 273 320 383
#     4  10  24  34  54  96 130 150 191 270 325 354
#     4  10  21  37  58  91 124 165 204 262 317 375
#     4  10  21  37  58  91 124 165 204 262 317 375
#     4  10  23  43  62  90 132 175 208 253 329 401
#     4  10  24  34  54  96 130 150 191 270 325 354
#
# _framework density 23.799918000000002
#
# number of rings (size 3 to 8) (size 9 to 14) (size 15 to 20)
#    0.000    1.714    4.286    0.000    4.000    6.857 
#    0.000    0.000    0.000    5.143    0.000    0.000 
#    0.000    0.000    0.000    0.000    0.000    0.000 
#
# Total GULP energy -156626.517982 kJ/mol
# GULP energy per Si atom -5593.804214 kJ/mol
# Density = 2.374575 g / cm^3
# Si number density = 23.799918 Si / 1000 Ang^3
#
#
#
# Elastic Constant Matrix: (Units=GPa)
#
#
# Indices 1 2 3 4 5 6 
#
# 1 77.8674 8.8064 15.4838 0.0000 0.0000 0.0000
# 2 8.8064 122.5436 3.4959 0.0000 0.0000 0.0000
# 3 15.4838 3.4959 113.8324 0.0000 0.0000 0.0000
# 4 0.0000 0.0000 0.0000 19.0301 0.0000 0.0000
# 5 0.0000 0.0000 0.0000 0.0000 23.5977 0.0000
# 6 0.0000 0.0000 0.0000 0.0000 0.0000 -3.7121
#
#
#
# Elastic Compliance Matrix: (Units=1/GPa)
#
#
# Indices 1 2 3 4 5 6 
#
# 1 0.013299 -0.000905 -0.001781 0.000000 0.000000 0.000000
# 2 -0.000905 0.008229 -0.000130 0.000000 0.000000 0.000000
# 3 -0.001781 -0.000130 0.009031 0.000000 0.000000 0.000000
# 4 0.000000 0.000000 0.000000 0.052548 0.000000 0.000000
# 5 0.000000 0.000000 0.000000 0.000000 0.042377 0.000000
# 6 0.000000 0.000000 0.000000 0.000000 0.000000 -0.269388
#
#
# Mechanical properties :
#
#
# Convention : Reuss Voigt Hill
#
# Bulk Modulus (GPa) = 40.11604 41.09063 40.60333
# Shear Modulus (GPa) = -38.47253 26.88028 -5.79612
#
# Velocity S-wave (km/s) = -4.02493 3.36434 -1.56225
# Velocity P-wave (km/s) = 2.16979 5.69159 3.72064
#
# Compressibility (1/GPa) = 0.02492768
#
# Stress axis : x y z
#
# Youngs Moduli (GPa) = 75.19438 121.52017 110.72843
#
# Poissons Ratio (x) = 0.10996 0.19722
# Poissons Ratio (y) = 0.06804 0.01435
# Poissons Ratio (z) = 0.13393 0.01575
#
# Static dielectric constant tensor:
#      x y z
#    x 1.966320 0.000000 0.000000 
#    y 0.000000 1.934110 0.000000 
#    z 0.000000 0.000000 1.975200 
# 
# From -- ./inp_files/1107.got.cif
#   From: 2010.05.17/outbox.cif.g08.bks.cpg/sg39_1_cif.got.tgz:1107.got - 2010.06.03 18:22:40.
