data_PCOD9361031
_publ_section_title
;
Structure prediction by ZEFSAII (Michael W. Deem and Ramdas Pophale) SiO2 
 PCOD9361031
Probable space group: A B M 2
;
_chemical_formula_sum "Si O2"
_cell_formula_units_Z 56
_cell_length_a 5.047132
_cell_length_b 15.304677
_cell_length_c 32.612605
_cell_angle_alpha 90.000000
_cell_angle_beta 90.000000
_cell_angle_gamma 90.000000
_cell_volume 2519.151706
_symmetry_space_group_name_H-M "A B M 2"
_symmetry_group_IT_number 39
_symmetry_cell_setting 'orthorhombic'
loop_
_space_group_symop_operation_xyz
x,y,z
-x,-y,z
-x,1/2+y,z
x,1/2-y,z
x,1/2+y,1/2+z
-x,1/2-y,1/2+z
-x,y,1/2+z
x,-y,1/2+z
loop_
_atom_site_type_symbol
_atom_site_label
_atom_site_fract_x
_atom_site_fract_y
_atom_site_fract_z
Si Si1 0.355568 0.643673 0.048510
Si Si2 0.137327 0.356665 0.999010
Si Si3 0.365219 0.850080 0.140486
Si Si4 0.126358 0.096310 0.365740
Si Si5 0.634836 0.349487 0.413301
Si Si6 0.751474 0.935292 0.277172
Si Si7 0.131770 0.095569 0.188787
O O1 0.335071 0.750000 0.048333
O O2 0.648029 0.621400 0.033614
O O3 0.302057 0.615315 0.094958
O O4 0.145053 0.611584 0.014992
O O5 0.123768 0.250000 0.995687
O O6 0.243020 0.387604 0.955157
O O7 0.459940 0.750000 0.136092
O O8 0.604949 0.900861 0.161668
O O9 0.102495 0.850008 0.168070
O O10 0.379157 0.102675 0.395321
O O11 0.879072 0.152209 0.381531
O O12 0.232341 0.116200 0.319958
O O13 0.000000 0.000000 0.365882
O O14 0.544960 0.250000 0.421663
O O15 0.500000 0.000000 0.275744
O O16 0.780674 0.881415 0.235180
O O17 0.000000 0.000000 0.278058
O O18 0.000000 0.000000 0.190065
#
# Coordination Sequence:
#
# PCOD9361031 Si02
#       7
#     8   8   8   8   8   8   8
#     4   9  17  31  53  80 111 150 193 232 274 338
#     4   9  17  31  53  80 111 150 193 232 274 338
#     4  11  22  37  59  90 122 150 193 250 300 342
#     4  11  22  39  61  85 115 156 200 241 290 353
#     4  11  22  37  59  90 122 150 193 250 300 342
#     4  10  20  38  61  84 109 150 203 238 269 346
#     4  11  22  39  61  85 115 156 200 241 290 353
#
# _framework density 22.229706
#
# number of rings (size 3 to 8) (size 9 to 14) (size 15 to 20)
#    0.000    1.714    0.000    6.857    0.000    4.571 
#    0.000    4.286    0.000   12.857    0.000    0.000 
#    0.000    0.000    0.000    0.000    0.000    0.286 
#
# Total GULP energy -156433.052492 kJ/mol
# GULP energy per Si atom -5586.894732 kJ/mol
# Density = 2.217911 g / cm^3
# Si number density = 22.229706 Si / 1000 Ang^3
#
#
#
# Elastic Constant Matrix: (Units=GPa)
#
#
# Indices 1 2 3 4 5 6 
#
# 1 129.0401 2.2528 27.9076 0.0000 0.0000 0.0000
# 2 2.2528 31.0066 14.8880 0.0000 0.0000 0.0000
# 3 27.9076 14.8880 124.1557 0.0000 0.0000 0.0000
# 4 0.0000 0.0000 0.0000 2.3874 0.0000 0.0000
# 5 0.0000 0.0000 0.0000 0.0000 36.2406 0.0000
# 6 0.0000 0.0000 0.0000 0.0000 0.0000 22.6624
#
#
#
# Elastic Compliance Matrix: (Units=1/GPa)
#
#
# Indices 1 2 3 4 5 6 
#
# 1 0.008148 0.000305 -0.001868 0.000000 0.000000 0.000000
# 2 0.000305 0.034233 -0.004174 0.000000 0.000000 0.000000
# 3 -0.001868 -0.004174 0.008975 0.000000 0.000000 0.000000
# 4 0.000000 0.000000 0.000000 0.418872 0.000000 0.000000
# 5 0.000000 0.000000 0.000000 0.000000 0.027593 0.000000
# 6 0.000000 0.000000 0.000000 0.000000 0.000000 0.044126
#
#
# Mechanical properties :
#
#
# Convention : Reuss Voigt Hill
#
# Bulk Modulus (GPa) = 25.07358 41.58879 33.33119
# Shear Modulus (GPa) = 8.82278 28.20168 18.51223
#
# Velocity S-wave (km/s) = 1.99437 3.56567 2.88891
# Velocity P-wave (km/s) = 4.07519 5.97506 5.11412
#
# Compressibility (1/GPa) = 0.03988261
#
# Stress axis : x y z
#
# Youngs Moduli (GPa) = 122.72611 29.21156 111.42322
#
# Poissons Ratio (x) = -0.00891 0.20815
# Poissons Ratio (y) = -0.03743 0.46503
# Poissons Ratio (z) = 0.22927 0.12192
#
# Static dielectric constant tensor:
#      x y z
#    x 1.756520 0.000000 0.000000 
#    y 0.000000 1.897650 0.000000 
#    z 0.000000 0.000000 1.874310 
# 
# From -- ./inp_files/17275.got.cif
#   From: 2010.05.17/outbox.cif.g08.bks.cpg/sg39_9_cif.got.tgz:17275.got - 2010.06.03 18:22:40.
