data_PCOD9361973
_publ_section_title
;
Structure prediction by ZEFSAII (Michael W. Deem and Ramdas Pophale) SiO2 
 PCOD9361973
Probable space group: A B M 2
;
_chemical_formula_sum "Si O2"
_cell_formula_units_Z 48
_cell_length_a 9.666737
_cell_length_b 14.584236
_cell_length_c 16.469947
_cell_angle_alpha 90.000000
_cell_angle_beta 90.000000
_cell_angle_gamma 90.000000
_cell_volume 2321.965636
_symmetry_space_group_name_H-M "A B M 2"
_symmetry_group_IT_number 39
_symmetry_cell_setting 'orthorhombic'
loop_
_space_group_symop_operation_xyz
x,y,z
-x,-y,z
-x,1/2+y,z
x,1/2-y,z
x,1/2+y,1/2+z
-x,1/2-y,1/2+z
-x,y,1/2+z
x,-y,1/2+z
loop_
_atom_site_type_symbol
_atom_site_label
_atom_site_fract_x
_atom_site_fract_y
_atom_site_fract_z
Si Si1 0.280371 0.904096 0.817590
Si Si2 0.925942 0.250000 0.432698
Si Si3 0.100523 0.750000 0.098662
Si Si4 0.516463 0.851327 0.448808
Si Si5 0.915494 0.750000 0.260034
Si Si6 0.297752 0.076863 0.582245
Si Si7 0.500000 0.000000 0.213834
Si Si8 0.234486 0.556085 0.435711
O O1 0.344706 0.853647 0.895771
O O2 0.180821 0.839781 0.766717
O O3 0.420340 0.927061 0.769088
O O4 0.202345 0.991190 0.858363
O O5 0.844512 0.347383 0.438715
O O6 0.026754 0.250000 0.510705
O O7 0.995943 0.250000 0.343589
O O8 0.192853 0.658147 0.102156
O O9 0.000087 0.750000 0.176587
O O10 0.457090 0.750000 0.447173
O O11 0.570701 0.879216 0.536319
O O12 0.396259 0.919945 0.424113
O O13 0.370943 0.034591 0.660415
O O14 0.229692 0.002631 0.519805
#
# Coordination Sequence:
#
# PCOD9361973 Si02
#       8
#     8   4   4   8   4   8   4   8
#     4  11  24  44  70 101 137 178 232 293 357 409
#     4  12  28  50  66 100 144 196 238 276 344 420
#     4  12  30  48  68 102 146 196 238 276 342 426
#     4  11  18  41  73 101 132 176 227 299 361 405
#     4  12  30  48  68 102 146 196 238 276 342 426
#     4  11  24  44  70 101 137 178 232 293 357 409
#     4  12  24  40  74 108 132 172 228 304 368 394
#     4  11  23  43  74 102 135 184 235 292 351 421
#
# _framework density 20.672141
#
# number of rings (size 3 to 8) (size 9 to 14) (size 15 to 20)
#    0.000    0.667    5.833    3.000    4.667    3.333 
#    0.000    0.000    0.000    0.000    0.000    0.000 
#    0.000    0.000    0.000    0.000    0.000    0.000 
#
# Total GULP energy -133936.453516 kJ/mol
# GULP energy per Si atom -5580.685563 kJ/mol
# Density = 2.062509 g / cm^3
# Si number density = 20.672141 Si / 1000 Ang^3
#
#
#
# Elastic Constant Matrix: (Units=GPa)
#
#
# Indices 1 2 3 4 5 6 
#
# 1 67.3881 36.5667 15.4461 0.0000 0.0000 0.0000
# 2 36.5667 119.9186 15.1941 0.0000 0.0000 0.0000
# 3 15.4461 15.1941 64.7057 0.0000 0.0000 0.0000
# 4 0.0000 0.0000 0.0000 25.3028 0.0000 0.0000
# 5 0.0000 0.0000 0.0000 0.0000 36.9029 0.0000
# 6 0.0000 0.0000 0.0000 0.0000 0.0000 24.2514
#
#
#
# Elastic Compliance Matrix: (Units=1/GPa)
#
#
# Indices 1 2 3 4 5 6 
#
# 1 0.018391 -0.005207 -0.003168 0.000000 0.000000 0.000000
# 2 -0.005207 0.010069 -0.001121 0.000000 0.000000 0.000000
# 3 -0.003168 -0.001121 0.016474 0.000000 0.000000 0.000000
# 4 0.000000 0.000000 0.000000 0.039521 0.000000 0.000000
# 5 0.000000 0.000000 0.000000 0.000000 0.027098 0.000000
# 6 0.000000 0.000000 0.000000 0.000000 0.000000 0.041235
#
#
# Mechanical properties :
#
#
# Convention : Reuss Voigt Hill
#
# Bulk Modulus (GPa) = 38.54686 42.93625 40.74155
# Shear Modulus (GPa) = 27.71221 29.61180 28.66200
#
# Velocity S-wave (km/s) = 3.66534 3.78888 3.72762
# Velocity P-wave (km/s) = 6.04981 6.32107 6.18693
#
# Compressibility (1/GPa) = 0.02594245
#
# Stress axis : x y z
#
# Youngs Moduli (GPa) = 54.37549 99.31766 60.70154
#
# Poissons Ratio (x) = 0.51710 0.19227
# Poissons Ratio (y) = 0.28311 0.06807
# Poissons Ratio (z) = 0.17223 0.11138
#
# Static dielectric constant tensor:
#      x y z
#    x 1.718440 0.000000 0.000000 
#    y 0.000000 1.792420 0.000000 
#    z 0.000000 0.000000 1.734870 
# 
# From -- ./inp_files/11662.got.cif
#   From: 2010.05.17/outbox.cif.g08.bks.cpg/sg39_6_cif.got.tgz:11662.got - 2010.06.03 18:22:40.
