data_PCOD9361760
_publ_section_title
;
Structure prediction by ZEFSAII (Michael W. Deem and Ramdas Pophale) SiO2 
 PCOD9361760
Probable space group: A B M 2
;
_chemical_formula_sum "Si O2"
_cell_formula_units_Z 48
_cell_length_a 8.717033
_cell_length_b 30.205086
_cell_length_c 8.295019
_cell_angle_alpha 90.000000
_cell_angle_beta 90.000000
_cell_angle_gamma 90.000000
_cell_volume 2184.067980
_symmetry_space_group_name_H-M "A B M 2"
_symmetry_group_IT_number 39
_symmetry_cell_setting 'orthorhombic'
loop_
_space_group_symop_operation_xyz
x,y,z
-x,-y,z
-x,1/2+y,z
x,1/2-y,z
x,1/2+y,1/2+z
-x,1/2-y,1/2+z
-x,y,1/2+z
x,-y,1/2+z
loop_
_atom_site_type_symbol
_atom_site_label
_atom_site_fract_x
_atom_site_fract_y
_atom_site_fract_z
Si Si1 0.934110 0.878019 0.044840
Si Si2 0.353607 0.531067 0.806839
Si Si3 0.851648 0.974652 0.017034
Si Si4 0.240688 0.122917 0.388397
Si Si5 0.267303 0.801507 0.406695
Si Si6 0.412773 0.801186 0.052452
O O1 0.893431 0.925258 0.965494
O O2 0.858885 0.877320 0.223180
O O3 0.864483 0.836387 0.948930
O O4 0.117583 0.878422 0.033774
O O5 0.500000 0.500000 0.825977
O O6 0.301304 0.532637 0.622803
O O7 0.352867 0.580350 0.879614
O O8 0.205835 0.507378 0.881567
O O9 0.000000 0.000000 0.089602
O O10 0.335619 0.166652 0.423607
O O11 0.215997 0.750000 0.413002
O O12 0.404703 0.807716 0.535809
O O13 0.343615 0.808784 0.230511
O O14 0.383332 0.750000 0.010373
#
# Coordination Sequence:
#
# PCOD9361760 Si02
#       6
#     8   8   8   8   8   8
#     4  11  24  40  64  96 126 175 222 270 336 393
#     4  11  25  42  64  96 130 172 224 274 334 393
#     4  11  23  43  66  91 131 177 217 273 334 401
#     4  11  24  42  63  97 131 173 224 276 333 397
#     4  10  22  42  68  97 133 174 218 270 333 398
#     4  10  22  42  67  97 133 174 215 270 334 398
#
# _framework density 21.977336999999999
#
# number of rings (size 3 to 8) (size 9 to 14) (size 15 to 20)
#    0.000    1.333    1.667    3.000    4.667    4.000 
#    0.000    0.000    0.000    0.000    0.000    0.000 
#    0.000    0.000    0.000    0.000    0.000    0.000 
#
# Total GULP energy -133990.789482 kJ/mol
# GULP energy per Si atom -5582.949562 kJ/mol
# Density = 2.192732 g / cm^3
# Si number density = 21.977337 Si / 1000 Ang^3
#
#
#
# Elastic Constant Matrix: (Units=GPa)
#
#
# Indices 1 2 3 4 5 6 
#
# 1 83.1590 48.3357 20.1790 0.0000 0.0000 0.0000
# 2 48.3357 111.3944 40.4411 0.0000 0.0000 0.0000
# 3 20.1790 40.4411 39.9879 0.0000 0.0000 0.0000
# 4 0.0000 0.0000 0.0000 19.4818 0.0000 0.0000
# 5 0.0000 0.0000 0.0000 0.0000 32.3779 0.0000
# 6 0.0000 0.0000 0.0000 0.0000 0.0000 40.4071
#
#
#
# Elastic Compliance Matrix: (Units=1/GPa)
#
#
# Indices 1 2 3 4 5 6 
#
# 1 0.016152 -0.006399 -0.001679 0.000000 0.000000 0.000000
# 2 -0.006399 0.016720 -0.013681 0.000000 0.000000 0.000000
# 3 -0.001679 -0.013681 0.039691 0.000000 0.000000 0.000000
# 4 0.000000 0.000000 0.000000 0.051330 0.000000 0.000000
# 5 0.000000 0.000000 0.000000 0.000000 0.030885 0.000000
# 6 0.000000 0.000000 0.000000 0.000000 0.000000 0.024748
#
#
# Mechanical properties :
#
#
# Convention : Reuss Voigt Hill
#
# Bulk Modulus (GPa) = 34.42918 50.27255 42.35087
# Shear Modulus (GPa) = 21.48443 26.82571 24.15507
#
# Velocity S-wave (km/s) = 3.13001 3.49751 3.31885
# Velocity P-wave (km/s) = 5.36306 6.26374 5.83082
#
# Compressibility (1/GPa) = 0.02904513
#
# Stress axis : x y z
#
# Youngs Moduli (GPa) = 61.91180 59.80694 25.19473
#
# Poissons Ratio (x) = 0.38270 0.04231
# Poissons Ratio (y) = 0.39617 0.34469
# Poissons Ratio (z) = 0.10397 0.81821
#
# Static dielectric constant tensor:
#      x y z
#    x 1.806130 0.000000 0.000000 
#    y 0.000000 1.783080 0.000000 
#    z 0.000000 0.000000 1.840990 
# 
# From -- ./inp_files/2287.got.cif
#   From: 2010.05.17/outbox.cif.g08.bks.cpg/sg39_2_cif.got.tgz:2287.got - 2010.06.03 18:22:40.
