data_PCOD9361351
_publ_section_title
;
Structure prediction by ZEFSAII (Michael W. Deem and Ramdas Pophale) SiO2 
 PCOD9361351
Probable space group: A B M 2
;
_chemical_formula_sum "Si O2"
_cell_formula_units_Z 40
_cell_length_a 7.689505
_cell_length_b 15.653980
_cell_length_c 14.688247
_cell_angle_alpha 90.000000
_cell_angle_beta 90.000000
_cell_angle_gamma 90.000000
_cell_volume 1768.044230
_symmetry_space_group_name_H-M "A B M 2"
_symmetry_group_IT_number 39
_symmetry_cell_setting 'orthorhombic'
loop_
_space_group_symop_operation_xyz
x,y,z
-x,-y,z
-x,1/2+y,z
x,1/2-y,z
x,1/2+y,1/2+z
-x,1/2-y,1/2+z
-x,y,1/2+z
x,-y,1/2+z
loop_
_atom_site_type_symbol
_atom_site_label
_atom_site_fract_x
_atom_site_fract_y
_atom_site_fract_z
Si Si1 0.014007 0.602649 0.335080
Si Si2 0.141615 0.151033 0.148625
Si Si3 0.354097 0.565276 0.408004
Si Si4 0.147424 0.922355 0.022122
Si Si5 0.505945 0.349275 0.079507
O O1 0.221710 0.614636 0.343123
O O2 0.000000 0.500000 0.319640
O O3 0.923707 0.647322 0.251249
O O4 0.918420 0.626345 0.430114
O O5 0.132737 0.250000 0.115266
O O6 0.342202 0.121940 0.139842
O O7 0.015615 0.091254 0.089168
O O8 0.500000 0.500000 0.369642
O O9 0.228040 0.506083 0.471696
O O10 0.447364 0.630152 0.476021
O O11 0.307915 0.892623 0.083976
O O12 0.530413 0.250000 0.095134
#
# Coordination Sequence:
#
# PCOD9361351 Si02
#       5
#     8   8   8   8   8
#     4  10  22  39  65  92 125 164 211 267 321 385
#     4  11  24  39  61  93 128 166 213 262 324 393
#     4   9  19  39  65  93 119 166 218 260 318 387
#     4  10  21  42  65  86 124 166 214 265 320 379
#     4  10  21  38  61  89 123 166 210 260 321 379
#
# _framework density 22.623868000000002
#
# number of rings (size 3 to 8) (size 9 to 14) (size 15 to 20)
#    0.000    2.000    2.000    0.600    2.800    2.400 
#   10.800    0.000    0.000    0.000    0.000    0.000 
#    0.000    0.000    0.000    0.000    0.000    0.000 
#
# Total GULP energy -111442.571488 kJ/mol
# GULP energy per Si atom -5572.128574 kJ/mol
# Density = 2.257238 g / cm^3
# Si number density = 22.623868 Si / 1000 Ang^3
#
#
#
# Elastic Constant Matrix: (Units=GPa)
#
#
# Indices 1 2 3 4 5 6 
#
# 1 176.6820 17.6900 38.6579 0.0000 0.0000 0.0000
# 2 17.6900 40.1104 -2.5902 0.0000 0.0000 0.0000
# 3 38.6579 -2.5902 72.8425 0.0000 0.0000 0.0000
# 4 0.0000 0.0000 0.0000 16.8615 0.0000 0.0000
# 5 0.0000 0.0000 0.0000 0.0000 20.9229 0.0000
# 6 0.0000 0.0000 0.0000 0.0000 0.0000 19.0581
#
#
#
# Elastic Compliance Matrix: (Units=1/GPa)
#
#
# Indices 1 2 3 4 5 6 
#
# 1 0.006799 -0.003239 -0.003723 0.000000 0.000000 0.000000
# 2 -0.003239 0.026532 0.002662 0.000000 0.000000 0.000000
# 3 -0.003723 0.002662 0.015799 0.000000 0.000000 0.000000
# 4 0.000000 0.000000 0.000000 0.059307 0.000000 0.000000
# 5 0.000000 0.000000 0.000000 0.000000 0.047795 0.000000
# 6 0.000000 0.000000 0.000000 0.000000 0.000000 0.052471
#
#
# Mechanical properties :
#
#
# Convention : Reuss Voigt Hill
#
# Bulk Modulus (GPa) = 24.67344 44.12781 34.40063
# Shear Modulus (GPa) = 21.66272 27.09366 24.37819
#
# Velocity S-wave (km/s) = 3.09773 3.46435 3.28616
# Velocity P-wave (km/s) = 4.87075 5.96235 5.44398
#
# Compressibility (1/GPa) = 0.04052942
#
# Stress axis : x y z
#
# Youngs Moduli (GPa) = 147.08378 37.69094 63.29551
#
# Poissons Ratio (x) = 0.12208 0.23567
# Poissons Ratio (y) = 0.47640 -0.16851
# Poissons Ratio (z) = 0.54764 -0.10035
#
# Static dielectric constant tensor:
#      x y z
#    x 1.921080 0.000000 0.000000 
#    y 0.000000 1.954690 0.000000 
#    z 0.000000 0.000000 1.836940 
# 
# From -- ./inp_files/8092.got.cif
#   From: 2010.05.17/outbox.cif.g08.bks.cpg/sg39_5_cif.got.tgz:8092.got - 2010.06.03 18:22:40.
