data_PCOD9361471
_publ_section_title
;
Structure prediction by ZEFSAII (Michael W. Deem and Ramdas Pophale) SiO2 
 PCOD9361471
Probable space group: A B M 2
;
_chemical_formula_sum "Si O2"
_cell_formula_units_Z 36
_cell_length_a 14.562488
_cell_length_b 13.489346
_cell_length_c 7.022992
_cell_angle_alpha 90.000000
_cell_angle_beta 90.000000
_cell_angle_gamma 90.000000
_cell_volume 1379.585587
_symmetry_space_group_name_H-M "A B M 2"
_symmetry_group_IT_number 39
_symmetry_cell_setting 'orthorhombic'
loop_
_space_group_symop_operation_xyz
x,y,z
-x,-y,z
-x,1/2+y,z
x,1/2-y,z
x,1/2+y,1/2+z
-x,1/2-y,1/2+z
-x,y,1/2+z
x,-y,1/2+z
loop_
_atom_site_type_symbol
_atom_site_label
_atom_site_fract_x
_atom_site_fract_y
_atom_site_fract_z
Si Si1 0.445297 0.750000 0.555550
Si Si2 0.120079 0.915635 0.609206
Si Si3 0.578999 0.579251 0.586669
Si Si4 0.685172 0.097745 0.451009
Si Si5 0.914777 0.361145 0.032041
O O1 0.520137 0.664375 0.490305
O O2 0.369318 0.835926 0.600130
O O3 0.208574 0.890338 0.485966
O O4 0.124854 0.870047 0.819231
O O5 0.025311 0.876289 0.519899
O O6 0.115939 0.035821 0.630759
O O7 0.500000 0.500000 0.655067
O O8 0.652101 0.515212 0.470283
O O9 0.639640 0.630102 0.752091
O O10 0.895762 0.250000 0.107597
#
# Coordination Sequence:
#
# PCOD9361471 Si02
#       5
#     4   8   8   8   8
#     4  10  22  38  64  92 130 176 214 272 346 392
#     4  11  24  44  70 105 138 183 232 289 335 417
#     4  10  21  40  62  93 131 174 216 276 340 391
#     4  11  23  41  68  97 133 172 230 278 324 415
#     4  11  24  44  70  98 145 186 225 286 359 402
#
# _framework density 26.094792000000002
#
# number of rings (size 3 to 8) (size 9 to 14) (size 15 to 20)
#    0.000    1.333    0.000    7.333    3.111    1.778 
#    2.000    1.111    0.000    0.000    0.000    0.000 
#    0.000    0.000    0.000    0.000    0.000    0.000 
#
# Total GULP energy -100225.824348 kJ/mol
# GULP energy per Si atom -5568.101353 kJ/mol
# Density = 2.603540 g / cm^3
# Si number density = 26.094792 Si / 1000 Ang^3
#
#
#
# Elastic Constant Matrix: (Units=GPa)
#
#
# Indices 1 2 3 4 5 6 
#
# 1 86.0095 10.0989 6.5769 0.0000 0.0000 0.0000
# 2 10.0989 196.5317 11.3998 0.0000 0.0000 0.0000
# 3 6.5769 11.3998 34.0194 0.0000 0.0000 0.0000
# 4 0.0000 0.0000 0.0000 -310.0530 0.0000 0.0000
# 5 0.0000 0.0000 0.0000 0.0000 6.2894 0.0000
# 6 0.0000 0.0000 0.0000 0.0000 0.0000 -9.2484
#
#
#
# Elastic Compliance Matrix: (Units=1/GPa)
#
#
# Indices 1 2 3 4 5 6 
#
# 1 0.011846 -0.000485 -0.002128 0.000000 0.000000 0.000000
# 2 -0.000485 0.005209 -0.001652 0.000000 0.000000 0.000000
# 3 -0.002128 -0.001652 0.030360 0.000000 0.000000 0.000000
# 4 0.000000 0.000000 0.000000 -0.003225 0.000000 0.000000
# 5 0.000000 0.000000 0.000000 0.000000 0.158997 0.000000
# 6 0.000000 0.000000 0.000000 0.000000 0.000000 -0.108127
#
#
# Mechanical properties :
#
#
# Convention : Reuss Voigt Hill
#
# Bulk Modulus (GPa) = 25.71627 41.41241 33.56434
# Shear Modulus (GPa) = 42.89948 -43.37006 -0.23529
#
# Velocity S-wave (km/s) = 4.05901 -4.08121 -0.30060
# Velocity P-wave (km/s) = 5.64303 2.51076 3.57350
#
# Compressibility (1/GPa) = 0.03888589
#
# Stress axis : x y z
#
# Youngs Moduli (GPa) = 84.41461 191.97614 32.93830
#
# Poissons Ratio (x) = 0.09317 0.07008
# Poissons Ratio (y) = 0.04097 0.05440
# Poissons Ratio (z) = 0.17960 0.31708
#
# Static dielectric constant tensor:
#      x y z
#    x 2.030720 0.000000 0.000000 
#    y 0.000000 2.023190 0.000000 
#    z 0.000000 0.000000 2.251280 
# 
# From -- ./inp_files/3039.got.cif
#   From: 2010.05.17/outbox.cif.g08.bks.cpg/sg39_2_cif.got.tgz:3039.got - 2010.06.03 18:22:40.
