data_PCOD9361480
_publ_section_title
;
Structure prediction by ZEFSAII (Michael W. Deem and Ramdas Pophale) SiO2 
 PCOD9361480
Probable space group: A B M 2
;
_chemical_formula_sum "Si O2"
_cell_formula_units_Z 24
_cell_length_a 5.304997
_cell_length_b 16.853940
_cell_length_c 9.113884
_cell_angle_alpha 90.000000
_cell_angle_beta 90.000000
_cell_angle_gamma 90.000000
_cell_volume 814.873290
_symmetry_space_group_name_H-M "A B M 2"
_symmetry_group_IT_number 39
_symmetry_cell_setting 'orthorhombic'
loop_
_space_group_symop_operation_xyz
x,y,z
-x,-y,z
-x,1/2+y,z
x,1/2-y,z
x,1/2+y,1/2+z
-x,1/2-y,1/2+z
-x,y,1/2+z
x,-y,1/2+z
loop_
_atom_site_type_symbol
_atom_site_label
_atom_site_fract_x
_atom_site_fract_y
_atom_site_fract_z
Si Si1 0.990392 0.250000 0.106151
Si Si2 0.560807 0.582645 0.428928
Si Si3 0.637559 0.250000 0.326184
Si Si4 0.933363 0.080635 0.617188
O O1 0.694276 0.250000 0.149110
O O2 0.054307 0.332623 0.185623
O O3 0.131495 0.250000 0.949785
O O4 0.500000 0.500000 0.344311
O O5 0.497793 0.666483 0.355196
O O6 0.343753 0.575834 0.551995
O O7 0.842138 0.583903 0.495333
O O8 0.000000 0.000000 0.701653
#
# Coordination Sequence:
#
# PCOD9361480 Si02
#       4
#     4   8   4   8
#     4  10  21  40  63  96 132 174 222 272 332 396
#     4   9  18  36  61  91 125 166 214 266 324 386
#     4  10  21  40  67 100 136 176 222 276 336 400
#     4   9  18  36  61  89 125 167 214 266 322 386
#
# _framework density 29.452434
#
# number of rings (size 3 to 8) (size 9 to 14) (size 15 to 20)
#    0.000    2.667    0.000    1.000    0.000    0.000 
#    0.000   45.000    0.000    0.000    0.000   18.667 
#    0.000    0.000    0.000    0.000    0.000    0.000 
#
# Total GULP energy -67041.871924 kJ/mol
# GULP energy per Si atom -5586.822660 kJ/mol
# Density = 2.938540 g / cm^3
# Si number density = 29.452434 Si / 1000 Ang^3
#
#
#
# Elastic Constant Matrix: (Units=GPa)
#
#
# Indices 1 2 3 4 5 6 
#
# 1 199.2784 29.4180 90.4629 0.0000 0.0000 0.0000
# 2 29.4180 332.3393 63.4745 0.0000 0.0000 0.0000
# 3 90.4629 63.4745 104.4227 0.0000 0.0000 0.0000
# 4 0.0000 0.0000 0.0000 -18.6026 0.0000 0.0000
# 5 0.0000 0.0000 0.0000 0.0000 75.5128 0.0000
# 6 0.0000 0.0000 0.0000 0.0000 0.0000 39.8344
#
#
#
# Elastic Compliance Matrix: (Units=1/GPa)
#
#
# Indices 1 2 3 4 5 6 
#
# 1 0.008426 0.000733 -0.007745 0.000000 0.000000 0.000000
# 2 0.000733 0.003468 -0.002743 0.000000 0.000000 0.000000
# 3 -0.007745 -0.002743 0.017954 0.000000 0.000000 0.000000
# 4 0.000000 0.000000 0.000000 -0.053756 0.000000 0.000000
# 5 0.000000 0.000000 0.000000 0.000000 0.013243 0.000000
# 6 0.000000 0.000000 0.000000 0.000000 0.000000 0.025104
#
#
# Mechanical properties :
#
#
# Convention : Reuss Voigt Hill
#
# Bulk Modulus (GPa) = 96.73764 111.41678 104.07721
# Shear Modulus (GPa) = 133.70909 49.52795 91.61852
#
# Velocity S-wave (km/s) = 6.74514 4.10521 5.58344
# Velocity P-wave (km/s) = 9.67363 7.77058 8.77385
#
# Compressibility (1/GPa) = 0.01033724
#
# Stress axis : x y z
#
# Youngs Moduli (GPa) = 118.68323 288.34772 55.69817
#
# Poissons Ratio (x) = -0.21149 0.43139
# Poissons Ratio (y) = -0.08705 0.15281
# Poissons Ratio (z) = 0.91923 0.79108
#
# Static dielectric constant tensor:
#      x y z
#    x 2.335910 0.000000 0.000000 
#    y 0.000000 2.341010 0.000000 
#    z 0.000000 0.000000 2.168690 
# 
# From -- ./inp_files/4265.got.cif
#   From: 2010.05.17/outbox.cif.g08.bks.cpg/sg39_3_cif.got.tgz:4265.got - 2010.06.03 18:22:40.
