data_PCOD9361216
_publ_section_title
;
Structure prediction by ZEFSAII (Michael W. Deem and Ramdas Pophale) SiO2 
 PCOD9361216
Probable space group: A B M 2
;
_chemical_formula_sum "Si O2"
_cell_formula_units_Z 64
_cell_length_a 5.476069
_cell_length_b 17.854818
_cell_length_c 31.044343
_cell_angle_alpha 90.000000
_cell_angle_beta 90.000000
_cell_angle_gamma 90.000000
_cell_volume 3035.336278
_symmetry_space_group_name_H-M "A B M 2"
_symmetry_group_IT_number 39
_symmetry_cell_setting 'orthorhombic'
loop_
_space_group_symop_operation_xyz
x,y,z
-x,-y,z
-x,1/2+y,z
x,1/2-y,z
x,1/2+y,1/2+z
-x,1/2-y,1/2+z
-x,y,1/2+z
x,-y,1/2+z
loop_
_atom_site_type_symbol
_atom_site_label
_atom_site_fract_x
_atom_site_fract_y
_atom_site_fract_z
Si Si1 0.760979 0.840443 0.437170
Si Si2 0.769739 0.664791 0.266511
Si Si3 0.900134 0.074871 0.209285
Si Si4 0.318399 0.840597 0.132746
Si Si5 0.027421 0.088879 0.352251
Si Si6 0.735548 0.840874 0.986340
Si Si7 0.629109 0.922178 0.796016
Si Si8 0.185562 0.159090 0.084175
O O1 0.749023 0.750000 0.432946
O O2 0.825025 0.875914 0.391080
O O3 0.005387 0.859101 0.464363
O O4 0.508068 0.865632 0.460191
O O5 0.840028 0.750000 0.271229
O O6 0.486148 0.649044 0.271460
O O7 0.883488 0.630392 0.223754
O O8 0.850273 0.616409 0.308008
O O9 0.722366 0.118250 0.177743
O O10 0.786198 0.048892 0.254885
O O11 0.000000 0.000000 0.187463
O O12 0.314514 0.750000 0.137733
O O13 0.579998 0.861916 0.112826
O O14 0.081090 0.861345 0.103127
O O15 0.749670 0.110470 0.339609
O O16 0.000000 0.000000 0.356655
O O17 0.718295 0.750000 0.987180
O O18 0.756645 0.867223 0.035627
O O19 0.500000 0.000000 0.809064
O O20 0.182528 0.250000 0.082652
#
# Coordination Sequence:
#
# PCOD9361216 Si02
#       8
#     8   8   8   8   8   8   8   8
#     4  10  21  35  58  91 120 153 204 256 302 358
#     4  11  23  39  61  87 117 153 203 258 299 350
#     4  11  23  39  59  84 121 162 202 246 305 374
#     4  10  21  35  58  91 120 153 204 256 302 358
#     4  11  23  39  59  84 121 162 202 246 305 374
#     4   9  18  35  59  87 120 156 196 250 311 365
#     4  11  21  40  62  82 113 166 209 246 306 374
#     4   9  18  35  59  87 120 156 196 250 311 365
#
# _framework density 21.084978
#
# number of rings (size 3 to 8) (size 9 to 14) (size 15 to 20)
#    0.000    1.750    2.500    2.250    3.500    6.000 
#    0.000    0.000    0.000    4.500    0.000    0.000 
#    0.000    0.000    0.000    0.000    0.000    0.000 
#
# Total GULP energy -178195.782140 kJ/mol
# GULP energy per Si atom -5568.618192 kJ/mol
# Density = 2.103699 g / cm^3
# Si number density = 21.084978 Si / 1000 Ang^3
#
#
#
# Elastic Constant Matrix: (Units=GPa)
#
#
# Indices 1 2 3 4 5 6 
#
# 1 60.7736 2.1319 8.4855 0.0000 0.0000 0.0000
# 2 2.1319 42.7922 6.3830 0.0000 0.0000 0.0000
# 3 8.4855 6.3830 73.9401 0.0000 0.0000 0.0000
# 4 0.0000 0.0000 0.0000 214.0963 0.0000 0.0000
# 5 0.0000 0.0000 0.0000 0.0000 31.9261 0.0000
# 6 0.0000 0.0000 0.0000 0.0000 0.0000 10.9214
#
#
#
# Elastic Compliance Matrix: (Units=1/GPa)
#
#
# Indices 1 2 3 4 5 6 
#
# 1 0.016735 -0.000554 -0.001873 0.000000 0.000000 0.000000
# 2 -0.000554 0.023692 -0.001982 0.000000 0.000000 0.000000
# 3 -0.001873 -0.001982 0.013910 0.000000 0.000000 0.000000
# 4 0.000000 0.000000 0.000000 0.004671 0.000000 0.000000
# 5 0.000000 0.000000 0.000000 0.000000 0.031322 0.000000
# 6 0.000000 0.000000 0.000000 0.000000 0.000000 0.091564
#
#
# Mechanical properties :
#
#
# Convention : Reuss Voigt Hill
#
# Bulk Modulus (GPa) = 21.96820 23.50074 22.73447
# Shear Modulus (GPa) = 24.28535 62.08912 43.18723
#
# Velocity S-wave (km/s) = 3.39748 5.43240 4.53067
# Velocity P-wave (km/s) = 5.08252 7.10760 6.17859
#
# Compressibility (1/GPa) = 0.04552034
#
# Stress axis : x y z
#
# Youngs Moduli (GPa) = 59.75340 42.20841 71.88843
#
# Poissons Ratio (x) = 0.02340 0.13463
# Poissons Ratio (y) = 0.03313 0.14246
# Poissons Ratio (z) = 0.11190 0.08364
#
# Static dielectric constant tensor:
#      x y z
#    x 2.771900 0.000000 0.000000 
#    y 0.000000 0.962100 0.000000 
#    z 0.000000 0.000000 1.748720 
# 
# From -- ./inp_files/16612.got.cif
#   From: 2010.05.17/outbox.cif.g08.bks.cpg/sg39_9_cif.got.tgz:16612.got - 2010.06.03 18:22:40.
