data_PCOD9361909
_publ_section_title
;
Structure prediction by ZEFSAII (Michael W. Deem and Ramdas Pophale) SiO2 
 PCOD9361909
Probable space group: A B M 2
;
_chemical_formula_sum "Si O2"
_cell_formula_units_Z 40
_cell_length_a 20.380644
_cell_length_b 9.845626
_cell_length_c 9.137892
_cell_angle_alpha 90.000000
_cell_angle_beta 90.000000
_cell_angle_gamma 90.000000
_cell_volume 1833.611222
_symmetry_space_group_name_H-M "A B M 2"
_symmetry_group_IT_number 39
_symmetry_cell_setting 'orthorhombic'
loop_
_space_group_symop_operation_xyz
x,y,z
-x,-y,z
-x,1/2+y,z
x,1/2-y,z
x,1/2+y,1/2+z
-x,1/2-y,1/2+z
-x,y,1/2+z
x,-y,1/2+z
loop_
_atom_site_type_symbol
_atom_site_label
_atom_site_fract_x
_atom_site_fract_y
_atom_site_fract_z
Si Si1 0.935526 0.907931 0.331770
Si Si2 0.256583 0.601470 0.137408
Si Si3 0.347772 0.000769 0.387824
Si Si4 0.440368 0.602572 0.634277
Si Si5 0.855590 0.593512 0.042128
O O1 0.943787 0.750000 0.380655
O O2 0.912721 0.903703 0.163736
O O3 0.879200 0.989730 0.418019
O O4 0.000000 0.000000 0.347768
O O5 0.223811 0.750000 0.136163
O O6 0.297178 0.582120 0.286667
O O7 0.207631 0.475594 0.115941
O O8 0.306536 0.591718 0.000839
O O9 0.393651 0.079379 0.273597
O O10 0.395031 0.913580 0.491568
O O11 0.500000 0.500000 0.631479
O O12 0.470514 0.750000 0.640354
O O13 0.843937 0.750000 0.995202
#
# Coordination Sequence:
#
# PCOD9361909 Si02
#       5
#     8   8   8   8   8
#     4  11  24  42  65  93 126 165 209 256 307 364
#     4  11  23  41  65  91 122 162 207 254 306 365
#     4  10  24  41  63  91 124 161 204 254 309 366
#     4  11  24  42  64  91 124 161 204 254 308 368
#     4  11  25  42  63  94 129 165 206 254 309 367
#
# _framework density 21.814876000000002
#
# number of rings (size 3 to 8) (size 9 to 14) (size 15 to 20)
#    0.000    1.200    0.000    4.800    0.000   19.200 
#    0.000    0.000    0.000    0.000    0.000    0.000 
#    0.000    0.000    0.000    0.000    0.000    0.000 
#
# Total GULP energy -111837.639124 kJ/mol
# GULP energy per Si atom -5591.881956 kJ/mol
# Density = 2.176522 g / cm^3
# Si number density = 21.814876 Si / 1000 Ang^3
#
#
#
# Elastic Constant Matrix: (Units=GPa)
#
#
# Indices 1 2 3 4 5 6 
#
# 1 78.3017 40.5592 15.4929 0.0000 0.0000 0.0000
# 2 40.5592 194.9809 30.3683 0.0000 0.0000 0.0000
# 3 15.4929 30.3683 113.3186 0.0000 0.0000 0.0000
# 4 0.0000 0.0000 0.0000 -12.8405 0.0000 0.0000
# 5 0.0000 0.0000 0.0000 0.0000 -261.0755 0.0000
# 6 0.0000 0.0000 0.0000 0.0000 0.0000 32.1560
#
#
#
# Elastic Compliance Matrix: (Units=1/GPa)
#
#
# Indices 1 2 3 4 5 6 
#
# 1 0.014474 -0.002820 -0.001223 0.000000 0.000000 0.000000
# 2 -0.002820 0.005902 -0.001196 0.000000 0.000000 0.000000
# 3 -0.001223 -0.001196 0.009312 0.000000 0.000000 0.000000
# 4 0.000000 0.000000 0.000000 -0.077878 0.000000 0.000000
# 5 0.000000 0.000000 0.000000 0.000000 -0.003830 0.000000
# 6 0.000000 0.000000 0.000000 0.000000 0.000000 0.031098
#
#
# Mechanical properties :
#
#
# Convention : Reuss Voigt Hill
#
# Bulk Modulus (GPa) = 52.05812 62.16023 57.10917
# Shear Modulus (GPa) = -1237.49245 -28.33994 -632.91620
#
# Velocity S-wave (km/s) = -23.84327 -3.60823 -17.05170
# Velocity P-wave (km/s) = 27.09403 3.34622 19.01170
#
# Compressibility (1/GPa) = 0.01920930
#
# Stress axis : x y z
#
# Youngs Moduli (GPa) = 69.08937 169.44385 107.38365
#
# Poissons Ratio (x) = 0.47789 0.13134
# Poissons Ratio (y) = 0.19486 0.12843
# Poissons Ratio (z) = 0.08450 0.20265
#
# Static dielectric constant tensor:
#      x y z
#    x 1.817070 0.000000 0.000000 
#    y 0.000000 1.946990 0.000000 
#    z 0.000000 0.000000 1.787930 
# 
# From -- ./inp_files/3622.got.cif
#   From: 2010.05.17/outbox.cif.g08.bks.cpg/sg39_2_cif.got.tgz:3622.got - 2010.06.03 18:22:40.
