data_PCOD9361646
_publ_section_title
;
Structure prediction by ZEFSAII (Michael W. Deem and Ramdas Pophale) SiO2 
 PCOD9361646
Probable space group: A B M 2
;
_chemical_formula_sum "Si O2"
_cell_formula_units_Z 44
_cell_length_a 12.823899
_cell_length_b 7.675728
_cell_length_c 19.861915
_cell_angle_alpha 90.000000
_cell_angle_beta 90.000000
_cell_angle_gamma 90.000000
_cell_volume 1955.063125
_symmetry_space_group_name_H-M "A B M 2"
_symmetry_group_IT_number 39
_symmetry_cell_setting 'orthorhombic'
loop_
_space_group_symop_operation_xyz
x,y,z
-x,-y,z
-x,1/2+y,z
x,1/2-y,z
x,1/2+y,1/2+z
-x,1/2-y,1/2+z
-x,y,1/2+z
x,-y,1/2+z
loop_
_atom_site_type_symbol
_atom_site_label
_atom_site_fract_x
_atom_site_fract_y
_atom_site_fract_z
Si Si1 0.382982 0.958346 0.201160
Si Si2 0.385354 0.946367 0.996548
Si Si3 0.666376 0.956307 0.850148
Si Si4 0.108044 0.045103 0.904696
Si Si5 0.116319 0.750000 0.024502
Si Si6 0.213958 0.437028 0.092594
O O1 0.369921 0.750000 0.200447
O O2 0.372273 0.020832 0.278309
O O3 0.500000 0.000000 0.177228
O O4 0.292729 0.036829 0.154940
O O5 0.359769 0.750000 0.018629
O O6 0.500000 0.000000 0.018613
O O7 0.381473 0.956106 0.916161
O O8 0.295236 0.059409 0.029358
O O9 0.642675 0.750000 0.855258
O O10 0.790206 0.978909 0.859223
O O11 0.892133 0.750000 0.926650
O O12 0.110414 0.905775 0.965662
O O13 0.000000 0.000000 0.868127
O O14 0.137499 0.596118 0.080813
O O15 0.160434 0.250000 0.095478
#
# Coordination Sequence:
#
# PCOD9361646 Si02
#       6
#     8   8   8   8   4   8
#     4  11  23  41  59  90 132 179 225 267 317 386
#     4  12  22  35  55  85 123 161 207 262 318 383
#     4  10  22  39  60  89 125 167 211 270 323 381
#     4  11  22  41  68 104 129 164 212 272 335 393
#     4  12  22  42  66  94 130 160 212 268 324 394
#     4  12  23  40  62  89 126 171 215 260 318 389
#
# _framework density 22.505666000000002
#
# number of rings (size 3 to 8) (size 9 to 14) (size 15 to 20)
#    0.000    0.727    4.545    3.818    0.000    2.909 
#    0.000    0.000    0.000    1.091    0.000    0.000 
#    0.000    0.000    0.000    0.000    0.000    0.000 
#
# Total GULP energy -122549.690077 kJ/mol
# GULP energy per Si atom -5570.440458 kJ/mol
# Density = 2.245444 g / cm^3
# Si number density = 22.505666 Si / 1000 Ang^3
#
#
#
# Elastic Constant Matrix: (Units=GPa)
#
#
# Indices 1 2 3 4 5 6 
#
# 1 56.0763 11.2344 -3.3819 0.0000 0.0000 0.0000
# 2 11.2344 168.0551 6.6778 0.0000 0.0000 0.0000
# 3 -3.3819 6.6778 94.1442 0.0000 0.0000 0.0000
# 4 0.0000 0.0000 0.0000 22.1440 0.0000 0.0000
# 5 0.0000 0.0000 0.0000 0.0000 -23.7529 0.0000
# 6 0.0000 0.0000 0.0000 0.0000 0.0000 26.1833
#
#
#
# Elastic Compliance Matrix: (Units=1/GPa)
#
#
# Indices 1 2 3 4 5 6 
#
# 1 0.018126 -0.001241 0.000739 0.000000 0.000000 0.000000
# 2 -0.001241 0.006052 -0.000474 0.000000 0.000000 0.000000
# 3 0.000739 -0.000474 0.010682 0.000000 0.000000 0.000000
# 4 0.000000 0.000000 0.000000 0.045159 0.000000 0.000000
# 5 0.000000 0.000000 0.000000 0.000000 -0.042100 0.000000
# 6 0.000000 0.000000 0.000000 0.000000 0.000000 0.038192
#
#
# Mechanical properties :
#
#
# Convention : Reuss Voigt Hill
#
# Bulk Modulus (GPa) = 30.38696 38.59293 34.48994
# Shear Modulus (GPa) = 56.15913 25.16457 40.66185
#
# Velocity S-wave (km/s) = 5.00075 3.34749 4.25519
# Velocity P-wave (km/s) = 6.84650 5.66800 6.28494
#
# Compressibility (1/GPa) = 0.03290885
#
# Stress axis : x y z
#
# Youngs Moduli (GPa) = 55.16914 165.22847 93.61397
#
# Poissons Ratio (x) = 0.20506 -0.06920
# Poissons Ratio (y) = 0.06847 0.04436
# Poissons Ratio (z) = -0.04078 0.07830
#
# Static dielectric constant tensor:
#      x y z
#    x 1.759930 0.000000 0.000000 
#    y 0.000000 1.839160 0.000000 
#    z 0.000000 0.000000 1.836380 
# 
# From -- ./inp_files/12587.got.cif
#   From: 2010.05.17/outbox.cif.g08.bks.cpg/sg39_7_cif.got.tgz:12587.got - 2010.06.03 18:22:40.
