data_PCOD9361061
_publ_section_title
;
Structure prediction by ZEFSAII (Michael W. Deem and Ramdas Pophale) SiO2 
 PCOD9361061
Probable space group: A B M 2
;
_chemical_formula_sum "Si O2"
_cell_formula_units_Z 64
_cell_length_a 25.160861
_cell_length_b 8.621487
_cell_length_c 14.495112
_cell_angle_alpha 90.000000
_cell_angle_beta 90.000000
_cell_angle_gamma 90.000000
_cell_volume 3144.338198
_symmetry_space_group_name_H-M "A B M 2"
_symmetry_group_IT_number 39
_symmetry_cell_setting 'orthorhombic'
loop_
_space_group_symop_operation_xyz
x,y,z
-x,-y,z
-x,1/2+y,z
x,1/2-y,z
x,1/2+y,1/2+z
-x,1/2-y,1/2+z
-x,y,1/2+z
x,-y,1/2+z
loop_
_atom_site_type_symbol
_atom_site_label
_atom_site_fract_x
_atom_site_fract_y
_atom_site_fract_z
Si Si1 0.260264 0.067906 0.961600
Si Si2 0.127077 0.064850 0.277991
Si Si3 0.443032 0.566515 0.068822
Si Si4 0.243884 0.063580 0.257962
Si Si5 0.850180 0.436192 0.990331
Si Si6 0.625769 0.063699 0.414143
Si Si7 0.941968 0.934289 0.626743
Si Si8 0.358230 0.934331 0.709378
O O1 0.257263 0.250000 0.979949
O O2 0.252077 0.029442 0.852924
O O3 0.209757 0.991223 0.009953
O O4 0.321461 0.018624 0.973568
O O5 0.118811 0.250000 0.273398
O O6 0.183721 0.029014 0.228562
O O7 0.134890 0.021046 0.384894
O O8 0.079304 0.980812 0.227407
O O9 0.500000 0.500000 0.097479
O O10 0.446008 0.750000 0.057191
O O11 0.398588 0.523222 0.144050
O O12 0.424463 0.487448 0.973440
O O13 0.245500 0.250000 0.278468
O O14 0.295202 0.030455 0.195599
O O15 0.849469 0.250000 0.994578
O O16 0.896427 0.495119 0.057183
O O17 0.372885 0.750000 0.401339
O O18 0.629447 0.980612 0.315399
O O19 0.944147 0.750000 0.618403
O O20 0.000000 0.000000 0.607993
O O21 0.365126 0.750000 0.695767
#
# Coordination Sequence:
#
# PCOD9361061 Si02
#       8
#     8   8   8   8   8   8   8   8
#     4   9  17  30  55  88 118 146 182 226 275 332
#     4   9  18  36  59  83 112 146 180 221 273 328
#     4  12  26  43  61  84 114 153 200 247 291 341
#     4   8  16  32  56  84 117 151 182 220 275 337
#     4   9  20  38  58  81 113 148 182 223 277 334
#     4  10  21  39  61  89 122 155 192 236 285 342
#     4  11  24  40  56  78 107 143 188 235 277 327
#     4  10  20  38  63  91 121 154 190 234 288 345
#
# _framework density 20.354043999999998
#
# number of rings (size 3 to 8) (size 9 to 14) (size 15 to 20)
#    0.000    2.250    0.000    3.375    0.000    7.000 
#    0.000    7.500    0.000    0.000    0.000    0.000 
#    0.000    0.000    0.000    0.000    0.000    0.000 
#
# Total GULP energy -178644.983553 kJ/mol
# GULP energy per Si atom -5582.655736 kJ/mol
# Density = 2.030772 g / cm^3
# Si number density = 20.354044 Si / 1000 Ang^3
#
#
#
# Elastic Constant Matrix: (Units=GPa)
#
#
# Indices 1 2 3 4 5 6 
#
# 1 108.9575 23.8005 18.7714 0.0000 0.0000 0.0000
# 2 23.8005 31.6315 2.0904 0.0000 0.0000 0.0000
# 3 18.7714 2.0904 43.1612 0.0000 0.0000 0.0000
# 4 0.0000 0.0000 0.0000 20.1974 0.0000 0.0000
# 5 0.0000 0.0000 0.0000 0.0000 29.2889 0.0000
# 6 0.0000 0.0000 0.0000 0.0000 0.0000 30.2980
#
#
#
# Elastic Compliance Matrix: (Units=1/GPa)
#
#
# Indices 1 2 3 4 5 6 
#
# 1 0.011880 -0.008625 -0.004749 0.000000 0.000000 0.000000
# 2 -0.008625 0.037978 0.001912 0.000000 0.000000 0.000000
# 3 -0.004749 0.001912 0.025142 0.000000 0.000000 0.000000
# 4 0.000000 0.000000 0.000000 0.049511 0.000000 0.000000
# 5 0.000000 0.000000 0.000000 0.000000 0.034143 0.000000
# 6 0.000000 0.000000 0.000000 0.000000 0.000000 0.033006
#
#
# Mechanical properties :
#
#
# Convention : Reuss Voigt Hill
#
# Bulk Modulus (GPa) = 19.20320 30.34163 24.77241
# Shear Modulus (GPa) = 21.55712 25.22938 23.39325
#
# Velocity S-wave (km/s) = 3.25792 3.52451 3.39384
# Velocity P-wave (km/s) = 4.85872 5.61268 5.24925
#
# Compressibility (1/GPa) = 0.05207467
#
# Stress axis : x y z
#
# Youngs Moduli (GPa) = 84.17420 26.33136 39.77445
#
# Poissons Ratio (x) = 0.22711 0.18889
# Poissons Ratio (y) = 0.72601 -0.07604
# Poissons Ratio (z) = 0.39975 -0.05034
#
# Static dielectric constant tensor:
#      x y z
#    x 1.736790 0.000000 0.000000 
#    y 0.000000 1.681320 0.000000 
#    z 0.000000 0.000000 1.737610 
# 
# From -- ./inp_files/10607.got.cif
#   From: 2010.05.17/outbox.cif.g08.bks.cpg/sg39_6_cif.got.tgz:10607.got - 2010.06.03 18:22:40.
