data_PCOD9361185
_publ_section_title
;
Structure prediction by ZEFSAII (Michael W. Deem and Ramdas Pophale) SiO2 
 PCOD9361185
Probable space group: A B M 2
;
_chemical_formula_sum "Si O2"
_cell_formula_units_Z 40
_cell_length_a 16.582640
_cell_length_b 21.984548
_cell_length_c 5.186271
_cell_angle_alpha 90.000000
_cell_angle_beta 90.000000
_cell_angle_gamma 90.000000
_cell_volume 1890.716525
_symmetry_space_group_name_H-M "A B M 2"
_symmetry_group_IT_number 39
_symmetry_cell_setting 'orthorhombic'
loop_
_space_group_symop_operation_xyz
x,y,z
-x,-y,z
-x,1/2+y,z
x,1/2-y,z
x,1/2+y,1/2+z
-x,1/2-y,1/2+z
-x,y,1/2+z
x,-y,1/2+z
loop_
_atom_site_type_symbol
_atom_site_label
_atom_site_fract_x
_atom_site_fract_y
_atom_site_fract_z
Si Si1 0.182316 0.358145 0.638280
Si Si2 0.274558 0.677192 0.656849
Si Si3 0.905911 0.523103 0.841839
Si Si4 0.453823 0.323904 0.978864
Si Si5 0.030494 0.818663 0.864193
O O1 0.250530 0.359363 0.416250
O O2 0.127571 0.417143 0.699640
O O3 0.117165 0.316975 0.489418
O O4 0.216746 0.333956 0.908918
O O5 0.274322 0.750000 0.716422
O O6 0.363784 0.659297 0.561689
O O7 0.873662 0.474577 0.632380
O O8 0.000000 0.500000 0.875040
O O9 0.454691 0.250000 0.973382
O O10 0.516731 0.344049 0.198443
O O11 0.002133 0.750000 0.808971
O O12 0.974740 0.848706 0.083732
#
# Coordination Sequence:
#
# PCOD9361185 Si02
#       5
#     8   8   8   8   8
#     4  12  23  36  59  79 113 149 191 245 293 334
#     4  11  22  36  56  88 125 157 187 225 281 341
#     4  10  23  40  60  80 100 138 197 253 304 344
#     4   9  17  31  52  79 117 161 192 214 252 324
#     4  10  21  33  48  70 101 141 183 219 265 333
#
# _framework density 21.155999999999999
#
# number of rings (size 3 to 8) (size 9 to 14) (size 15 to 20)
#    0.000    1.600    0.000    5.400    5.600    4.800 
#    0.000    0.000    0.000    0.000    0.000    0.000 
#    0.000   56.000    0.000    0.000    0.000    0.000 
#
# Total GULP energy -111363.840231 kJ/mol
# GULP energy per Si atom -5568.192012 kJ/mol
# Density = 2.110785 g / cm^3
# Si number density = 21.156000 Si / 1000 Ang^3
#
#
#
# Elastic Constant Matrix: (Units=GPa)
#
#
# Indices 1 2 3 4 5 6 
#
# 1 60.9947 6.0777 -9.0126 0.0000 0.0000 0.0000
# 2 6.0777 30.8542 -14.4473 0.0000 0.0000 0.0000
# 3 -9.0126 -14.4473 105.2524 0.0000 0.0000 0.0000
# 4 0.0000 0.0000 0.0000 13.5768 0.0000 0.0000
# 5 0.0000 0.0000 0.0000 0.0000 -13.3881 0.0000
# 6 0.0000 0.0000 0.0000 0.0000 0.0000 16.3640
#
#
#
# Elastic Compliance Matrix: (Units=1/GPa)
#
#
# Indices 1 2 3 4 5 6 
#
# 1 0.016832 -0.002822 0.001054 0.000000 0.000000 0.000000
# 2 -0.002822 0.035110 0.004578 0.000000 0.000000 0.000000
# 3 0.001054 0.004578 0.010220 0.000000 0.000000 0.000000
# 4 0.000000 0.000000 0.000000 0.073655 0.000000 0.000000
# 5 0.000000 0.000000 0.000000 0.000000 -0.074693 0.000000
# 6 0.000000 0.000000 0.000000 0.000000 0.000000 0.061110
#
#
# Mechanical properties :
#
#
# Convention : Reuss Voigt Hill
#
# Bulk Modulus (GPa) = 14.75357 18.03743 16.39550
# Shear Modulus (GPa) = 35.91769 17.60945 26.76357
#
# Velocity S-wave (km/s) = 4.12485 2.88820 3.56062
# Velocity P-wave (km/s) = 5.44745 4.43471 4.96696
#
# Compressibility (1/GPa) = 0.06778023
#
# Stress axis : x y z
#
# Youngs Moduli (GPa) = 59.41142 28.48202 97.85162
#
# Poissons Ratio (x) = 0.08038 -0.10313
# Poissons Ratio (y) = 0.16766 -0.44793
# Poissons Ratio (z) = -0.06262 -0.13038
#
# Static dielectric constant tensor:
#      x y z
#    x 2.148650 0.000000 0.000000 
#    y 0.000000 1.794980 0.000000 
#    z 0.000000 0.000000 1.868260 
# 
# From -- ./inp_files/522.got.cif
#   From: 2010.05.17/outbox.cif.g08.bks.cpg/sg39_1_cif.got.tgz:522.got - 2010.06.03 18:22:40.
