data_PCOD9361204
_publ_section_title
;
Structure prediction by ZEFSAII (Michael W. Deem and Ramdas Pophale) SiO2 
 PCOD9361204
Probable space group: A B M 2
;
_chemical_formula_sum "Si O2"
_cell_formula_units_Z 64
_cell_length_a 18.984994
_cell_length_b 8.723710
_cell_length_c 22.102452
_cell_angle_alpha 90.000000
_cell_angle_beta 90.000000
_cell_angle_gamma 90.000000
_cell_volume 3660.598862
_symmetry_space_group_name_H-M "A B M 2"
_symmetry_group_IT_number 39
_symmetry_cell_setting 'orthorhombic'
loop_
_space_group_symop_operation_xyz
x,y,z
-x,-y,z
-x,1/2+y,z
x,1/2-y,z
x,1/2+y,1/2+z
-x,1/2-y,1/2+z
-x,y,1/2+z
x,-y,1/2+z
loop_
_atom_site_type_symbol
_atom_site_label
_atom_site_fract_x
_atom_site_fract_y
_atom_site_fract_z
Si Si1 0.204532 0.933300 0.826440
Si Si2 0.578615 0.932509 0.518923
Si Si3 0.420803 0.066329 0.893483
Si Si4 0.786715 0.068016 0.451636
Si Si5 0.578360 0.933121 0.757539
Si Si6 0.076855 0.430952 0.886906
Si Si7 0.284633 0.065334 0.206474
Si Si8 0.287931 0.564630 0.573946
O O1 0.206040 0.750000 0.827586
O O2 0.239632 0.988969 0.764310
O O3 0.240434 0.994142 0.888719
O O4 0.124317 0.992242 0.834341
O O5 0.574625 0.750000 0.519549
O O6 0.500000 0.000000 0.526704
O O7 0.608691 0.990346 0.453920
O O8 0.634004 0.996441 0.566798
O O9 0.420938 0.250000 0.901299
O O10 0.395010 0.030435 0.826114
O O11 0.500000 0.000000 0.892308
O O12 0.772611 0.250000 0.447106
O O13 0.871188 0.044794 0.444648
O O14 0.756603 0.012781 0.515340
O O15 0.574846 0.750000 0.751864
O O16 0.500000 0.000000 0.749662
O O17 0.636234 0.004110 0.714079
O O18 0.072166 0.250000 0.876470
O O19 0.000000 0.500000 0.893168
O O20 0.286138 0.250000 0.209338
O O21 0.258022 0.021385 0.139702
O O22 0.292180 0.750000 0.571557
#
# Coordination Sequence:
#
# PCOD9361204 Si02
#       8
#     8   8   8   8   8   8   8   8
#     4   9  18  33  54  83 112 142 177 217 262 314
#     4  11  22  35  52  75 100 133 177 230 283 332
#     4   9  17  30  47  69  93 122 156 204 265 322
#     4   8  18  34  55  80 107 143 179 215 262 312
#     4  10  21  35  53  74 101 135 178 230 282 334
#     4   9  17  31  55  89 117 145 177 216 261 305
#     4  10  22  37  55  77 106 145 184 225 273 327
#     4  10  21  39  56  74 105 145 185 224 272 329
#
# _framework density 17.483478000000002
#
# number of rings (size 3 to 8) (size 9 to 14) (size 15 to 20)
#    0.750    1.750    0.000    3.000    1.750    4.000 
#    0.000    0.000    0.000    0.750    0.000    1.750 
#    0.000    0.000    0.000    0.000    0.000    0.000 
#
# Total GULP energy -178185.519196 kJ/mol
# GULP energy per Si atom -5568.297475 kJ/mol
# Density = 1.744368 g / cm^3
# Si number density = 17.483478 Si / 1000 Ang^3
#
#
#
# Elastic Constant Matrix: (Units=GPa)
#
#
# Indices 1 2 3 4 5 6 
#
# 1 91.8700 22.4112 61.1450 0.0000 0.0000 0.0000
# 2 22.4112 30.0489 39.4308 0.0000 0.0000 0.0000
# 3 61.1450 39.4308 139.4511 0.0000 0.0000 0.0000
# 4 0.0000 0.0000 0.0000 15.1579 0.0000 0.0000
# 5 0.0000 0.0000 0.0000 0.0000 11.2206 0.0000
# 6 0.0000 0.0000 0.0000 0.0000 0.0000 20.6196
#
#
#
# Elastic Compliance Matrix: (Units=1/GPa)
#
#
# Indices 1 2 3 4 5 6 
#
# 1 0.015706 -0.004256 -0.005683 0.000000 0.000000 0.000000
# 2 -0.004256 0.054065 -0.013421 0.000000 0.000000 0.000000
# 3 -0.005683 -0.013421 0.013458 0.000000 0.000000 0.000000
# 4 0.000000 0.000000 0.000000 0.065972 0.000000 0.000000
# 5 0.000000 0.000000 0.000000 0.000000 0.089122 0.000000
# 6 0.000000 0.000000 0.000000 0.000000 0.000000 0.048498
#
#
# Mechanical properties :
#
#
# Convention : Reuss Voigt Hill
#
# Bulk Modulus (GPa) = 27.39154 56.37155 41.88154
# Shear Modulus (GPa) = 14.46302 18.62514 16.54408
#
# Velocity S-wave (km/s) = 2.87930 3.26743 3.07949
# Velocity P-wave (km/s) = 5.17252 6.82258 6.05403
#
# Compressibility (1/GPa) = 0.03650762
#
# Stress axis : x y z
#
# Youngs Moduli (GPa) = 63.67169 18.49631 74.30748
#
# Poissons Ratio (x) = 0.07873 0.42228
# Poissons Ratio (y) = 0.27101 0.99727
# Poissons Ratio (z) = 0.36184 0.24824
#
# Static dielectric constant tensor:
#      x y z
#    x 1.590420 0.000000 0.000000 
#    y 0.000000 1.584160 0.000000 
#    z 0.000000 0.000000 1.646200 
# 
# From -- ./inp_files/15063.got.cif
#   From: 2010.05.17/outbox.cif.g08.bks.cpg/sg39_8_cif.got.tgz:15063.got - 2010.06.03 18:22:40.
