data_PCOD9361227
_publ_section_title
;
Structure prediction by ZEFSAII (Michael W. Deem and Ramdas Pophale) SiO2 
 PCOD9361227
Probable space group: A B M 2
;
_chemical_formula_sum "Si O2"
_cell_formula_units_Z 56
_cell_length_a 34.412624
_cell_length_b 15.593599
_cell_length_c 5.153558
_cell_angle_alpha 90.000000
_cell_angle_beta 90.000000
_cell_angle_gamma 90.000000
_cell_volume 2765.485077
_symmetry_space_group_name_H-M "A B M 2"
_symmetry_group_IT_number 39
_symmetry_cell_setting 'orthorhombic'
loop_
_space_group_symop_operation_xyz
x,y,z
-x,-y,z
-x,1/2+y,z
x,1/2-y,z
x,1/2+y,1/2+z
-x,1/2-y,1/2+z
-x,y,1/2+z
x,-y,1/2+z
loop_
_atom_site_type_symbol
_atom_site_label
_atom_site_fract_x
_atom_site_fract_y
_atom_site_fract_z
Si Si1 0.766847 0.353186 0.242170
Si Si2 0.522934 0.853373 0.599246
Si Si3 0.602597 0.443146 0.232200
Si Si4 0.313403 0.056494 0.624727
Si Si5 0.976539 0.353484 0.617565
Si Si6 0.185455 0.853709 0.740074
Si Si7 0.103639 0.055192 0.246979
O O1 0.765377 0.250000 0.243117
O O2 0.724168 0.387967 0.186404
O O3 0.785055 0.381886 0.514192
O O4 0.796105 0.379987 0.013803
O O5 0.523361 0.750000 0.599419
O O6 0.507403 0.882617 0.320110
O O7 0.565416 0.886365 0.669836
O O8 0.601314 0.478500 0.524913
O O9 0.644668 0.400789 0.179355
O O10 0.312346 0.022216 0.330711
O O11 0.974413 0.250000 0.621192
O O12 0.934720 0.390563 0.685488
O O13 0.992627 0.380591 0.337787
O O14 0.182889 0.750000 0.733541
O O15 0.143038 0.892240 0.701330
O O16 0.103272 0.022788 0.542416
#
# Coordination Sequence:
#
# PCOD9361227 Si02
#       7
#     8   8   8   8   8   8   8
#     4  10  21  37  59  83 107 143 187 226 268 320
#     4  10  21  36  54  78 107 139 177 223 273 319
#     4  10  21  36  54  79 108 141 181 219 265 324
#     4  10  21  36  55  80 111 143 176 222 273 322
#     4  10  22  41  63  84 111 151 190 223 270 329
#     4  10  22  40  58  80 113 148 184 225 268 324
#     4  12  25  38  58  88 117 146 183 229 278 322
#
# _framework density 20.249611000000002
#
# number of rings (size 3 to 8) (size 9 to 14) (size 15 to 20)
#    0.000    1.714    0.000    3.857    0.000    7.429 
#    0.000    5.714    0.000   10.286    0.000    0.000 
#    0.000    0.000    0.000    0.000    0.000    0.000 
#
# Total GULP energy -156546.661707 kJ/mol
# GULP energy per Si atom -5590.952204 kJ/mol
# Density = 2.020352 g / cm^3
# Si number density = 20.249611 Si / 1000 Ang^3
#
#
#
# Elastic Constant Matrix: (Units=GPa)
#
#
# Indices 1 2 3 4 5 6 
#
# 1 106.8934 12.3238 -20.5261 0.0000 0.0000 0.0000
# 2 12.3238 10.6450 -2.1387 0.0000 0.0000 0.0000
# 3 -20.5261 -2.1387 61.8875 0.0000 0.0000 0.0000
# 4 0.0000 0.0000 0.0000 10.7670 0.0000 0.0000
# 5 0.0000 0.0000 0.0000 0.0000 33.0749 0.0000
# 6 0.0000 0.0000 0.0000 0.0000 0.0000 47.6786
#
#
#
# Elastic Compliance Matrix: (Units=1/GPa)
#
#
# Indices 1 2 3 4 5 6 
#
# 1 0.011452 -0.012582 0.003363 0.000000 0.000000 0.000000
# 2 -0.012582 0.108421 -0.000426 0.000000 0.000000 0.000000
# 3 0.003363 -0.000426 0.017259 0.000000 0.000000 0.000000
# 4 0.000000 0.000000 0.000000 0.092876 0.000000 0.000000
# 5 0.000000 0.000000 0.000000 0.000000 0.030234 0.000000
# 6 0.000000 0.000000 0.000000 0.000000 0.000000 0.020974
#
#
# Mechanical properties :
#
#
# Convention : Reuss Voigt Hill
#
# Bulk Modulus (GPa) = 8.48594 17.63823 13.06208
# Shear Modulus (GPa) = 14.71516 30.95522 22.83519
#
# Velocity S-wave (km/s) = 2.69864 3.91408 3.36175
# Velocity P-wave (km/s) = 3.72961 5.39963 4.64036
#
# Compressibility (1/GPa) = 0.11784198
#
# Stress axis : x y z
#
# Youngs Moduli (GPa) = 87.32473 9.22333 57.94033
#
# Poissons Ratio (x) = 0.11605 -0.19487
# Poissons Ratio (y) = 1.09870 0.02470
# Poissons Ratio (z) = -0.29370 0.00393
#
# Static dielectric constant tensor:
#      x y z
#    x 1.684010 0.000000 0.000000 
#    y 0.000000 1.705100 0.000000 
#    z 0.000000 0.000000 1.703080 
# 
# From -- ./inp_files/1487.got.cif
#   From: 2010.05.17/outbox.cif.g08.bks.cpg/sg39_1_cif.got.tgz:1487.got - 2010.06.03 18:22:40.
