data_PCOD9361526
_publ_section_title
;
Structure prediction by ZEFSAII (Michael W. Deem and Ramdas Pophale) SiO2 
 PCOD9361526
Probable space group: A B M 2
;
_chemical_formula_sum "Si O2"
_cell_formula_units_Z 60
_cell_length_a 7.057602
_cell_length_b 23.778105
_cell_length_c 18.370393
_cell_angle_alpha 90.000000
_cell_angle_beta 90.000000
_cell_angle_gamma 90.000000
_cell_volume 3082.853246
_symmetry_space_group_name_H-M "A B M 2"
_symmetry_group_IT_number 39
_symmetry_cell_setting 'orthorhombic'
loop_
_space_group_symop_operation_xyz
x,y,z
-x,-y,z
-x,1/2+y,z
x,1/2-y,z
x,1/2+y,1/2+z
-x,1/2-y,1/2+z
-x,y,1/2+z
x,-y,1/2+z
loop_
_atom_site_type_symbol
_atom_site_label
_atom_site_fract_x
_atom_site_fract_y
_atom_site_fract_z
Si Si1 0.265331 0.750000 0.422660
Si Si2 0.589325 0.440435 0.815665
Si Si3 0.948390 0.094969 0.082117
Si Si4 0.343116 0.146173 0.033286
Si Si5 0.965861 0.935981 0.245687
Si Si6 0.346474 0.815123 0.137293
Si Si7 0.632179 0.947168 0.480441
Si Si8 0.266277 0.349467 0.802050
O O1 0.299816 0.700443 0.484694
O O2 0.239975 0.799991 0.359769
O O3 0.500000 0.500000 0.793007
O O4 0.746277 0.423412 0.757816
O O5 0.432772 0.392554 0.823208
O O6 0.680612 0.449768 0.895129
O O7 0.149316 0.112811 0.048966
O O8 0.976907 0.067865 0.161331
O O9 0.819475 0.150092 0.097400
O O10 0.819257 0.057260 0.029295
O O11 0.451226 0.163684 0.107557
O O12 0.497793 0.106570 0.994099
O O13 0.085081 0.889689 0.289667
O O14 0.000000 0.000000 0.271222
O O15 0.327342 0.750000 0.119265
O O16 0.320987 0.824748 0.223043
O O17 0.500000 0.000000 0.499434
#
# Coordination Sequence:
#
# PCOD9361526 Si02
#       8
#     4   8   8   8   8   8   8   8
#     4  12  24  40  70  96 132 178 228 270 328 394
#     4  11  22  42  67  95 131 174 213 267 335 395
#     4  10  25  42  64  98 129 172 227 274 332 393
#     4  11  23  43  65  95 129 172 225 274 331 395
#     4  11  24  43  68 101 132 174 220 271 332 397
#     4  10  21  41  64  88 131 175 218 272 330 387
#     4  10  24  42  65  97 133 173 216 275 337 400
#     4  11  23  44  64  98 134 172 222 273 326 400
#
# _framework density 19.462491
#
# number of rings (size 3 to 8) (size 9 to 14) (size 15 to 20)
#    0.000    1.333    4.000    0.800    4.667    0.000 
#    0.000    3.333    0.000    0.000    0.000    0.000 
#    0.000    0.000    0.000    0.000    0.000    0.000 
#
# Total GULP energy -167020.559753 kJ/mol
# GULP energy per Si atom -5567.351992 kJ/mol
# Density = 1.941819 g / cm^3
# Si number density = 19.462491 Si / 1000 Ang^3
#
#
#
# Elastic Constant Matrix: (Units=GPa)
#
#
# Indices 1 2 3 4 5 6 
#
# 1 92.7237 23.4057 33.6920 0.0000 0.0000 0.0000
# 2 23.4057 101.7835 -3.8160 0.0000 0.0000 0.0000
# 3 33.6920 -3.8160 31.2576 0.0000 0.0000 0.0000
# 4 0.0000 0.0000 0.0000 79.3893 0.0000 0.0000
# 5 0.0000 0.0000 0.0000 0.0000 102.1690 0.0000
# 6 0.0000 0.0000 0.0000 0.0000 0.0000 16.8876
#
#
#
# Elastic Compliance Matrix: (Units=1/GPa)
#
#
# Indices 1 2 3 4 5 6 
#
# 1 0.020436 -0.005551 -0.022705 0.000000 0.000000 0.000000
# 2 -0.005551 0.011378 0.007372 0.000000 0.000000 0.000000
# 3 -0.022705 0.007372 0.057366 0.000000 0.000000 0.000000
# 4 0.000000 0.000000 0.000000 0.012596 0.000000 0.000000
# 5 0.000000 0.000000 0.000000 0.000000 0.009788 0.000000
# 6 0.000000 0.000000 0.000000 0.000000 0.000000 0.059215
#
#
# Mechanical properties :
#
#
# Convention : Reuss Voigt Hill
#
# Bulk Modulus (GPa) = 21.09201 36.92537 29.00869
# Shear Modulus (GPa) = 21.89629 51.18807 36.54218
#
# Velocity S-wave (km/s) = 3.35782 5.13400 4.33779
# Velocity P-wave (km/s) = 5.08862 7.35919 6.32660
#
# Compressibility (1/GPa) = 0.04741131
#
# Stress axis : x y z
#
# Youngs Moduli (GPa) = 48.93342 87.89239 17.43207
#
# Poissons Ratio (x) = 0.48786 0.39580
# Poissons Ratio (y) = 0.27161 -0.12851
# Poissons Ratio (z) = 1.11104 -0.64793
#
# Static dielectric constant tensor:
#      x y z
#    x 1.575850 0.000000 0.000000 
#    y 0.000000 1.658390 0.000000 
#    z 0.000000 0.000000 1.682690 
# 
# From -- ./inp_files/11166.got.cif
#   From: 2010.05.17/outbox.cif.g08.bks.cpg/sg39_6_cif.got.tgz:11166.got - 2010.06.03 18:22:40.
