data_PCOD9361848
_publ_section_title
;
Structure prediction by ZEFSAII (Michael W. Deem and Ramdas Pophale) SiO2 
 PCOD9361848
Probable space group: A B M 2
;
_chemical_formula_sum "Si O2"
_cell_formula_units_Z 56
_cell_length_a 5.749406
_cell_length_b 13.972855
_cell_length_c 27.521135
_cell_angle_alpha 90.000000
_cell_angle_beta 90.000000
_cell_angle_gamma 90.000000
_cell_volume 2210.927344
_symmetry_space_group_name_H-M "A B M 2"
_symmetry_group_IT_number 39
_symmetry_cell_setting 'orthorhombic'
loop_
_space_group_symop_operation_xyz
x,y,z
-x,-y,z
-x,1/2+y,z
x,1/2-y,z
x,1/2+y,1/2+z
-x,1/2-y,1/2+z
-x,y,1/2+z
x,-y,1/2+z
loop_
_atom_site_type_symbol
_atom_site_label
_atom_site_fract_x
_atom_site_fract_y
_atom_site_fract_z
Si Si1 0.875604 0.358844 0.847600
Si Si2 0.000000 0.000000 0.608877
Si Si3 0.284320 0.863606 0.539992
Si Si4 0.638193 0.637381 0.216429
Si Si5 0.215680 0.863606 0.428556
Si Si6 0.138193 0.637381 0.252119
Si Si7 0.500000 0.500000 0.359671
Si Si8 0.375603 0.858843 0.120948
O O1 0.785320 0.250000 0.845130
O O2 0.089579 0.364208 0.809917
O O3 0.692746 0.438474 0.832155
O O4 0.965872 0.378299 0.902265
O O5 0.112485 0.922061 0.573430
O O6 0.807255 0.938474 0.636393
O O7 0.239466 0.750000 0.543115
O O8 0.249999 0.892342 0.484274
O O9 0.534129 0.878298 0.566283
O O10 0.648028 0.750000 0.231513
O O11 0.893503 0.599410 0.230026
O O12 0.589579 0.635793 0.158631
O O13 0.393503 0.599410 0.238522
O O14 0.260533 0.750000 0.425433
O O15 0.387518 0.922060 0.395118
O O16 0.148028 0.750000 0.237036
O O17 0.285319 0.750000 0.123418
#
# Coordination Sequence:
#
# PCOD9361848 Si02
#       8
#     8   4   8   8   8   8   4   8
#     4  10  23  42  66  99 137 179 229 284 344 413
#     4  12  24  38  68  96 134 176 222 280 344 410
#     4  10  24  44  67  96 132 174 224 280 343 414
#     4   9  19  37  66  99 135 183 236 288 348 415
#     4  10  24  44  67  96 132 174 224 280 343 414
#     4   9  19  37  66  99 135 183 236 288 348 415
#     4  12  24  38  68  96 134 176 222 280 344 410
#     4  10  23  42  66  99 137 179 229 284 344 413
#
# _framework density 25.32874
#
# number of rings (size 3 to 8) (size 9 to 14) (size 15 to 20)
#    0.000    2.000    0.000    1.714    8.000    0.000 
#    0.000    5.714    0.000    0.000    0.000    0.000 
#    0.000    0.000    0.000    0.000    0.000    0.000 
#
# Total GULP energy -156710.189718 kJ/mol
# GULP energy per Si atom -5596.792490 kJ/mol
# Density = 2.527109 g / cm^3
# Si number density = 25.328740 Si / 1000 Ang^3
#
#
#
# Elastic Constant Matrix: (Units=GPa)
#
#
# Indices 1 2 3 4 5 6 
#
# 1 137.6217 61.4144 58.9796 0.0000 0.0000 0.0000
# 2 61.4144 87.3610 17.7916 0.0000 0.0000 0.0000
# 3 58.9796 17.7916 130.0242 0.0000 0.0000 0.0000
# 4 0.0000 0.0000 0.0000 1.4589 0.0000 0.0000
# 5 0.0000 0.0000 0.0000 0.0000 26.8492 0.0000
# 6 0.0000 0.0000 0.0000 0.0000 0.0000 52.5388
#
#
#
# Elastic Compliance Matrix: (Units=1/GPa)
#
#
# Indices 1 2 3 4 5 6 
#
# 1 0.012926 -0.008119 -0.004752 0.000000 0.000000 0.000000
# 2 -0.008119 0.016875 0.001374 0.000000 0.000000 0.000000
# 3 -0.004752 0.001374 0.009659 0.000000 0.000000 0.000000
# 4 0.000000 0.000000 0.000000 0.685451 0.000000 0.000000
# 5 0.000000 0.000000 0.000000 0.000000 0.037245 0.000000
# 6 0.000000 0.000000 0.000000 0.000000 0.000000 0.019034
#
#
# Mechanical properties :
#
#
# Convention : Reuss Voigt Hill
#
# Bulk Modulus (GPa) = 60.73834 70.15314 65.44574
# Shear Modulus (GPa) = 6.17534 30.62412 18.39973
#
# Velocity S-wave (km/s) = 1.56313 3.48094 2.69817
# Velocity P-wave (km/s) = 5.22397 6.62669 5.96670
#
# Compressibility (1/GPa) = 0.01646406
#
# Stress axis : x y z
#
# Youngs Moduli (GPa) = 77.36172 59.26012 103.53452
#
# Poissons Ratio (x) = 0.48115 0.49204
# Poissons Ratio (y) = 0.62812 -0.14225
# Poissons Ratio (z) = 0.36766 -0.08142
#
# Static dielectric constant tensor:
#      x y z
#    x 2.039980 0.000000 0.000000 
#    y 0.000000 1.985890 0.000000 
#    z 0.000000 0.000000 1.965800 
# 
# From -- ./inp_files/17299.got.cif
#   From: 2010.05.17/outbox.cif.g08.bks.cpg/sg39_9_cif.got.tgz:17299.got - 2010.06.03 18:22:40.
