data_PCOD9361217
_publ_section_title
;
Structure prediction by ZEFSAII (Michael W. Deem and Ramdas Pophale) SiO2 
 PCOD9361217
Probable space group: A B M 2
;
_chemical_formula_sum "Si O2"
_cell_formula_units_Z 64
_cell_length_a 9.555667
_cell_length_b 14.679238
_cell_length_c 19.434907
_cell_angle_alpha 90.000000
_cell_angle_beta 90.000000
_cell_angle_gamma 90.000000
_cell_volume 2726.132659
_symmetry_space_group_name_H-M "A B M 2"
_symmetry_group_IT_number 39
_symmetry_cell_setting 'orthorhombic'
loop_
_space_group_symop_operation_xyz
x,y,z
-x,-y,z
-x,1/2+y,z
x,1/2-y,z
x,1/2+y,1/2+z
-x,1/2-y,1/2+z
-x,y,1/2+z
x,-y,1/2+z
loop_
_atom_site_type_symbol
_atom_site_label
_atom_site_fract_x
_atom_site_fract_y
_atom_site_fract_z
Si Si1 0.798282 0.477348 0.425380
Si Si2 0.055084 0.139897 0.656280
Si Si3 0.449498 0.852197 0.604946
Si Si4 0.526466 0.393399 0.250720
Si Si5 0.811530 0.479028 0.586687
Si Si6 0.838330 0.355628 0.306275
Si Si7 0.458526 0.650221 0.453952
Si Si8 0.287743 0.847040 0.848736
O O1 0.842709 0.485064 0.504825
O O2 0.877107 0.407241 0.375833
O O3 0.644290 0.431522 0.435303
O O4 0.794392 0.567247 0.378153
O O5 0.059610 0.250000 0.646622
O O6 0.075737 0.119507 0.737478
O O7 0.918098 0.091091 0.624585
O O8 0.172590 0.079533 0.617911
O O9 0.384633 0.750000 0.607064
O O10 0.540219 0.861653 0.672610
O O11 0.336708 0.932745 0.601889
O O12 0.520121 0.859266 0.530457
O O13 0.500000 0.500000 0.255479
O O14 0.671359 0.370434 0.289417
O O15 0.377841 0.355385 0.278855
O O16 0.857530 0.250000 0.316995
O O17 0.383977 0.750000 0.451165
O O18 0.584242 0.654691 0.402190
O O19 0.211525 0.750000 0.848728
#
# Coordination Sequence:
#
# PCOD9361217 Si02
#       8
#     8   8   8   8   8   8   8   8
#     4  11  21  37  61  91 122 166 216 261 320 388
#     4  10  23  45  69  94 123 161 215 278 330 381
#     4  10  21  35  58  92 127 169 214 261 321 394
#     4  12  21  35  56  89 136 176 209 255 316 387
#     4  10  23  43  68  92 123 166 216 272 330 387
#     4  11  22  38  64  96 129 168 213 263 322 389
#     4   9  18  33  52  82 125 168 210 252 306 379
#     4  11  21  34  54  85 132 175 206 255 315 382
#
# _framework density 23.476479999999999
#
# number of rings (size 3 to 8) (size 9 to 14) (size 15 to 20)
#    0.000    1.500    2.500    3.000    0.000    5.000 
#    0.000    5.000    0.000    0.000    0.000    0.000 
#    0.000    0.000    0.000    0.000    0.000    0.000 
#
# Total GULP energy -178746.672142 kJ/mol
# GULP energy per Si atom -5585.833504 kJ/mol
# Density = 2.342305 g / cm^3
# Si number density = 23.476480 Si / 1000 Ang^3
#
#
#
# Elastic Constant Matrix: (Units=GPa)
#
#
# Indices 1 2 3 4 5 6 
#
# 1 46.4916 5.5688 9.2592 0.0000 0.0000 0.0000
# 2 5.5688 130.3188 34.2292 0.0000 0.0000 0.0000
# 3 9.2592 34.2292 152.1629 0.0000 0.0000 0.0000
# 4 0.0000 0.0000 0.0000 4.6320 0.0000 0.0000
# 5 0.0000 0.0000 0.0000 0.0000 22.8936 0.0000
# 6 0.0000 0.0000 0.0000 0.0000 0.0000 -6.0665
#
#
#
# Elastic Compliance Matrix: (Units=1/GPa)
#
#
# Indices 1 2 3 4 5 6 
#
# 1 0.021820 -0.000620 -0.001188 0.000000 0.000000 0.000000
# 2 -0.000620 0.008173 -0.001801 0.000000 0.000000 0.000000
# 3 -0.001188 -0.001801 0.007049 0.000000 0.000000 0.000000
# 4 0.000000 0.000000 0.000000 0.215890 0.000000 0.000000
# 5 0.000000 0.000000 0.000000 0.000000 0.043680 0.000000
# 6 0.000000 0.000000 0.000000 0.000000 0.000000 -0.164839
#
#
# Mechanical properties :
#
#
# Convention : Reuss Voigt Hill
#
# Bulk Modulus (GPa) = 33.53025 47.45419 40.49222
# Shear Modulus (GPa) = 33.57200 22.95289 28.26244
#
# Velocity S-wave (km/s) = 3.78567 3.13021 3.47344
# Velocity P-wave (km/s) = 5.78117 5.77249 5.77683
#
# Compressibility (1/GPa) = 0.02982381
#
# Stress axis : x y z
#
# Youngs Moduli (GPa) = 45.82910 122.35430 141.85814
#
# Poissons Ratio (x) = 0.07590 0.16856
# Poissons Ratio (y) = 0.02843 0.25545
# Poissons Ratio (z) = 0.05446 0.22033
#
# Static dielectric constant tensor:
#      x y z
#    x 1.989360 0.000000 0.000000 
#    y 0.000000 1.927700 0.000000 
#    z 0.000000 0.000000 1.885960 
# 
# From -- ./inp_files/12347.got.cif
#   From: 2010.05.17/outbox.cif.g08.bks.cpg/sg39_7_cif.got.tgz:12347.got - 2010.06.03 18:22:40.
