data_PCOD9361466
_publ_section_title
;
Structure prediction by ZEFSAII (Michael W. Deem and Ramdas Pophale) SiO2 
 PCOD9361466
Probable space group: A B M 2
;
_chemical_formula_sum "Si O2"
_cell_formula_units_Z 40
_cell_length_a 13.458870
_cell_length_b 15.757574
_cell_length_c 10.278757
_cell_angle_alpha 90.000000
_cell_angle_beta 90.000000
_cell_angle_gamma 90.000000
_cell_volume 2179.909945
_symmetry_space_group_name_H-M "A B M 2"
_symmetry_group_IT_number 39
_symmetry_cell_setting 'orthorhombic'
loop_
_space_group_symop_operation_xyz
x,y,z
-x,-y,z
-x,1/2+y,z
x,1/2-y,z
x,1/2+y,1/2+z
-x,1/2-y,1/2+z
-x,y,1/2+z
x,-y,1/2+z
loop_
_atom_site_type_symbol
_atom_site_label
_atom_site_fract_x
_atom_site_fract_y
_atom_site_fract_z
Si Si1 0.399368 0.750000 0.352111
Si Si2 0.300010 0.074338 0.163487
Si Si3 0.912716 0.153840 0.661097
Si Si4 0.055285 0.411045 0.881080
Si Si5 0.290880 0.929027 0.362412
Si Si6 0.417334 0.250000 0.157110
O O1 0.334991 0.835652 0.336888
O O2 0.486261 0.750000 0.246944
O O3 0.438001 0.750000 0.501702
O O4 0.182454 0.093567 0.179468
O O5 0.356160 0.163555 0.184760
O O6 0.328911 0.000296 0.262940
O O7 0.315269 0.048824 0.012667
O O8 0.878230 0.250000 0.677519
O O9 0.950658 0.140912 0.514695
O O10 0.998356 0.132942 0.762948
O O11 0.171440 0.423506 0.851735
O O12 0.000000 0.500000 0.903388
#
# Coordination Sequence:
#
# PCOD9361466 Si02
#       6
#     4   8   8   8   8   4
#     4  10  24  44  65  90 118 160 201 258 313 364
#     4  10  21  40  62  86 121 158 200 251 306 359
#     4  11  22  36  56  87 120 163 200 244 292 350
#     4  11  22  36  57  86 123 162 203 238 291 356
#     4  10  23  39  61  89 125 159 199 250 305 357
#     4  10  22  44  67  86 116 156 201 256 313 368
#
# _framework density 18.349381000000001
#
# number of rings (size 3 to 8) (size 9 to 14) (size 15 to 20)
#    0.000    1.600    3.000    1.200    8.400    2.400 
#    0.000    4.000    0.000    0.000    0.000    0.000 
#    0.000    0.000    0.000    0.000    0.000    0.000 
#
# Total GULP energy -111675.375824 kJ/mol
# GULP energy per Si atom -5583.768791 kJ/mol
# Density = 1.830762 g / cm^3
# Si number density = 18.349381 Si / 1000 Ang^3
#
#
#
# Elastic Constant Matrix: (Units=GPa)
#
#
# Indices 1 2 3 4 5 6 
#
# 1 81.0250 36.1761 48.4223 0.0000 0.0000 0.0000
# 2 36.1761 133.8898 87.3930 0.0000 0.0000 0.0000
# 3 48.4223 87.3930 93.6344 0.0000 0.0000 0.0000
# 4 0.0000 0.0000 0.0000 133.7778 0.0000 0.0000
# 5 0.0000 0.0000 0.0000 0.0000 22.4803 0.0000
# 6 0.0000 0.0000 0.0000 0.0000 0.0000 -3.8424
#
#
#
# Elastic Compliance Matrix: (Units=1/GPa)
#
#
# Indices 1 2 3 4 5 6 
#
# 1 0.018372 0.003167 -0.012457 0.000000 0.000000 0.000000
# 2 0.003167 0.019658 -0.019986 0.000000 0.000000 0.000000
# 3 -0.012457 -0.019986 0.035775 0.000000 0.000000 0.000000
# 4 0.000000 0.000000 0.000000 0.007475 0.000000 0.000000
# 5 0.000000 0.000000 0.000000 0.000000 0.044483 0.000000
# 6 0.000000 0.000000 0.000000 0.000000 0.000000 -0.260253
#
#
# Mechanical properties :
#
#
# Convention : Reuss Voigt Hill
#
# Bulk Modulus (GPa) = 65.55399 72.50356 69.02878
# Shear Modulus (GPa) = -70.56937 39.58700 -15.49119
#
# Velocity S-wave (km/s) = -6.20824 4.64982 -2.90872
# Velocity P-wave (km/s) = 3.94799 8.27203 5.14003
#
# Compressibility (1/GPa) = 0.01525460
#
# Stress axis : x y z
#
# Youngs Moduli (GPa) = 54.42932 50.86933 27.95237
#
# Poissons Ratio (x) = -0.16109 0.34820
# Poissons Ratio (y) = -0.17236 0.55864
# Poissons Ratio (z) = 0.67802 1.01665
#
# Static dielectric constant tensor:
#      x y z
#    x 1.612350 0.000000 0.000000 
#    y 0.000000 1.612300 0.000000 
#    z 0.000000 0.000000 1.620310 
# 
# From -- ./inp_files/2543.got.cif
#   From: 2010.05.17/outbox.cif.g08.bks.cpg/sg39_2_cif.got.tgz:2543.got - 2010.06.03 18:22:40.
