data_PCOD9361738
_publ_section_title
;
Structure prediction by ZEFSAII (Michael W. Deem and Ramdas Pophale) SiO2 
 PCOD9361738
Probable space group: A B M 2
;
_chemical_formula_sum "Si O2"
_cell_formula_units_Z 64
_cell_length_a 11.519969
_cell_length_b 19.087231
_cell_length_c 14.424929
_cell_angle_alpha 90.000000
_cell_angle_beta 90.000000
_cell_angle_gamma 90.000000
_cell_volume 3171.815552
_symmetry_space_group_name_H-M "A B M 2"
_symmetry_group_IT_number 39
_symmetry_cell_setting 'orthorhombic'
loop_
_space_group_symop_operation_xyz
x,y,z
-x,-y,z
-x,1/2+y,z
x,1/2-y,z
x,1/2+y,1/2+z
-x,1/2-y,1/2+z
-x,y,1/2+z
x,-y,1/2+z
loop_
_atom_site_type_symbol
_atom_site_label
_atom_site_fract_x
_atom_site_fract_y
_atom_site_fract_z
Si Si1 0.479564 0.332364 0.125000
Si Si2 0.669481 0.604696 0.956211
Si Si3 0.918888 0.330431 0.435046
Si Si4 0.513923 0.920022 0.304132
Si Si5 0.938637 0.571409 0.295809
Si Si6 0.002638 0.669975 0.145131
Si Si7 0.271360 0.446948 0.431760
Si Si8 0.752595 0.831425 0.585048
O O1 0.450964 0.250000 0.126060
O O2 0.448781 0.370387 0.220808
O O3 0.620047 0.338695 0.118361
O O4 0.414164 0.367899 0.038156
O O5 0.783888 0.651335 0.947015
O O6 0.601640 0.603949 0.858026
O O7 0.708517 0.524146 0.973468
O O8 0.934047 0.250000 0.404344
O O9 0.980106 0.383631 0.364956
O O10 0.975896 0.337762 0.536545
O O11 0.609467 0.923280 0.384542
O O12 0.500000 0.000000 0.269273
O O13 0.823450 0.551611 0.350921
O O14 0.000000 0.500000 0.268006
O O15 0.924991 0.618715 0.205424
O O16 0.978495 0.750000 0.171271
O O17 0.141287 0.656719 0.156510
O O18 0.234106 0.389087 0.505646
O O19 0.766786 0.750000 0.553268
#
# Coordination Sequence:
#
# PCOD9361738 Si02
#       8
#     8   8   8   8   8   8   8   8
#     4  11  25  42  67  99 131 175 224 271 332 399
#     4  11  24  44  66  96 134 176 221 272 335 396
#     4  11  24  44  67  94 131 173 218 273 333 393
#     4  10  25  42  64  98 133 175 220 271 333 397
#     4  12  25  42  66  98 129 169 222 269 330 399
#     4  10  24  43  65  96 130 171 219 272 335 394
#     4  11  23  44  68  93 133 175 220 276 333 395
#     4  10  22  41  66  95 129 175 222 270 331 396
#
# _framework density 20.177717000000001
#
# number of rings (size 3 to 8) (size 9 to 14) (size 15 to 20)
#    0.000    1.250    3.750    0.750    5.250    3.500 
#    0.000    0.000    0.000    0.000    0.000    0.000 
#    0.000    0.000    0.000    0.000    0.000    0.000 
#
# Total GULP energy -178821.956521 kJ/mol
# GULP energy per Si atom -5588.186141 kJ/mol
# Density = 2.013179 g / cm^3
# Si number density = 20.177717 Si / 1000 Ang^3
#
#
#
# Elastic Constant Matrix: (Units=GPa)
#
#
# Indices 1 2 3 4 5 6 
#
# 1 65.7530 17.1991 -9.2828 0.0000 0.0000 0.0000
# 2 17.1991 112.2708 48.3541 0.0000 0.0000 0.0000
# 3 -9.2828 48.3541 47.6279 0.0000 0.0000 0.0000
# 4 0.0000 0.0000 0.0000 92.7172 0.0000 0.0000
# 5 0.0000 0.0000 0.0000 0.0000 12.5451 0.0000
# 6 0.0000 0.0000 0.0000 0.0000 0.0000 27.9990
#
#
#
# Elastic Compliance Matrix: (Units=1/GPa)
#
#
# Indices 1 2 3 4 5 6 
#
# 1 0.018966 -0.007992 0.011811 0.000000 0.000000 0.000000
# 2 -0.007992 0.019196 -0.021046 0.000000 0.000000 0.000000
# 3 0.011811 -0.021046 0.044665 0.000000 0.000000 0.000000
# 4 0.000000 0.000000 0.000000 0.010785 0.000000 0.000000
# 5 0.000000 0.000000 0.000000 0.000000 0.079712 0.000000
# 6 0.000000 0.000000 0.000000 0.000000 0.000000 0.035716
#
#
# Mechanical properties :
#
#
# Convention : Reuss Voigt Hill
#
# Bulk Modulus (GPa) = 20.67313 37.57693 29.12503
# Shear Modulus (GPa) = 19.25887 37.94435 28.60161
#
# Velocity S-wave (km/s) = 3.09279 4.34119 3.76903
# Velocity P-wave (km/s) = 4.79808 6.61750 5.77983
#
# Compressibility (1/GPa) = 0.04837198
#
# Stress axis : x y z
#
# Youngs Moduli (GPa) = 52.72473 52.09448 22.38872
#
# Poissons Ratio (x) = 0.41636 -0.26443
# Poissons Ratio (y) = 0.42139 0.47120
# Poissons Ratio (z) = -0.62272 1.09640
#
# Static dielectric constant tensor:
#      x y z
#    x 1.739930 0.000000 0.000000 
#    y 0.000000 1.683710 0.000000 
#    z 0.000000 0.000000 1.684910 
# 
# From -- ./inp_files/9426.got.cif
#   From: 2010.05.17/outbox.cif.g08.bks.cpg/sg39_5_cif.got.tgz:9426.got - 2010.06.03 18:22:40.
