data_PCOD9361136
_publ_section_title
;
Structure prediction by ZEFSAII (Michael W. Deem and Ramdas Pophale) SiO2 
 PCOD9361136
Probable space group: A B M 2
;
_chemical_formula_sum "Si O2"
_cell_formula_units_Z 48
_cell_length_a 9.632313
_cell_length_b 14.762076
_cell_length_c 16.689392
_cell_angle_alpha 90.000000
_cell_angle_beta 90.000000
_cell_angle_gamma 90.000000
_cell_volume 2373.113658
_symmetry_space_group_name_H-M "A B M 2"
_symmetry_group_IT_number 39
_symmetry_cell_setting 'orthorhombic'
loop_
_space_group_symop_operation_xyz
x,y,z
-x,-y,z
-x,1/2+y,z
x,1/2-y,z
x,1/2+y,1/2+z
-x,1/2-y,1/2+z
-x,y,1/2+z
x,-y,1/2+z
loop_
_atom_site_type_symbol
_atom_site_label
_atom_site_fract_x
_atom_site_fract_y
_atom_site_fract_z
Si Si1 0.333667 0.521917 0.655410
Si Si2 0.235150 0.357099 0.301260
Si Si3 0.748760 0.854436 0.573411
Si Si4 0.977623 0.606919 0.438000
Si Si5 0.277521 0.645863 0.500157
Si Si6 0.451233 0.358463 0.432136
O O1 0.500000 0.500000 0.666220
O O2 0.261158 0.581131 0.724503
O O3 0.255566 0.425978 0.644329
O O4 0.300258 0.579145 0.574607
O O5 0.253362 0.250000 0.281721
O O6 0.094820 0.364600 0.354561
O O7 0.353651 0.392326 0.362570
O O8 0.742477 0.750000 0.598648
O O9 0.874457 0.866653 0.510764
O O10 0.614788 0.877966 0.518633
O O11 0.000000 0.500000 0.436329
O O12 0.126794 0.645475 0.461211
O O13 0.310462 0.750000 0.524408
O O14 0.389846 0.614835 0.434085
O O15 0.442647 0.250000 0.423699
#
# Coordination Sequence:
#
# PCOD9361136 Si02
#       6
#     8   8   8   8   8   8
#     4  12  24  39  66 105 133 172 220 281 341 400
#     4  10  23  44  66  94 137 180 213 269 343 401
#     4  10  20  40  66  94 128 171 219 271 332 393
#     4  11  22  41  69  97 128 172 227 271 320 400
#     4  11  21  38  68 101 129 166 222 280 329 393
#     4   8  17  36  67  94 121 163 215 270 327 388
#
# _framework density 20.226590999999999
#
# number of rings (size 3 to 8) (size 9 to 14) (size 15 to 20)
#    0.000    1.667    3.333    3.000    0.000    2.000 
#    3.000    0.000    0.000    2.000    0.000    0.000 
#    0.000    0.000    0.000    0.000    0.000    0.000 
#
# Total GULP energy -133875.091449 kJ/mol
# GULP energy per Si atom -5578.128810 kJ/mol
# Density = 2.018055 g / cm^3
# Si number density = 20.226591 Si / 1000 Ang^3
#
#
#
# Elastic Constant Matrix: (Units=GPa)
#
#
# Indices 1 2 3 4 5 6 
#
# 1 133.5988 18.7907 36.2759 0.0000 0.0000 0.0000
# 2 18.7907 150.3840 53.8513 0.0000 0.0000 0.0000
# 3 36.2759 53.8513 87.1134 0.0000 0.0000 0.0000
# 4 0.0000 0.0000 0.0000 33.3346 0.0000 0.0000
# 5 0.0000 0.0000 0.0000 0.0000 16.5141 0.0000
# 6 0.0000 0.0000 0.0000 0.0000 0.0000 26.0550
#
#
#
# Elastic Compliance Matrix: (Units=1/GPa)
#
#
# Indices 1 2 3 4 5 6 
#
# 1 0.008447 0.000262 -0.003680 0.000000 0.000000 0.000000
# 2 0.000262 0.008548 -0.005393 0.000000 0.000000 0.000000
# 3 -0.003680 -0.005393 0.016346 0.000000 0.000000 0.000000
# 4 0.000000 0.000000 0.000000 0.029999 0.000000 0.000000
# 5 0.000000 0.000000 0.000000 0.000000 0.060554 0.000000
# 6 0.000000 0.000000 0.000000 0.000000 0.000000 0.038380
#
#
# Mechanical properties :
#
#
# Convention : Reuss Voigt Hill
#
# Bulk Modulus (GPa) = 63.61625 65.43689 64.52657
# Shear Modulus (GPa) = 27.00707 32.65929 29.83318
#
# Velocity S-wave (km/s) = 3.65804 4.02266 3.84467
# Velocity P-wave (km/s) = 7.02579 7.34832 7.18887
#
# Compressibility (1/GPa) = 0.01571925
#
# Stress axis : x y z
#
# Youngs Moduli (GPa) = 118.37996 116.98293 61.17800
#
# Poissons Ratio (x) = -0.03067 0.22512
# Poissons Ratio (y) = -0.03104 0.32996
# Poissons Ratio (z) = 0.43561 0.63095
#
# Static dielectric constant tensor:
#      x y z
#    x 1.753300 0.000000 0.000000 
#    y 0.000000 1.664530 0.000000 
#    z 0.000000 0.000000 1.715540 
# 
# From -- ./inp_files/11611.got.cif
#   From: 2010.05.17/outbox.cif.g08.bks.cpg/sg39_6_cif.got.tgz:11611.got - 2010.06.03 18:22:40.
