data_PCOD9361955
_publ_section_title
;
Structure prediction by ZEFSAII (Michael W. Deem and Ramdas Pophale) SiO2 
 PCOD9361955
Probable space group: A B M 2
;
_chemical_formula_sum "Si O2"
_cell_formula_units_Z 32
_cell_length_a 13.966245
_cell_length_b 9.499170
_cell_length_c 11.268997
_cell_angle_alpha 90.000000
_cell_angle_beta 90.000000
_cell_angle_gamma 90.000000
_cell_volume 1495.032314
_symmetry_space_group_name_H-M "A B M 2"
_symmetry_group_IT_number 39
_symmetry_cell_setting 'orthorhombic'
loop_
_space_group_symop_operation_xyz
x,y,z
-x,-y,z
-x,1/2+y,z
x,1/2-y,z
x,1/2+y,1/2+z
-x,1/2-y,1/2+z
-x,y,1/2+z
x,-y,1/2+z
loop_
_atom_site_type_symbol
_atom_site_label
_atom_site_fract_x
_atom_site_fract_y
_atom_site_fract_z
Si Si1 0.607000 0.033199 0.958240
Si Si2 0.662245 0.250000 0.155953
Si Si3 0.000000 0.500000 0.665786
Si Si4 0.117640 0.250000 0.052101
Si Si5 0.322867 0.750000 0.527564
Si Si6 0.128365 0.750000 0.272356
Si Si7 0.449997 0.250000 0.257370
O O1 0.588520 0.119110 0.836859
O O2 0.500000 0.000000 0.000677
O O3 0.655073 0.120354 0.063661
O O4 0.664530 0.889115 0.949196
O O5 0.765557 0.250000 0.217004
O O6 0.564975 0.250000 0.236253
O O7 0.936957 0.390589 0.590513
O O8 0.930223 0.608362 0.735396
O O9 0.132544 0.250000 0.912721
O O10 0.225025 0.250000 0.101088
O O11 0.404997 0.750000 0.627412
#
# Coordination Sequence:
#
# PCOD9361955 Si02
#       7
#     8   4   4   4   4   4   4
#     4  11  24  43  63  93 140 186 224 269 322 388
#     4  11  24  45  66 101 136 183 229 270 330 413
#     4  10  24  50  70 102 134 170 226 298 346 418
#     4  11  25  44  75 102 134 175 230 281 351 410
#     4  12  25  44  66 104 136 176 235 275 321 408
#     4  11  24  44  76  98 135 177 223 287 356 398
#     4  11  26  43  65  91 145 193 215 271 332 387
#
# _framework density 21.404219000000001
#
# number of rings (size 3 to 8) (size 9 to 14) (size 15 to 20)
#    0.000    1.000    2.500    3.000    7.000    2.000 
#    0.000   10.000    0.000    0.000    0.000    0.000 
#    0.000    0.000    0.000    0.000    0.000    0.000 
#
# Total GULP energy -89429.277575 kJ/mol
# GULP energy per Si atom -5589.329848 kJ/mol
# Density = 2.135550 g / cm^3
# Si number density = 21.404219 Si / 1000 Ang^3
#
#
#
# Elastic Constant Matrix: (Units=GPa)
#
#
# Indices 1 2 3 4 5 6 
#
# 1 112.4239 36.1097 16.2681 0.0000 0.0000 0.0000
# 2 36.1097 166.0828 30.2221 0.0000 0.0000 0.0000
# 3 16.2681 30.2221 80.5495 0.0000 0.0000 0.0000
# 4 0.0000 0.0000 0.0000 -59.2151 0.0000 0.0000
# 5 0.0000 0.0000 0.0000 0.0000 35.3462 0.0000
# 6 0.0000 0.0000 0.0000 0.0000 0.0000 71.7992
#
#
#
# Elastic Compliance Matrix: (Units=1/GPa)
#
#
# Indices 1 2 3 4 5 6 
#
# 1 0.009679 -0.001877 -0.001251 0.000000 0.000000 0.000000
# 2 -0.001877 0.006826 -0.002182 0.000000 0.000000 0.000000
# 3 -0.001251 -0.002182 0.013486 0.000000 0.000000 0.000000
# 4 0.000000 0.000000 0.000000 -0.016888 0.000000 0.000000
# 5 0.000000 0.000000 0.000000 0.000000 0.028292 0.000000
# 6 0.000000 0.000000 0.000000 0.000000 0.000000 0.013928
#
#
# Mechanical properties :
#
#
# Convention : Reuss Voigt Hill
#
# Bulk Modulus (GPa) = 51.62106 58.25066 54.93586
# Shear Modulus (GPa) = 69.06173 28.01648 48.53910
#
# Velocity S-wave (km/s) = 5.68643 3.62183 4.76724
# Velocity P-wave (km/s) = 8.20266 6.69058 7.48490
#
# Compressibility (1/GPa) = 0.01937194
#
# Stress axis : x y z
#
# Youngs Moduli (GPa) = 103.31993 146.49379 74.15072
#
# Poissons Ratio (x) = 0.27493 0.09273
# Poissons Ratio (y) = 0.19391 0.16181
# Poissons Ratio (z) = 0.12921 0.31967
#
# Static dielectric constant tensor:
#      x y z
#    x 1.716760 0.000000 0.000000 
#    y 0.000000 1.902070 0.000000 
#    z 0.000000 0.000000 1.751800 
# 
# From -- ./inp_files/6219.got.cif
#   From: 2010.05.17/outbox.cif.g08.bks.cpg/sg39_4_cif.got.tgz:6219.got - 2010.06.03 18:22:40.
