data_PCOD9361427
_publ_section_title
;
Structure prediction by ZEFSAII (Michael W. Deem and Ramdas Pophale) SiO2 
 PCOD9361427
Probable space group: A B M 2
;
_chemical_formula_sum "Si O2"
_cell_formula_units_Z 64
_cell_length_a 8.715414
_cell_length_b 14.282184
_cell_length_c 23.301938
_cell_angle_alpha 90.000000
_cell_angle_beta 90.000000
_cell_angle_gamma 90.000000
_cell_volume 2900.512144
_symmetry_space_group_name_H-M "A B M 2"
_symmetry_group_IT_number 39
_symmetry_cell_setting 'orthorhombic'
loop_
_space_group_symop_operation_xyz
x,y,z
-x,-y,z
-x,1/2+y,z
x,1/2-y,z
x,1/2+y,1/2+z
-x,1/2-y,1/2+z
-x,y,1/2+z
x,-y,1/2+z
loop_
_atom_site_type_symbol
_atom_site_label
_atom_site_fract_x
_atom_site_fract_y
_atom_site_fract_z
Si Si1 0.882821 0.860697 0.823170
Si Si2 0.802045 0.642019 0.520380
Si Si3 0.275433 0.852550 0.216686
Si Si4 0.403687 0.904865 0.696238
Si Si5 0.780851 0.138539 0.811072
Si Si6 0.671297 0.032407 0.925031
Si Si7 0.126980 0.137962 0.955719
Si Si8 0.178142 0.509957 0.123460
O O1 0.829418 0.750000 0.960485
O O2 0.740621 0.888011 0.782768
O O3 0.908149 0.885955 0.889118
O O4 0.043648 0.882948 0.793768
O O5 0.794746 0.750000 0.538879
O O6 0.690639 0.620085 0.467467
O O7 0.758549 0.571857 0.571322
O O8 0.975335 0.625820 0.494697
O O9 0.201853 0.750000 0.213966
O O10 0.445324 0.842540 0.191327
O O11 0.183903 0.925323 0.179321
O O12 0.318731 0.877000 0.754388
O O13 0.284345 0.922372 0.643800
O O14 0.500000 0.000000 0.704292
O O15 0.772440 0.250000 0.827650
O O16 0.738028 0.071050 0.864339
O O17 0.500000 0.000000 0.913508
O O18 0.748854 0.945470 0.961422
O O19 0.136096 0.250000 0.828318
O O20 0.000000 0.500000 0.109447
#
# Coordination Sequence:
#
# PCOD9361427 Si02
#       8
#     8   8   8   8   8   8   8   8
#     4   9  19  35  60  90 126 172 226 277 333 400
#     4  11  24  48  73  97 130 177 239 298 346 409
#     4  10  21  39  62  93 130 180 226 275 344 412
#     4  10  23  39  58  92 134 177 224 280 340 413
#     4  11  22  39  61  94 138 186 231 282 341 404
#     4  12  26  39  64 101 140 183 230 285 354 421
#     4  10  22  42  66  95 131 176 231 289 345 407
#     4  11  23  41  68  96 128 174 227 288 348 411
#
# _framework density 22.065069999999999
#
# number of rings (size 3 to 8) (size 9 to 14) (size 15 to 20)
#    0.000    1.500    1.250    3.375    5.250    2.500 
#    0.000    1.875    0.000    3.000    0.000    0.000 
#    0.000    0.000    0.000    0.000    0.000    0.000 
#
# Total GULP energy -178138.644176 kJ/mol
# GULP energy per Si atom -5566.832630 kJ/mol
# Density = 2.201485 g / cm^3
# Si number density = 22.065070 Si / 1000 Ang^3
#
#
#
# Elastic Constant Matrix: (Units=GPa)
#
#
# Indices 1 2 3 4 5 6 
#
# 1 56.2222 19.3149 13.3050 0.0000 0.0000 0.0000
# 2 19.3149 92.4906 15.2215 0.0000 0.0000 0.0000
# 3 13.3050 15.2215 90.7993 0.0000 0.0000 0.0000
# 4 0.0000 0.0000 0.0000 30.0318 0.0000 0.0000
# 5 0.0000 0.0000 0.0000 0.0000 7.8411 0.0000
# 6 0.0000 0.0000 0.0000 0.0000 0.0000 34.9610
#
#
#
# Elastic Compliance Matrix: (Units=1/GPa)
#
#
# Indices 1 2 3 4 5 6 
#
# 1 0.019597 -0.003723 -0.002248 0.000000 0.000000 0.000000
# 2 -0.003723 0.011826 -0.001437 0.000000 0.000000 0.000000
# 3 -0.002248 -0.001437 0.011584 0.000000 0.000000 0.000000
# 4 0.000000 0.000000 0.000000 0.033298 0.000000 0.000000
# 5 0.000000 0.000000 0.000000 0.000000 0.127532 0.000000
# 6 0.000000 0.000000 0.000000 0.000000 0.000000 0.028603
#
#
# Mechanical properties :
#
#
# Convention : Reuss Voigt Hill
#
# Bulk Modulus (GPa) = 35.47068 37.24387 36.35728
# Shear Modulus (GPa) = 19.48161 27.34483 23.41322
#
# Velocity S-wave (km/s) = 2.97461 3.52416 3.26098
# Velocity P-wave (km/s) = 5.28282 5.78579 5.54002
#
# Compressibility (1/GPa) = 0.02819230
#
# Stress axis : x y z
#
# Youngs Moduli (GPa) = 51.02732 84.56084 86.32942
#
# Poissons Ratio (x) = 0.31479 0.19403
# Poissons Ratio (y) = 0.18996 0.12405
# Poissons Ratio (z) = 0.11469 0.12151
#
# Static dielectric constant tensor:
#      x y z
#    x 1.885120 0.000000 0.000000 
#    y 0.000000 2.065900 0.000000 
#    z 0.000000 0.000000 1.818860 
# 
# From -- ./inp_files/15708.got.cif
#   From: 2010.05.17/outbox.cif.g08.bks.cpg/sg39_8_cif.got.tgz:15708.got - 2010.06.03 18:22:40.
