data_PCOD9361583
_publ_section_title
;
Structure prediction by ZEFSAII (Michael W. Deem and Ramdas Pophale) SiO2 
 PCOD9361583
Probable space group: A B M 2
;
_chemical_formula_sum "Si O2"
_cell_formula_units_Z 48
_cell_length_a 7.093323
_cell_length_b 19.932662
_cell_length_c 12.664798
_cell_angle_alpha 90.000000
_cell_angle_beta 90.000000
_cell_angle_gamma 90.000000
_cell_volume 1790.660716
_symmetry_space_group_name_H-M "A B M 2"
_symmetry_group_IT_number 39
_symmetry_cell_setting 'orthorhombic'
loop_
_space_group_symop_operation_xyz
x,y,z
-x,-y,z
-x,1/2+y,z
x,1/2-y,z
x,1/2+y,1/2+z
-x,1/2-y,1/2+z
-x,y,1/2+z
x,-y,1/2+z
loop_
_atom_site_type_symbol
_atom_site_label
_atom_site_fract_x
_atom_site_fract_y
_atom_site_fract_z
Si Si1 0.868358 0.401658 0.880230
Si Si2 0.500000 0.500000 0.497264
Si Si3 0.649374 0.250000 0.078146
Si Si4 0.715430 0.596806 0.849201
Si Si5 0.815449 0.114785 0.119603
Si Si6 0.172938 0.448008 0.155313
Si Si7 0.808025 0.750000 0.358682
Si Si8 0.389018 0.250000 0.890760
O O1 0.447241 0.441471 0.910200
O O2 0.783455 0.438734 0.778912
O O3 0.882412 0.324201 0.839472
O O4 0.082074 0.426004 0.894405
O O5 0.775982 0.593629 0.497234
O O6 0.655268 0.470143 0.582827
O O7 0.699276 0.183032 0.135721
O O8 0.806055 0.250000 0.985620
O O9 0.455599 0.250000 0.013845
O O10 0.736298 0.579460 0.725155
O O11 0.699847 0.677403 0.868935
O O12 0.043940 0.118060 0.125931
O O13 0.000000 0.500000 0.137661
O O14 0.587894 0.750000 0.326845
#
# Coordination Sequence:
#
# PCOD9361583 Si02
#       8
#     8   4   4   8   8   8   4   4
#     4  10  21  49  82 116 157 223 287 346 438 533
#     4  12  28  54  78 126 174 224 298 358 430 528
#     4   8  19  38  77 116 164 214 279 351 429 526
#     4  11  24  46  83 121 169 220 282 364 434 523
#     4  10  21  48  81 117 158 223 281 350 443 523
#     4  11  27  49  79 112 159 230 278 355 426 503
#     4   8  19  40  77 115 158 207 269 347 427 512
#     4  10  22  42  74 119 164 211 272 368 422 508
#
# _framework density 26.80575
#
# number of rings (size 3 to 8) (size 9 to 14) (size 15 to 20)
#    0.500    1.333    1.667    1.000    2.333    2.667 
#   12.000    3.333    0.000    0.000    0.000    0.000 
#    0.000    0.000    0.000    0.000    0.000    0.000 
#
# Total GULP energy -133680.557072 kJ/mol
# GULP energy per Si atom -5570.023211 kJ/mol
# Density = 2.674474 g / cm^3
# Si number density = 26.805750 Si / 1000 Ang^3
#
#
#
# Elastic Constant Matrix: (Units=GPa)
#
#
# Indices 1 2 3 4 5 6 
#
# 1 155.4353 30.4595 98.2606 0.0000 0.0000 0.0000
# 2 30.4595 122.4213 80.3173 0.0000 0.0000 0.0000
# 3 98.2606 80.3173 247.4623 0.0000 0.0000 0.0000
# 4 0.0000 0.0000 0.0000 54.7869 0.0000 0.0000
# 5 0.0000 0.0000 0.0000 0.0000 46.8280 0.0000
# 6 0.0000 0.0000 0.0000 0.0000 0.0000 67.4549
#
#
#
# Elastic Compliance Matrix: (Units=1/GPa)
#
#
# Indices 1 2 3 4 5 6 
#
# 1 0.008591 0.000128 -0.003453 0.000000 0.000000 0.000000
# 2 0.000128 0.010380 -0.003420 0.000000 0.000000 0.000000
# 3 -0.003453 -0.003420 0.006522 0.000000 0.000000 0.000000
# 4 0.000000 0.000000 0.000000 0.018253 0.000000 0.000000
# 5 0.000000 0.000000 0.000000 0.000000 0.021355 0.000000
# 6 0.000000 0.000000 0.000000 0.000000 0.000000 0.014825
#
#
# Mechanical properties :
#
#
# Convention : Reuss Voigt Hill
#
# Bulk Modulus (GPa) = 83.30688 104.82155 94.06421
# Shear Modulus (GPa) = 51.32590 54.89939 53.11264
#
# Velocity S-wave (km/s) = 4.38052 4.53044 4.45611
# Velocity P-wave (km/s) = 7.53198 8.15816 7.85131
#
# Compressibility (1/GPa) = 0.01200381
#
# Stress axis : x y z
#
# Youngs Moduli (GPa) = 116.39737 96.33560 153.32759
#
# Poissons Ratio (x) = -0.01230 0.52941
# Poissons Ratio (y) = -0.01487 0.52435
# Poissons Ratio (z) = 0.40190 0.32945
#
# Static dielectric constant tensor:
#      x y z
#    x 2.342940 0.000000 0.000000 
#    y 0.000000 2.630470 0.000000 
#    z 0.000000 0.000000 2.066700 
# 
# From -- ./inp_files/11077.got.cif
#   From: 2010.05.17/outbox.cif.g08.bks.cpg/sg39_6_cif.got.tgz:11077.got - 2010.06.03 18:22:40.
