data_PCOD9361653
_publ_section_title
;
Structure prediction by ZEFSAII (Michael W. Deem and Ramdas Pophale) SiO2 
 PCOD9361653
Probable space group: A B M 2
;
_chemical_formula_sum "Si O2"
_cell_formula_units_Z 32
_cell_length_a 4.871874
_cell_length_b 23.813998
_cell_length_c 10.009219
_cell_angle_alpha 90.000000
_cell_angle_beta 90.000000
_cell_angle_gamma 90.000000
_cell_volume 1161.257554
_symmetry_space_group_name_H-M "A B M 2"
_symmetry_group_IT_number 39
_symmetry_cell_setting 'orthorhombic'
loop_
_space_group_symop_operation_xyz
x,y,z
-x,-y,z
-x,1/2+y,z
x,1/2-y,z
x,1/2+y,1/2+z
-x,1/2-y,1/2+z
-x,y,1/2+z
x,-y,1/2+z
loop_
_atom_site_type_symbol
_atom_site_label
_atom_site_fract_x
_atom_site_fract_y
_atom_site_fract_z
Si Si1 0.075854 0.560801 0.456800
Si Si2 0.429915 0.561366 0.777450
Si Si3 0.211891 0.650611 0.126940
Si Si4 0.528437 0.750000 0.058009
Si Si5 0.810101 0.750000 0.800750
O O1 0.388813 0.562181 0.412942
O O2 0.000000 0.500000 0.515350
O O3 0.557965 0.611583 0.693978
O O4 0.997788 0.611363 0.551145
O O5 0.500000 0.500000 0.717822
O O6 0.116713 0.565042 0.824469
O O7 0.363496 0.693234 0.025881
O O8 0.077601 0.692608 0.236601
O O9 0.784509 0.750000 0.959298
O O10 0.492035 0.750000 0.220850
#
# Coordination Sequence:
#
# PCOD9361653 Si02
#       5
#     8   8   8   4   4
#     4  10  22  39  61  94 134 176 227 283 345 417
#     4  10  22  39  61  93 134 178 227 282 345 415
#     4   9  20  36  67  95 141 181 232 292 355 417
#     4   8  18  36  66 104 143 185 241 295 357 421
#     4   8  18  36  64 100 141 181 237 293 355 417
#
# _framework density 27.556329999999999
#
# number of rings (size 3 to 8) (size 9 to 14) (size 15 to 20)
#    1.500    1.000    0.000    1.500    0.000    8.000 
#    0.000    5.000    0.000   12.000    0.000    0.000 
#    0.000    0.000    0.000    0.000    0.000    0.000 
#
# Total GULP energy -89582.852814 kJ/mol
# GULP energy per Si atom -5598.928301 kJ/mol
# Density = 2.749361 g / cm^3
# Si number density = 27.556330 Si / 1000 Ang^3
#
#
#
# Elastic Constant Matrix: (Units=GPa)
#
#
# Indices 1 2 3 4 5 6 
#
# 1 78.7822 23.4558 24.0349 0.0000 0.0000 0.0000
# 2 23.4558 219.6189 46.6102 0.0000 0.0000 0.0000
# 3 24.0349 46.6102 92.4295 0.0000 0.0000 0.0000
# 4 0.0000 0.0000 0.0000 31.7020 0.0000 0.0000
# 5 0.0000 0.0000 0.0000 0.0000 50.8302 0.0000
# 6 0.0000 0.0000 0.0000 0.0000 0.0000 41.4385
#
#
#
# Elastic Compliance Matrix: (Units=1/GPa)
#
#
# Indices 1 2 3 4 5 6 
#
# 1 0.013913 -0.000804 -0.003212 0.000000 0.000000 0.000000
# 2 -0.000804 0.005146 -0.002386 0.000000 0.000000 0.000000
# 3 -0.003212 -0.002386 0.012857 0.000000 0.000000 0.000000
# 4 0.000000 0.000000 0.000000 0.031544 0.000000 0.000000
# 5 0.000000 0.000000 0.000000 0.000000 0.019673 0.000000
# 6 0.000000 0.000000 0.000000 0.000000 0.000000 0.024132
#
#
# Mechanical properties :
#
#
# Convention : Reuss Voigt Hill
#
# Bulk Modulus (GPa) = 52.32478 64.33693 58.33086
# Shear Modulus (GPa) = 39.54461 44.57611 42.06036
#
# Velocity S-wave (km/s) = 3.79231 4.02635 3.91108
# Velocity P-wave (km/s) = 6.18102 6.70920 6.45052
#
# Compressibility (1/GPa) = 0.01911140
#
# Stress axis : x y z
#
# Youngs Moduli (GPa) = 71.87708 194.34283 77.77618
#
# Poissons Ratio (x) = 0.15628 0.24984
# Poissons Ratio (y) = 0.05780 0.18555
# Poissons Ratio (z) = 0.23089 0.46364
#
# Static dielectric constant tensor:
#      x y z
#    x 2.131360 0.000000 0.000000 
#    y 0.000000 2.100600 0.000000 
#    z 0.000000 0.000000 2.187050 
# 
# From -- ./inp_files/1732.got.cif
#   From: 2010.05.17/outbox.cif.g08.bks.cpg/sg39_1_cif.got.tgz:1732.got - 2010.06.03 18:22:40.
