data_PCOD9361205
_publ_section_title
;
Structure prediction by ZEFSAII (Michael W. Deem and Ramdas Pophale) SiO2 
 PCOD9361205
Probable space group: A B M 2
;
_chemical_formula_sum "Si O2"
_cell_formula_units_Z 64
_cell_length_a 17.495079
_cell_length_b 7.812994
_cell_length_c 22.797302
_cell_angle_alpha 90.000000
_cell_angle_beta 90.000000
_cell_angle_gamma 90.000000
_cell_volume 3116.139211
_symmetry_space_group_name_H-M "A B M 2"
_symmetry_group_IT_number 39
_symmetry_cell_setting 'orthorhombic'
loop_
_space_group_symop_operation_xyz
x,y,z
-x,-y,z
-x,1/2+y,z
x,1/2-y,z
x,1/2+y,1/2+z
-x,1/2-y,1/2+z
-x,y,1/2+z
x,-y,1/2+z
loop_
_atom_site_type_symbol
_atom_site_label
_atom_site_fract_x
_atom_site_fract_y
_atom_site_fract_z
Si Si1 0.414598 0.043499 0.018100
Si Si2 0.418437 0.955117 0.652084
Si Si3 0.755235 0.052478 0.482535
Si Si4 0.080866 0.556013 0.304341
Si Si5 0.913634 0.543687 0.044168
Si Si6 0.883109 0.456210 0.677126
Si Si7 0.234741 0.556067 0.852081
Si Si8 0.719151 0.458212 0.728233
O O1 0.412147 0.250000 0.015942
O O2 0.415842 0.980670 0.085500
O O3 0.500000 0.000000 0.993054
O O4 0.330917 0.981856 0.995190
O O5 0.409895 0.750000 0.648744
O O6 0.352173 0.023850 0.692589
O O7 0.500000 0.000000 0.677780
O O8 0.752662 0.250000 0.503015
O O9 0.835320 0.982049 0.510924
O O10 0.762831 0.042737 0.412587
O O11 0.098613 0.750000 0.320298
O O12 0.078315 0.539932 0.233779
O O13 0.148061 0.440345 0.328656
O O14 0.000000 0.500000 0.328726
O O15 0.910015 0.750000 0.043349
O O16 0.907699 0.486397 0.112525
O O17 0.000000 0.500000 0.022278
O O18 0.893865 0.250000 0.680630
O O19 0.794296 0.494890 0.690109
O O20 0.261385 0.750000 0.863320
O O21 0.276845 0.479329 0.795142
O O22 0.716542 0.250000 0.732926
#
# Coordination Sequence:
#
# PCOD9361205 Si02
#       8
#     8   8   8   8   8   8   8   8
#     4   9  18  33  56  82 107 135 172 216 266 320
#     4   9  16  29  50  77 105 132 162 203 255 316
#     4  10  21  38  56  76 105 145 186 226 270 319
#     4  11  21  34  53  77 104 135 171 216 266 317
#     4  10  21  35  53  77 108 143 179 218 266 321
#     4   9  17  32  53  77 103 134 172 215 263 319
#     4  10  21  37  55  75  99 134 179 224 265 313
#     4   8  15  30  52  73  97 130 167 204 253 313
#
# _framework density 20.538233000000002
#
# number of rings (size 3 to 8) (size 9 to 14) (size 15 to 20)
#    0.000    2.500    0.000    3.375    0.000    6.000 
#    0.000    5.000    0.000    7.500    0.000    0.000 
#    0.000    0.000    0.000    0.000    0.000    0.000 
#
# Total GULP energy -178236.874589 kJ/mol
# GULP energy per Si atom -5569.902331 kJ/mol
# Density = 2.049149 g / cm^3
# Si number density = 20.538233 Si / 1000 Ang^3
#
#
#
# Elastic Constant Matrix: (Units=GPa)
#
#
# Indices 1 2 3 4 5 6 
#
# 1 160.1114 6.7598 56.3540 0.0000 0.0000 0.0000
# 2 6.7598 38.0559 -1.9185 0.0000 0.0000 0.0000
# 3 56.3540 -1.9185 68.3719 0.0000 0.0000 0.0000
# 4 0.0000 0.0000 0.0000 17.1512 0.0000 0.0000
# 5 0.0000 0.0000 0.0000 0.0000 -13.9965 0.0000
# 6 0.0000 0.0000 0.0000 0.0000 0.0000 18.4059
#
#
#
# Elastic Compliance Matrix: (Units=1/GPa)
#
#
# Indices 1 2 3 4 5 6 
#
# 1 0.008942 -0.001963 -0.007425 0.000000 0.000000 0.000000
# 2 -0.001963 0.026745 0.002368 0.000000 0.000000 0.000000
# 3 -0.007425 0.002368 0.020812 0.000000 0.000000 0.000000
# 4 0.000000 0.000000 0.000000 0.058305 0.000000 0.000000
# 5 0.000000 0.000000 0.000000 0.000000 -0.071447 0.000000
# 6 0.000000 0.000000 0.000000 0.000000 0.000000 0.054331
#
#
# Mechanical properties :
#
#
# Convention : Reuss Voigt Hill
#
# Bulk Modulus (GPa) = 23.55158 43.21441 33.38299
# Shear Modulus (GPa) = 39.71992 18.00171 28.86082
#
# Velocity S-wave (km/s) = 4.40244 2.96378 3.75270
# Velocity P-wave (km/s) = 6.11016 5.72701 5.92168
#
# Compressibility (1/GPa) = 0.04246000
#
# Stress axis : x y z
#
# Youngs Moduli (GPa) = 111.83207 37.38994 48.04812
#
# Poissons Ratio (x) = 0.07338 0.35677
# Poissons Ratio (y) = 0.21949 -0.11379
# Poissons Ratio (z) = 0.83039 -0.08855
#
# Static dielectric constant tensor:
#      x y z
#    x 1.778750 0.000000 0.000000 
#    y 0.000000 1.754120 0.000000 
#    z 0.000000 0.000000 1.715300 
# 
# From -- ./inp_files/16252.got.cif
#   From: 2010.05.17/outbox.cif.g08.bks.cpg/sg39_9_cif.got.tgz:16252.got - 2010.06.03 18:22:40.
