data_PCOD9361793
_publ_section_title
;
Structure prediction by ZEFSAII (Michael W. Deem and Ramdas Pophale) SiO2 
 PCOD9361793
Probable space group: A B M 2
;
_chemical_formula_sum "Si O2"
_cell_formula_units_Z 56
_cell_length_a 13.859403
_cell_length_b 17.022750
_cell_length_c 11.040734
_cell_angle_alpha 90.000000
_cell_angle_beta 90.000000
_cell_angle_gamma 90.000000
_cell_volume 2604.786852
_symmetry_space_group_name_H-M "A B M 2"
_symmetry_group_IT_number 39
_symmetry_cell_setting 'orthorhombic'
loop_
_space_group_symop_operation_xyz
x,y,z
-x,-y,z
-x,1/2+y,z
x,1/2-y,z
x,1/2+y,1/2+z
-x,1/2-y,1/2+z
-x,y,1/2+z
x,-y,1/2+z
loop_
_atom_site_type_symbol
_atom_site_label
_atom_site_fract_x
_atom_site_fract_y
_atom_site_fract_z
Si Si1 0.594839 0.464056 0.500000
Si Si2 0.035813 0.089566 0.348478
Si Si3 0.066841 0.344274 0.609835
Si Si4 0.764329 0.162540 0.826523
Si Si5 0.568602 0.162183 0.692665
Si Si6 0.282738 0.389258 0.582629
Si Si7 0.379256 0.335869 0.824845
O O1 0.500000 0.500000 0.436547
O O2 0.548501 0.407566 0.601184
O O3 0.665656 0.528024 0.556719
O O4 0.651116 0.407078 0.409341
O O5 0.018968 0.129239 0.481325
O O6 0.150827 0.099288 0.325893
O O7 0.988092 0.132398 0.232716
O O8 0.000000 0.000000 0.352254
O O9 0.082462 0.250000 0.605788
O O10 0.169323 0.389577 0.613182
O O11 0.807251 0.250000 0.811945
O O12 0.679164 0.152066 0.731619
O O13 0.713498 0.157341 0.956811
O O14 0.556373 0.250000 0.639973
O O15 0.494521 0.159558 0.804159
O O16 0.335502 0.346893 0.692377
O O17 0.352897 0.250000 0.872534
#
# Coordination Sequence:
#
# PCOD9361793 Si02
#       7
#     8   8   8   8   8   8   8
#     4  12  25  39  62  94 136 173 222 271 335 371
#     4  11  24  43  72 103 137 170 226 284 345 400
#     4  11  24  47  72 100 134 182 224 276 343 414
#     4  10  22  44  69  94 128 178 220 263 331 405
#     4  10  23  41  65  92 130 178 223 266 323 391
#     4  11  24  39  68  94 132 169 219 267 331 389
#     4  11  24  43  65  94 132 175 225 271 316 389
#
# _framework density 21.49888
#
# number of rings (size 3 to 8) (size 9 to 14) (size 15 to 20)
#    0.000    1.143    1.429    5.143    6.000    1.143 
#    2.571    0.000    0.000    0.000    0.000    0.000 
#    0.000    0.000    0.000    0.000    0.000    0.000 
#
# Total GULP energy -156407.298976 kJ/mol
# GULP energy per Si atom -5585.974963 kJ/mol
# Density = 2.144995 g / cm^3
# Si number density = 21.498880 Si / 1000 Ang^3
#
#
#
# Elastic Constant Matrix: (Units=GPa)
#
#
# Indices 1 2 3 4 5 6 
#
# 1 57.4945 29.9903 36.2315 0.0000 0.0000 0.0000
# 2 29.9903 120.8305 41.8685 0.0000 0.0000 0.0000
# 3 36.2315 41.8685 79.9421 0.0000 0.0000 0.0000
# 4 0.0000 0.0000 0.0000 45.6126 0.0000 0.0000
# 5 0.0000 0.0000 0.0000 0.0000 33.9778 0.0000
# 6 0.0000 0.0000 0.0000 0.0000 0.0000 0.1288
#
#
#
# Elastic Compliance Matrix: (Units=1/GPa)
#
#
# Indices 1 2 3 4 5 6 
#
# 1 0.025096 -0.002795 -0.009910 0.000000 0.000000 0.000000
# 2 -0.002795 0.010422 -0.004192 0.000000 0.000000 0.000000
# 3 -0.009910 -0.004192 0.019196 0.000000 0.000000 0.000000
# 4 0.000000 0.000000 0.000000 0.021924 0.000000 0.000000
# 5 0.000000 0.000000 0.000000 0.000000 0.029431 0.000000
# 6 0.000000 0.000000 0.000000 0.000000 0.000000 7.766643
#
#
# Mechanical properties :
#
#
# Convention : Reuss Voigt Hill
#
# Bulk Modulus (GPa) = 47.80039 52.71642 50.25841
# Shear Modulus (GPa) = 0.63183 25.95562 13.29373
#
# Velocity S-wave (km/s) = 0.54271 3.47839 2.48935
# Velocity P-wave (km/s) = 4.76181 6.38013 5.62943
#
# Compressibility (1/GPa) = 0.02092033
#
# Stress axis : x y z
#
# Youngs Moduli (GPa) = 39.84691 95.94884 52.09423
#
# Poissons Ratio (x) = 0.26817 0.51627
# Poissons Ratio (y) = 0.11137 0.21837
# Poissons Ratio (z) = 0.39489 0.40220
#
# Static dielectric constant tensor:
#      x y z
#    x 1.785360 0.000000 0.000000 
#    y 0.000000 1.807180 0.000000 
#    z 0.000000 0.000000 1.786970 
# 
# From -- ./inp_files/6463.got.cif
#   From: 2010.05.17/outbox.cif.g08.bks.cpg/sg39_4_cif.got.tgz:6463.got - 2010.06.03 18:22:40.
