data_PCOD9361414
_publ_section_title
;
Structure prediction by ZEFSAII (Michael W. Deem and Ramdas Pophale) SiO2 
 PCOD9361414
Probable space group: A B M 2
;
_chemical_formula_sum "Si O2"
_cell_formula_units_Z 44
_cell_length_a 8.917704
_cell_length_b 23.503435
_cell_length_c 10.707174
_cell_angle_alpha 90.000000
_cell_angle_beta 90.000000
_cell_angle_gamma 90.000000
_cell_volume 2244.188083
_symmetry_space_group_name_H-M "A B M 2"
_symmetry_group_IT_number 39
_symmetry_cell_setting 'orthorhombic'
loop_
_space_group_symop_operation_xyz
x,y,z
-x,-y,z
-x,1/2+y,z
x,1/2-y,z
x,1/2+y,1/2+z
-x,1/2-y,1/2+z
-x,y,1/2+z
x,-y,1/2+z
loop_
_atom_site_type_symbol
_atom_site_label
_atom_site_fract_x
_atom_site_fract_y
_atom_site_fract_z
Si Si1 0.232460 0.914642 0.582550
Si Si2 0.534397 0.122855 0.006952
Si Si3 0.000000 0.500000 0.474832
Si Si4 0.095467 0.682734 0.409474
Si Si5 0.393310 0.816685 0.267047
Si Si6 0.826958 0.396981 0.864737
O O1 0.398129 0.921214 0.525260
O O2 0.158318 0.858548 0.518351
O O3 0.241584 0.902493 0.728336
O O4 0.127201 0.968385 0.555195
O O5 0.554724 0.153798 0.139793
O O6 0.479870 0.162029 0.891004
O O7 0.695733 0.100909 0.966024
O O8 0.067823 0.450672 0.389888
O O9 0.094493 0.750000 0.440536
O O10 0.216128 0.674318 0.297384
O O11 0.931513 0.658811 0.376381
O O12 0.418804 0.750000 0.253526
#
# Coordination Sequence:
#
# PCOD9361414 Si02
#       6
#     8   8   4   8   8   8
#     4  10  22  44  64  93 128 166 216 267 321 386
#     4  11  22  41  63  94 129 168 213 267 322 384
#     4  10  24  44  68  92 120 166 214 272 326 378
#     4   9  22  39  63  95 130 170 213 265 317 386
#     4  10  21  39  61  92 133 173 214 259 316 384
#     4  11  23  42  66  93 126 166 217 263 324 385
#
# _framework density 19.606200000000001
#
# number of rings (size 3 to 8) (size 9 to 14) (size 15 to 20)
#    0.000    1.818    1.818    1.091    5.091    3.636 
#    3.273    1.818    0.000    0.000    0.000    0.000 
#    0.000    0.000    0.000    0.000    0.000    0.000 
#
# Total GULP energy -122765.216972 kJ/mol
# GULP energy per Si atom -5580.237135 kJ/mol
# Density = 1.956157 g / cm^3
# Si number density = 19.606200 Si / 1000 Ang^3
#
#
#
# Elastic Constant Matrix: (Units=GPa)
#
#
# Indices 1 2 3 4 5 6 
#
# 1 103.9629 34.3342 22.4431 0.0000 0.0000 0.0000
# 2 34.3342 83.4859 22.7555 0.0000 0.0000 0.0000
# 3 22.4431 22.7555 113.8373 0.0000 0.0000 0.0000
# 4 0.0000 0.0000 0.0000 12.8428 0.0000 0.0000
# 5 0.0000 0.0000 0.0000 0.0000 23.0896 0.0000
# 6 0.0000 0.0000 0.0000 0.0000 0.0000 19.1095
#
#
#
# Elastic Compliance Matrix: (Units=1/GPa)
#
#
# Indices 1 2 3 4 5 6 
#
# 1 0.011331 -0.004285 -0.001377 0.000000 0.000000 0.000000
# 2 -0.004285 0.014288 -0.002011 0.000000 0.000000 0.000000
# 3 -0.001377 -0.002011 0.009458 0.000000 0.000000 0.000000
# 4 0.000000 0.000000 0.000000 0.077864 0.000000 0.000000
# 5 0.000000 0.000000 0.000000 0.000000 0.043310 0.000000
# 6 0.000000 0.000000 0.000000 0.000000 0.000000 0.052330
#
#
# Mechanical properties :
#
#
# Convention : Reuss Voigt Hill
#
# Bulk Modulus (GPa) = 50.68262 51.15020 50.91641
# Shear Modulus (GPa) = 21.69146 25.79194 23.74170
#
# Velocity S-wave (km/s) = 3.32980 3.63092 3.48361
# Velocity P-wave (km/s) = 6.37886 6.61237 6.49667
#
# Compressibility (1/GPa) = 0.01973063
#
# Stress axis : x y z
#
# Youngs Moduli (GPa) = 88.25206 69.98681 105.72919
#
# Poissons Ratio (x) = 0.29986 0.14564
# Poissons Ratio (y) = 0.37812 0.21267
# Poissons Ratio (z) = 0.12157 0.14078
#
# Static dielectric constant tensor:
#      x y z
#    x 1.733710 0.000000 0.000000 
#    y 0.000000 1.658970 0.000000 
#    z 0.000000 0.000000 1.660500 
# 
# From -- ./inp_files/5126.got.cif
#   From: 2010.05.17/outbox.cif.g08.bks.cpg/sg39_3_cif.got.tgz:5126.got - 2010.06.03 18:22:40.
