data_PCOD9361658
_publ_section_title
;
Structure prediction by ZEFSAII (Michael W. Deem and Ramdas Pophale) SiO2 
 PCOD9361658
Probable space group: A B M 2
;
_chemical_formula_sum "Si O2"
_cell_formula_units_Z 40
_cell_length_a 8.373988
_cell_length_b 24.923450
_cell_length_c 8.936069
_cell_angle_alpha 90.000000
_cell_angle_beta 90.000000
_cell_angle_gamma 90.000000
_cell_volume 1865.035087
_symmetry_space_group_name_H-M "A B M 2"
_symmetry_group_IT_number 39
_symmetry_cell_setting 'orthorhombic'
loop_
_space_group_symop_operation_xyz
x,y,z
-x,-y,z
-x,1/2+y,z
x,1/2-y,z
x,1/2+y,1/2+z
-x,1/2-y,1/2+z
-x,y,1/2+z
x,-y,1/2+z
loop_
_atom_site_type_symbol
_atom_site_label
_atom_site_fract_x
_atom_site_fract_y
_atom_site_fract_z
Si Si1 0.855402 0.465385 0.684370
Si Si2 0.267058 0.250000 0.251688
Si Si3 0.445831 0.750000 0.442159
Si Si4 0.660492 0.966413 0.899962
Si Si5 0.051221 0.653074 0.645995
Si Si6 0.761764 0.848855 0.833229
O O1 0.798161 0.498041 0.826269
O O2 0.705781 0.461368 0.573198
O O3 0.912748 0.405501 0.712781
O O4 0.000000 0.500000 0.617137
O O5 0.368025 0.250000 0.402994
O O6 0.155767 0.198492 0.226651
O O7 0.396241 0.250000 0.115966
O O8 0.363484 0.697599 0.369708
O O9 0.674557 0.906694 0.831407
O O10 0.500000 0.000000 0.880262
O O11 0.111825 0.651661 0.473730
O O12 0.865541 0.662081 0.684603
#
# Coordination Sequence:
#
# PCOD9361658 Si02
#       6
#     8   4   4   8   8   8
#     4  11  22  40  62  90 122 161 210 252 301 369
#     4  10  23  42  62  90 124 158 205 254 308 364
#     4  10  23  42  60  90 126 158 201 254 310 366
#     4  11  24  39  60  91 127 163 200 256 311 367
#     4  10  22  39  63  89 118 159 205 258 297 361
#     4  10  22  41  62  90 122 158 207 254 303 366
#
# _framework density 21.447317000000002
#
# number of rings (size 3 to 8) (size 9 to 14) (size 15 to 20)
#    0.000    1.600    2.000    1.800    5.600    1.600 
#    3.600    0.000    0.000    0.000    0.000    0.000 
#    0.000    0.000    0.000    0.000    0.000    0.000 
#
# Total GULP energy -111738.000315 kJ/mol
# GULP energy per Si atom -5586.900016 kJ/mol
# Density = 2.139850 g / cm^3
# Si number density = 21.447317 Si / 1000 Ang^3
#
#
#
# Elastic Constant Matrix: (Units=GPa)
#
#
# Indices 1 2 3 4 5 6 
#
# 1 83.6178 32.9553 19.0416 0.0000 0.0000 0.0000
# 2 32.9553 136.6376 14.5500 0.0000 0.0000 0.0000
# 3 19.0416 14.5500 22.0417 0.0000 0.0000 0.0000
# 4 0.0000 0.0000 0.0000 25.9829 0.0000 0.0000
# 5 0.0000 0.0000 0.0000 0.0000 39.0402 0.0000
# 6 0.0000 0.0000 0.0000 0.0000 0.0000 23.8785
#
#
#
# Elastic Compliance Matrix: (Units=1/GPa)
#
#
# Indices 1 2 3 4 5 6 
#
# 1 0.015650 -0.002512 -0.011862 0.000000 0.000000 0.000000
# 2 -0.002512 0.008275 -0.003293 0.000000 0.000000 0.000000
# 3 -0.011862 -0.003293 0.057790 0.000000 0.000000 0.000000
# 4 0.000000 0.000000 0.000000 0.038487 0.000000 0.000000
# 5 0.000000 0.000000 0.000000 0.000000 0.025615 0.000000
# 6 0.000000 0.000000 0.000000 0.000000 0.000000 0.041879
#
#
# Mechanical properties :
#
#
# Convention : Reuss Voigt Hill
#
# Bulk Modulus (GPa) = 21.56006 41.71010 31.63508
# Shear Modulus (GPa) = 20.96534 29.49701 25.23117
#
# Velocity S-wave (km/s) = 3.12994 3.71256 3.43363
# Velocity P-wave (km/s) = 4.81003 6.15365 5.52285
#
# Compressibility (1/GPa) = 0.04638207
#
# Stress axis : x y z
#
# Youngs Moduli (GPa) = 63.89659 120.84583 17.30411
#
# Poissons Ratio (x) = 0.30350 0.20527
# Poissons Ratio (y) = 0.16048 0.05698
# Poissons Ratio (z) = 0.75796 0.39792
#
# Static dielectric constant tensor:
#      x y z
#    x 1.844990 0.000000 0.000000 
#    y 0.000000 1.728320 0.000000 
#    z 0.000000 0.000000 1.766690 
# 
# From -- ./inp_files/2126.got.cif
#   From: 2010.05.17/outbox.cif.g08.bks.cpg/sg39_2_cif.got.tgz:2126.got - 2010.06.03 18:22:40.
