data_PCOD9361496
_publ_section_title
;
Structure prediction by ZEFSAII (Michael W. Deem and Ramdas Pophale) SiO2 
 PCOD9361496
Probable space group: A B M 2
;
_chemical_formula_sum "Si O2"
_cell_formula_units_Z 64
_cell_length_a 11.518287
_cell_length_b 18.178161
_cell_length_c 15.065312
_cell_angle_alpha 90.000000
_cell_angle_beta 90.000000
_cell_angle_gamma 90.000000
_cell_volume 3154.394243
_symmetry_space_group_name_H-M "A B M 2"
_symmetry_group_IT_number 39
_symmetry_cell_setting 'orthorhombic'
loop_
_space_group_symop_operation_xyz
x,y,z
-x,-y,z
-x,1/2+y,z
x,1/2-y,z
x,1/2+y,1/2+z
-x,1/2-y,1/2+z
-x,y,1/2+z
x,-y,1/2+z
loop_
_atom_site_type_symbol
_atom_site_label
_atom_site_fract_x
_atom_site_fract_y
_atom_site_fract_z
Si Si1 0.539923 0.664130 0.950830
Si Si2 0.304962 0.833707 0.628757
Si Si3 0.338371 0.547660 0.997615
Si Si4 0.974129 0.912163 0.860956
Si Si5 0.045657 0.836288 0.685780
Si Si6 0.375776 0.983505 0.691692
Si Si7 0.294159 0.927512 0.345282
Si Si8 0.071724 0.923177 0.042499
O O1 0.507456 0.750000 0.942899
O O2 0.429238 0.612174 0.972928
O O3 0.610416 0.635043 0.864928
O O4 0.631930 0.658503 0.033496
O O5 0.325085 0.750000 0.659112
O O6 0.166503 0.846943 0.632149
O O7 0.353291 0.897122 0.691960
O O8 0.329387 0.489778 0.917345
O O9 0.205700 0.568437 0.018174
O O10 0.375579 0.509532 0.089821
O O11 0.836437 0.899895 0.858676
O O12 0.043401 0.873863 0.781739
O O13 0.015948 0.885602 0.956549
O O14 0.000000 0.000000 0.856498
O O15 0.026547 0.750000 0.695327
O O16 0.946672 0.875345 0.629147
O O17 0.291428 0.032848 0.750043
O O18 0.500000 0.000000 0.732699
O O19 0.000000 0.000000 0.055318
#
# Coordination Sequence:
#
# PCOD9361496 Si02
#       8
#     8   8   8   8   8   8   8   8
#     4  11  24  44  67  96 136 179 221 274 337 403
#     4  10  21  40  66  94 130 173 215 267 332 392
#     4  12  22  43  65  96 132 171 224 278 330 389
#     4  11  22  42  66  99 130 166 223 279 326 384
#     4  11  24  41  64  96 135 175 214 266 332 401
#     4  12  22  38  66  97 125 168 219 269 322 390
#     4  12  23  42  68  98 132 173 223 276 331 396
#     4  11  22  40  67  96 125 169 224 272 328 385
#
# _framework density 20.289158
#
# number of rings (size 3 to 8) (size 9 to 14) (size 15 to 20)
#    0.000    0.750    5.000    4.500    0.000    1.500 
#    0.000    3.125    0.000    0.000    0.000    0.000 
#    0.000    0.000    0.000    0.000    0.000    0.000 
#
# Total GULP energy -178733.587781 kJ/mol
# GULP energy per Si atom -5585.424618 kJ/mol
# Density = 2.024298 g / cm^3
# Si number density = 20.289158 Si / 1000 Ang^3
#
#
#
# Elastic Constant Matrix: (Units=GPa)
#
#
# Indices 1 2 3 4 5 6 
#
# 1 90.7508 30.1930 -11.2049 0.0000 0.0000 0.0000
# 2 30.1930 90.8497 14.4195 0.0000 0.0000 0.0000
# 3 -11.2049 14.4195 56.9946 0.0000 0.0000 0.0000
# 4 0.0000 0.0000 0.0000 17.9842 0.0000 0.0000
# 5 0.0000 0.0000 0.0000 0.0000 16.2441 0.0000
# 6 0.0000 0.0000 0.0000 0.0000 0.0000 24.0731
#
#
#
# Elastic Compliance Matrix: (Units=1/GPa)
#
#
# Indices 1 2 3 4 5 6 
#
# 1 0.013151 -0.004981 0.003846 0.000000 0.000000 0.000000
# 2 -0.004981 0.013354 -0.004358 0.000000 0.000000 0.000000
# 3 0.003846 -0.004358 0.019404 0.000000 0.000000 0.000000
# 4 0.000000 0.000000 0.000000 0.055604 0.000000 0.000000
# 5 0.000000 0.000000 0.000000 0.000000 0.061561 0.000000
# 6 0.000000 0.000000 0.000000 0.000000 0.000000 0.041540
#
#
# Mechanical properties :
#
#
# Convention : Reuss Voigt Hill
#
# Bulk Modulus (GPa) = 28.63435 33.93448 31.28441
# Shear Modulus (GPa) = 22.00295 25.33945 23.67120
#
# Velocity S-wave (km/s) = 3.29670 3.53783 3.41939
# Velocity P-wave (km/s) = 5.35114 5.78361 5.57157
#
# Compressibility (1/GPa) = 0.03492309
#
# Stress axis : x y z
#
# Youngs Moduli (GPa) = 76.03865 74.88244 51.53554
#
# Poissons Ratio (x) = 0.37299 -0.19819
# Poissons Ratio (y) = 0.37875 0.22458
# Poissons Ratio (z) = -0.29242 0.32633
#
# Static dielectric constant tensor:
#      x y z
#    x 1.690660 0.000000 0.000000 
#    y 0.000000 1.697840 0.000000 
#    z 0.000000 0.000000 1.710660 
# 
# From -- ./inp_files/9437.got.cif
#   From: 2010.05.17/outbox.cif.g08.bks.cpg/sg39_5_cif.got.tgz:9437.got - 2010.06.03 18:22:40.
