data_PCOD9361756
_publ_section_title
;
Structure prediction by ZEFSAII (Michael W. Deem and Ramdas Pophale) SiO2 
 PCOD9361756
Probable space group: A B M 2
;
_chemical_formula_sum "Si O2"
_cell_formula_units_Z 48
_cell_length_a 7.649495
_cell_length_b 9.744775
_cell_length_c 31.632831
_cell_angle_alpha 90.000000
_cell_angle_beta 90.000000
_cell_angle_gamma 90.000000
_cell_volume 2357.993710
_symmetry_space_group_name_H-M "A B M 2"
_symmetry_group_IT_number 39
_symmetry_cell_setting 'orthorhombic'
loop_
_space_group_symop_operation_xyz
x,y,z
-x,-y,z
-x,1/2+y,z
x,1/2-y,z
x,1/2+y,1/2+z
-x,1/2-y,1/2+z
-x,y,1/2+z
x,-y,1/2+z
loop_
_atom_site_type_symbol
_atom_site_label
_atom_site_fract_x
_atom_site_fract_y
_atom_site_fract_z
Si Si1 0.826528 0.413124 0.840760
Si Si2 0.687598 0.250000 0.998731
Si Si3 0.000000 0.500000 0.108535
Si Si4 0.306836 0.250000 0.976256
Si Si5 0.679010 0.910810 0.667699
Si Si6 0.674992 0.086174 0.262820
Si Si7 0.210813 0.519616 0.932612
Si Si8 0.024435 0.750000 0.549285
O O1 0.849057 0.250000 0.831565
O O2 0.755108 0.499189 0.801166
O O3 0.732691 0.426900 0.886297
O O4 0.000000 0.500000 0.849225
O O5 0.736754 0.377981 0.969524
O O6 0.480128 0.250000 0.004969
O O7 0.818072 0.250000 0.038035
O O8 0.164778 0.546837 0.136651
O O9 0.936303 0.619465 0.077644
O O10 0.137553 0.250000 0.006536
O O11 0.300018 0.378516 0.945187
O O12 0.633881 0.750000 0.661804
O O13 0.755267 0.922248 0.715837
O O14 0.500000 0.000000 0.662792
O O15 0.655560 0.250000 0.273049
O O16 0.500000 0.000000 0.256216
O O17 0.000000 0.500000 0.934669
#
# Coordination Sequence:
#
# PCOD9361756 Si02
#       8
#     8   4   4   4   8   8   8   4
#     4  11  24  40  64  99 136 183 230 280 333 396
#     4  12  24  46  68  99 133 176 227 275 340 414
#     4  12  26  46  74 100 136 182 222 286 354 422
#     4  12  26  42  74  99 129 184 225 283 342 410
#     4  10  24  46  73 106 140 182 230 280 343 415
#     4  10  22  42  66  98 141 181 222 279 334 398
#     4  11  22  43  68  94 139 181 224 282 338 397
#     4  12  26  46  70 102 136 172 226 290 352 412
#
# _framework density 20.356290000000001
#
# number of rings (size 3 to 8) (size 9 to 14) (size 15 to 20)
#    0.000    1.000    3.333    2.500    7.000    3.333 
#    0.000    0.000    0.000    0.000    0.000    0.000 
#    0.000    0.000    0.000    0.000    0.000    0.000 
#
# Total GULP energy -133838.144907 kJ/mol
# GULP energy per Si atom -5576.589371 kJ/mol
# Density = 2.030996 g / cm^3
# Si number density = 20.356290 Si / 1000 Ang^3
#
#
#
# Elastic Constant Matrix: (Units=GPa)
#
#
# Indices 1 2 3 4 5 6 
#
# 1 63.5604 10.3747 14.0771 0.0000 0.0000 0.0000
# 2 10.3747 180.9383 51.4765 0.0000 0.0000 0.0000
# 3 14.0771 51.4765 89.3074 0.0000 0.0000 0.0000
# 4 0.0000 0.0000 0.0000 51.8793 0.0000 0.0000
# 5 0.0000 0.0000 0.0000 0.0000 -4.4688 0.0000
# 6 0.0000 0.0000 0.0000 0.0000 0.0000 30.0946
#
#
#
# Elastic Compliance Matrix: (Units=1/GPa)
#
#
# Indices 1 2 3 4 5 6 
#
# 1 0.016311 -0.000244 -0.002431 0.000000 0.000000 0.000000
# 2 -0.000244 0.006614 -0.003774 0.000000 0.000000 0.000000
# 3 -0.002431 -0.003774 0.013756 0.000000 0.000000 0.000000
# 4 0.000000 0.000000 0.000000 0.019275 0.000000 0.000000
# 5 0.000000 0.000000 0.000000 0.000000 -0.223773 0.000000
# 6 0.000000 0.000000 0.000000 0.000000 0.000000 0.033229
#
#
# Mechanical properties :
#
#
# Convention : Reuss Voigt Hill
#
# Bulk Modulus (GPa) = 42.04413 53.96252 48.00333
# Shear Modulus (GPa) = -43.95105 32.69288 -5.62908
#
# Velocity S-wave (km/s) = -4.65164 4.01188 -1.66472
# Velocity P-wave (km/s) = 2.85506 6.93014 4.46517
#
# Compressibility (1/GPa) = 0.02378453
#
# Stress axis : x y z
#
# Youngs Moduli (GPa) = 61.30769 151.18409 72.69665
#
# Poissons Ratio (x) = 0.03685 0.17669
# Poissons Ratio (y) = 0.01494 0.27437
# Poissons Ratio (z) = 0.14901 0.57059
#
# Static dielectric constant tensor:
#      x y z
#    x 1.705340 0.000000 0.000000 
#    y 0.000000 1.521440 0.000000 
#    z 0.000000 0.000000 1.823890 
# 
# From -- ./inp_files/17704.got.cif
#   From: 2010.05.17/outbox.cif.g08.bks.cpg/sg39_9_cif.got.tgz:17704.got - 2010.06.03 18:22:40.
