data_PCOD9361199
_publ_section_title
;
Structure prediction by ZEFSAII (Michael W. Deem and Ramdas Pophale) SiO2 
 PCOD9361199
Probable space group: A B M 2
;
_chemical_formula_sum "Si O2"
_cell_formula_units_Z 64
_cell_length_a 14.832469
_cell_length_b 15.103317
_cell_length_c 12.744010
_cell_angle_alpha 90.000000
_cell_angle_beta 90.000000
_cell_angle_gamma 90.000000
_cell_volume 2854.906509
_symmetry_space_group_name_H-M "A B M 2"
_symmetry_group_IT_number 39
_symmetry_cell_setting 'orthorhombic'
loop_
_space_group_symop_operation_xyz
x,y,z
-x,-y,z
-x,1/2+y,z
x,1/2-y,z
x,1/2+y,1/2+z
-x,1/2-y,1/2+z
-x,y,1/2+z
x,-y,1/2+z
loop_
_atom_site_type_symbol
_atom_site_label
_atom_site_fract_x
_atom_site_fract_y
_atom_site_fract_z
Si Si1 0.818659 0.607902 0.663810
Si Si2 0.323382 0.357569 0.825433
Si Si3 0.144734 0.643768 0.862269
Si Si4 0.311983 0.151304 0.482048
Si Si5 0.987561 0.104631 0.051391
Si Si6 0.357732 0.353434 0.059611
Si Si7 0.833488 0.403003 0.631596
Si Si8 0.454951 0.141101 0.638148
O O1 0.773158 0.613918 0.777077
O O2 0.752700 0.658636 0.584425
O O3 0.920617 0.639027 0.643035
O O4 0.816221 0.507445 0.621610
O O5 0.322158 0.250000 0.827311
O O6 0.400243 0.386496 0.741953
O O7 0.343104 0.391058 0.942510
O O8 0.151116 0.750000 0.862057
O O9 0.243777 0.608963 0.898751
O O10 0.126405 0.610065 0.747011
O O11 0.067702 0.619249 0.945109
O O12 0.336259 0.250000 0.443255
O O13 0.401127 0.110919 0.533165
O O14 0.090353 0.136578 0.054938
O O15 0.000000 0.000000 0.068384
O O16 0.378913 0.250000 0.043868
O O17 0.263376 0.359788 0.119016
O O18 0.442270 0.389239 0.125494
O O19 0.451025 0.250000 0.639515
#
# Coordination Sequence:
#
# PCOD9361199 Si02
#       8
#     8   8   8   8   8   8   8   8
#     4   9  18  35  57  78 104 139 178 222 268 321
#     4   9  18  34  58  84 107 140 187 232 274 321
#     4  10  21  36  56  80 106 139 178 221 268 317
#     4   8  15  32  57  80 100 131 182 229 259 304
#     4   9  21  39  58  77 100 138 185 225 263 316
#     4  10  21  35  52  79 113 144 177 223 276 327
#     4  11  23  36  52  79 114 143 172 217 277 337
#     4   8  15  31  55  79 104 138 182 225 263 313
#
# _framework density 22.417546999999999
#
# number of rings (size 3 to 8) (size 9 to 14) (size 15 to 20)
#    0.000    2.750    0.000    1.500    0.000    8.000 
#    0.000    7.500    0.000    3.000    0.000    0.000 
#    0.000    0.000    0.000    0.000    0.000    0.000 
#
# Total GULP energy -178393.742772 kJ/mol
# GULP energy per Si atom -5574.804462 kJ/mol
# Density = 2.236652 g / cm^3
# Si number density = 22.417547 Si / 1000 Ang^3
#
#
#
# Elastic Constant Matrix: (Units=GPa)
#
#
# Indices 1 2 3 4 5 6 
#
# 1 138.7952 8.2589 27.1834 0.0000 0.0000 0.0000
# 2 8.2589 33.3141 3.7592 0.0000 0.0000 0.0000
# 3 27.1834 3.7592 77.0892 0.0000 0.0000 0.0000
# 4 0.0000 0.0000 0.0000 15.3698 0.0000 0.0000
# 5 0.0000 0.0000 0.0000 0.0000 24.4079 0.0000
# 6 0.0000 0.0000 0.0000 0.0000 0.0000 21.1029
#
#
#
# Elastic Compliance Matrix: (Units=1/GPa)
#
#
# Indices 1 2 3 4 5 6 
#
# 1 0.007827 -0.001638 -0.002680 0.000000 0.000000 0.000000
# 2 -0.001638 0.030526 -0.000911 0.000000 0.000000 0.000000
# 3 -0.002680 -0.000911 0.013962 0.000000 0.000000 0.000000
# 4 0.000000 0.000000 0.000000 0.065063 0.000000 0.000000
# 5 0.000000 0.000000 0.000000 0.000000 0.040970 0.000000
# 6 0.000000 0.000000 0.000000 0.000000 0.000000 0.047387
#
#
# Mechanical properties :
#
#
# Convention : Reuss Voigt Hill
#
# Bulk Modulus (GPa) = 23.89114 36.40018 30.14566
# Shear Modulus (GPa) = 21.72541 26.17593 23.95067
#
# Velocity S-wave (km/s) = 3.11645 3.42080 3.27217
# Velocity P-wave (km/s) = 4.86109 5.64581 5.26808
#
# Compressibility (1/GPa) = 0.04185652
#
# Stress axis : x y z
#
# Youngs Moduli (GPa) = 127.75880 32.75878 71.62552
#
# Poissons Ratio (x) = 0.05366 0.19197
# Poissons Ratio (y) = 0.20927 0.06525
# Poissons Ratio (z) = 0.34242 0.02984
#
# Static dielectric constant tensor:
#      x y z
#    x 1.887120 0.000000 0.000000 
#    y 0.000000 1.874870 0.000000 
#    z 0.000000 0.000000 1.840420 
# 
# From -- ./inp_files/6654.got.cif
#   From: 2010.05.17/outbox.cif.g08.bks.cpg/sg39_4_cif.got.tgz:6654.got - 2010.06.03 18:22:40.
