data_PCOD9361936
_publ_section_title
;
Structure prediction by ZEFSAII (Michael W. Deem and Ramdas Pophale) SiO2 
 PCOD9361936
Probable space group: A B M 2
;
_chemical_formula_sum "Si O2"
_cell_formula_units_Z 48
_cell_length_a 9.230769
_cell_length_b 18.089146
_cell_length_c 14.207298
_cell_angle_alpha 90.000000
_cell_angle_beta 90.000000
_cell_angle_gamma 90.000000
_cell_volume 2372.288136
_symmetry_space_group_name_H-M "A B M 2"
_symmetry_group_IT_number 39
_symmetry_cell_setting 'orthorhombic'
loop_
_space_group_symop_operation_xyz
x,y,z
-x,-y,z
-x,1/2+y,z
x,1/2-y,z
x,1/2+y,1/2+z
-x,1/2-y,1/2+z
-x,y,1/2+z
x,-y,1/2+z
loop_
_atom_site_type_symbol
_atom_site_label
_atom_site_fract_x
_atom_site_fract_y
_atom_site_fract_z
Si Si1 0.614374 0.836234 0.445620
Si Si2 0.401397 0.932218 0.570705
Si Si3 0.042371 0.585235 0.253822
Si Si4 0.101138 0.663872 0.071555
Si Si5 0.114542 0.433464 0.962782
Si Si6 0.270534 0.661362 0.741546
O O1 0.573087 0.750000 0.451693
O O2 0.497829 0.884743 0.499042
O O3 0.767968 0.844482 0.498663
O O4 0.640866 0.854841 0.336907
O O5 0.262196 0.958313 0.511086
O O6 0.343073 0.881789 0.655391
O O7 0.500000 0.000000 0.604699
O O8 0.129307 0.617583 0.165909
O O9 0.124177 0.589004 0.353440
O O10 0.000000 0.500000 0.236033
O O11 0.892685 0.631494 0.257342
O O12 0.084853 0.750000 0.094765
O O13 0.956407 0.632458 0.023059
O O14 0.000000 0.500000 0.966330
O O15 0.267924 0.750000 0.727024
#
# Coordination Sequence:
#
# PCOD9361936 Si02
#       6
#     8   8   8   8   8   8
#     4  10  24  45  66  96 140 178 219 280 350 418
#     4  12  27  42  71 101 138 179 228 285 351 417
#     4  11  24  39  71  99 133 171 231 287 335 403
#     4  11  22  40  69  97 132 176 226 282 341 406
#     4  11  24  44  66  97 133 175 228 284 337 404
#     4  11  24  46  70  98 138 185 232 285 345 409
#
# _framework density 20.233630000000002
#
# number of rings (size 3 to 8) (size 9 to 14) (size 15 to 20)
#    0.000    1.000    3.333    2.500    4.667    3.333 
#    0.000    1.667    0.000    0.000    0.000    0.000 
#    0.000    0.000    0.000    0.000    0.000    0.000 
#
# Total GULP energy -134293.524891 kJ/mol
# GULP energy per Si atom -5595.563537 kJ/mol
# Density = 2.018758 g / cm^3
# Si number density = 20.233630 Si / 1000 Ang^3
#
#
#
# Elastic Constant Matrix: (Units=GPa)
#
#
# Indices 1 2 3 4 5 6 
#
# 1 53.9864 19.4537 22.1132 0.0000 0.0000 0.0000
# 2 19.4537 83.7638 61.7458 0.0000 0.0000 0.0000
# 3 22.1132 61.7458 143.3630 0.0000 0.0000 0.0000
# 4 0.0000 0.0000 0.0000 26.5323 0.0000 0.0000
# 5 0.0000 0.0000 0.0000 0.0000 19.2948 0.0000
# 6 0.0000 0.0000 0.0000 0.0000 0.0000 26.5537
#
#
#
# Elastic Compliance Matrix: (Units=1/GPa)
#
#
# Indices 1 2 3 4 5 6 
#
# 1 0.020470 -0.003555 -0.001626 0.000000 0.000000 0.000000
# 2 -0.003555 0.018109 -0.007251 0.000000 0.000000 0.000000
# 3 -0.001626 -0.007251 0.010349 0.000000 0.000000 0.000000
# 4 0.000000 0.000000 0.000000 0.037690 0.000000 0.000000
# 5 0.000000 0.000000 0.000000 0.000000 0.051827 0.000000
# 6 0.000000 0.000000 0.000000 0.000000 0.000000 0.037660
#
#
# Mechanical properties :
#
#
# Convention : Reuss Voigt Hill
#
# Bulk Modulus (GPa) = 41.55705 54.19316 47.87510
# Shear Modulus (GPa) = 23.92435 26.32954 25.12694
#
# Velocity S-wave (km/s) = 3.44234 3.61123 3.52780
# Velocity P-wave (km/s) = 6.03182 6.65055 6.34873
#
# Compressibility (1/GPa) = 0.02406331
#
# Stress axis : x y z
#
# Youngs Moduli (GPa) = 48.85091 55.22065 96.62627
#
# Poissons Ratio (x) = 0.19633 0.15713
# Poissons Ratio (y) = 0.17369 0.70065
# Poissons Ratio (z) = 0.07944 0.40041
#
# Static dielectric constant tensor:
#      x y z
#    x 1.705360 0.000000 0.000000 
#    y 0.000000 1.759870 0.000000 
#    z 0.000000 0.000000 1.712710 
# 
# From -- ./inp_files/8319.got.cif
#   From: 2010.05.17/outbox.cif.g08.bks.cpg/sg39_5_cif.got.tgz:8319.got - 2010.06.03 18:22:40.
