data_PCOD9361092
_publ_section_title
;
Structure prediction by ZEFSAII (Michael W. Deem and Ramdas Pophale) SiO2 
 PCOD9361092
Probable space group: A B M 2
;
_chemical_formula_sum "Si O2"
_cell_formula_units_Z 56
_cell_length_a 9.355554
_cell_length_b 19.514785
_cell_length_c 16.622213
_cell_angle_alpha 90.000000
_cell_angle_beta 90.000000
_cell_angle_gamma 90.000000
_cell_volume 3034.744436
_symmetry_space_group_name_H-M "A B M 2"
_symmetry_group_IT_number 39
_symmetry_cell_setting 'orthorhombic'
loop_
_space_group_symop_operation_xyz
x,y,z
-x,-y,z
-x,1/2+y,z
x,1/2-y,z
x,1/2+y,1/2+z
-x,1/2-y,1/2+z
-x,y,1/2+z
x,-y,1/2+z
loop_
_atom_site_type_symbol
_atom_site_label
_atom_site_fract_x
_atom_site_fract_y
_atom_site_fract_z
Si Si1 0.444538 0.928185 0.373460
Si Si2 0.304359 0.174959 0.418739
Si Si3 0.085323 0.572953 0.639451
Si Si4 0.931646 0.828150 0.285810
Si Si5 0.195260 0.126731 0.578974
Si Si6 0.262002 0.329601 0.761200
Si Si7 0.661024 0.017267 0.542847
O O1 0.577945 0.882671 0.403024
O O2 0.357910 0.882108 0.311109
O O3 0.357058 0.951103 0.453613
O O4 0.500000 0.000000 0.337177
O O5 0.363636 0.250000 0.397089
O O6 0.165323 0.162449 0.363860
O O7 0.252331 0.175797 0.510363
O O8 0.105325 0.613236 0.722166
O O9 0.238198 0.564076 0.597752
O O10 0.000000 0.500000 0.651156
O O11 0.975203 0.618255 0.586787
O O12 0.904939 0.750000 0.255242
O O13 0.101760 0.832715 0.297714
O O14 0.248828 0.146906 0.667975
O O15 0.255478 0.054149 0.548294
O O16 0.309401 0.250000 0.764595
O O17 0.500000 0.000000 0.571266
#
# Coordination Sequence:
#
# PCOD9361092 Si02
#       7
#     8   8   8   8   8   8   8
#     4  11  23  41  58  91 124 163 201 253 306 364
#     4  11  22  39  60  86 123 162 203 250 306 369
#     4   9  20  37  62  92 119 156 199 254 306 363
#     4   9  21  40  60  88 122 154 203 255 304 365
#     4  10  20  39  61  89 119 157 206 249 305 359
#     4  10  22  41  65  91 121 161 207 254 305 366
#     4  10  20  39  58  87 124 155 201 249 297 363
#
# _framework density 18.452954999999999
#
# number of rings (size 3 to 8) (size 9 to 14) (size 15 to 20)
#    0.000    2.000    2.857    0.857    2.000    5.714 
#    0.000    1.429    0.000    0.000    0.000    0.000 
#    0.000    0.000    0.000    0.000    0.000    0.000 
#
# Total GULP energy -156046.313209 kJ/mol
# GULP energy per Si atom -5573.082615 kJ/mol
# Density = 1.841095 g / cm^3
# Si number density = 18.452955 Si / 1000 Ang^3
#
#
#
# Elastic Constant Matrix: (Units=GPa)
#
#
# Indices 1 2 3 4 5 6 
#
# 1 89.1489 48.7791 76.4038 0.0000 0.0000 0.0000
# 2 48.7791 117.4592 63.1420 0.0000 0.0000 0.0000
# 3 76.4038 63.1420 98.1469 0.0000 0.0000 0.0000
# 4 0.0000 0.0000 0.0000 28.0855 0.0000 0.0000
# 5 0.0000 0.0000 0.0000 0.0000 30.8450 0.0000
# 6 0.0000 0.0000 0.0000 0.0000 0.0000 39.8195
#
#
#
# Elastic Compliance Matrix: (Units=1/GPa)
#
#
# Indices 1 2 3 4 5 6 
#
# 1 0.033705 0.000164 -0.026344 0.000000 0.000000 0.000000
# 2 0.000164 0.013015 -0.008501 0.000000 0.000000 0.000000
# 3 -0.026344 -0.008501 0.036166 0.000000 0.000000 0.000000
# 4 0.000000 0.000000 0.000000 0.035606 0.000000 0.000000
# 5 0.000000 0.000000 0.000000 0.000000 0.032420 0.000000
# 6 0.000000 0.000000 0.000000 0.000000 0.000000 0.025113
#
#
# Mechanical properties :
#
#
# Convention : Reuss Voigt Hill
#
# Bulk Modulus (GPa) = 73.93953 75.71164 74.82558
# Shear Modulus (GPa) = 20.00848 27.51200 23.76024
#
# Velocity S-wave (km/s) = 3.29644 3.86544 3.59222
# Velocity P-wave (km/s) = 7.39222 7.81286 7.60545
#
# Compressibility (1/GPa) = 0.01352457
#
# Stress axis : x y z
#
# Youngs Moduli (GPa) = 29.66943 76.83252 27.65056
#
# Poissons Ratio (x) = -0.01263 0.72842
# Poissons Ratio (y) = -0.00488 0.23506
# Poissons Ratio (z) = 0.78160 0.65317
#
# Static dielectric constant tensor:
#      x y z
#    x 1.646690 0.000000 0.000000 
#    y 0.000000 1.687120 0.000000 
#    z 0.000000 0.000000 1.621700 
# 
# From -- ./inp_files/8632.got.cif
#   From: 2010.05.17/outbox.cif.g08.bks.cpg/sg39_5_cif.got.tgz:8632.got - 2010.06.03 18:22:40.
