data_PCOD9361287
_publ_section_title
;
Structure prediction by ZEFSAII (Michael W. Deem and Ramdas Pophale) SiO2 
 PCOD9361287
Probable space group: A B M 2
;
_chemical_formula_sum "Si O2"
_cell_formula_units_Z 48
_cell_length_a 12.323445
_cell_length_b 16.561669
_cell_length_c 9.493894
_cell_angle_alpha 90.000000
_cell_angle_beta 90.000000
_cell_angle_gamma 90.000000
_cell_volume 1937.673547
_symmetry_space_group_name_H-M "A B M 2"
_symmetry_group_IT_number 39
_symmetry_cell_setting 'orthorhombic'
loop_
_space_group_symop_operation_xyz
x,y,z
-x,-y,z
-x,1/2+y,z
x,1/2-y,z
x,1/2+y,1/2+z
-x,1/2-y,1/2+z
-x,y,1/2+z
x,-y,1/2+z
loop_
_atom_site_type_symbol
_atom_site_label
_atom_site_fract_x
_atom_site_fract_y
_atom_site_fract_z
Si Si1 0.971026 0.838211 0.139870
Si Si2 0.596390 0.342086 0.301901
Si Si3 0.843971 0.898997 0.813355
Si Si4 0.441262 0.423954 0.081414
Si Si5 0.848074 0.652561 0.413138
Si Si6 0.211894 0.000100 0.071073
O O1 0.934118 0.750000 0.091125
O O2 0.068890 0.836726 0.256931
O O3 0.874382 0.861736 0.248698
O O4 0.044567 0.866298 0.007298
O O5 0.584943 0.250000 0.258831
O O6 0.721671 0.368570 0.287775
O O7 0.570313 0.354773 0.465924
O O8 0.514810 0.395183 0.209596
O O9 0.846718 0.935021 0.969939
O O10 0.857573 0.972781 0.704365
O O11 0.500000 0.500000 0.009702
O O12 0.323552 0.459101 0.118662
O O13 0.821930 0.750000 0.431838
O O14 0.769447 0.582619 0.477465
#
# Coordination Sequence:
#
# PCOD9361287 Si02
#       6
#     8   8   8   8   8   8
#     4   9  18  35  59  84 115 154 198 255 311 366
#     4  11  23  39  63  91 121 161 210 259 312 378
#     4  10  21  37  58  85 120 155 202 253 312 375
#     4  11  22  40  63  87 124 164 205 257 317 373
#     4   9  19  37  60  87 118 158 206 253 311 375
#     4  10  22  37  58  85 119 162 200 252 314 371
#
# _framework density 24.771975999999999
#
# number of rings (size 3 to 8) (size 9 to 14) (size 15 to 20)
#    0.000    2.000    1.667    1.500    2.333    2.667 
#    0.000    3.333    0.000    1.000    0.000    0.000 
#    0.000    0.000    0.000    0.000    0.000    0.000 
#
# Total GULP energy -133840.772402 kJ/mol
# GULP energy per Si atom -5576.698850 kJ/mol
# Density = 2.471559 g / cm^3
# Si number density = 24.771976 Si / 1000 Ang^3
#
#
#
# Elastic Constant Matrix: (Units=GPa)
#
#
# Indices 1 2 3 4 5 6 
#
# 1 63.2938 12.5610 -12.8986 0.0000 0.0000 0.0000
# 2 12.5610 96.8094 -33.2969 0.0000 0.0000 0.0000
# 3 -12.8986 -33.2969 84.6723 0.0000 0.0000 0.0000
# 4 0.0000 0.0000 0.0000 28.2622 0.0000 0.0000
# 5 0.0000 0.0000 0.0000 0.0000 27.1777 0.0000
# 6 0.0000 0.0000 0.0000 0.0000 0.0000 473.2301
#
#
#
# Elastic Compliance Matrix: (Units=1/GPa)
#
#
# Indices 1 2 3 4 5 6 
#
# 1 0.016486 -0.001475 0.001931 0.000000 0.000000 0.000000
# 2 -0.001475 0.012077 0.004525 0.000000 0.000000 0.000000
# 3 0.001931 0.004525 0.013884 0.000000 0.000000 0.000000
# 4 0.000000 0.000000 0.000000 0.035383 0.000000 0.000000
# 5 0.000000 0.000000 0.000000 0.000000 0.036795 0.000000
# 6 0.000000 0.000000 0.000000 0.000000 0.000000 0.002113
#
#
# Mechanical properties :
#
#
# Convention : Reuss Voigt Hill
#
# Bulk Modulus (GPa) = 19.08064 19.72294 19.40179
# Shear Modulus (GPa) = 40.24324 124.29467 82.26896
#
# Velocity S-wave (km/s) = 4.03494 7.09115 5.76911
# Velocity P-wave (km/s) = 5.42465 8.66170 7.22675
#
# Compressibility (1/GPa) = 0.05240915
#
# Stress axis : x y z
#
# Youngs Moduli (GPa) = 60.65899 82.80114 72.02670
#
# Poissons Ratio (x) = 0.12211 -0.13911
# Poissons Ratio (y) = 0.08945 -0.32589
# Poissons Ratio (z) = -0.11716 -0.37464
#
# Static dielectric constant tensor:
#      x y z
#    x 2.001670 0.000000 0.000000 
#    y 0.000000 2.090250 0.000000 
#    z 0.000000 0.000000 2.008860 
# 
# From -- ./inp_files/6422.got.cif
#   From: 2010.05.17/outbox.cif.g08.bks.cpg/sg39_4_cif.got.tgz:6422.got - 2010.06.03 18:22:40.
