data_PCOD9361806
_publ_section_title
;
Structure prediction by ZEFSAII (Michael W. Deem and Ramdas Pophale) SiO2 
 PCOD9361806
Probable space group: A B M 2
;
_chemical_formula_sum "Si O2"
_cell_formula_units_Z 32
_cell_length_a 7.440453
_cell_length_b 14.098347
_cell_length_c 12.415235
_cell_angle_alpha 90.000000
_cell_angle_beta 90.000000
_cell_angle_gamma 90.000000
_cell_volume 1302.334416
_symmetry_space_group_name_H-M "A B M 2"
_symmetry_group_IT_number 39
_symmetry_cell_setting 'orthorhombic'
loop_
_space_group_symop_operation_xyz
x,y,z
-x,-y,z
-x,1/2+y,z
x,1/2-y,z
x,1/2+y,1/2+z
-x,1/2-y,1/2+z
-x,y,1/2+z
x,-y,1/2+z
loop_
_atom_site_type_symbol
_atom_site_label
_atom_site_fract_x
_atom_site_fract_y
_atom_site_fract_z
Si Si1 0.574345 0.139960 0.466620
Si Si2 0.211566 0.137372 0.372638
Si Si3 0.293179 0.527816 0.658005
Si Si4 0.155080 0.640887 0.281015
O O1 0.567930 0.250000 0.502073
O O2 0.368761 0.102135 0.453293
O O3 0.704243 0.083968 0.546585
O O4 0.660741 0.137076 0.348149
O O5 0.227277 0.250000 0.380653
O O6 0.256515 0.100805 0.253942
O O7 0.998991 0.116174 0.369403
O O8 0.500000 0.500000 0.669425
O O9 0.172191 0.435304 0.685270
O O10 0.126023 0.750000 0.244505
#
# Coordination Sequence:
#
# PCOD9361806 Si02
#       4
#     8   8   8   8
#     4  10  23  45  70 100 138 180 229 287 349 418
#     4  10  22  46  73 100 137 185 234 289 349 417
#     4  12  24  40  72 103 139 178 229 289 351 412
#     4  10  23  47  72  98 139 186 233 285 349 420
#
# _framework density 24.571262000000001
#
# number of rings (size 3 to 8) (size 9 to 14) (size 15 to 20)
#    0.000    1.500    2.500    1.500    3.500    1.000 
#    9.000    0.000    0.000    0.000    0.000    0.000 
#    0.000    0.000    0.000    0.000    0.000    0.000 
#
# Total GULP energy -89323.311728 kJ/mol
# GULP energy per Si atom -5582.706983 kJ/mol
# Density = 2.451534 g / cm^3
# Si number density = 24.571262 Si / 1000 Ang^3
#
#
#
# Elastic Constant Matrix: (Units=GPa)
#
#
# Indices 1 2 3 4 5 6 
#
# 1 107.5556 44.1772 30.4320 0.0000 0.0000 0.0000
# 2 44.1772 106.5996 67.0225 0.0000 0.0000 0.0000
# 3 30.4320 67.0225 79.3248 0.0000 0.0000 0.0000
# 4 0.0000 0.0000 0.0000 24.3057 0.0000 0.0000
# 5 0.0000 0.0000 0.0000 0.0000 29.3650 0.0000
# 6 0.0000 0.0000 0.0000 0.0000 0.0000 37.3105
#
#
#
# Elastic Compliance Matrix: (Units=1/GPa)
#
#
# Indices 1 2 3 4 5 6 
#
# 1 0.011229 -0.004149 -0.000802 0.000000 0.000000 0.000000
# 2 -0.004149 0.021545 -0.016612 0.000000 0.000000 0.000000
# 3 -0.000802 -0.016612 0.026949 0.000000 0.000000 0.000000
# 4 0.000000 0.000000 0.000000 0.041143 0.000000 0.000000
# 5 0.000000 0.000000 0.000000 0.000000 0.034054 0.000000
# 6 0.000000 0.000000 0.000000 0.000000 0.000000 0.026802
#
#
# Mechanical properties :
#
#
# Convention : Reuss Voigt Hill
#
# Bulk Modulus (GPa) = 60.25125 64.08259 62.16692
# Shear Modulus (GPa) = 23.76658 28.31945 26.04302
#
# Velocity S-wave (km/s) = 3.11344 3.39860 3.25914
# Velocity P-wave (km/s) = 6.12364 6.44496 6.28635
#
# Compressibility (1/GPa) = 0.01659717
#
# Stress axis : x y z
#
# Youngs Moduli (GPa) = 89.05788 46.41538 37.10650
#
# Poissons Ratio (x) = 0.19258 0.02976
# Poissons Ratio (y) = 0.36951 0.61640
# Poissons Ratio (z) = 0.07144 0.77103
#
# Static dielectric constant tensor:
#      x y z
#    x 2.037230 0.000000 0.000000 
#    y 0.000000 1.989570 0.000000 
#    z 0.000000 0.000000 1.962510 
# 
# From -- ./inp_files/4789.got.cif
#   From: 2010.05.17/outbox.cif.g08.bks.cpg/sg39_3_cif.got.tgz:4789.got - 2010.06.03 18:22:40.
