data_PCOD9361440
_publ_section_title
;
Structure prediction by ZEFSAII (Michael W. Deem and Ramdas Pophale) SiO2 
 PCOD9361440
Probable space group: A B M 2
;
_chemical_formula_sum "Si O2"
_cell_formula_units_Z 64
_cell_length_a 6.088889
_cell_length_b 28.447719
_cell_length_c 18.801472
_cell_angle_alpha 90.000000
_cell_angle_beta 90.000000
_cell_angle_gamma 90.000000
_cell_volume 3256.697034
_symmetry_space_group_name_H-M "A B M 2"
_symmetry_group_IT_number 39
_symmetry_cell_setting 'orthorhombic'
loop_
_space_group_symop_operation_xyz
x,y,z
-x,-y,z
-x,1/2+y,z
x,1/2-y,z
x,1/2+y,1/2+z
-x,1/2-y,1/2+z
-x,y,1/2+z
x,-y,1/2+z
loop_
_atom_site_type_symbol
_atom_site_label
_atom_site_fract_x
_atom_site_fract_y
_atom_site_fract_z
Si Si1 0.300786 0.366355 0.825590
Si Si2 0.989794 0.053467 0.780659
Si Si3 0.069465 0.805609 0.203546
Si Si4 0.961064 0.950871 0.546844
Si Si5 0.670189 0.459722 0.912609
Si Si6 0.656066 0.385529 0.478347
Si Si7 0.314894 0.370105 0.225930
Si Si8 0.653240 0.131337 0.103783
O O1 0.175200 0.329632 0.774114
O O2 0.249695 0.358142 0.909260
O O3 0.553698 0.363475 0.799807
O O4 0.208104 0.418248 0.803741
O O5 0.839143 0.050606 0.850744
O O6 0.860743 0.088155 0.728701
O O7 0.000000 0.000000 0.755594
O O8 0.086195 0.750000 0.205743
O O9 0.197205 0.826893 0.135178
O O10 0.819260 0.823983 0.203656
O O11 0.814249 0.970706 0.481582
O O12 0.809394 0.912445 0.585361
O O13 0.166870 0.920148 0.516381
O O14 0.000000 0.000000 0.588175
O O15 0.500000 0.500000 0.892223
O O16 0.521430 0.416929 0.937091
O O17 0.512139 0.358761 0.537910
O O18 0.496330 0.382456 0.168483
#
# Coordination Sequence:
#
# PCOD9361440 Si02
#       8
#     8   8   8   8   8   8   8   8
#     4  10  21  39  64  95 122 155 206 261 314 371
#     4  11  21  33  57  89 130 168 214 258 299 356
#     4  10  23  46  70  89 115 157 207 264 332 399
#     4  11  21  36  58  89 131 175 217 253 295 359
#     4  11  19  30  55  89 122 171 219 247 296 357
#     4  11  20  36  61  91 129 165 203 260 308 362
#     4  10  22  42  59  86 121 164 207 257 318 378
#     4  10  24  40  62  89 125 167 214 253 311 379
#
# _framework density 19.651810999999999
#
# number of rings (size 3 to 8) (size 9 to 14) (size 15 to 20)
#    0.000    1.500    3.750    1.875    0.000    2.000 
#    0.000   15.625    0.000    3.750    0.000    0.000 
#    0.000    0.000    0.000    0.000    0.000    0.000 
#
# Total GULP energy -178452.695448 kJ/mol
# GULP energy per Si atom -5576.646733 kJ/mol
# Density = 1.960708 g / cm^3
# Si number density = 19.651811 Si / 1000 Ang^3
#
#
#
# Elastic Constant Matrix: (Units=GPa)
#
#
# Indices 1 2 3 4 5 6 
#
# 1 91.1662 39.9850 35.5503 0.0000 0.0000 0.0000
# 2 39.9850 127.0360 42.3350 0.0000 0.0000 0.0000
# 3 35.5503 42.3350 98.5672 0.0000 0.0000 0.0000
# 4 0.0000 0.0000 0.0000 19.5054 0.0000 0.0000
# 5 0.0000 0.0000 0.0000 0.0000 26.1136 0.0000
# 6 0.0000 0.0000 0.0000 0.0000 0.0000 13.8791
#
#
#
# Elastic Compliance Matrix: (Units=1/GPa)
#
#
# Indices 1 2 3 4 5 6 
#
# 1 0.013749 -0.003122 -0.003618 0.000000 0.000000 0.000000
# 2 -0.003122 0.009896 -0.003124 0.000000 0.000000 0.000000
# 3 -0.003618 -0.003124 0.012792 0.000000 0.000000 0.000000
# 4 0.000000 0.000000 0.000000 0.051268 0.000000 0.000000
# 5 0.000000 0.000000 0.000000 0.000000 0.038294 0.000000
# 6 0.000000 0.000000 0.000000 0.000000 0.000000 0.072051
#
#
# Mechanical properties :
#
#
# Convention : Reuss Voigt Hill
#
# Bulk Modulus (GPa) = 59.84958 61.38999 60.61978
# Shear Modulus (GPa) = 22.38668 25.15957 23.77313
#
# Velocity S-wave (km/s) = 3.37882 3.58196 3.48187
# Velocity P-wave (km/s) = 6.76335 6.95801 6.86137
#
# Compressibility (1/GPa) = 0.01670855
#
# Stress axis : x y z
#
# Youngs Moduli (GPa) = 72.73221 101.05561 78.17291
#
# Poissons Ratio (x) = 0.31548 0.28283
# Poissons Ratio (y) = 0.22706 0.24423
# Poissons Ratio (z) = 0.26315 0.31572
#
# Static dielectric constant tensor:
#      x y z
#    x 1.749820 0.000000 0.000000 
#    y 0.000000 1.680350 0.000000 
#    z 0.000000 0.000000 1.799970 
# 
# From -- ./inp_files/11250.got.cif
#   From: 2010.05.17/outbox.cif.g08.bks.cpg/sg39_6_cif.got.tgz:11250.got - 2010.06.03 18:22:40.
