data_PCOD9361763
_publ_section_title
;
Structure prediction by ZEFSAII (Michael W. Deem and Ramdas Pophale) SiO2 
 PCOD9361763
Probable space group: A B M 2
;
_chemical_formula_sum "Si O2"
_cell_formula_units_Z 48
_cell_length_a 9.161481
_cell_length_b 24.872092
_cell_length_c 9.769366
_cell_angle_alpha 90.000000
_cell_angle_beta 90.000000
_cell_angle_gamma 90.000000
_cell_volume 2226.098521
_symmetry_space_group_name_H-M "A B M 2"
_symmetry_group_IT_number 39
_symmetry_cell_setting 'orthorhombic'
loop_
_space_group_symop_operation_xyz
x,y,z
-x,-y,z
-x,1/2+y,z
x,1/2-y,z
x,1/2+y,1/2+z
-x,1/2-y,1/2+z
-x,y,1/2+z
x,-y,1/2+z
loop_
_atom_site_type_symbol
_atom_site_label
_atom_site_fract_x
_atom_site_fract_y
_atom_site_fract_z
Si Si1 0.509909 0.250000 0.328161
Si Si2 0.295971 0.942199 0.848876
Si Si3 0.995314 0.904094 0.734023
Si Si4 0.833697 0.857332 0.978147
Si Si5 0.291912 0.463006 0.653380
Si Si6 0.434333 0.128002 0.816172
Si Si7 0.308706 0.250000 0.087695
O O1 0.575517 0.308309 0.286670
O O2 0.543143 0.250000 0.492263
O O3 0.356594 0.250000 0.246236
O O4 0.130792 0.925595 0.820404
O O5 0.402179 0.890772 0.847899
O O6 0.340464 0.984740 0.734302
O O7 0.303878 0.971266 0.993480
O O8 0.065527 0.884790 0.591668
O O9 0.916841 0.859762 0.831755
O O10 0.872997 0.948293 0.699730
O O11 0.677538 0.884507 0.940880
O O12 0.785271 0.800959 0.041912
O O13 0.380340 0.409508 0.693779
#
# Coordination Sequence:
#
# PCOD9361763 Si02
#       7
#     4   8   8   8   8   8   4
#     4  10  22  44  72  98 134 192 222 285 357 411
#     4  12  26  43  71  98 139 184 232 289 353 407
#     4  11  23  45  69  96 137 187 226 284 352 420
#     4  10  23  44  68 100 140 181 231 288 344 419
#     4  11  27  43  67 102 138 182 234 285 347 421
#     4  10  25  44  72 102 141 173 239 290 348 413
#     4  10  22  42  68 104 142 180 238 285 343 417
#
# _framework density 21.562386
#
# number of rings (size 3 to 8) (size 9 to 14) (size 15 to 20)
#    0.000    1.333    1.667    2.000   11.667    3.333 
#    0.000    1.667    0.000    0.000    0.000    0.000 
#    0.000    0.000    0.000    0.000    0.000    0.000 
#
# Total GULP energy -133975.984417 kJ/mol
# GULP energy per Si atom -5582.332684 kJ/mol
# Density = 2.151331 g / cm^3
# Si number density = 21.562386 Si / 1000 Ang^3
#
#
#
# Elastic Constant Matrix: (Units=GPa)
#
#
# Indices 1 2 3 4 5 6 
#
# 1 92.8634 40.7508 24.0917 0.0000 0.0000 0.0000
# 2 40.7508 88.4187 25.9014 0.0000 0.0000 0.0000
# 3 24.0917 25.9014 94.0101 0.0000 0.0000 0.0000
# 4 0.0000 0.0000 0.0000 20.2928 0.0000 0.0000
# 5 0.0000 0.0000 0.0000 0.0000 31.5030 0.0000
# 6 0.0000 0.0000 0.0000 0.0000 0.0000 25.2238
#
#
#
# Elastic Compliance Matrix: (Units=1/GPa)
#
#
# Indices 1 2 3 4 5 6 
#
# 1 0.013817 -0.005799 -0.001943 0.000000 0.000000 0.000000
# 2 -0.005799 0.014737 -0.002574 0.000000 0.000000 0.000000
# 3 -0.001943 -0.002574 0.011844 0.000000 0.000000 0.000000
# 4 0.000000 0.000000 0.000000 0.049279 0.000000 0.000000
# 5 0.000000 0.000000 0.000000 0.000000 0.031743 0.000000
# 6 0.000000 0.000000 0.000000 0.000000 0.000000 0.039645
#
#
# Mechanical properties :
#
#
# Convention : Reuss Voigt Hill
#
# Bulk Modulus (GPa) = 50.59267 50.75331 50.67299
# Shear Modulus (GPa) = 26.55537 27.70716 27.13126
#
# Velocity S-wave (km/s) = 3.51317 3.58855 3.55106
# Velocity P-wave (km/s) = 6.32224 6.38429 6.35334
#
# Compressibility (1/GPa) = 0.01976571
#
# Stress axis : x y z
#
# Youngs Moduli (GPa) = 72.37271 67.85864 84.42848
#
# Poissons Ratio (x) = 0.39351 0.16406
# Poissons Ratio (y) = 0.41969 0.21733
# Poissons Ratio (z) = 0.14064 0.17467
#
# Static dielectric constant tensor:
#      x y z
#    x 1.812140 0.000000 0.000000 
#    y 0.000000 1.769700 0.000000 
#    z 0.000000 0.000000 1.801330 
# 
# From -- ./inp_files/2333.got.cif
#   From: 2010.05.17/outbox.cif.g08.bks.cpg/sg39_2_cif.got.tgz:2333.got - 2010.06.03 18:22:40.
