data_PCOD9361124
_publ_section_title
;
Structure prediction by ZEFSAII (Michael W. Deem and Ramdas Pophale) SiO2 
 PCOD9361124
Probable space group: A B M 2
;
_chemical_formula_sum "Si O2"
_cell_formula_units_Z 60
_cell_length_a 9.876595
_cell_length_b 29.180162
_cell_length_c 9.143813
_cell_angle_alpha 90.000000
_cell_angle_beta 90.000000
_cell_angle_gamma 90.000000
_cell_volume 2635.252778
_symmetry_space_group_name_H-M "A B M 2"
_symmetry_group_IT_number 39
_symmetry_cell_setting 'orthorhombic'
loop_
_space_group_symop_operation_xyz
x,y,z
-x,-y,z
-x,1/2+y,z
x,1/2-y,z
x,1/2+y,1/2+z
-x,1/2-y,1/2+z
-x,y,1/2+z
x,-y,1/2+z
loop_
_atom_site_type_symbol
_atom_site_label
_atom_site_fract_x
_atom_site_fract_y
_atom_site_fract_z
Si Si1 0.011646 0.804194 0.760910
Si Si2 0.396411 0.199061 0.180459
Si Si3 0.077323 0.941469 0.528644
Si Si4 0.745819 0.663843 0.450077
Si Si5 0.832936 0.161855 0.488337
Si Si6 0.218575 0.497911 0.285345
Si Si7 0.666209 0.750000 0.606847
Si Si8 0.750120 0.563225 0.541885
O O1 0.020355 0.750000 0.788814
O O2 0.119667 0.836262 0.848735
O O3 0.058944 0.813534 0.596165
O O4 0.868831 0.821121 0.826377
O O5 0.332115 0.250000 0.205118
O O6 0.371975 0.172572 0.330038
O O7 0.550459 0.210639 0.148188
O O8 0.313701 0.176798 0.047829
O O9 0.141598 0.891674 0.507467
O O10 0.136791 0.965721 0.672785
O O11 0.915496 0.938434 0.540940
O O12 0.124759 0.971472 0.390933
O O13 0.761503 0.709351 0.544324
O O14 0.719171 0.616710 0.532555
O O15 0.295619 0.464067 0.396423
O O16 0.296105 0.534346 0.182647
#
# Coordination Sequence:
#
# PCOD9361124 Si02
#       8
#     8   8   8   8   8   8   4   8
#     4  11  21  36  56  81 126 162 198 232 306 357
#     4   9  20  38  60  80 118 155 201 243 313 347
#     4  11  20  33  54  81 127 162 204 241 290 358
#     4  11  19  37  61  86 112 163 201 250 300 367
#     4  11  22  35  56  87 119 164 200 239 291 375
#     4  10  21  35  52  85 125 168 199 245 293 362
#     4  10  20  40  62  80 110 148 210 250 300 362
#     4  11  20  33  58  86 124 162 203 240 304 356
#
# _framework density 22.768214
#
# number of rings (size 3 to 8) (size 9 to 14) (size 15 to 20)
#    0.400    1.067    2.667    6.800    1.867    0.000 
#    0.000    5.333    0.000    0.000    0.000   15.867 
#    0.000    0.000    0.000    0.000    0.000    0.000 
#
# Total GULP energy -167144.652111 kJ/mol
# GULP energy per Si atom -5571.488404 kJ/mol
# Density = 2.271639 g / cm^3
# Si number density = 22.768214 Si / 1000 Ang^3
#
#
#
# Elastic Constant Matrix: (Units=GPa)
#
#
# Indices 1 2 3 4 5 6 
#
# 1 20.2648 2.1130 12.1533 0.0000 0.0000 0.0000
# 2 2.1130 165.6985 29.2678 0.0000 0.0000 0.0000
# 3 12.1533 29.2678 101.9638 0.0000 0.0000 0.0000
# 4 0.0000 0.0000 0.0000 31.0305 0.0000 0.0000
# 5 0.0000 0.0000 0.0000 0.0000 8.8628 0.0000
# 6 0.0000 0.0000 0.0000 0.0000 0.0000 13.3989
#
#
#
# Elastic Compliance Matrix: (Units=1/GPa)
#
#
# Indices 1 2 3 4 5 6 
#
# 1 0.053180 0.000465 -0.006472 0.000000 0.000000 0.000000
# 2 0.000465 0.006361 -0.001881 0.000000 0.000000 0.000000
# 3 -0.006472 -0.001881 0.011119 0.000000 0.000000 0.000000
# 4 0.000000 0.000000 0.000000 0.032226 0.000000 0.000000
# 5 0.000000 0.000000 0.000000 0.000000 0.112831 0.000000
# 6 0.000000 0.000000 0.000000 0.000000 0.000000 0.074633
#
#
# Mechanical properties :
#
#
# Convention : Reuss Voigt Hill
#
# Bulk Modulus (GPa) = 18.22055 41.66614 29.94335
# Shear Modulus (GPa) = 15.41202 26.95131 21.18167
#
# Velocity S-wave (km/s) = 2.60457 3.44426 3.05342
# Velocity P-wave (km/s) = 4.13099 5.84441 5.06074
#
# Compressibility (1/GPa) = 0.05488308
#
# Stress axis : x y z
#
# Youngs Moduli (GPa) = 18.80415 157.19692 89.93716
#
# Poissons Ratio (x) = -0.07310 0.58208
# Poissons Ratio (y) = -0.00874 0.16921
# Poissons Ratio (z) = 0.12170 0.29575
#
# Static dielectric constant tensor:
#      x y z
#    x 1.891010 0.000000 0.000000 
#    y 0.000000 1.846340 0.000000 
#    z 0.000000 0.000000 1.916950 
# 
# From -- ./inp_files/2881.got.cif
#   From: 2010.05.17/outbox.cif.g08.bks.cpg/sg39_2_cif.got.tgz:2881.got - 2010.06.03 18:22:40.
