data_PCOD9361811
_publ_section_title
;
Structure prediction by ZEFSAII (Michael W. Deem and Ramdas Pophale) SiO2 
 PCOD9361811
Probable space group: A B M 2
;
_chemical_formula_sum "Si O2"
_cell_formula_units_Z 28
_cell_length_a 12.596066
_cell_length_b 18.090154
_cell_length_c 5.340107
_cell_angle_alpha 90.000000
_cell_angle_beta 90.000000
_cell_angle_gamma 90.000000
_cell_volume 1216.822273
_symmetry_space_group_name_H-M "A B M 2"
_symmetry_group_IT_number 39
_symmetry_cell_setting 'orthorhombic'
loop_
_space_group_symop_operation_xyz
x,y,z
-x,-y,z
-x,1/2+y,z
x,1/2-y,z
x,1/2+y,1/2+z
-x,1/2-y,1/2+z
-x,y,1/2+z
x,-y,1/2+z
loop_
_atom_site_type_symbol
_atom_site_label
_atom_site_fract_x
_atom_site_fract_y
_atom_site_fract_z
Si Si1 0.068703 0.750000 0.595510
Si Si2 0.798259 0.666004 0.428186
Si Si3 0.440493 0.659669 0.834366
Si Si4 0.879160 0.969949 0.698811
O O1 0.143149 0.819793 0.662933
O O2 0.011896 0.750000 0.332885
O O3 0.788924 0.750000 0.534125
O O4 0.680285 0.636835 0.388217
O O5 0.868383 0.612988 0.599015
O O6 0.439439 0.750000 0.829272
O O7 0.485696 0.636160 0.566003
O O8 0.829527 0.983916 0.969021
O O9 0.000000 0.000000 0.727106
#
# Coordination Sequence:
#
# PCOD9361811 Si02
#       4
#     4   8   8   8
#     4  10  24  34  56  86 124 152 198 246 282 350
#     4   9  22  40  62  92 118 163 202 245 296 358
#     4   9  18  34  57  88 117 145 192 253 300 341
#     4  10  23  38  57  82 121 159 196 242 295 352
#
# _framework density 23.010753999999999
#
# number of rings (size 3 to 8) (size 9 to 14) (size 15 to 20)
#    0.857    1.714    0.000    0.000    8.000    4.571 
#    0.000    0.000    0.000    5.143    0.000    0.000 
#    0.000    0.000    0.000    0.000    0.000    0.000 
#
# Total GULP energy -78116.390363 kJ/mol
# GULP energy per Si atom -5579.742169 kJ/mol
# Density = 2.295838 g / cm^3
# Si number density = 23.010754 Si / 1000 Ang^3
#
#
#
# Elastic Constant Matrix: (Units=GPa)
#
#
# Indices 1 2 3 4 5 6 
#
# 1 94.7367 5.5905 3.9257 0.0000 0.0000 0.0000
# 2 5.5905 79.3219 5.3803 0.0000 0.0000 0.0000
# 3 3.9257 5.3803 101.5579 0.0000 0.0000 0.0000
# 4 0.0000 0.0000 0.0000 22.9117 0.0000 0.0000
# 5 0.0000 0.0000 0.0000 0.0000 12.6132 0.0000
# 6 0.0000 0.0000 0.0000 0.0000 0.0000 18.0188
#
#
#
# Elastic Compliance Matrix: (Units=1/GPa)
#
#
# Indices 1 2 3 4 5 6 
#
# 1 0.010614 -0.000723 -0.000372 0.000000 0.000000 0.000000
# 2 -0.000723 0.012702 -0.000645 0.000000 0.000000 0.000000
# 3 -0.000372 -0.000645 0.009895 0.000000 0.000000 0.000000
# 4 0.000000 0.000000 0.000000 0.043646 0.000000 0.000000
# 5 0.000000 0.000000 0.000000 0.000000 0.079282 0.000000
# 6 0.000000 0.000000 0.000000 0.000000 0.000000 0.055498
#
#
# Mechanical properties :
#
#
# Convention : Reuss Voigt Hill
#
# Bulk Modulus (GPa) = 33.63509 33.93439 33.78474
# Shear Modulus (GPa) = 22.21971 28.09008 25.15489
#
# Velocity S-wave (km/s) = 3.11082 3.49770 3.30991
# Velocity P-wave (km/s) = 5.24898 5.57593 5.41492
#
# Compressibility (1/GPa) = 0.02973086
#
# Stress axis : x y z
#
# Youngs Moduli (GPa) = 94.21837 78.73053 101.05968
#
# Poissons Ratio (x) = 0.05691 0.03759
# Poissons Ratio (y) = 0.06810 0.06518
# Poissons Ratio (z) = 0.03505 0.05078
#
# Static dielectric constant tensor:
#      x y z
#    x 1.946430 0.000000 0.000000 
#    y 0.000000 1.969710 0.000000 
#    z 0.000000 0.000000 1.897110 
# 
# From -- ./inp_files/235.got.cif
#   From: 2010.05.17/outbox.cif.g08.bks.cpg/sg39_1_cif.got.tgz:235.got - 2010.06.03 18:22:40.
