data_PCOD9361932
_publ_section_title
;
Structure prediction by ZEFSAII (Michael W. Deem and Ramdas Pophale) SiO2 
 PCOD9361932
Probable space group: A B M 2
;
_chemical_formula_sum "Si O2"
_cell_formula_units_Z 52
_cell_length_a 19.885995
_cell_length_b 9.143180
_cell_length_c 14.787586
_cell_angle_alpha 90.000000
_cell_angle_beta 90.000000
_cell_angle_gamma 90.000000
_cell_volume 2688.697101
_symmetry_space_group_name_H-M "A B M 2"
_symmetry_group_IT_number 39
_symmetry_cell_setting 'orthorhombic'
loop_
_space_group_symop_operation_xyz
x,y,z
-x,-y,z
-x,1/2+y,z
x,1/2-y,z
x,1/2+y,1/2+z
-x,1/2-y,1/2+z
-x,y,1/2+z
x,-y,1/2+z
loop_
_atom_site_type_symbol
_atom_site_label
_atom_site_fract_x
_atom_site_fract_y
_atom_site_fract_z
Si Si1 0.571639 0.072639 0.382270
Si Si2 0.976447 0.750000 0.594027
Si Si3 0.180667 0.581042 0.799837
Si Si4 0.216244 0.084081 0.973479
Si Si5 0.897134 0.464556 0.618757
Si Si6 0.651906 0.573744 0.538626
Si Si7 0.334141 0.423900 0.232982
O O1 0.569611 0.250000 0.382977
O O2 0.500000 0.000000 0.360191
O O3 0.595681 0.005349 0.477865
O O4 0.624466 0.009951 0.309252
O O5 0.037025 0.629470 0.602354
O O6 0.918444 0.624922 0.592153
O O7 0.171942 0.750000 0.828784
O O8 0.178203 0.472767 0.884509
O O9 0.126594 0.546267 0.722674
O O10 0.255039 0.567020 0.756739
O O11 0.242309 0.250000 0.960477
O O12 0.165052 0.084600 0.056869
O O13 0.277184 0.974084 0.993802
O O14 0.644719 0.750000 0.539457
O O15 0.652335 0.503097 0.638006
O O16 0.351358 0.250000 0.230546
#
# Coordination Sequence:
#
# PCOD9361932 Si02
#       7
#     8   4   8   8   8   8   8
#     4  12  26  47  71 101 144 184 223 276 342 403
#     4  10  24  44  70  92 132 180 218 268 340 418
#     4  11  23  40  66  99 132 171 223 280 335 391
#     4  12  24  40  66 100 132 173 227 283 338 393
#     4  11  23  46  68  92 134 178 221 273 340 399
#     4  12  25  42  68 103 139 179 231 283 336 399
#     4  11  23  42  69 102 139 177 227 282 335 399
#
# _framework density 19.340222000000001
#
# number of rings (size 3 to 8) (size 9 to 14) (size 15 to 20)
#    0.000    0.615    4.615    3.692    3.231    1.231 
#    0.000    7.692    0.000    0.000    0.000    0.000 
#    0.000    0.000    0.000    0.000    0.000    0.000 
#
# Total GULP energy -144743.488587 kJ/mol
# GULP energy per Si atom -5567.057253 kJ/mol
# Density = 1.929620 g / cm^3
# Si number density = 19.340222 Si / 1000 Ang^3
#
#
#
# Elastic Constant Matrix: (Units=GPa)
#
#
# Indices 1 2 3 4 5 6 
#
# 1 43.3039 9.5688 -21.7234 0.0000 0.0000 0.0000
# 2 9.5688 182.6905 13.5169 0.0000 0.0000 0.0000
# 3 -21.7234 13.5169 71.7644 0.0000 0.0000 0.0000
# 4 0.0000 0.0000 0.0000 44.8284 0.0000 0.0000
# 5 0.0000 0.0000 0.0000 0.0000 9.3452 0.0000
# 6 0.0000 0.0000 0.0000 0.0000 0.0000 29.7489
#
#
#
# Elastic Compliance Matrix: (Units=1/GPa)
#
#
# Indices 1 2 3 4 5 6 
#
# 1 0.028017 -0.002125 0.008881 0.000000 0.000000 0.000000
# 2 -0.002125 0.005712 -0.001719 0.000000 0.000000 0.000000
# 3 0.008881 -0.001719 0.016947 0.000000 0.000000 0.000000
# 4 0.000000 0.000000 0.000000 0.022307 0.000000 0.000000
# 5 0.000000 0.000000 0.000000 0.000000 0.107006 0.000000
# 6 0.000000 0.000000 0.000000 0.000000 0.000000 0.033615
#
#
# Mechanical properties :
#
#
# Convention : Reuss Voigt Hill
#
# Bulk Modulus (GPa) = 16.46059 33.38704 24.92381
# Shear Modulus (GPa) = 22.34340 36.54426 29.44383
#
# Velocity S-wave (km/s) = 3.40263 4.35161 3.90605
# Velocity P-wave (km/s) = 4.89558 6.52297 5.76697
#
# Compressibility (1/GPa) = 0.06075118
#
# Stress axis : x y z
#
# Youngs Moduli (GPa) = 35.69228 175.06377 59.00882
#
# Poissons Ratio (x) = 0.37193 -0.52406
# Poissons Ratio (y) = 0.07583 0.10144
# Poissons Ratio (z) = -0.31699 0.30094
#
# Static dielectric constant tensor:
#      x y z
#    x 1.664540 0.000000 0.000000 
#    y 0.000000 1.660710 0.000000 
#    z 0.000000 0.000000 1.687430 
# 
# From -- ./inp_files/10285.got.cif
#   From: 2010.05.17/outbox.cif.g08.bks.cpg/sg39_6_cif.got.tgz:10285.got - 2010.06.03 18:22:40.
