data_PCOD9361539
_publ_section_title
;
Structure prediction by ZEFSAII (Michael W. Deem and Ramdas Pophale) SiO2 
 PCOD9361539
Probable space group: A B M 2
;
_chemical_formula_sum "Si O2"
_cell_formula_units_Z 40
_cell_length_a 8.039059
_cell_length_b 17.456014
_cell_length_c 12.272073
_cell_angle_alpha 90.000000
_cell_angle_beta 90.000000
_cell_angle_gamma 90.000000
_cell_volume 1722.139101
_symmetry_space_group_name_H-M "A B M 2"
_symmetry_group_IT_number 39
_symmetry_cell_setting 'orthorhombic'
loop_
_space_group_symop_operation_xyz
x,y,z
-x,-y,z
-x,1/2+y,z
x,1/2-y,z
x,1/2+y,1/2+z
-x,1/2-y,1/2+z
-x,y,1/2+z
x,-y,1/2+z
loop_
_atom_site_type_symbol
_atom_site_label
_atom_site_fract_x
_atom_site_fract_y
_atom_site_fract_z
Si Si1 0.833968 0.599319 0.908420
Si Si2 0.648518 0.897356 0.238325
Si Si3 0.725363 0.438109 0.195751
Si Si4 0.605873 0.250000 0.404513
Si Si5 0.792713 0.922243 0.460150
Si Si6 0.548899 0.750000 0.146867
O O1 0.861506 0.593963 0.777286
O O2 0.718314 0.673292 0.919959
O O3 0.763965 0.513937 0.937758
O O4 0.013451 0.598775 0.963227
O O5 0.455083 0.920925 0.245525
O O6 0.710188 0.880362 0.359003
O O7 0.657713 0.825675 0.160821
O O8 0.744059 0.970562 0.191104
O O9 0.720439 0.403745 0.076908
O O10 0.547175 0.250000 0.271968
O O11 0.491808 0.250000 0.517821
#
# Coordination Sequence:
#
# PCOD9361539 Si02
#       6
#     8   8   8   4   8   4
#     4  10  23  44  65  99 135 178 229 277 341 410
#     4  10  23  39  64 101 126 175 225 276 338 405
#     4  10  21  41  67  94 134 172 228 284 331 405
#     4  12  26  45  69 101 143 182 222 290 342 420
#     4  10  23  42  70  94 134 180 228 281 339 402
#     4  12  26  41  67  99 143 172 226 280 354 396
#
# _framework density 23.226928000000001
#
# number of rings (size 3 to 8) (size 9 to 14) (size 15 to 20)
#    0.000    1.600    2.000    1.200    2.800   15.200 
#    0.000    2.000    0.000    0.000    0.000    0.000 
#    0.000    0.000    0.000    0.000    0.000    0.000 
#
# Total GULP energy -111462.049933 kJ/mol
# GULP energy per Si atom -5573.102497 kJ/mol
# Density = 2.317406 g / cm^3
# Si number density = 23.226928 Si / 1000 Ang^3
#
#
#
# Elastic Constant Matrix: (Units=GPa)
#
#
# Indices 1 2 3 4 5 6 
#
# 1 42.0710 8.1644 23.8338 0.0000 0.0000 0.0000
# 2 8.1644 101.9514 8.8506 0.0000 0.0000 0.0000
# 3 23.8338 8.8506 134.9669 0.0000 0.0000 0.0000
# 4 0.0000 0.0000 0.0000 -5.6881 0.0000 0.0000
# 5 0.0000 0.0000 0.0000 0.0000 21.3317 0.0000
# 6 0.0000 0.0000 0.0000 0.0000 0.0000 16.3673
#
#
#
# Elastic Compliance Matrix: (Units=1/GPa)
#
#
# Indices 1 2 3 4 5 6 
#
# 1 0.026715 -0.001740 -0.004604 0.000000 0.000000 0.000000
# 2 -0.001740 0.009978 -0.000347 0.000000 0.000000 0.000000
# 3 -0.004604 -0.000347 0.008245 0.000000 0.000000 0.000000
# 4 0.000000 0.000000 0.000000 -0.175805 0.000000 0.000000
# 5 0.000000 0.000000 0.000000 0.000000 0.046879 0.000000
# 6 0.000000 0.000000 0.000000 0.000000 0.000000 0.061097
#
#
# Mechanical properties :
#
#
# Convention : Reuss Voigt Hill
#
# Bulk Modulus (GPa) = 31.68847 40.07633 35.88240
# Shear Modulus (GPa) = 4957.65866 22.27821 2489.96844
#
# Velocity S-wave (km/s) = 46.25017 3.10038 32.77721
# Velocity P-wave (km/s) = 53.53295 5.48709 38.05184
#
# Compressibility (1/GPa) = 0.03155722
#
# Stress axis : x y z
#
# Youngs Moduli (GPa) = 37.43225 100.21996 121.28680
#
# Poissons Ratio (x) = 0.17436 0.55834
# Poissons Ratio (y) = 0.06512 0.04210
# Poissons Ratio (z) = 0.17232 0.03479
#
# Static dielectric constant tensor:
#      x y z
#    x 1.852740 0.000000 0.000000 
#    y 0.000000 1.920370 0.000000 
#    z 0.000000 0.000000 1.963120 
# 
# From -- ./inp_files/4955.got.cif
#   From: 2010.05.17/outbox.cif.g08.bks.cpg/sg39_3_cif.got.tgz:4955.got - 2010.06.03 18:22:40.
