data_PCOD9361197
_publ_section_title
;
Structure prediction by ZEFSAII (Michael W. Deem and Ramdas Pophale) SiO2 
 PCOD9361197
Probable space group: A B M 2
;
_chemical_formula_sum "Si O2"
_cell_formula_units_Z 56
_cell_length_a 17.099861
_cell_length_b 28.288009
_cell_length_c 5.209919
_cell_angle_alpha 90.000000
_cell_angle_beta 90.000000
_cell_angle_gamma 90.000000
_cell_volume 2520.147343
_symmetry_space_group_name_H-M "A B M 2"
_symmetry_group_IT_number 39
_symmetry_cell_setting 'orthorhombic'
loop_
_space_group_symop_operation_xyz
x,y,z
-x,-y,z
-x,1/2+y,z
x,1/2-y,z
x,1/2+y,1/2+z
-x,1/2-y,1/2+z
-x,y,1/2+z
x,-y,1/2+z
loop_
_atom_site_type_symbol
_atom_site_label
_atom_site_fract_x
_atom_site_fract_y
_atom_site_fract_z
Si Si1 0.193414 0.469387 0.806940
Si Si2 0.200444 0.806780 0.789741
Si Si3 0.450550 0.133830 0.784374
Si Si4 0.294190 0.307273 0.793934
Si Si5 0.968716 0.324156 0.007142
Si Si6 0.373144 0.467560 0.769646
Si Si7 0.965657 0.568147 0.628065
O O1 0.186610 0.511388 0.595958
O O2 0.281886 0.451171 0.774399
O O3 0.122006 0.435458 0.734107
O O4 0.195143 0.750000 0.783981
O O5 0.260857 0.819727 0.014316
O O6 0.115913 0.823905 0.878300
O O7 0.232700 0.822329 0.514515
O O8 0.513815 0.143178 0.004884
O O9 0.375580 0.166498 0.834043
O O10 0.425250 0.078856 0.793889
O O11 0.302867 0.250000 0.808577
O O12 0.989725 0.377965 0.075236
O O13 0.974351 0.302391 0.291750
O O14 0.385648 0.496744 0.507539
O O15 0.977191 0.547205 0.344586
#
# Coordination Sequence:
#
# PCOD9361197 Si02
#       7
#     8   8   8   8   8   8   8
#     4  10  21  37  56  81 111 154 204 247 303 361
#     4  10  21  39  63  90 122 167 212 254 312 369
#     4  12  26  43  68 101 125 164 212 246 324 397
#     4  10  23  43  65  96 130 163 210 262 313 378
#     4  10  21  36  54  86 123 160 206 255 309 358
#     4  10  23  43  63  92 129 162 206 258 308 369
#     4  10  21  35  51  80 116 155 200 251 307 354
#
# _framework density 22.220921000000001
#
# number of rings (size 3 to 8) (size 9 to 14) (size 15 to 20)
#    0.000    1.714    0.000    3.429    2.000    4.571 
#    5.143    0.000    0.000    0.000    0.000    0.000 
#    0.000    0.000    0.000    0.000    0.000    0.000 
#
# Total GULP energy -156503.169457 kJ/mol
# GULP energy per Si atom -5589.398909 kJ/mol
# Density = 2.217035 g / cm^3
# Si number density = 22.220921 Si / 1000 Ang^3
#
#
#
# Elastic Constant Matrix: (Units=GPa)
#
#
# Indices 1 2 3 4 5 6 
#
# 1 64.9141 8.8999 8.2573 0.0000 0.0000 0.0000
# 2 8.8999 39.4835 8.0549 0.0000 0.0000 0.0000
# 3 8.2573 8.0549 106.1340 0.0000 0.0000 0.0000
# 4 0.0000 0.0000 0.0000 0.7355 0.0000 0.0000
# 5 0.0000 0.0000 0.0000 0.0000 39.5619 0.0000
# 6 0.0000 0.0000 0.0000 0.0000 0.0000 47.4482
#
#
#
# Elastic Compliance Matrix: (Units=1/GPa)
#
#
# Indices 1 2 3 4 5 6 
#
# 1 0.015997 -0.003405 -0.000986 0.000000 0.000000 0.000000
# 2 -0.003405 0.026450 -0.001742 0.000000 0.000000 0.000000
# 3 -0.000986 -0.001742 0.009631 0.000000 0.000000 0.000000
# 4 0.000000 0.000000 0.000000 1.359529 0.000000 0.000000
# 5 0.000000 0.000000 0.000000 0.000000 0.025277 0.000000
# 6 0.000000 0.000000 0.000000 0.000000 0.000000 0.021076
#
#
# Mechanical properties :
#
#
# Convention : Reuss Voigt Hill
#
# Bulk Modulus (GPa) = 25.11843 28.99509 27.05676
# Shear Modulus (GPa) = 3.37042 29.90376 16.63709
#
# Velocity S-wave (km/s) = 1.23291 3.67242 2.73923
# Velocity P-wave (km/s) = 3.65448 5.57307 4.71245
#
# Compressibility (1/GPa) = 0.03981141
#
# Stress axis : x y z
#
# Youngs Moduli (GPa) = 62.51086 37.80726 103.83112
#
# Poissons Ratio (x) = 0.12872 0.10240
# Poissons Ratio (y) = 0.21283 0.18093
# Poissons Ratio (z) = 0.06165 0.06588
#
# Static dielectric constant tensor:
#      x y z
#    x 1.806670 0.000000 0.000000 
#    y 0.000000 1.810500 0.000000 
#    z 0.000000 0.000000 1.858560 
# 
# From -- ./inp_files/651.got.cif
#   From: 2010.05.17/outbox.cif.g08.bks.cpg/sg39_1_cif.got.tgz:651.got - 2010.06.03 18:22:40.
