data_PCOD9361502
_publ_section_title
;
Structure prediction by ZEFSAII (Michael W. Deem and Ramdas Pophale) SiO2 
 PCOD9361502
Probable space group: A B M 2
;
_chemical_formula_sum "Si O2"
_cell_formula_units_Z 64
_cell_length_a 9.514502
_cell_length_b 15.036213
_cell_length_c 20.919188
_cell_angle_alpha 90.000000
_cell_angle_beta 90.000000
_cell_angle_gamma 90.000000
_cell_volume 2992.742519
_symmetry_space_group_name_H-M "A B M 2"
_symmetry_group_IT_number 39
_symmetry_cell_setting 'orthorhombic'
loop_
_space_group_symop_operation_xyz
x,y,z
-x,-y,z
-x,1/2+y,z
x,1/2-y,z
x,1/2+y,1/2+z
-x,1/2-y,1/2+z
-x,y,1/2+z
x,-y,1/2+z
loop_
_atom_site_type_symbol
_atom_site_label
_atom_site_fract_x
_atom_site_fract_y
_atom_site_fract_z
Si Si1 0.836549 0.478061 0.307980
Si Si2 0.273276 0.150031 0.583901
Si Si3 0.265067 0.345578 0.368384
Si Si4 0.031989 0.600184 0.561641
Si Si5 0.660683 0.149210 0.596899
Si Si6 0.644025 0.977630 0.691492
Si Si7 0.455019 0.903536 0.979679
Si Si8 0.941885 0.851625 0.917254
O O1 0.746234 0.563960 0.329108
O O2 0.766629 0.455614 0.240878
O O3 0.850432 0.405491 0.364983
O O4 0.000000 0.500000 0.296566
O O5 0.321300 0.250000 0.570504
O O6 0.349007 0.106924 0.644263
O O7 0.318980 0.087859 0.525377
O O8 0.106452 0.150509 0.584813
O O9 0.277829 0.250000 0.333807
O O10 0.391097 0.350627 0.419947
O O11 0.107303 0.346163 0.398603
O O12 0.173066 0.644618 0.585564
O O13 0.054120 0.601182 0.485371
O O14 0.000000 0.500000 0.583658
O O15 0.625809 0.250000 0.619294
O O16 0.573429 0.132018 0.530105
O O17 0.647444 0.065041 0.645309
O O18 0.500000 0.000000 0.728000
O O19 0.500000 0.000000 0.956777
O O20 0.890556 0.750000 0.923386
#
# Coordination Sequence:
#
# PCOD9361502 Si02
#       8
#     8   8   8   8   8   8   8   8
#     4  10  25  44  68  93 128 177 231 284 331 387
#     4  12  23  41  68  98 131 175 224 273 336 408
#     4  10  21  41  69  98 129 171 220 269 331 404
#     4  12  22  39  67 102 138 168 211 275 344 405
#     4  12  25  41  63  99 138 169 213 279 338 399
#     4  12  26  46  65  93 132 184 229 274 333 405
#     4  12  22  40  66  99 137 174 212 269 339 410
#     4  10  21  40  67 100 132 168 218 275 330 392
#
# _framework density 21.385068
#
# number of rings (size 3 to 8) (size 9 to 14) (size 15 to 20)
#    0.000    0.750    5.000    3.375    3.500    1.500 
#    0.000    0.000    0.000    0.000    0.000    0.000 
#    0.000    0.000    0.000    0.000    0.000    0.000 
#
# Total GULP energy -178338.499073 kJ/mol
# GULP energy per Si atom -5573.078096 kJ/mol
# Density = 2.133639 g / cm^3
# Si number density = 21.385068 Si / 1000 Ang^3
#
#
#
# Elastic Constant Matrix: (Units=GPa)
#
#
# Indices 1 2 3 4 5 6 
#
# 1 104.2047 14.8048 7.8332 0.0000 0.0000 0.0000
# 2 14.8048 116.5772 9.5595 0.0000 0.0000 0.0000
# 3 7.8332 9.5595 33.3665 0.0000 0.0000 0.0000
# 4 0.0000 0.0000 0.0000 8.3659 0.0000 0.0000
# 5 0.0000 0.0000 0.0000 0.0000 28.7982 0.0000
# 6 0.0000 0.0000 0.0000 0.0000 0.0000 20.8464
#
#
#
# Elastic Compliance Matrix: (Units=1/GPa)
#
#
# Indices 1 2 3 4 5 6 
#
# 1 0.009903 -0.001093 -0.002012 0.000000 0.000000 0.000000
# 2 -0.001093 0.008905 -0.002295 0.000000 0.000000 0.000000
# 3 -0.002012 -0.002295 0.031100 0.000000 0.000000 0.000000
# 4 0.000000 0.000000 0.000000 0.119533 0.000000 0.000000
# 5 0.000000 0.000000 0.000000 0.000000 0.034724 0.000000
# 6 0.000000 0.000000 0.000000 0.000000 0.000000 0.047970
#
#
# Mechanical properties :
#
#
# Convention : Reuss Voigt Hill
#
# Bulk Modulus (GPa) = 25.56927 35.39371 30.48149
# Shear Modulus (GPa) = 18.11787 26.39880 22.25834
#
# Velocity S-wave (km/s) = 2.91386 3.51729 3.22970
# Velocity P-wave (km/s) = 4.82736 5.75167 5.30966
#
# Compressibility (1/GPa) = 0.03910944
#
# Stress axis : x y z
#
# Youngs Moduli (GPa) = 100.97987 112.29712 32.15438
#
# Poissons Ratio (x) = 0.12270 0.06469
# Poissons Ratio (y) = 0.11034 0.07379
# Poissons Ratio (z) = 0.20315 0.25769
#
# Static dielectric constant tensor:
#      x y z
#    x 1.825900 0.000000 0.000000 
#    y 0.000000 1.530110 0.000000 
#    z 0.000000 0.000000 1.801000 
# 
# From -- ./inp_files/15728.got.cif
#   From: 2010.05.17/outbox.cif.g08.bks.cpg/sg39_8_cif.got.tgz:15728.got - 2010.06.03 18:22:40.
