data_PCOD9361065
_publ_section_title
;
Structure prediction by ZEFSAII (Michael W. Deem and Ramdas Pophale) SiO2 
 PCOD9361065
Probable space group: A B M 2
;
_chemical_formula_sum "Si O2"
_cell_formula_units_Z 40
_cell_length_a 12.544379
_cell_length_b 10.837418
_cell_length_c 13.196254
_cell_angle_alpha 90.000000
_cell_angle_beta 90.000000
_cell_angle_gamma 90.000000
_cell_volume 1794.013296
_symmetry_space_group_name_H-M "A B M 2"
_symmetry_group_IT_number 39
_symmetry_cell_setting 'orthorhombic'
loop_
_space_group_symop_operation_xyz
x,y,z
-x,-y,z
-x,1/2+y,z
x,1/2-y,z
x,1/2+y,1/2+z
-x,1/2-y,1/2+z
-x,y,1/2+z
x,-y,1/2+z
loop_
_atom_site_type_symbol
_atom_site_label
_atom_site_fract_x
_atom_site_fract_y
_atom_site_fract_z
Si Si1 0.542270 0.619839 0.695500
Si Si2 0.629037 0.883373 0.374814
Si Si3 0.920824 0.109284 0.343578
Si Si4 0.285201 0.610167 0.489838
Si Si5 0.761538 0.996414 0.208602
O O1 0.500000 0.500000 0.638368
O O2 0.522513 0.750000 0.645276
O O3 0.472535 0.620025 0.799091
O O4 0.666106 0.597426 0.714780
O O5 0.636369 0.750000 0.426504
O O6 0.639472 0.001615 0.446569
O O7 0.727846 0.900392 0.296324
O O8 0.963462 0.250000 0.338162
O O9 0.819746 0.111201 0.419077
O O10 0.870484 0.063552 0.236717
O O11 0.000000 0.000000 0.375712
O O12 0.329358 0.750000 0.487659
O O13 0.248558 0.570945 0.601902
#
# Coordination Sequence:
#
# PCOD9361065 Si02
#       5
#     8   8   8   8   8
#     4   9  18  34  57  85 118 155 195 238 286 342
#     4   9  19  36  59  88 123 161 197 239 293 353
#     4  10  23  42  63  88 120 157 198 250 310 368
#     4  10  22  40  63  92 124 159 202 251 302 359
#     4  10  20  38  64  89 118 158 203 254 301 354
#
# _framework density 22.296379999999999
#
# number of rings (size 3 to 8) (size 9 to 14) (size 15 to 20)
#    0.000    2.400    0.000    1.200    0.000   12.000 
#    0.000   17.000    0.000    7.200    0.000    0.000 
#    0.000    0.000    0.000    0.000    0.000    0.000 
#
# Total GULP energy -111579.031387 kJ/mol
# GULP energy per Si atom -5578.951569 kJ/mol
# Density = 2.224563 g / cm^3
# Si number density = 22.296380 Si / 1000 Ang^3
#
#
#
# Elastic Constant Matrix: (Units=GPa)
#
#
# Indices 1 2 3 4 5 6 
#
# 1 56.2412 43.3309 4.3254 0.0000 0.0000 0.0000
# 2 43.3309 252.8839 48.3325 0.0000 0.0000 0.0000
# 3 4.3254 48.3325 102.4721 0.0000 0.0000 0.0000
# 4 0.0000 0.0000 0.0000 5.4812 0.0000 0.0000
# 5 0.0000 0.0000 0.0000 0.0000 21.8392 0.0000
# 6 0.0000 0.0000 0.0000 0.0000 0.0000 -7.8370
#
#
#
# Elastic Compliance Matrix: (Units=1/GPa)
#
#
# Indices 1 2 3 4 5 6 
#
# 1 0.020556 -0.003689 0.000872 0.000000 0.000000 0.000000
# 2 -0.003689 0.005008 -0.002206 0.000000 0.000000 0.000000
# 3 0.000872 -0.002206 0.010763 0.000000 0.000000 0.000000
# 4 0.000000 0.000000 0.000000 0.182441 0.000000 0.000000
# 5 0.000000 0.000000 0.000000 0.000000 0.045789 0.000000
# 6 0.000000 0.000000 0.000000 0.000000 0.000000 -0.127601
#
#
# Mechanical properties :
#
#
# Convention : Reuss Voigt Hill
#
# Bulk Modulus (GPa) = 38.05147 67.06389 52.55768
# Shear Modulus (GPa) = 32.10009 24.93724 28.51866
#
# Velocity S-wave (km/s) = 3.79845 3.34794 3.58029
# Velocity P-wave (km/s) = 6.02834 6.71481 6.38081
#
# Compressibility (1/GPa) = 0.02628019
#
# Stress axis : x y z
#
# Youngs Moduli (GPa) = 48.64870 199.67385 92.91394
#
# Poissons Ratio (x) = 0.73656 -0.08104
# Poissons Ratio (y) = 0.17946 0.20501
# Poissons Ratio (z) = -0.04243 0.44057
#
# Static dielectric constant tensor:
#      x y z
#    x 1.840180 0.000000 0.000000 
#    y 0.000000 1.910350 0.000000 
#    z 0.000000 0.000000 1.837560 
# 
# From -- ./inp_files/9039.got.cif
#   From: 2010.05.17/outbox.cif.g08.bks.cpg/sg39_5_cif.got.tgz:9039.got - 2010.06.03 18:22:40.
