data_PCOD9361877
_publ_section_title
;
Structure prediction by ZEFSAII (Michael W. Deem and Ramdas Pophale) SiO2 
 PCOD9361877
Probable space group: A B M 2
;
_chemical_formula_sum "Si O2"
_cell_formula_units_Z 48
_cell_length_a 12.411846
_cell_length_b 22.027675
_cell_length_c 8.314421
_cell_angle_alpha 90.000000
_cell_angle_beta 90.000000
_cell_angle_gamma 90.000000
_cell_volume 2273.196872
_symmetry_space_group_name_H-M "A B M 2"
_symmetry_group_IT_number 39
_symmetry_cell_setting 'orthorhombic'
loop_
_space_group_symop_operation_xyz
x,y,z
-x,-y,z
-x,1/2+y,z
x,1/2-y,z
x,1/2+y,1/2+z
-x,1/2-y,1/2+z
-x,y,1/2+z
x,-y,1/2+z
loop_
_atom_site_type_symbol
_atom_site_label
_atom_site_fract_x
_atom_site_fract_y
_atom_site_fract_z
Si Si1 0.202792 0.092737 0.906380
Si Si2 0.632891 0.680370 0.368445
Si Si3 0.037467 0.178815 0.750947
Si Si4 0.393109 0.320099 0.984369
Si Si5 0.124302 0.010364 0.620427
Si Si6 0.142786 0.126824 0.430989
O O1 0.108964 0.142021 0.879460
O O2 0.189582 0.047465 0.754642
O O3 0.312313 0.130834 0.910190
O O4 0.181142 0.050773 0.061036
O O5 0.659507 0.750000 0.414940
O O6 0.622679 0.678260 0.175960
O O7 0.516766 0.665849 0.442404
O O8 0.730743 0.638667 0.423170
O O9 0.037967 0.250000 0.779998
O O10 0.091199 0.163695 0.580463
O O11 0.917882 0.152566 0.775150
O O12 0.371719 0.250000 0.929743
O O13 0.118721 0.056966 0.469064
O O14 0.000000 0.000000 0.668717
#
# Coordination Sequence:
#
# PCOD9361877 Si02
#       6
#     8   8   8   8   8   8
#     4  11  25  41  68  95 132 178 226 277 333 407
#     4  10  23  44  71 101 139 180 227 286 352 416
#     4  11  23  39  64 100 137 170 222 286 350 410
#     4  10  24  45  72 101 135 179 230 287 348 411
#     4  11  24  43  66  97 135 185 228 276 339 409
#     4  11  25  41  66  97 139 184 226 281 343 420
#
# _framework density 21.115637
#
# number of rings (size 3 to 8) (size 9 to 14) (size 15 to 20)
#    0.000    1.333    1.667    2.500   11.667    0.000 
#    0.000    0.833    0.000    0.000    0.000    0.000 
#    0.000    0.000    0.000    0.000    0.000    0.000 
#
# Total GULP energy -134305.055023 kJ/mol
# GULP energy per Si atom -5596.043959 kJ/mol
# Density = 2.106758 g / cm^3
# Si number density = 21.115637 Si / 1000 Ang^3
#
#
#
# Elastic Constant Matrix: (Units=GPa)
#
#
# Indices 1 2 3 4 5 6 
#
# 1 146.5502 75.7728 47.6103 0.0000 0.0000 0.0000
# 2 75.7728 142.4414 45.3581 0.0000 0.0000 0.0000
# 3 47.6103 45.3581 74.5203 0.0000 0.0000 0.0000
# 4 0.0000 0.0000 0.0000 28.7399 0.0000 0.0000
# 5 0.0000 0.0000 0.0000 0.0000 35.2970 0.0000
# 6 0.0000 0.0000 0.0000 0.0000 0.0000 30.9121
#
#
#
# Elastic Compliance Matrix: (Units=1/GPa)
#
#
# Indices 1 2 3 4 5 6 
#
# 1 0.010302 -0.004198 -0.004027 0.000000 0.000000 0.000000
# 2 -0.004198 0.010419 -0.003660 0.000000 0.000000 0.000000
# 3 -0.004027 -0.003660 0.018219 0.000000 0.000000 0.000000
# 4 0.000000 0.000000 0.000000 0.034795 0.000000 0.000000
# 5 0.000000 0.000000 0.000000 0.000000 0.028331 0.000000
# 6 0.000000 0.000000 0.000000 0.000000 0.000000 0.032350
#
#
# Mechanical properties :
#
#
# Convention : Reuss Voigt Hill
#
# Bulk Modulus (GPa) = 65.91239 77.88825 71.90032
# Shear Modulus (GPa) = 30.62923 31.97451 31.30187
#
# Velocity S-wave (km/s) = 3.81274 3.89557 3.85437
# Velocity P-wave (km/s) = 7.11796 7.56310 7.34390
#
# Compressibility (1/GPa) = 0.01517166
#
# Stress axis : x y z
#
# Youngs Moduli (GPa) = 97.06417 95.97847 54.88686
#
# Poissons Ratio (x) = 0.40294 0.22102
# Poissons Ratio (y) = 0.40749 0.20086
# Poissons Ratio (z) = 0.39086 0.35124
#
# Static dielectric constant tensor:
#      x y z
#    x 1.714840 0.000000 0.000000 
#    y 0.000000 1.761180 0.000000 
#    z 0.000000 0.000000 1.849640 
# 
# From -- ./inp_files/2695.got.cif
#   From: 2010.05.17/outbox.cif.g08.bks.cpg/sg39_2_cif.got.tgz:2695.got - 2010.06.03 18:22:40.
