data_PCOD9361748
_publ_section_title
;
Structure prediction by ZEFSAII (Michael W. Deem and Ramdas Pophale) SiO2 
 PCOD9361748
Probable space group: A B M 2
;
_chemical_formula_sum "Si O2"
_cell_formula_units_Z 40
_cell_length_a 8.301136
_cell_length_b 22.249429
_cell_length_c 9.436013
_cell_angle_alpha 90.000000
_cell_angle_beta 90.000000
_cell_angle_gamma 90.000000
_cell_volume 1742.789479
_symmetry_space_group_name_H-M "A B M 2"
_symmetry_group_IT_number 39
_symmetry_cell_setting 'orthorhombic'
loop_
_space_group_symop_operation_xyz
x,y,z
-x,-y,z
-x,1/2+y,z
x,1/2-y,z
x,1/2+y,1/2+z
-x,1/2-y,1/2+z
-x,y,1/2+z
x,-y,1/2+z
loop_
_atom_site_type_symbol
_atom_site_label
_atom_site_fract_x
_atom_site_fract_y
_atom_site_fract_z
Si Si1 0.517883 0.250000 0.951840
Si Si2 0.304233 0.543741 0.038020
Si Si3 0.617659 0.881151 0.024247
Si Si4 0.736096 0.250000 0.202512
Si Si5 0.155154 0.120821 0.759260
Si Si6 0.815452 0.562573 0.235304
O O1 0.455423 0.184702 0.004306
O O2 0.436383 0.250000 0.791528
O O3 0.691955 0.250000 0.034410
O O4 0.489277 0.565447 0.054488
O O5 0.275887 0.539956 0.872603
O O6 0.214240 0.600707 0.105164
O O7 0.214062 0.489578 0.119402
O O8 0.717250 0.895786 0.881896
O O9 0.732573 0.880656 0.160447
O O10 0.838458 0.307578 0.251753
O O11 0.991544 0.083932 0.781141
#
# Coordination Sequence:
#
# PCOD9361748 Si02
#       6
#     4   8   8   4   8   8
#     4  10  22  41  73 105 143 180 240 290 344 423
#     4  12  25  45  70  98 139 190 243 296 349 423
#     4  11  24  45  71 106 140 189 238 292 352 430
#     4  10  22  43  73 105 143 186 230 290 354 427
#     4  11  24  45  70 104 146 184 232 293 362 423
#     4  12  27  44  69 103 143 189 239 299 360 420
#
# _framework density 22.951709999999999
#
# number of rings (size 3 to 8) (size 9 to 14) (size 15 to 20)
#    0.000    0.800    2.000    4.800    2.800    4.000 
#    0.000    4.000    0.000    0.000    0.000    0.000 
#    0.000    0.000    0.000    0.000    0.000    0.000 
#
# Total GULP energy -111533.575541 kJ/mol
# GULP energy per Si atom -5576.678777 kJ/mol
# Density = 2.289947 g / cm^3
# Si number density = 22.951710 Si / 1000 Ang^3
#
#
#
# Elastic Constant Matrix: (Units=GPa)
#
#
# Indices 1 2 3 4 5 6 
#
# 1 69.8836 30.6132 -17.9034 0.0000 0.0000 0.0000
# 2 30.6132 135.1060 9.7651 0.0000 0.0000 0.0000
# 3 -17.9034 9.7651 79.5271 0.0000 0.0000 0.0000
# 4 0.0000 0.0000 0.0000 25.4882 0.0000 0.0000
# 5 0.0000 0.0000 0.0000 0.0000 34.0950 0.0000
# 6 0.0000 0.0000 0.0000 0.0000 0.0000 21.7997
#
#
#
# Elastic Compliance Matrix: (Units=1/GPa)
#
#
# Indices 1 2 3 4 5 6 
#
# 1 0.017297 -0.004238 0.004414 0.000000 0.000000 0.000000
# 2 -0.004238 0.008506 -0.001999 0.000000 0.000000 0.000000
# 3 0.004414 -0.001999 0.013814 0.000000 0.000000 0.000000
# 4 0.000000 0.000000 0.000000 0.039234 0.000000 0.000000
# 5 0.000000 0.000000 0.000000 0.000000 0.029330 0.000000
# 6 0.000000 0.000000 0.000000 0.000000 0.000000 0.045872
#
#
# Mechanical properties :
#
#
# Convention : Reuss Voigt Hill
#
# Bulk Modulus (GPa) = 27.79951 36.60739 32.20345
# Shear Modulus (GPa) = 29.46570 33.74602 31.60586
#
# Velocity S-wave (km/s) = 3.58692 3.83862 3.71490
# Velocity P-wave (km/s) = 5.41231 5.96917 5.69755
#
# Compressibility (1/GPa) = 0.03597186
#
# Stress axis : x y z
#
# Youngs Moduli (GPa) = 57.81314 117.55839 72.39272
#
# Poissons Ratio (x) = 0.49825 -0.31957
# Poissons Ratio (y) = 0.24503 0.14469
# Poissons Ratio (z) = -0.25521 0.23496
#
# Static dielectric constant tensor:
#      x y z
#    x 2.163440 0.000000 0.000000 
#    y 0.000000 1.886150 0.000000 
#    z 0.000000 0.000000 1.824650 
# 
# From -- ./inp_files/2143.got.cif
#   From: 2010.05.17/outbox.cif.g08.bks.cpg/sg39_2_cif.got.tgz:2143.got - 2010.06.03 18:22:40.
