data_PCOD9361089
_publ_section_title
;
Structure prediction by ZEFSAII (Michael W. Deem and Ramdas Pophale) SiO2 
 PCOD9361089
Probable space group: A B M 2
;
_chemical_formula_sum "Si O2"
_cell_formula_units_Z 48
_cell_length_a 13.938204
_cell_length_b 18.125122
_cell_length_c 8.806535
_cell_angle_alpha 90.000000
_cell_angle_beta 90.000000
_cell_angle_gamma 90.000000
_cell_volume 2224.809450
_symmetry_space_group_name_H-M "A B M 2"
_symmetry_group_IT_number 39
_symmetry_cell_setting 'orthorhombic'
loop_
_space_group_symop_operation_xyz
x,y,z
-x,-y,z
-x,1/2+y,z
x,1/2-y,z
x,1/2+y,1/2+z
-x,1/2-y,1/2+z
-x,y,1/2+z
x,-y,1/2+z
loop_
_atom_site_type_symbol
_atom_site_label
_atom_site_fract_x
_atom_site_fract_y
_atom_site_fract_z
Si Si1 0.171310 0.509419 0.807860
Si Si2 0.079918 0.250000 0.701804
Si Si3 0.568695 0.089921 0.417857
Si Si4 0.124587 0.750000 0.559943
Si Si5 0.154339 0.599886 0.064003
Si Si6 0.250454 0.893869 0.560016
Si Si7 0.616590 0.570606 0.564279
O O1 0.118213 0.461102 0.683592
O O2 0.251201 0.554921 0.711043
O O3 0.116749 0.571615 0.902450
O O4 0.210289 0.448145 0.926463
O O5 0.098344 0.250000 0.881071
O O6 0.125564 0.178621 0.622523
O O7 0.968480 0.250000 0.663845
O O8 0.650631 0.138794 0.495103
O O9 0.461639 0.113506 0.461980
O O10 0.583864 0.079256 0.239053
O O11 0.597243 0.012063 0.500790
O O12 0.182128 0.825131 0.589195
O O13 0.271587 0.592926 0.054658
#
# Coordination Sequence:
#
# PCOD9361089 Si02
#       7
#     8   4   8   4   8   8   8
#     4  10  20  38  70  94 120 168 216 258 306 364
#     4  12  28  48  67  92 126 167 204 257 329 387
#     4  11  19  30  55  91 124 164 207 255 303 360
#     4  12  28  48  67  92 126 167 204 257 329 387
#     4  11  21  42  66  91 132 166 210 256 315 367
#     4  11  21  42  66  91 132 166 210 256 315 367
#     4  11  19  30  55  91 124 164 207 255 303 360
#
# _framework density 21.574881000000001
#
# number of rings (size 3 to 8) (size 9 to 14) (size 15 to 20)
#    0.000    1.000    6.667    2.000    4.667    0.000 
#    0.000    5.833    0.000    0.000    0.000    0.000 
#    0.000    0.000    0.000    0.000    0.000    0.000 
#
# Total GULP energy -133892.391050 kJ/mol
# GULP energy per Si atom -5578.849627 kJ/mol
# Density = 2.152578 g / cm^3
# Si number density = 21.574881 Si / 1000 Ang^3
#
#
#
# Elastic Constant Matrix: (Units=GPa)
#
#
# Indices 1 2 3 4 5 6 
#
# 1 74.0986 32.6742 -7.3998 0.0000 0.0000 0.0000
# 2 32.6742 77.5082 26.8401 0.0000 0.0000 0.0000
# 3 -7.3998 26.8401 97.4490 0.0000 0.0000 0.0000
# 4 0.0000 0.0000 0.0000 21.8995 0.0000 0.0000
# 5 0.0000 0.0000 0.0000 0.0000 -7.4448 0.0000
# 6 0.0000 0.0000 0.0000 0.0000 0.0000 28.3421
#
#
#
# Elastic Compliance Matrix: (Units=1/GPa)
#
#
# Indices 1 2 3 4 5 6 
#
# 1 0.017746 -0.008785 0.003767 0.000000 0.000000 0.000000
# 2 -0.008785 0.018612 -0.005793 0.000000 0.000000 0.000000
# 3 0.003767 -0.005793 0.012143 0.000000 0.000000 0.000000
# 4 0.000000 0.000000 0.000000 0.045663 0.000000 0.000000
# 5 0.000000 0.000000 0.000000 0.000000 -0.134322 0.000000
# 6 0.000000 0.000000 0.000000 0.000000 0.000000 0.035283
#
#
# Mechanical properties :
#
#
# Convention : Reuss Voigt Hill
#
# Bulk Modulus (GPa) = 37.20519 39.25384 38.22952
# Shear Modulus (GPa) = 194.49881 21.68879 108.09380
#
# Velocity S-wave (km/s) = 9.50507 3.17405 7.08593
# Velocity P-wave (km/s) = 11.73643 5.62730 9.20354
#
# Compressibility (1/GPa) = 0.02687797
#
# Stress axis : x y z
#
# Youngs Moduli (GPa) = 56.35163 53.73016 82.34891
#
# Poissons Ratio (x) = 0.47204 -0.31023
# Poissons Ratio (y) = 0.49507 0.47707
# Poissons Ratio (z) = -0.21229 0.31127
#
# Static dielectric constant tensor:
#      x y z
#    x 1.951820 0.000000 0.000000 
#    y 0.000000 1.800080 0.000000 
#    z 0.000000 0.000000 1.810630 
# 
# From -- ./inp_files/3268.got.cif
#   From: 2010.05.17/outbox.cif.g08.bks.cpg/sg39_2_cif.got.tgz:3268.got - 2010.06.03 18:22:40.
