data_PCOD9361549
_publ_section_title
;
Structure prediction by ZEFSAII (Michael W. Deem and Ramdas Pophale) SiO2 
 PCOD9361549
Probable space group: A B M 2
;
_chemical_formula_sum "Si O2"
_cell_formula_units_Z 64
_cell_length_a 11.957771
_cell_length_b 17.028031
_cell_length_c 15.037672
_cell_angle_alpha 90.000000
_cell_angle_beta 90.000000
_cell_angle_gamma 90.000000
_cell_volume 3061.930100
_symmetry_space_group_name_H-M "A B M 2"
_symmetry_group_IT_number 39
_symmetry_cell_setting 'orthorhombic'
loop_
_space_group_symop_operation_xyz
x,y,z
-x,-y,z
-x,1/2+y,z
x,1/2-y,z
x,1/2+y,1/2+z
-x,1/2-y,1/2+z
-x,y,1/2+z
x,-y,1/2+z
loop_
_atom_site_type_symbol
_atom_site_label
_atom_site_fract_x
_atom_site_fract_y
_atom_site_fract_z
Si Si1 0.793812 0.339504 0.639480
Si Si2 0.050251 0.837242 0.464369
Si Si3 0.770471 0.583157 0.861215
Si Si4 0.155510 0.448119 0.498638
Si Si5 0.128879 0.505857 0.701897
Si Si6 0.538727 0.654866 0.127512
Si Si7 0.631270 0.655817 0.477428
Si Si8 0.532965 0.845046 0.824173
O O1 0.788762 0.250000 0.673458
O O2 0.876975 0.340413 0.555391
O O3 0.835728 0.403465 0.708767
O O4 0.668418 0.364755 0.612549
O O5 0.999348 0.750000 0.458805
O O6 0.139410 0.850040 0.385874
O O7 0.958736 0.906012 0.467404
O O8 0.796725 0.547842 0.764859
O O9 0.644613 0.615170 0.862400
O O10 0.800738 0.516340 0.933506
O O11 0.140109 0.479943 0.598883
O O12 0.251012 0.382686 0.495881
O O13 0.000000 0.500000 0.728902
O O14 0.534881 0.750000 0.126029
O O15 0.457488 0.626670 0.050637
O O16 0.493513 0.630163 0.223580
O O17 0.639751 0.750000 0.482930
O O18 0.575389 0.635965 0.383182
O O19 0.548401 0.750000 0.827040
#
# Coordination Sequence:
#
# PCOD9361549 Si02
#       8
#     8   8   8   8   8   8   8   8
#     4  10  21  41  70  96 122 172 225 265 324 393
#     4  11  22  44  72  96 128 175 225 272 325 395
#     4  12  25  42  66  98 132 174 218 272 332 399
#     4  12  24  43  62  95 137 170 217 276 339 388
#     4  12  24  44  65  96 137 174 211 273 346 393
#     4   9  19  39  65  92 123 160 212 270 318 378
#     4  10  22  40  63  90 125 173 219 266 324 390
#     4  10  22  43  66  93 130 171 220 272 325 390
#
# _framework density 20.901848000000001
#
# number of rings (size 3 to 8) (size 9 to 14) (size 15 to 20)
#    0.000    1.250    2.500    3.375    1.750    2.500 
#    0.000    6.250    0.000    0.000    0.000    0.000 
#    0.000    0.000    0.000    0.000    0.000    0.000 
#
# Total GULP energy -178926.169438 kJ/mol
# GULP energy per Si atom -5591.442795 kJ/mol
# Density = 2.085427 g / cm^3
# Si number density = 20.901848 Si / 1000 Ang^3
#
#
#
# Elastic Constant Matrix: (Units=GPa)
#
#
# Indices 1 2 3 4 5 6 
#
# 1 91.8424 13.0359 -19.2560 0.0000 0.0000 0.0000
# 2 13.0359 56.4633 4.0411 0.0000 0.0000 0.0000
# 3 -19.2560 4.0411 46.2329 0.0000 0.0000 0.0000
# 4 0.0000 0.0000 0.0000 9.5838 0.0000 0.0000
# 5 0.0000 0.0000 0.0000 0.0000 17.7236 0.0000
# 6 0.0000 0.0000 0.0000 0.0000 0.0000 37.3622
#
#
#
# Elastic Compliance Matrix: (Units=1/GPa)
#
#
# Indices 1 2 3 4 5 6 
#
# 1 0.012506 -0.003281 0.005496 0.000000 0.000000 0.000000
# 2 -0.003281 0.018683 -0.002999 0.000000 0.000000 0.000000
# 3 0.005496 -0.002999 0.024181 0.000000 0.000000 0.000000
# 4 0.000000 0.000000 0.000000 0.104343 0.000000 0.000000
# 5 0.000000 0.000000 0.000000 0.000000 0.056422 0.000000
# 6 0.000000 0.000000 0.000000 0.000000 0.000000 0.026765
#
#
# Mechanical properties :
#
#
# Convention : Reuss Voigt Hill
#
# Bulk Modulus (GPa) = 18.58721 21.13117 19.85919
# Shear Modulus (GPa) = 19.05475 26.04843 22.55159
#
# Velocity S-wave (km/s) = 3.02260 3.53402 3.28827
# Velocity P-wave (km/s) = 4.59275 5.17533 4.89272
#
# Compressibility (1/GPa) = 0.05380044
#
# Stress axis : x y z
#
# Youngs Moduli (GPa) = 79.96109 53.52549 41.35535
#
# Poissons Ratio (x) = 0.17560 -0.22727
# Poissons Ratio (y) = 0.26232 0.12404
# Poissons Ratio (z) = -0.43943 0.16054
#
# Static dielectric constant tensor:
#      x y z
#    x 1.726170 0.000000 0.000000 
#    y 0.000000 1.777980 0.000000 
#    z 0.000000 0.000000 1.737900 
# 
# From -- ./inp_files/9454.got.cif
#   From: 2010.05.17/outbox.cif.g08.bks.cpg/sg39_5_cif.got.tgz:9454.got - 2010.06.03 18:22:40.
