data_PCOD9361650
_publ_section_title
;
Structure prediction by ZEFSAII (Michael W. Deem and Ramdas Pophale) SiO2 
 PCOD9361650
Probable space group: A B M 2
;
_chemical_formula_sum "Si O2"
_cell_formula_units_Z 64
_cell_length_a 12.321383
_cell_length_b 16.749929
_cell_length_c 14.642470
_cell_angle_alpha 90.000000
_cell_angle_beta 90.000000
_cell_angle_gamma 90.000000
_cell_volume 3021.946496
_symmetry_space_group_name_H-M "A B M 2"
_symmetry_group_IT_number 39
_symmetry_cell_setting 'orthorhombic'
loop_
_space_group_symop_operation_xyz
x,y,z
-x,-y,z
-x,1/2+y,z
x,1/2-y,z
x,1/2+y,1/2+z
-x,1/2-y,1/2+z
-x,y,1/2+z
x,-y,1/2+z
loop_
_atom_site_type_symbol
_atom_site_label
_atom_site_fract_x
_atom_site_fract_y
_atom_site_fract_z
Si Si1 0.563832 0.341751 0.142520
Si Si2 0.603276 0.586973 0.013447
Si Si3 0.831805 0.344713 0.564866
Si Si4 0.515858 0.904466 0.330081
Si Si5 0.087126 0.565035 0.386827
Si Si6 0.003659 0.654012 0.207637
Si Si7 0.273836 0.450573 0.411529
Si Si8 0.804191 0.843322 0.567413
O O1 0.538297 0.250000 0.115192
O O2 0.531387 0.355718 0.246605
O O3 0.690531 0.354009 0.121255
O O4 0.490945 0.403545 0.086504
O O5 0.706714 0.631329 0.055758
O O6 0.550871 0.620681 0.920139
O O7 0.648567 0.501777 0.979616
O O8 0.843667 0.250000 0.562615
O O9 0.886344 0.380600 0.473865
O O10 0.892302 0.372350 0.657564
O O11 0.644687 0.899276 0.349488
O O12 0.500000 0.000000 0.314138
O O13 0.037095 0.611632 0.301136
O O14 0.197643 0.515947 0.362963
O O15 0.000000 0.500000 0.415977
O O16 0.001114 0.750000 0.222054
O O17 0.097084 0.635850 0.133431
O O18 0.202117 0.394822 0.476002
O O19 0.814214 0.750000 0.543896
#
# Coordination Sequence:
#
# PCOD9361650 Si02
#       8
#     8   8   8   8   8   8   8   8
#     4  11  24  37  60  93 124 167 212 262 323 384
#     4  10  22  41  63  94 128 165 218 270 324 391
#     4  10  22  42  68  93 125 172 216 267 331 389
#     4  10  23  38  58  90 126 164 213 266 324 385
#     4  11  24  40  64  97 128 164 220 269 321 392
#     4  10  23  42  63  92 128 167 213 268 324 385
#     4  10  22  40  63  91 126 171 211 266 331 385
#     4  10  22  39  61  88 123 166 213 259 319 384
#
# _framework density 21.178401999999998
#
# number of rings (size 3 to 8) (size 9 to 14) (size 15 to 20)
#    0.000    1.750    1.250    1.500    7.000    5.000 
#    0.000    0.625    0.000    0.000    0.000    0.000 
#    0.000    0.000    0.000    0.000    0.000    0.000 
#
# Total GULP energy -178768.249449 kJ/mol
# GULP energy per Si atom -5586.507795 kJ/mol
# Density = 2.113020 g / cm^3
# Si number density = 21.178402 Si / 1000 Ang^3
#
#
#
# Elastic Constant Matrix: (Units=GPa)
#
#
# Indices 1 2 3 4 5 6 
#
# 1 98.6527 22.5235 23.1673 0.0000 0.0000 0.0000
# 2 22.5235 31.6892 7.9828 0.0000 0.0000 0.0000
# 3 23.1673 7.9828 69.6425 0.0000 0.0000 0.0000
# 4 0.0000 0.0000 0.0000 28.2316 0.0000 0.0000
# 5 0.0000 0.0000 0.0000 0.0000 16.5722 0.0000
# 6 0.0000 0.0000 0.0000 0.0000 0.0000 25.7802
#
#
#
# Elastic Compliance Matrix: (Units=1/GPa)
#
#
# Indices 1 2 3 4 5 6 
#
# 1 0.012801 -0.008264 -0.003311 0.000000 0.000000 0.000000
# 2 -0.008264 0.037830 -0.001587 0.000000 0.000000 0.000000
# 3 -0.003311 -0.001587 0.015642 0.000000 0.000000 0.000000
# 4 0.000000 0.000000 0.000000 0.035421 0.000000 0.000000
# 5 0.000000 0.000000 0.000000 0.000000 0.060342 0.000000
# 6 0.000000 0.000000 0.000000 0.000000 0.000000 0.038789
#
#
# Mechanical properties :
#
#
# Convention : Reuss Voigt Hill
#
# Bulk Modulus (GPa) = 25.03213 34.14795 29.59004
# Shear Modulus (GPa) = 20.79282 23.87086 22.33184
#
# Velocity S-wave (km/s) = 3.13676 3.36092 3.25077
# Velocity P-wave (km/s) = 4.99643 5.58749 5.30020
#
# Compressibility (1/GPa) = 0.03994865
#
# Stress axis : x y z
#
# Youngs Moduli (GPa) = 78.11905 26.43385 63.92874
#
# Poissons Ratio (x) = 0.21846 0.21167
# Poissons Ratio (y) = 0.64560 0.10146
# Poissons Ratio (z) = 0.25866 0.04195
#
# Static dielectric constant tensor:
#      x y z
#    x 1.807780 0.000000 0.000000 
#    y 0.000000 1.761520 0.000000 
#    z 0.000000 0.000000 1.737390 
# 
# From -- ./inp_files/9452.got.cif
#   From: 2010.05.17/outbox.cif.g08.bks.cpg/sg39_5_cif.got.tgz:9452.got - 2010.06.03 18:22:40.
