data_PCOD9361842
_publ_section_title
;
Structure prediction by ZEFSAII (Michael W. Deem and Ramdas Pophale) SiO2 
 PCOD9361842
Probable space group: A B M 2
;
_chemical_formula_sum "Si O2"
_cell_formula_units_Z 56
_cell_length_a 19.957174
_cell_length_b 8.584436
_cell_length_c 16.289491
_cell_angle_alpha 90.000000
_cell_angle_beta 90.000000
_cell_angle_gamma 90.000000
_cell_volume 2790.733239
_symmetry_space_group_name_H-M "A B M 2"
_symmetry_group_IT_number 39
_symmetry_cell_setting 'orthorhombic'
loop_
_space_group_symop_operation_xyz
x,y,z
-x,-y,z
-x,1/2+y,z
x,1/2-y,z
x,1/2+y,1/2+z
-x,1/2-y,1/2+z
-x,y,1/2+z
x,-y,1/2+z
loop_
_atom_site_type_symbol
_atom_site_label
_atom_site_fract_x
_atom_site_fract_y
_atom_site_fract_z
Si Si1 0.285059 0.064298 0.052020
Si Si2 0.569969 0.062895 0.803780
Si Si3 0.151475 0.564981 0.116192
Si Si4 0.841257 0.938481 0.797492
Si Si5 0.287399 0.936819 0.874243
Si Si6 0.075002 0.063826 0.957793
Si Si7 0.570148 0.437309 0.612538
O O1 0.281062 0.250000 0.064790
O O2 0.361109 0.011765 0.069992
O O3 0.229364 0.981442 0.106777
O O4 0.268943 0.021126 0.958615
O O5 0.567832 0.250000 0.805322
O O6 0.637826 0.013703 0.848440
O O7 0.574139 0.013679 0.708209
O O8 0.500000 0.000000 0.838389
O O9 0.144369 0.750000 0.108035
O O10 0.129602 0.518786 0.208229
O O11 0.112110 0.487971 0.041009
O O12 0.834898 0.750000 0.799633
O O13 0.885482 0.988839 0.875675
O O14 0.768140 0.013409 0.808724
O O15 0.286392 0.750000 0.884659
O O16 0.073659 0.250000 0.955999
O O17 0.000000 0.000000 0.957110
O O18 0.500000 0.500000 0.578041
O O19 0.567892 0.250000 0.609687
#
# Coordination Sequence:
#
# PCOD9361842 Si02
#       7
#     8   8   8   8   8   8   8
#     4  11  22  37  57  84 120 160 203 257 314 367
#     4   9  19  35  53  77 108 148 199 252 308 368
#     4  11  23  41  66  97 128 165 210 257 307 367
#     4  10  23  42  65  94 129 165 207 254 307 367
#     4  11  22  36  58  86 118 157 206 257 307 368
#     4  11  24  44  68  96 132 169 204 252 304 362
#     4   9  19  35  54  76 108 150 199 253 310 370
#
# _framework density 20.066412
#
# number of rings (size 3 to 8) (size 9 to 14) (size 15 to 20)
#    0.000    1.714    1.429    2.571    0.000    6.286 
#    0.000    7.143    0.000    0.000    0.000    0.000 
#    0.000    0.000    0.000    0.000    0.000    0.000 
#
# Total GULP energy -156420.095664 kJ/mol
# GULP energy per Si atom -5586.431988 kJ/mol
# Density = 2.002074 g / cm^3
# Si number density = 20.066412 Si / 1000 Ang^3
#
#
#
# Elastic Constant Matrix: (Units=GPa)
#
#
# Indices 1 2 3 4 5 6 
#
# 1 123.9369 18.3788 47.8799 0.0000 0.0000 0.0000
# 2 18.3788 20.6252 19.4135 0.0000 0.0000 0.0000
# 3 47.8799 19.4135 114.1797 0.0000 0.0000 0.0000
# 4 0.0000 0.0000 0.0000 21.6343 0.0000 0.0000
# 5 0.0000 0.0000 0.0000 0.0000 17.4675 0.0000
# 6 0.0000 0.0000 0.0000 0.0000 0.0000 36.0331
#
#
#
# Elastic Compliance Matrix: (Units=1/GPa)
#
#
# Indices 1 2 3 4 5 6 
#
# 1 0.010224 -0.006042 -0.003260 0.000000 0.000000 0.000000
# 2 -0.006042 0.061292 -0.007888 0.000000 0.000000 0.000000
# 3 -0.003260 -0.007888 0.011466 0.000000 0.000000 0.000000
# 4 0.000000 0.000000 0.000000 0.046223 0.000000 0.000000
# 5 0.000000 0.000000 0.000000 0.000000 0.057249 0.000000
# 6 0.000000 0.000000 0.000000 0.000000 0.000000 0.027752
#
#
# Mechanical properties :
#
#
# Convention : Reuss Voigt Hill
#
# Bulk Modulus (GPa) = 20.57468 47.78736 34.18102
# Shear Modulus (GPa) = 18.88305 26.56495 22.72400
#
# Velocity S-wave (km/s) = 3.07095 3.64242 3.36883
# Velocity P-wave (km/s) = 4.78015 6.44639 5.67476
#
# Compressibility (1/GPa) = 0.04860343
#
# Stress axis : x y z
#
# Youngs Moduli (GPa) = 97.80877 16.31523 87.21226
#
# Poissons Ratio (x) = 0.09858 0.28432
# Poissons Ratio (y) = 0.59096 0.68790
# Poissons Ratio (z) = 0.31886 0.12869
#
# Static dielectric constant tensor:
#      x y z
#    x 1.700190 0.000000 0.000000 
#    y 0.000000 1.676060 0.000000 
#    z 0.000000 0.000000 1.730330 
# 
# From -- ./inp_files/10356.got.cif
#   From: 2010.05.17/outbox.cif.g08.bks.cpg/sg39_6_cif.got.tgz:10356.got - 2010.06.03 18:22:40.
