data_PCOD9361538
_publ_section_title
;
Structure prediction by ZEFSAII (Michael W. Deem and Ramdas Pophale) SiO2 
 PCOD9361538
Probable space group: A B M 2
;
_chemical_formula_sum "Si O2"
_cell_formula_units_Z 56
_cell_length_a 5.698615
_cell_length_b 14.780079
_cell_length_c 27.633374
_cell_angle_alpha 90.000000
_cell_angle_beta 90.000000
_cell_angle_gamma 90.000000
_cell_volume 2327.448003
_symmetry_space_group_name_H-M "A B M 2"
_symmetry_group_IT_number 39
_symmetry_cell_setting 'orthorhombic'
loop_
_space_group_symop_operation_xyz
x,y,z
-x,-y,z
-x,1/2+y,z
x,1/2-y,z
x,1/2+y,1/2+z
-x,1/2-y,1/2+z
-x,y,1/2+z
x,-y,1/2+z
loop_
_atom_site_type_symbol
_atom_site_label
_atom_site_fract_x
_atom_site_fract_y
_atom_site_fract_z
Si Si1 0.905619 0.398571 0.815590
Si Si2 0.000000 0.000000 0.568618
Si Si3 0.363637 0.910163 0.496581
Si Si4 0.605913 0.642936 0.182296
Si Si5 0.216329 0.849501 0.394420
Si Si6 0.103290 0.646685 0.216571
Si Si7 0.500000 0.500000 0.337511
Si Si8 0.351234 0.850185 0.085556
O O1 0.045020 0.349446 0.773592
O O2 0.634454 0.421773 0.807661
O O3 0.000000 0.500000 0.813033
O O4 0.961584 0.357938 0.868354
O O5 0.166609 0.070555 0.595639
O O6 0.836272 0.058254 0.533270
O O7 0.245962 0.859674 0.451721
O O8 0.548532 0.859415 0.531284
O O9 0.500000 0.000000 0.478860
O O10 0.618783 0.750000 0.196740
O O11 0.861367 0.604098 0.195695
O O12 0.557971 0.639091 0.124847
O O13 0.360648 0.606766 0.205214
O O14 0.309734 0.750000 0.380796
O O15 0.344631 0.936209 0.371875
O O16 0.117003 0.750000 0.197734
O O17 0.249019 0.750000 0.091274
#
# Coordination Sequence:
#
# PCOD9361538 Si02
#       8
#     8   4   8   8   8   8   4   8
#     4  10  24  41  61  92 130 176 224 285 344 410
#     4  10  24  40  66  96 134 178 220 286 340 404
#     4  10  22  41  64  95 137 173 220 279 338 406
#     4   9  21  39  66  97 135 181 230 289 348 410
#     4  11  23  40  68 100 130 176 225 273 344 415
#     4  10  21  41  66  97 133 176 233 291 348 414
#     4  10  24  44  64  90 140 172 216 286 344 406
#     4  10  22  42  66  99 137 182 230 280 344 413
#
# _framework density 24.060690000000001
#
# number of rings (size 3 to 8) (size 9 to 14) (size 15 to 20)
#    0.000    2.000    0.714    0.857    9.000    2.286 
#    1.286    0.000    0.000    0.000    0.000    0.000 
#    0.000    0.000    0.000    0.000    0.000    0.000 
#
# Total GULP energy -156169.748786 kJ/mol
# GULP energy per Si atom -5577.491028 kJ/mol
# Density = 2.400593 g / cm^3
# Si number density = 24.060690 Si / 1000 Ang^3
#
#
#
# Elastic Constant Matrix: (Units=GPa)
#
#
# Indices 1 2 3 4 5 6 
#
# 1 119.7953 26.4955 44.4848 0.0000 0.0000 0.0000
# 2 26.4955 105.8309 22.2201 0.0000 0.0000 0.0000
# 3 44.4848 22.2201 113.0160 0.0000 0.0000 0.0000
# 4 0.0000 0.0000 0.0000 19.8324 0.0000 0.0000
# 5 0.0000 0.0000 0.0000 0.0000 27.4454 0.0000
# 6 0.0000 0.0000 0.0000 0.0000 0.0000 14.5414
#
#
#
# Elastic Compliance Matrix: (Units=1/GPa)
#
#
# Indices 1 2 3 4 5 6 
#
# 1 0.010083 -0.001764 -0.003622 0.000000 0.000000 0.000000
# 2 -0.001764 0.010164 -0.001304 0.000000 0.000000 0.000000
# 3 -0.003622 -0.001304 0.010530 0.000000 0.000000 0.000000
# 4 0.000000 0.000000 0.000000 0.050423 0.000000 0.000000
# 5 0.000000 0.000000 0.000000 0.000000 0.036436 0.000000
# 6 0.000000 0.000000 0.000000 0.000000 0.000000 0.068769
#
#
# Mechanical properties :
#
#
# Convention : Reuss Voigt Hill
#
# Bulk Modulus (GPa) = 57.47893 58.33810 57.90852
# Shear Modulus (GPa) = 24.32096 28.72663 26.52379
#
# Velocity S-wave (km/s) = 3.18278 3.45907 3.32380
# Velocity P-wave (km/s) = 6.11946 6.34448 6.23299
#
# Compressibility (1/GPa) = 0.01739768
#
# Stress axis : x y z
#
# Youngs Moduli (GPa) = 99.18043 98.38217 94.96358
#
# Poissons Ratio (x) = 0.17353 0.34395
# Poissons Ratio (y) = 0.17494 0.12385
# Poissons Ratio (z) = 0.35922 0.12831
#
# Static dielectric constant tensor:
#      x y z
#    x 2.232970 0.000000 0.000000 
#    y 0.000000 1.914890 0.000000 
#    z 0.000000 0.000000 1.913890 
# 
# From -- ./inp_files/17300.got.cif
#   From: 2010.05.17/outbox.cif.g08.bks.cpg/sg39_9_cif.got.tgz:17300.got - 2010.06.03 18:22:40.
