data_PCOD9361375
_publ_section_title
;
Structure prediction by ZEFSAII (Michael W. Deem and Ramdas Pophale) SiO2 
 PCOD9361375
Probable space group: A B M 2
;
_chemical_formula_sum "Si O2"
_cell_formula_units_Z 64
_cell_length_a 17.533154
_cell_length_b 11.834016
_cell_length_c 13.287997
_cell_angle_alpha 90.000000
_cell_angle_beta 90.000000
_cell_angle_gamma 90.000000
_cell_volume 2757.094938
_symmetry_space_group_name_H-M "A B M 2"
_symmetry_group_IT_number 39
_symmetry_cell_setting 'orthorhombic'
loop_
_space_group_symop_operation_xyz
x,y,z
-x,-y,z
-x,1/2+y,z
x,1/2-y,z
x,1/2+y,1/2+z
-x,1/2-y,1/2+z
-x,y,1/2+z
x,-y,1/2+z
loop_
_atom_site_type_symbol
_atom_site_label
_atom_site_fract_x
_atom_site_fract_y
_atom_site_fract_z
Si Si1 0.290609 0.597436 0.978170
Si Si2 0.209390 0.402564 0.683394
Si Si3 0.203349 0.132133 0.271495
Si Si4 0.959175 0.878667 0.378385
Si Si5 0.703350 0.867867 0.890070
Si Si6 0.459834 0.377221 0.544636
Si Si7 0.459176 0.121333 0.783181
Si Si8 0.040166 0.377220 0.616930
O O1 0.256003 0.634061 0.871169
O O2 0.278237 0.464677 0.966912
O O3 0.249999 0.635094 0.080782
O O4 0.379760 0.622795 0.986766
O O5 0.221762 0.535323 0.694652
O O6 0.243998 0.365940 0.790394
O O7 0.120240 0.377205 0.674800
O O8 0.209379 0.250000 0.217894
O O9 0.118548 0.117781 0.315661
O O10 0.993588 0.750000 0.360796
O O11 0.942641 0.880489 0.497621
O O12 0.000000 0.000000 0.358790
O O13 0.709380 0.750000 0.943671
O O14 0.618547 0.882218 0.845906
O O15 0.500000 0.500000 0.524220
O O16 0.496270 0.250000 0.527580
O O17 0.442641 0.380489 0.663945
O O18 0.493589 0.250000 0.800770
O O19 0.500000 0.000000 0.802776
O O20 0.003730 0.250000 0.633986
O O21 0.000000 0.500000 0.637347
#
# Coordination Sequence:
#
# PCOD9361375 Si02
#       8
#     8   8   8   8   8   8   8   8
#     4  11  22  39  64  91 123 161 208 259 309 370
#     4  11  22  39  64  91 123 161 208 259 309 370
#     4  10  22  39  61  91 124 162 209 258 311 368
#     4   9  18  36  61  88 122 162 205 255 305 363
#     4  10  22  39  61  91 124 162 209 258 311 368
#     4  10  21  38  64  92 121 162 209 255 308 371
#     4   9  18  36  61  88 122 162 205 255 305 363
#     4  10  21  38  64  92 121 162 209 255 308 371
#
# _framework density 23.212838999999999
#
# number of rings (size 3 to 8) (size 9 to 14) (size 15 to 20)
#    0.000    2.000    2.500    0.750    0.000    3.500 
#    0.000    8.750    0.000    0.000    0.000    0.000 
#    0.000    0.000    0.000    0.000    0.000    0.000 
#
# Total GULP energy -178323.164655 kJ/mol
# GULP energy per Si atom -5572.598895 kJ/mol
# Density = 2.316001 g / cm^3
# Si number density = 23.212839 Si / 1000 Ang^3
#
#
#
# Elastic Constant Matrix: (Units=GPa)
#
#
# Indices 1 2 3 4 5 6 
#
# 1 51.2597 51.1708 5.2348 0.0000 0.0000 0.0000
# 2 51.1708 265.0234 34.9724 0.0000 0.0000 0.0000
# 3 5.2348 34.9724 102.1536 0.0000 0.0000 0.0000
# 4 0.0000 0.0000 0.0000 138.1912 0.0000 0.0000
# 5 0.0000 0.0000 0.0000 0.0000 4.2796 0.0000
# 6 0.0000 0.0000 0.0000 0.0000 0.0000 47.7527
#
#
#
# Elastic Compliance Matrix: (Units=1/GPa)
#
#
# Indices 1 2 3 4 5 6 
#
# 1 0.024180 -0.004718 0.000376 0.000000 0.000000 0.000000
# 2 -0.004718 0.004872 -0.001426 0.000000 0.000000 0.000000
# 3 0.000376 -0.001426 0.010258 0.000000 0.000000 0.000000
# 4 0.000000 0.000000 0.000000 0.007236 0.000000 0.000000
# 5 0.000000 0.000000 0.000000 0.000000 0.233668 0.000000
# 6 0.000000 0.000000 0.000000 0.000000 0.000000 0.020941
#
#
# Mechanical properties :
#
#
# Convention : Reuss Voigt Hill
#
# Bulk Modulus (GPa) = 36.00481 66.79920 51.40200
# Shear Modulus (GPa) = 15.53028 59.84860 37.68944
#
# Velocity S-wave (km/s) = 2.58938 5.08316 4.03382
# Velocity P-wave (km/s) = 4.94816 7.95554 6.62476
#
# Compressibility (1/GPa) = 0.02777407
#
# Stress axis : x y z
#
# Youngs Moduli (GPa) = 41.35596 205.23355 97.48298
#
# Poissons Ratio (x) = 0.96837 -0.03668
# Poissons Ratio (y) = 0.19513 0.13904
# Poissons Ratio (z) = -0.01556 0.29273
#
# Static dielectric constant tensor:
#      x y z
#    x 1.848590 0.000000 0.000000 
#    y 0.000000 1.973070 0.000000 
#    z 0.000000 0.000000 1.816900 
# 
# From -- ./inp_files/10191.got.cif
#   From: 2010.05.17/outbox.cif.g08.bks.cpg/sg39_6_cif.got.tgz:10191.got - 2010.06.03 18:22:40.
