data_PCOD9361521
_publ_section_title
;
Structure prediction by ZEFSAII (Michael W. Deem and Ramdas Pophale) SiO2 
 PCOD9361521
Probable space group: A B M 2
;
_chemical_formula_sum "Si O2"
_cell_formula_units_Z 64
_cell_length_a 21.834046
_cell_length_b 14.199231
_cell_length_c 9.140442
_cell_angle_alpha 90.000000
_cell_angle_beta 90.000000
_cell_angle_gamma 90.000000
_cell_volume 2833.780730
_symmetry_space_group_name_H-M "A B M 2"
_symmetry_group_IT_number 39
_symmetry_cell_setting 'orthorhombic'
loop_
_space_group_symop_operation_xyz
x,y,z
-x,-y,z
-x,1/2+y,z
x,1/2-y,z
x,1/2+y,1/2+z
-x,1/2-y,1/2+z
-x,y,1/2+z
x,-y,1/2+z
loop_
_atom_site_type_symbol
_atom_site_label
_atom_site_fract_x
_atom_site_fract_y
_atom_site_fract_z
Si Si1 0.291331 0.647486 0.488830
Si Si2 0.611548 0.861530 0.219492
Si Si3 0.023988 0.395379 0.178003
Si Si4 0.854889 0.544606 0.332352
Si Si5 0.569213 0.482663 0.998127
Si Si6 0.348096 0.142230 0.682097
Si Si7 0.915886 0.846823 0.882405
Si Si8 0.772014 0.030590 0.071440
O O1 0.261376 0.750000 0.473969
O O2 0.320029 0.642021 0.651699
O O3 0.340904 0.643499 0.357527
O O4 0.252548 0.554459 0.471241
O O5 0.593287 0.750000 0.240554
O O6 0.603172 0.929267 0.360832
O O7 0.580558 0.918220 0.084611
O O8 0.083821 0.402279 0.281642
O O9 0.000000 0.500000 0.141028
O O10 0.966102 0.350912 0.255762
O O11 0.046203 0.348698 0.031250
O O12 0.877783 0.441586 0.381346
O O13 0.810282 0.522062 0.197205
O O14 0.818378 0.588582 0.468500
O O15 0.500000 0.500000 0.948423
O O16 0.591213 0.410051 0.125753
O O17 0.347866 0.250000 0.630092
O O18 0.287253 0.088406 0.624149
O O19 0.879312 0.750000 0.870177
#
# Coordination Sequence:
#
# PCOD9361521 Si02
#       8
#     8   8   8   8   8   8   8   8
#     4  10  23  44  71 101 137 186 235 285 353 428
#     4  11  25  45  72 106 142 184 237 291 353 430
#     4  10  21  41  63  89 128 178 223 273 344 414
#     4  11  24  40  66  95 133 177 227 279 344 420
#     4  12  26  47  74 105 145 190 236 298 362 424
#     4  11  25  46  75 107 143 188 239 294 362 437
#     4  11  23  40  64  93 129 172 224 285 343 405
#     4  12  23  43  68 100 136 181 228 285 354 420
#
# _framework density 22.584669000000002
#
# number of rings (size 3 to 8) (size 9 to 14) (size 15 to 20)
#    0.000    1.000    3.750    3.000    3.500    2.000 
#    0.000    3.750    0.000    0.000    0.000    0.000 
#    0.000    0.000    0.000    0.000    0.000    0.000 
#
# Total GULP energy -178393.472723 kJ/mol
# GULP energy per Si atom -5574.796023 kJ/mol
# Density = 2.253327 g / cm^3
# Si number density = 22.584669 Si / 1000 Ang^3
#
#
#
# Elastic Constant Matrix: (Units=GPa)
#
#
# Indices 1 2 3 4 5 6 
#
# 1 61.2097 16.1542 12.1746 0.0000 0.0000 0.0000
# 2 16.1542 110.2424 23.8533 0.0000 0.0000 0.0000
# 3 12.1746 23.8533 78.4136 0.0000 0.0000 0.0000
# 4 0.0000 0.0000 0.0000 -50.2423 0.0000 0.0000
# 5 0.0000 0.0000 0.0000 0.0000 10.0943 0.0000
# 6 0.0000 0.0000 0.0000 0.0000 0.0000 10.4555
#
#
#
# Elastic Compliance Matrix: (Units=1/GPa)
#
#
# Indices 1 2 3 4 5 6 
#
# 1 0.017297 -0.002091 -0.002049 0.000000 0.000000 0.000000
# 2 -0.002091 0.009963 -0.002706 0.000000 0.000000 0.000000
# 3 -0.002049 -0.002706 0.013894 0.000000 0.000000 0.000000
# 4 0.000000 0.000000 0.000000 -0.019904 0.000000 0.000000
# 5 0.000000 0.000000 0.000000 0.000000 0.099066 0.000000
# 6 0.000000 0.000000 0.000000 0.000000 0.000000 0.095644
#
#
# Mechanical properties :
#
#
# Convention : Reuss Voigt Hill
#
# Bulk Modulus (GPa) = 36.41557 39.35890 37.88723
# Shear Modulus (GPa) = 20.93742 7.24039 14.08891
#
# Velocity S-wave (km/s) = 3.04807 1.79244 2.50036
# Velocity P-wave (km/s) = 5.34291 4.66357 5.01476
#
# Compressibility (1/GPa) = 0.02746078
#
# Stress axis : x y z
#
# Youngs Moduli (GPa) = 57.81420 100.37296 71.97226
#
# Poissons Ratio (x) = 0.20989 0.14750
# Poissons Ratio (y) = 0.12090 0.19476
# Poissons Ratio (z) = 0.11848 0.27161
#
# Static dielectric constant tensor:
#      x y z
#    x 1.882990 0.000000 0.000000 
#    y 0.000000 1.841800 0.000000 
#    z 0.000000 0.000000 1.866990 
# 
# From -- ./inp_files/4103.got.cif
#   From: 2010.05.17/outbox.cif.g08.bks.cpg/sg39_3_cif.got.tgz:4103.got - 2010.06.03 18:22:40.
