data_PCOD9361911
_publ_section_title
;
Structure prediction by ZEFSAII (Michael W. Deem and Ramdas Pophale) SiO2 
 PCOD9361911
Probable space group: A B M 2
;
_chemical_formula_sum "Si O2"
_cell_formula_units_Z 48
_cell_length_a 11.430832
_cell_length_b 22.601919
_cell_length_c 9.371336
_cell_angle_alpha 90.000000
_cell_angle_beta 90.000000
_cell_angle_gamma 90.000000
_cell_volume 2421.166551
_symmetry_space_group_name_H-M "A B M 2"
_symmetry_group_IT_number 39
_symmetry_cell_setting 'orthorhombic'
loop_
_space_group_symop_operation_xyz
x,y,z
-x,-y,z
-x,1/2+y,z
x,1/2-y,z
x,1/2+y,1/2+z
-x,1/2-y,1/2+z
-x,y,1/2+z
x,-y,1/2+z
loop_
_atom_site_type_symbol
_atom_site_label
_atom_site_fract_x
_atom_site_fract_y
_atom_site_fract_z
Si Si1 0.348339 0.610929 0.042900
Si Si2 0.466552 0.431007 0.254146
Si Si3 0.834584 0.181938 0.884949
Si Si4 0.123850 0.543006 0.119626
Si Si5 0.784799 0.084155 0.644104
Si Si6 0.045273 0.395216 0.906095
O O1 0.431601 0.607312 0.179977
O O2 0.252232 0.560024 0.065400
O O3 0.426637 0.595576 0.905365
O O4 0.263017 0.666105 0.005319
O O5 0.500000 0.500000 0.270342
O O6 0.351931 0.428916 0.153441
O O7 0.825406 0.250000 0.844903
O O8 0.808973 0.135232 0.758871
O O9 0.968225 0.164186 0.922499
O O10 0.142345 0.476265 0.174574
O O11 0.079346 0.584677 0.247809
O O12 0.040022 0.558012 0.986550
O O13 0.834735 0.105641 0.493916
#
# Coordination Sequence:
#
# PCOD9361911 Si02
#       6
#     8   8   8   8   8   8
#     4  10  24  41  64 100 129 177 217 273 328 388
#     4  11  22  39  62  98 136 173 212 267 337 404
#     4  10  24  47  65  91 131 176 227 273 323 388
#     4  11  24  38  62  98 142 166 216 267 344 400
#     4  11  24  36  65  97 133 173 216 273 332 396
#     4  11  24  39  63  97 133 178 212 274 334 397
#
# _framework density 19.825154999999999
#
# number of rings (size 3 to 8) (size 9 to 14) (size 15 to 20)
#    0.000    1.333    3.333    1.000   11.667    0.667 
#    0.000    3.333    0.000    0.000    0.000    0.000 
#    0.000    0.000    0.000    0.000    0.000    0.000 
#
# Total GULP energy -133869.808968 kJ/mol
# GULP energy per Si atom -5577.908707 kJ/mol
# Density = 1.978003 g / cm^3
# Si number density = 19.825155 Si / 1000 Ang^3
#
#
#
# Elastic Constant Matrix: (Units=GPa)
#
#
# Indices 1 2 3 4 5 6 
#
# 1 25.5164 -5.6343 4.1297 0.0000 0.0000 0.0000
# 2 -5.6343 106.5947 8.3766 0.0000 0.0000 0.0000
# 3 4.1297 8.3766 80.3603 0.0000 0.0000 0.0000
# 4 0.0000 0.0000 0.0000 17.4904 0.0000 0.0000
# 5 0.0000 0.0000 0.0000 0.0000 47.6993 0.0000
# 6 0.0000 0.0000 0.0000 0.0000 0.0000 19.2274
#
#
#
# Elastic Compliance Matrix: (Units=1/GPa)
#
#
# Indices 1 2 3 4 5 6 
#
# 1 0.040070 0.002299 -0.002299 0.000000 0.000000 0.000000
# 2 0.002299 0.009591 -0.001118 0.000000 0.000000 0.000000
# 3 -0.002299 -0.001118 0.012679 0.000000 0.000000 0.000000
# 4 0.000000 0.000000 0.000000 0.057174 0.000000 0.000000
# 5 0.000000 0.000000 0.000000 0.000000 0.020965 0.000000
# 6 0.000000 0.000000 0.000000 0.000000 0.000000 0.052009
#
#
# Mechanical properties :
#
#
# Convention : Reuss Voigt Hill
#
# Bulk Modulus (GPa) = 16.63800 25.13503 20.88651
# Shear Modulus (GPa) = 23.28204 30.59005 26.93604
#
# Velocity S-wave (km/s) = 3.43062 3.93235 3.69003
# Velocity P-wave (km/s) = 4.90946 5.77267 5.35848
#
# Compressibility (1/GPa) = 0.06010339
#
# Stress axis : x y z
#
# Youngs Moduli (GPa) = 24.95629 104.26795 78.87297
#
# Poissons Ratio (x) = -0.23968 0.18131
# Poissons Ratio (y) = -0.05737 0.08817
# Poissons Ratio (z) = 0.05737 0.11656
#
# Static dielectric constant tensor:
#      x y z
#    x 1.759300 0.000000 0.000000 
#    y 0.000000 1.688990 0.000000 
#    z 0.000000 0.000000 1.727700 
# 
# From -- ./inp_files/2709.got.cif
#   From: 2010.05.17/outbox.cif.g08.bks.cpg/sg39_2_cif.got.tgz:2709.got - 2010.06.03 18:22:40.
