data_PCOD9361083
_publ_section_title
;
Structure prediction by ZEFSAII (Michael W. Deem and Ramdas Pophale) SiO2 
 PCOD9361083
Probable space group: A B M 2
;
_chemical_formula_sum "Si O2"
_cell_formula_units_Z 64
_cell_length_a 11.740802
_cell_length_b 23.848065
_cell_length_c 9.345995
_cell_angle_alpha 90.000000
_cell_angle_beta 90.000000
_cell_angle_gamma 90.000000
_cell_volume 2616.835695
_symmetry_space_group_name_H-M "A B M 2"
_symmetry_group_IT_number 39
_symmetry_cell_setting 'orthorhombic'
loop_
_space_group_symop_operation_xyz
x,y,z
-x,-y,z
-x,1/2+y,z
x,1/2-y,z
x,1/2+y,1/2+z
-x,1/2-y,1/2+z
-x,y,1/2+z
x,-y,1/2+z
loop_
_atom_site_type_symbol
_atom_site_label
_atom_site_fract_x
_atom_site_fract_y
_atom_site_fract_z
Si Si1 0.192211 0.391719 0.852530
Si Si2 0.036052 0.186058 0.034759
Si Si3 0.264374 0.812075 0.688524
Si Si4 0.576471 0.111590 0.852267
Si Si5 0.805479 0.980354 0.077340
Si Si6 0.049164 0.573820 0.108143
Si Si7 0.585032 0.455879 0.133467
Si Si8 0.370648 0.812366 0.367102
O O1 0.111132 0.430021 0.759187
O O2 0.295562 0.358217 0.782729
O O3 0.109912 0.342135 0.908661
O O4 0.244165 0.433578 0.970601
O O5 0.001546 0.250000 0.008641
O O6 0.128605 0.185627 0.163692
O O7 0.943941 0.138643 0.064748
O O8 0.290095 0.750000 0.749772
O O9 0.313711 0.865562 0.768967
O O10 0.321479 0.812938 0.529507
O O11 0.608659 0.086985 0.005194
O O12 0.494406 0.070501 0.758614
O O13 0.498296 0.166589 0.871730
O O14 0.919127 0.946139 0.128018
O O15 0.874047 0.033563 0.009823
O O16 0.700865 0.008473 0.164597
O O17 0.500000 0.500000 0.061802
O O18 0.358604 0.750000 0.309510
#
# Coordination Sequence:
#
# PCOD9361083 Si02
#       8
#     8   8   8   8   8   8   8   8
#     4  10  20  40  64  91 125 173 229 272 351 405
#     4   9  20  39  62  92 127 167 218 275 339 411
#     4   9  19  39  64  92 128 172 220 271 342 415
#     4  12  23  42  66  97 135 178 231 282 350 416
#     4  10  24  44  61  94 132 175 225 283 348 408
#     4  10  22  40  67  92 126 176 224 284 341 415
#     4  12  27  45  65  98 136 186 230 294 349 418
#     4  10  20  38  67  99 133 179 226 284 348 424
#
# _framework density 24.457018999999999
#
# number of rings (size 3 to 8) (size 9 to 14) (size 15 to 20)
#    0.000    1.750    1.250    3.375    3.500    6.000 
#    9.000    0.000    0.000    0.750    0.000    0.000 
#    0.000    0.000    0.000    0.000    0.000    0.000 
#
# Total GULP energy -178478.311176 kJ/mol
# GULP energy per Si atom -5577.447224 kJ/mol
# Density = 2.440135 g / cm^3
# Si number density = 24.457019 Si / 1000 Ang^3
#
#
#
# Elastic Constant Matrix: (Units=GPa)
#
#
# Indices 1 2 3 4 5 6 
#
# 1 69.3904 45.0918 -4.5081 0.0000 0.0000 0.0000
# 2 45.0918 166.7701 31.7660 0.0000 0.0000 0.0000
# 3 -4.5081 31.7660 39.0896 0.0000 0.0000 0.0000
# 4 0.0000 0.0000 0.0000 15.8396 0.0000 0.0000
# 5 0.0000 0.0000 0.0000 0.0000 19.0357 0.0000
# 6 0.0000 0.0000 0.0000 0.0000 0.0000 46.7133
#
#
#
# Elastic Compliance Matrix: (Units=1/GPa)
#
#
# Indices 1 2 3 4 5 6 
#
# 1 0.019228 -0.006651 0.007622 0.000000 0.000000 0.000000
# 2 -0.006651 0.009395 -0.008402 0.000000 0.000000 0.000000
# 3 0.007622 -0.008402 0.033289 0.000000 0.000000 0.000000
# 4 0.000000 0.000000 0.000000 0.063133 0.000000 0.000000
# 5 0.000000 0.000000 0.000000 0.000000 0.052533 0.000000
# 6 0.000000 0.000000 0.000000 0.000000 0.000000 0.021407
#
#
# Mechanical properties :
#
#
# Convention : Reuss Voigt Hill
#
# Bulk Modulus (GPa) = 21.25322 46.66103 33.95713
# Shear Modulus (GPa) = 21.78371 29.84445 25.81408
#
# Velocity S-wave (km/s) = 2.98769 3.49704 3.25235
# Velocity P-wave (km/s) = 4.53989 5.95197 5.29323
#
# Compressibility (1/GPa) = 0.04705169
#
# Stress axis : x y z
#
# Youngs Moduli (GPa) = 52.00645 106.44050 30.04001
#
# Poissons Ratio (x) = 0.70793 -0.22898
# Poissons Ratio (y) = 0.34589 0.25239
# Poissons Ratio (z) = -0.39641 0.89429
#
# Static dielectric constant tensor:
#      x y z
#    x 1.975510 0.000000 0.000000 
#    y 0.000000 2.002640 0.000000 
#    z 0.000000 0.000000 2.019240 
# 
# From -- ./inp_files/6078.got.cif
#   From: 2010.05.17/outbox.cif.g08.bks.cpg/sg39_4_cif.got.tgz:6078.got - 2010.06.03 18:22:40.
