data_PCOD9361855
_publ_section_title
;
Structure prediction by ZEFSAII (Michael W. Deem and Ramdas Pophale) SiO2 
 PCOD9361855
Probable space group: A B M 2
;
_chemical_formula_sum "Si O2"
_cell_formula_units_Z 32
_cell_length_a 16.362329
_cell_length_b 8.296255
_cell_length_c 9.892771
_cell_angle_alpha 90.000000
_cell_angle_beta 90.000000
_cell_angle_gamma 90.000000
_cell_volume 1342.904624
_symmetry_space_group_name_H-M "A B M 2"
_symmetry_group_IT_number 39
_symmetry_cell_setting 'orthorhombic'
loop_
_space_group_symop_operation_xyz
x,y,z
-x,-y,z
-x,1/2+y,z
x,1/2-y,z
x,1/2+y,1/2+z
-x,1/2-y,1/2+z
-x,y,1/2+z
x,-y,1/2+z
loop_
_atom_site_type_symbol
_atom_site_label
_atom_site_fract_x
_atom_site_fract_y
_atom_site_fract_z
Si Si1 0.165814 0.431758 0.992700
Si Si2 0.898679 0.250000 0.080634
Si Si3 0.025600 0.250000 0.858260
Si Si4 0.412008 0.440069 0.059851
Si Si5 0.680745 0.443046 0.306420
O O1 0.185531 0.250000 0.049110
O O2 0.080639 0.397585 0.914513
O O3 0.234338 0.474116 0.882311
O O4 0.152467 0.584526 0.089615
O O5 0.968093 0.250000 0.196644
O O6 0.940140 0.250000 0.933319
O O7 0.500000 0.500000 0.106601
O O8 0.416425 0.250000 0.048880
O O9 0.339904 0.483007 0.162914
O O10 0.387788 0.504436 0.912328
O O11 0.674676 0.250000 0.291594
#
# Coordination Sequence:
#
# PCOD9361855 Si02
#       5
#     8   4   4   8   8
#     4   9  24  44  66 104 134 178 228 281 329 404
#     4  12  24  48  70 100 137 187 220 282 347 399
#     4  10  26  46  68 104 137 179 230 276 341 405
#     4  11  24  41  65  97 130 176 217 270 336 394
#     4  10  23  43  65  97 135 170 222 277 325 396
#
# _framework density 23.828942999999999
#
# number of rings (size 3 to 8) (size 9 to 14) (size 15 to 20)
#    0.750    1.000    0.000    2.250    5.250    8.000 
#    2.250    0.000    0.000    0.000    0.000    0.000 
#    0.000    0.000    0.000    0.000    0.000    0.000 
#
# Total GULP energy -89406.653465 kJ/mol
# GULP energy per Si atom -5587.915842 kJ/mol
# Density = 2.377471 g / cm^3
# Si number density = 23.828943 Si / 1000 Ang^3
#
#
#
# Elastic Constant Matrix: (Units=GPa)
#
#
# Indices 1 2 3 4 5 6 
#
# 1 79.7855 19.4920 -3.9956 0.0000 0.0000 0.0000
# 2 19.4920 88.3162 29.4820 0.0000 0.0000 0.0000
# 3 -3.9956 29.4820 87.3652 0.0000 0.0000 0.0000
# 4 0.0000 0.0000 0.0000 14.9579 0.0000 0.0000
# 5 0.0000 0.0000 0.0000 0.0000 29.9815 0.0000
# 6 0.0000 0.0000 0.0000 0.0000 0.0000 25.3311
#
#
#
# Elastic Compliance Matrix: (Units=1/GPa)
#
#
# Indices 1 2 3 4 5 6 
#
# 1 0.013502 -0.003591 0.001829 0.000000 0.000000 0.000000
# 2 -0.003591 0.013715 -0.004793 0.000000 0.000000 0.000000
# 3 0.001829 -0.004793 0.013147 0.000000 0.000000 0.000000
# 4 0.000000 0.000000 0.000000 0.066854 0.000000 0.000000
# 5 0.000000 0.000000 0.000000 0.000000 0.033354 0.000000
# 6 0.000000 0.000000 0.000000 0.000000 0.000000 0.039477
#
#
# Mechanical properties :
#
#
# Convention : Reuss Voigt Hill
#
# Bulk Modulus (GPa) = 36.68803 38.38039 37.53421
# Shear Modulus (GPa) = 24.72260 28.08666 26.40463
#
# Velocity S-wave (km/s) = 3.22452 3.43691 3.33241
# Velocity P-wave (km/s) = 5.41232 5.64725 5.53103
#
# Compressibility (1/GPa) = 0.02725684
#
# Stress axis : x y z
#
# Youngs Moduli (GPa) = 74.06067 72.91124 76.06215
#
# Poissons Ratio (x) = 0.26180 -0.13914
# Poissons Ratio (y) = 0.26593 0.36453
# Poissons Ratio (z) = -0.13547 0.34943
#
# Static dielectric constant tensor:
#      x y z
#    x 1.909390 0.000000 0.000000 
#    y 0.000000 1.898110 0.000000 
#    z 0.000000 0.000000 1.854360 
# 
# From -- ./inp_files/6197.got.cif
#   From: 2010.05.17/outbox.cif.g08.bks.cpg/sg39_4_cif.got.tgz:6197.got - 2010.06.03 18:22:40.
