data_PCOD9361920
_publ_section_title
;
Structure prediction by ZEFSAII (Michael W. Deem and Ramdas Pophale) SiO2 
 PCOD9361920
Probable space group: A B M 2
;
_chemical_formula_sum "Si O2"
_cell_formula_units_Z 60
_cell_length_a 8.852939
_cell_length_b 21.902539
_cell_length_c 13.548209
_cell_angle_alpha 90.000000
_cell_angle_beta 90.000000
_cell_angle_gamma 90.000000
_cell_volume 2627.022677
_symmetry_space_group_name_H-M "A B M 2"
_symmetry_group_IT_number 39
_symmetry_cell_setting 'orthorhombic'
loop_
_space_group_symop_operation_xyz
x,y,z
-x,-y,z
-x,1/2+y,z
x,1/2-y,z
x,1/2+y,1/2+z
-x,1/2-y,1/2+z
-x,y,1/2+z
x,-y,1/2+z
loop_
_atom_site_type_symbol
_atom_site_label
_atom_site_fract_x
_atom_site_fract_y
_atom_site_fract_z
Si Si1 0.205823 0.316034 0.750000
Si Si2 0.572494 0.680091 0.933838
Si Si3 0.731277 0.141333 0.856459
Si Si4 0.335480 0.430875 0.659277
Si Si5 0.828715 0.996735 0.324553
Si Si6 0.166988 0.976045 0.541141
Si Si7 0.069067 0.250000 0.344582
Si Si8 0.338749 0.871099 0.639140
O O1 0.262274 0.250000 0.710383
O O2 0.303575 0.329910 0.848490
O O3 0.233870 0.370510 0.675069
O O4 0.037173 0.302435 0.786915
O O5 0.523238 0.750000 0.922816
O O6 0.427632 0.638911 0.913016
O O7 0.635521 0.670188 0.043262
O O8 0.797425 0.073690 0.849497
O O9 0.835339 0.194855 0.897813
O O10 0.697337 0.161472 0.742103
O O11 0.291619 0.475042 0.750007
O O12 0.284879 0.470361 0.566305
O O13 0.507273 0.409317 0.656264
O O14 0.823456 0.035834 0.424952
O O15 0.000000 0.000000 0.285163
O O16 0.208987 0.918260 0.607091
O O17 0.000000 0.000000 0.560878
#
# Coordination Sequence:
#
# PCOD9361920 Si02
#       8
#     8   8   8   8   8   8   4   8
#     4   9  22  42  72  95 132 190 220 284 346 415
#     4  11  24  47  70 100 140 185 234 288 350 420
#     4  12  24  44  73 104 134 185 230 296 346 421
#     4  12  22  44  69 103 140 181 233 282 353 419
#     4  11  25  45  74 100 143 188 227 287 360 416
#     4  11  26  44  66 104 140 180 233 286 350 424
#     4  10  24  42  74 100 132 178 244 278 358 418
#     4  12  27  41  71 105 140 184 233 290 352 422
#
# _framework density 22.839545000000001
#
# number of rings (size 3 to 8) (size 9 to 14) (size 15 to 20)
#    0.400    0.533    3.333    3.200    2.800    1.600 
#    0.000    0.000    2.933    0.000    0.000    0.000 
#    0.000    0.000    0.000    0.000    0.000    0.000 
#
# Total GULP energy -167261.848058 kJ/mol
# GULP energy per Si atom -5575.394935 kJ/mol
# Density = 2.278756 g / cm^3
# Si number density = 22.839545 Si / 1000 Ang^3
#
#
#
# Elastic Constant Matrix: (Units=GPa)
#
#
# Indices 1 2 3 4 5 6 
#
# 1 55.1558 -2.2191 -16.0209 0.0000 0.0000 0.0000
# 2 -2.2191 93.5211 -18.8777 0.0000 0.0000 0.0000
# 3 -16.0209 -18.8777 51.7104 0.0000 0.0000 0.0000
# 4 0.0000 0.0000 0.0000 30.0939 0.0000 0.0000
# 5 0.0000 0.0000 0.0000 0.0000 15.6783 0.0000
# 6 0.0000 0.0000 0.0000 0.0000 0.0000 29.2085
#
#
#
# Elastic Compliance Matrix: (Units=1/GPa)
#
#
# Indices 1 2 3 4 5 6 
#
# 1 0.020226 0.001884 0.006954 0.000000 0.000000 0.000000
# 2 0.001884 0.011719 0.004862 0.000000 0.000000 0.000000
# 3 0.006954 0.004862 0.023268 0.000000 0.000000 0.000000
# 4 0.000000 0.000000 0.000000 0.033229 0.000000 0.000000
# 5 0.000000 0.000000 0.000000 0.000000 0.063782 0.000000
# 6 0.000000 0.000000 0.000000 0.000000 0.000000 0.034237
#
#
# Mechanical properties :
#
#
# Convention : Reuss Voigt Hill
#
# Bulk Modulus (GPa) = 12.10479 14.01688 13.06084
# Shear Modulus (GPa) = 26.79538 30.82980 28.81259
#
# Velocity S-wave (km/s) = 3.42892 3.67801 3.55564
# Velocity P-wave (km/s) = 4.58127 4.91807 4.75266
#
# Compressibility (1/GPa) = 0.08261190
#
# Stress axis : x y z
#
# Youngs Moduli (GPa) = 49.44085 85.33266 42.97776
#
# Poissons Ratio (x) = -0.16074 -0.29887
# Poissons Ratio (y) = -0.09313 -0.20895
# Poissons Ratio (z) = -0.34382 -0.41487
#
# Static dielectric constant tensor:
#      x y z
#    x 1.863620 0.000000 0.000000 
#    y 0.000000 1.852280 0.000000 
#    z 0.000000 0.000000 1.856190 
# 
# From -- ./inp_files/8732.got.cif
#   From: 2010.05.17/outbox.cif.g08.bks.cpg/sg39_5_cif.got.tgz:8732.got - 2010.06.03 18:22:40.
