data_PCOD9361326
_publ_section_title
;
Structure prediction by ZEFSAII (Michael W. Deem and Ramdas Pophale) SiO2 
 PCOD9361326
Probable space group: A B M 2
;
_chemical_formula_sum "Si O2"
_cell_formula_units_Z 56
_cell_length_a 19.794024
_cell_length_b 8.776612
_cell_length_c 16.060808
_cell_angle_alpha 90.000000
_cell_angle_beta 90.000000
_cell_angle_gamma 90.000000
_cell_volume 2790.155335
_symmetry_space_group_name_H-M "A B M 2"
_symmetry_group_IT_number 39
_symmetry_cell_setting 'orthorhombic'
loop_
_space_group_symop_operation_xyz
x,y,z
-x,-y,z
-x,1/2+y,z
x,1/2-y,z
x,1/2+y,1/2+z
-x,1/2-y,1/2+z
-x,y,1/2+z
x,-y,1/2+z
loop_
_atom_site_type_symbol
_atom_site_label
_atom_site_fract_x
_atom_site_fract_y
_atom_site_fract_z
Si Si1 0.291865 0.930223 0.050700
Si Si2 0.570830 0.073926 0.815821
Si Si3 0.163178 0.433232 0.125614
Si Si4 0.844796 0.069101 0.810150
Si Si5 0.289436 0.069929 0.871075
Si Si6 0.074686 0.067795 0.964993
Si Si7 0.570883 0.426472 0.614279
O O1 0.288901 0.750000 0.035998
O O2 0.234332 0.981995 0.114811
O O3 0.365621 0.979522 0.081473
O O4 0.276937 0.021327 0.966139
O O5 0.574876 0.250000 0.842665
O O6 0.572261 0.070491 0.715045
O O7 0.500000 0.000000 0.842794
O O8 0.635395 0.982923 0.848032
O O9 0.174682 0.250000 0.122151
O O10 0.132424 0.467746 0.216155
O O11 0.115996 0.477295 0.048087
O O12 0.849444 0.250000 0.822484
O O13 0.766966 0.017653 0.818179
O O14 0.886367 0.988269 0.882847
O O15 0.281882 0.250000 0.860504
O O16 0.071319 0.250000 0.963674
O O17 0.000000 0.000000 0.966865
O O18 0.500000 0.500000 0.587316
O O19 0.575715 0.250000 0.587659
#
# Coordination Sequence:
#
# PCOD9361326 Si02
#       7
#     8   8   8   8   8   8   8
#     4  12  24  38  61  90 122 163 213 264 318 380
#     4  10  21  38  59  85 118 159 207 262 321 382
#     4  10  23  43  67  96 133 172 213 264 321 378
#     4  11  23  42  68  99 132 171 216 266 320 380
#     4  12  24  39  60  88 124 165 211 265 321 379
#     4  11  24  44  69  98 135 175 213 263 317 376
#     4  10  21  38  59  84 119 159 205 262 320 381
#
# _framework density 20.070567
#
# number of rings (size 3 to 8) (size 9 to 14) (size 15 to 20)
#    0.000    1.143    1.429    5.143    0.000    8.000 
#    0.000    4.286    0.000    0.000    0.000    0.000 
#    0.000    0.000    0.000    0.000    0.000    0.000 
#
# Total GULP energy -156648.243883 kJ/mol
# GULP energy per Si atom -5594.580139 kJ/mol
# Density = 2.002489 g / cm^3
# Si number density = 20.070567 Si / 1000 Ang^3
#
#
#
# Elastic Constant Matrix: (Units=GPa)
#
#
# Indices 1 2 3 4 5 6 
#
# 1 116.4762 18.4424 43.2306 0.0000 0.0000 0.0000
# 2 18.4424 58.2816 26.1953 0.0000 0.0000 0.0000
# 3 43.2306 26.1953 99.6102 0.0000 0.0000 0.0000
# 4 0.0000 0.0000 0.0000 26.8469 0.0000 0.0000
# 5 0.0000 0.0000 0.0000 0.0000 3.0770 0.0000
# 6 0.0000 0.0000 0.0000 0.0000 0.0000 36.9502
#
#
#
# Elastic Compliance Matrix: (Units=1/GPa)
#
#
# Indices 1 2 3 4 5 6 
#
# 1 0.010337 -0.001423 -0.004112 0.000000 0.000000 0.000000
# 2 -0.001423 0.019654 -0.004551 0.000000 0.000000 0.000000
# 3 -0.004112 -0.004551 0.013021 0.000000 0.000000 0.000000
# 4 0.000000 0.000000 0.000000 0.037248 0.000000 0.000000
# 5 0.000000 0.000000 0.000000 0.000000 0.324992 0.000000
# 6 0.000000 0.000000 0.000000 0.000000 0.000000 0.027063
#
#
# Mechanical properties :
#
#
# Convention : Reuss Voigt Hill
#
# Bulk Modulus (GPa) = 43.78365 50.01164 46.89764
# Shear Modulus (GPa) = 10.86720 25.80814 18.33767
#
# Velocity S-wave (km/s) = 2.32943 3.58979 3.02596
# Velocity P-wave (km/s) = 5.39418 6.49262 5.96873
#
# Compressibility (1/GPa) = 0.02283958
#
# Stress axis : x y z
#
# Youngs Moduli (GPa) = 96.74062 50.88079 76.80158
#
# Poissons Ratio (x) = 0.07239 0.31581
# Poissons Ratio (y) = 0.13764 0.34953
# Poissons Ratio (z) = 0.39780 0.23156
#
# Static dielectric constant tensor:
#      x y z
#    x 1.675150 0.000000 0.000000 
#    y 0.000000 1.672250 0.000000 
#    z 0.000000 0.000000 1.732090 
# 
# From -- ./inp_files/10354.got.cif
#   From: 2010.05.17/outbox.cif.g08.bks.cpg/sg39_6_cif.got.tgz:10354.got - 2010.06.03 18:22:40.
