data_PCOD9361048
_publ_section_title
;
Structure prediction by ZEFSAII (Michael W. Deem and Ramdas Pophale) SiO2 
 PCOD9361048
Probable space group: A B M 2
;
_chemical_formula_sum "Si O2"
_cell_formula_units_Z 56
_cell_length_a 9.696610
_cell_length_b 20.252019
_cell_length_c 14.042921
_cell_angle_alpha 90.000000
_cell_angle_beta 90.000000
_cell_angle_gamma 90.000000
_cell_volume 2757.691671
_symmetry_space_group_name_H-M "A B M 2"
_symmetry_group_IT_number 39
_symmetry_cell_setting 'orthorhombic'
loop_
_space_group_symop_operation_xyz
x,y,z
-x,-y,z
-x,1/2+y,z
x,1/2-y,z
x,1/2+y,1/2+z
-x,1/2-y,1/2+z
-x,y,1/2+z
x,-y,1/2+z
loop_
_atom_site_type_symbol
_atom_site_label
_atom_site_fract_x
_atom_site_fract_y
_atom_site_fract_z
Si Si1 0.004876 0.674993 0.739900
Si Si2 0.647455 0.475631 0.630830
Si Si3 0.467121 0.922359 0.440267
Si Si4 0.867664 0.955902 0.292487
Si Si5 0.751044 0.672762 0.860302
Si Si6 0.235515 0.075274 0.481696
Si Si7 0.012301 0.673857 0.517964
O O1 0.035556 0.750000 0.769299
O O2 0.843135 0.664587 0.764881
O O3 0.044909 0.666954 0.629979
O O4 0.083960 0.619649 0.797489
O O5 0.500000 0.500000 0.668770
O O6 0.605742 0.425444 0.545031
O O7 0.746878 0.456627 0.715718
O O8 0.725513 0.533810 0.574487
O O9 0.370547 0.880035 0.371553
O O10 0.620421 0.892377 0.448512
O O11 0.500000 0.000000 0.417529
O O12 0.814253 0.973896 0.397384
O O13 0.000000 0.000000 0.265705
O O14 0.706310 0.750000 0.865253
O O15 0.859418 0.661638 0.947479
O O16 0.113748 0.125173 0.501570
O O17 0.970980 0.750000 0.503172
#
# Coordination Sequence:
#
# PCOD9361048 Si02
#       7
#     8   8   8   8   8   8   8
#     4  10  22  38  60  90 124 158 200 248 307 362
#     4   9  22  42  57  82 126 161 205 256 311 369
#     4   9  21  39  59  82 123 163 197 254 298 364
#     4  12  24  36  64  95 117 163 204 262 310 368
#     4  10  20  38  62  88 120 160 205 249 301 368
#     4  10  22  39  56  90 119 157 201 255 313 359
#     4  10  20  38  64  87 120 162 200 256 308 365
#
# _framework density 20.306839
#
# number of rings (size 3 to 8) (size 9 to 14) (size 15 to 20)
#    0.000    2.286    1.429    1.714    4.000    4.571 
#    5.143    0.000    0.000    0.857    0.000    0.000 
#    0.000    0.000    0.000    0.000    0.000    0.000 
#
# Total GULP energy -156232.164686 kJ/mol
# GULP energy per Si atom -5579.720167 kJ/mol
# Density = 2.026062 g / cm^3
# Si number density = 20.306839 Si / 1000 Ang^3
#
#
#
# Elastic Constant Matrix: (Units=GPa)
#
#
# Indices 1 2 3 4 5 6 
#
# 1 69.1116 38.8087 5.0547 0.0000 0.0000 0.0000
# 2 38.8087 60.3421 13.9618 0.0000 0.0000 0.0000
# 3 5.0547 13.9618 57.4532 0.0000 0.0000 0.0000
# 4 0.0000 0.0000 0.0000 20.2265 0.0000 0.0000
# 5 0.0000 0.0000 0.0000 0.0000 24.6315 0.0000
# 6 0.0000 0.0000 0.0000 0.0000 0.0000 36.8622
#
#
#
# Elastic Compliance Matrix: (Units=1/GPa)
#
#
# Indices 1 2 3 4 5 6 
#
# 1 0.022796 -0.015043 0.001650 0.000000 0.000000 0.000000
# 2 -0.015043 0.027486 -0.005356 0.000000 0.000000 0.000000
# 3 0.001650 -0.005356 0.018562 0.000000 0.000000 0.000000
# 4 0.000000 0.000000 0.000000 0.049440 0.000000 0.000000
# 5 0.000000 0.000000 0.000000 0.000000 0.040598 0.000000
# 6 0.000000 0.000000 0.000000 0.000000 0.000000 0.027128
#
#
# Mechanical properties :
#
#
# Convention : Reuss Voigt Hill
#
# Bulk Modulus (GPa) = 31.90171 33.61745 32.75958
# Shear Modulus (GPa) = 21.37150 24.94948 23.16049
#
# Velocity S-wave (km/s) = 3.24764 3.50898 3.38083
# Velocity P-wave (km/s) = 5.45956 5.74525 5.60423
#
# Compressibility (1/GPa) = 0.03134628
#
# Stress axis : x y z
#
# Youngs Moduli (GPa) = 43.86789 36.38204 53.87386
#
# Poissons Ratio (x) = 0.54728 -0.08889
# Poissons Ratio (y) = 0.65989 0.28855
# Poissons Ratio (z) = -0.07238 0.19486
#
# Static dielectric constant tensor:
#      x y z
#    x 1.725610 0.000000 0.000000 
#    y 0.000000 1.736970 0.000000 
#    z 0.000000 0.000000 1.748850 
# 
# From -- ./inp_files/8606.got.cif
#   From: 2010.05.17/outbox.cif.g08.bks.cpg/sg39_5_cif.got.tgz:8606.got - 2010.06.03 18:22:40.
