data_PCOD9361051
_publ_section_title
;
Structure prediction by ZEFSAII (Michael W. Deem and Ramdas Pophale) SiO2 
 PCOD9361051
Probable space group: A B M 2
;
_chemical_formula_sum "Si O2"
_cell_formula_units_Z 64
_cell_length_a 11.555744
_cell_length_b 14.917499
_cell_length_c 17.250965
_cell_angle_alpha 90.000000
_cell_angle_beta 90.000000
_cell_angle_gamma 90.000000
_cell_volume 2973.769642
_symmetry_space_group_name_H-M "A B M 2"
_symmetry_group_IT_number 39
_symmetry_cell_setting 'orthorhombic'
loop_
_space_group_symop_operation_xyz
x,y,z
-x,-y,z
-x,1/2+y,z
x,1/2-y,z
x,1/2+y,1/2+z
-x,1/2-y,1/2+z
-x,y,1/2+z
x,-y,1/2+z
loop_
_atom_site_type_symbol
_atom_site_label
_atom_site_fract_x
_atom_site_fract_y
_atom_site_fract_z
Si Si1 0.289641 0.464563 0.883120
Si Si2 0.657971 0.550068 0.047464
Si Si3 0.568160 0.148427 0.086845
Si Si4 0.915361 0.855937 0.240335
Si Si5 0.059545 0.853170 0.394899
Si Si6 0.688658 0.649020 0.320217
Si Si7 0.069403 0.089368 0.065509
Si Si8 0.549004 0.904119 0.747476
O O1 0.163959 0.422765 0.887863
O O2 0.291348 0.572103 0.882883
O O3 0.352600 0.430328 0.807242
O O4 0.361374 0.432315 0.956562
O O5 0.567058 0.617621 0.086498
O O6 0.632220 0.443459 0.058844
O O7 0.791422 0.574011 0.064114
O O8 0.583787 0.250000 0.053571
O O9 0.598789 0.151414 0.177284
O O10 0.926942 0.750000 0.236516
O O11 0.779123 0.876082 0.252055
O O12 0.958302 0.886826 0.155701
O O13 0.973380 0.880605 0.323861
O O14 0.093580 0.750000 0.378169
O O15 0.032668 0.854444 0.488065
O O16 0.715053 0.750000 0.346167
O O17 0.558455 0.642523 0.289725
O O18 0.000000 0.000000 0.050263
O O19 0.500000 0.000000 0.718107
#
# Coordination Sequence:
#
# PCOD9361051 Si02
#       8
#     8   8   8   8   8   8   8   8
#     4  10  24  40  67  90 131 173 213 270 326 392
#     4  10  24  44  60  98 132 167 225 262 326 404
#     4  11  23  41  67  93 131 172 211 272 327 384
#     4  10  23  42  68  98 128 170 222 273 332 396
#     4  10  24  45  66  96 134 172 225 278 326 396
#     4  10  22  37  63  97 128 168 215 266 323 394
#     4  11  25  41  69  97 131 182 222 274 339 395
#     4  10  20  38  62  92 128 165 211 263 316 385
#
# _framework density 21.521505000000001
#
# number of rings (size 3 to 8) (size 9 to 14) (size 15 to 20)
#    0.000    1.750    1.250    1.500   12.250    5.000 
#    0.000    2.500    0.000    0.000    0.000    0.000 
#    0.000    0.000    0.000    0.000    0.000    0.000 
#
# Total GULP energy -178192.813193 kJ/mol
# GULP energy per Si atom -5568.525412 kJ/mol
# Density = 2.147252 g / cm^3
# Si number density = 21.521505 Si / 1000 Ang^3
#
#
#
# Elastic Constant Matrix: (Units=GPa)
#
#
# Indices 1 2 3 4 5 6 
#
# 1 23.8436 6.9688 22.1108 0.0000 0.0000 0.0000
# 2 6.9688 85.8158 27.4936 0.0000 0.0000 0.0000
# 3 22.1108 27.4936 108.1066 0.0000 0.0000 0.0000
# 4 0.0000 0.0000 0.0000 32.7408 0.0000 0.0000
# 5 0.0000 0.0000 0.0000 0.0000 35.8560 0.0000
# 6 0.0000 0.0000 0.0000 0.0000 0.0000 9.4458
#
#
#
# Elastic Compliance Matrix: (Units=1/GPa)
#
#
# Indices 1 2 3 4 5 6 
#
# 1 0.051818 -0.000885 -0.010373 0.000000 0.000000 0.000000
# 2 -0.000885 0.012702 -0.003049 0.000000 0.000000 0.000000
# 3 -0.010373 -0.003049 0.012147 0.000000 0.000000 0.000000
# 4 0.000000 0.000000 0.000000 0.030543 0.000000 0.000000
# 5 0.000000 0.000000 0.000000 0.000000 0.027889 0.000000
# 6 0.000000 0.000000 0.000000 0.000000 0.000000 0.105867
#
#
# Mechanical properties :
#
#
# Convention : Reuss Voigt Hill
#
# Bulk Modulus (GPa) = 20.81060 36.76804 28.78932
# Shear Modulus (GPa) = 17.50712 26.35470 21.93091
#
# Velocity S-wave (km/s) = 2.85524 3.50319 3.19568
# Velocity P-wave (km/s) = 4.53437 5.78658 5.19832
#
# Compressibility (1/GPa) = 0.04805244
#
# Stress axis : x y z
#
# Youngs Moduli (GPa) = 19.29835 78.72989 82.32309
#
# Poissons Ratio (x) = 0.06964 0.85396
# Poissons Ratio (y) = 0.01707 0.25103
# Poissons Ratio (z) = 0.20019 0.24008
#
# Static dielectric constant tensor:
#      x y z
#    x -2.291320 0.000000 0.000000 
#    y 0.000000 1.810940 0.000000 
#    z 0.000000 0.000000 1.868740 
# 
# From -- ./inp_files/12331.got.cif
#   From: 2010.05.17/outbox.cif.g08.bks.cpg/sg39_7_cif.got.tgz:12331.got - 2010.06.03 18:22:40.
