data_PCOD9361714
_publ_section_title
;
Structure prediction by ZEFSAII (Michael W. Deem and Ramdas Pophale) SiO2 
 PCOD9361714
Probable space group: A B M 2
;
_chemical_formula_sum "Si O2"
_cell_formula_units_Z 40
_cell_length_a 7.700182
_cell_length_b 10.108447
_cell_length_c 26.406543
_cell_angle_alpha 90.000000
_cell_angle_beta 90.000000
_cell_angle_gamma 90.000000
_cell_volume 2055.402962
_symmetry_space_group_name_H-M "A B M 2"
_symmetry_group_IT_number 39
_symmetry_cell_setting 'orthorhombic'
loop_
_space_group_symop_operation_xyz
x,y,z
-x,-y,z
-x,1/2+y,z
x,1/2-y,z
x,1/2+y,1/2+z
-x,1/2-y,1/2+z
-x,y,1/2+z
x,-y,1/2+z
loop_
_atom_site_type_symbol
_atom_site_label
_atom_site_fract_x
_atom_site_fract_y
_atom_site_fract_z
Si Si1 0.979588 0.750000 0.526110
Si Si2 0.334887 0.592922 0.390460
Si Si3 0.000000 0.000000 0.453183
Si Si4 0.671772 0.250000 0.102610
Si Si5 0.790381 0.009109 0.171935
Si Si6 0.285431 0.250000 0.110318
Si Si7 0.167165 0.594152 0.281950
O O1 0.983492 0.875874 0.490121
O O2 0.801303 0.750000 0.556278
O O3 0.133895 0.750000 0.568147
O O4 0.500000 0.500000 0.401401
O O5 0.357881 0.750000 0.403554
O O6 0.167974 0.532001 0.419051
O O7 0.289864 0.587446 0.330672
O O8 0.716933 0.375392 0.137127
O O9 0.473826 0.250000 0.085196
O O10 0.725883 0.874609 0.147455
O O11 0.747759 0.040961 0.230152
O O12 0.000000 0.000000 0.169445
O O13 0.117308 0.750000 0.274666
O O14 0.000000 0.500000 0.290893
#
# Coordination Sequence:
#
# PCOD9361714 Si02
#       7
#     4   8   4   4   8   4   8
#     4  12  26  46  70  98 134 176 232 296 350 398
#     4  11  26  47  73 107 139 178 230 282 348 417
#     4  12  26  48  74  96 136 180 230 296 354 404
#     4  12  24  44  69  97 134 177 227 276 337 408
#     4  11  21  42  67  99 138 182 221 271 333 403
#     4  12  26  42  69  99 134 181 229 276 337 410
#     4  10  22  40  69 103 138 182 223 267 336 410
#
# _framework density 19.460906000000001
#
# number of rings (size 3 to 8) (size 9 to 14) (size 15 to 20)
#    0.000    0.800    5.000    1.800    5.600    4.000 
#    0.000    0.000    0.000    0.000    0.000    0.000 
#    0.000    0.000    0.000    0.000    0.000    0.000 
#
# Total GULP energy -111766.928483 kJ/mol
# GULP energy per Si atom -5588.346424 kJ/mol
# Density = 1.941661 g / cm^3
# Si number density = 19.460906 Si / 1000 Ang^3
#
#
#
# Elastic Constant Matrix: (Units=GPa)
#
#
# Indices 1 2 3 4 5 6 
#
# 1 145.7832 64.7977 61.9780 0.0000 0.0000 0.0000
# 2 64.7977 200.1270 75.4911 0.0000 0.0000 0.0000
# 3 61.9780 75.4911 117.1390 0.0000 0.0000 0.0000
# 4 0.0000 0.0000 0.0000 43.9252 0.0000 0.0000
# 5 0.0000 0.0000 0.0000 0.0000 -2.2056 0.0000
# 6 0.0000 0.0000 0.0000 0.0000 0.0000 46.1394
#
#
#
# Elastic Compliance Matrix: (Units=1/GPa)
#
#
# Indices 1 2 3 4 5 6 
#
# 1 0.009182 -0.001507 -0.003887 0.000000 0.000000 0.000000
# 2 -0.001507 0.006849 -0.003617 0.000000 0.000000 0.000000
# 3 -0.003887 -0.003617 0.012924 0.000000 0.000000 0.000000
# 4 0.000000 0.000000 0.000000 0.022766 0.000000 0.000000
# 5 0.000000 0.000000 0.000000 0.000000 -0.453395 0.000000
# 6 0.000000 0.000000 0.000000 0.000000 0.000000 0.021673
#
#
# Mechanical properties :
#
#
# Convention : Reuss Voigt Hill
#
# Bulk Modulus (GPa) = 91.45635 96.39811 93.92723
# Shear Modulus (GPa) = -13.95342 34.95730 10.50194
#
# Velocity S-wave (km/s) = -2.68059 4.24286 2.32554
# Velocity P-wave (km/s) = 6.12505 8.58162 7.45521
#
# Compressibility (1/GPa) = 0.01093418
#
# Stress axis : x y z
#
# Youngs Moduli (GPa) = 108.91223 146.00861 77.37361
#
# Poissons Ratio (x) = 0.21998 0.30076
# Poissons Ratio (y) = 0.16409 0.27984
# Poissons Ratio (z) = 0.42335 0.52807
#
# Static dielectric constant tensor:
#      x y z
#    x 1.679390 0.000000 0.000000 
#    y 0.000000 1.685690 0.000000 
#    z 0.000000 0.000000 1.664280 
# 
# From -- ./inp_files/15491.got.cif
#   From: 2010.05.17/outbox.cif.g08.bks.cpg/sg39_8_cif.got.tgz:15491.got - 2010.06.03 18:22:40.
