data_PCOD9361815
_publ_section_title
;
Structure prediction by ZEFSAII (Michael W. Deem and Ramdas Pophale) SiO2 
 PCOD9361815
Probable space group: A B M 2
;
_chemical_formula_sum "Si O2"
_cell_formula_units_Z 56
_cell_length_a 5.427975
_cell_length_b 30.442491
_cell_length_c 15.317806
_cell_angle_alpha 90.000000
_cell_angle_beta 90.000000
_cell_angle_gamma 90.000000
_cell_volume 2531.130808
_symmetry_space_group_name_H-M "A B M 2"
_symmetry_group_IT_number 39
_symmetry_cell_setting 'orthorhombic'
loop_
_space_group_symop_operation_xyz
x,y,z
-x,-y,z
-x,1/2+y,z
x,1/2-y,z
x,1/2+y,1/2+z
-x,1/2-y,1/2+z
-x,y,1/2+z
x,-y,1/2+z
loop_
_atom_site_type_symbol
_atom_site_label
_atom_site_fract_x
_atom_site_fract_y
_atom_site_fract_z
Si Si1 0.133863 0.546866 0.025740
Si Si2 0.194916 0.619209 0.469993
Si Si3 0.554780 0.299647 0.550719
Si Si4 0.929028 0.873549 0.296171
Si Si5 0.058265 0.201455 0.662687
Si Si6 0.195502 0.540266 0.217540
Si Si7 0.450940 0.566969 0.859340
O O1 0.284465 0.545271 0.116978
O O2 0.000000 0.500000 0.027192
O O3 0.249470 0.549212 0.928072
O O4 0.976940 0.592401 0.036971
O O5 0.390140 0.656215 0.496477
O O6 0.336598 0.578995 0.426323
O O7 0.028992 0.637804 0.392286
O O8 0.524461 0.250000 0.511032
O O9 0.308206 0.307189 0.607927
O O10 0.813219 0.297523 0.603232
O O11 0.650208 0.888802 0.313206
O O12 0.996423 0.834054 0.234465
O O13 0.049672 0.916813 0.252576
O O14 0.091035 0.250000 0.701617
O O15 0.425959 0.540043 0.282465
O O16 0.000000 0.500000 0.224323
#
# Coordination Sequence:
#
# PCOD9361815 Si02
#       7
#     8   8   8   8   8   8   8
#     4  10  23  43  67  98 134 182 238 291 365 441
#     4  10  23  39  64  97 132 178 226 292 362 430
#     4  10  23  42  67  98 133 181 237 293 355 428
#     4  10  23  39  63  98 133 178 229 292 364 427
#     4  10  23  42  67  98 136 182 236 294 358 428
#     4  10  23  42  66 100 134 180 238 293 363 438
#     4  10  24  42  67  97 133 182 230 300 362 430
#
# _framework density 22.124496000000001
#
# number of rings (size 3 to 8) (size 9 to 14) (size 15 to 20)
#    0.000    2.000    0.000    0.857   10.000    9.143 
#    0.000    3.571    3.143    0.857    0.000    0.000 
#    0.000    0.000    0.000    0.000    0.000    0.000 
#
# Total GULP energy -156016.946128 kJ/mol
# GULP energy per Si atom -5572.033790 kJ/mol
# Density = 2.207414 g / cm^3
# Si number density = 22.124496 Si / 1000 Ang^3
#
#
#
# Elastic Constant Matrix: (Units=GPa)
#
#
# Indices 1 2 3 4 5 6 
#
# 1 93.5339 20.8387 36.9921 0.0000 0.0000 0.0000
# 2 20.8387 99.2012 61.1489 0.0000 0.0000 0.0000
# 3 36.9921 61.1489 111.7600 0.0000 0.0000 0.0000
# 4 0.0000 0.0000 0.0000 86.3508 0.0000 0.0000
# 5 0.0000 0.0000 0.0000 0.0000 26.9744 0.0000
# 6 0.0000 0.0000 0.0000 0.0000 0.0000 25.8114
#
#
#
# Elastic Compliance Matrix: (Units=1/GPa)
#
#
# Indices 1 2 3 4 5 6 
#
# 1 0.012303 -0.000112 -0.004011 0.000000 0.000000 0.000000
# 2 -0.000112 0.015212 -0.008286 0.000000 0.000000 0.000000
# 3 -0.004011 -0.008286 0.014809 0.000000 0.000000 0.000000
# 4 0.000000 0.000000 0.000000 0.011581 0.000000 0.000000
# 5 0.000000 0.000000 0.000000 0.000000 0.037072 0.000000
# 6 0.000000 0.000000 0.000000 0.000000 0.000000 0.038743
#
#
# Mechanical properties :
#
#
# Convention : Reuss Voigt Hill
#
# Bulk Modulus (GPa) = 57.12453 60.27272 58.69862
# Shear Modulus (GPa) = 31.17772 40.19501 35.68636
#
# Velocity S-wave (km/s) = 3.75800 4.26698 4.02055
# Velocity P-wave (km/s) = 6.68623 7.18177 6.93842
#
# Compressibility (1/GPa) = 0.01750561
#
# Stress axis : x y z
#
# Youngs Moduli (GPa) = 81.28415 65.73954 67.52717
#
# Poissons Ratio (x) = 0.00736 0.27084
# Poissons Ratio (y) = 0.00911 0.55952
# Poissons Ratio (z) = 0.32601 0.54471
#
# Static dielectric constant tensor:
#      x y z
#    x 1.910650 0.000000 0.000000 
#    y 0.000000 1.847020 0.000000 
#    z 0.000000 0.000000 1.839020 
# 
# From -- ./inp_files/7669.got.cif
#   From: 2010.05.17/outbox.cif.g08.bks.cpg/sg39_4_cif.got.tgz:7669.got - 2010.06.03 18:22:40.
