data_PCOD9361690
_publ_section_title
;
Structure prediction by ZEFSAII (Michael W. Deem and Ramdas Pophale) SiO2 
 PCOD9361690
Probable space group: A B M 2
;
_chemical_formula_sum "Si O2"
_cell_formula_units_Z 60
_cell_length_a 18.807410
_cell_length_b 9.454953
_cell_length_c 16.752672
_cell_angle_alpha 90.000000
_cell_angle_beta 90.000000
_cell_angle_gamma 90.000000
_cell_volume 2979.013368
_symmetry_space_group_name_H-M "A B M 2"
_symmetry_group_IT_number 39
_symmetry_cell_setting 'orthorhombic'
loop_
_space_group_symop_operation_xyz
x,y,z
-x,-y,z
-x,1/2+y,z
x,1/2-y,z
x,1/2+y,1/2+z
-x,1/2-y,1/2+z
-x,y,1/2+z
x,-y,1/2+z
loop_
_atom_site_type_symbol
_atom_site_label
_atom_site_fract_x
_atom_site_fract_y
_atom_site_fract_z
Si Si1 0.063691 0.409202 0.464260
Si Si2 0.135359 0.412339 0.706442
Si Si3 0.172024 0.081682 0.054017
Si Si4 0.000000 0.500000 0.306932
Si Si5 0.723843 0.082232 0.314539
Si Si6 0.571644 0.419575 0.231757
Si Si7 0.716430 0.086537 0.976680
Si Si8 0.563212 0.089688 0.046229
O O1 0.070562 0.250000 0.494778
O O2 0.130713 0.507285 0.480734
O O3 0.042253 0.403719 0.371235
O O4 0.000000 0.500000 0.503566
O O5 0.140465 0.250000 0.677330
O O6 0.136413 0.522799 0.634087
O O7 0.206419 0.438065 0.759230
O O8 0.061982 0.429184 0.755275
O O9 0.172066 0.250000 0.048948
O O10 0.248551 0.009486 0.045412
O O11 0.723008 0.250000 0.335992
O O12 0.647741 0.049198 0.272908
O O13 0.730523 0.985089 0.392002
O O14 0.500000 0.500000 0.260596
O O15 0.560941 0.250000 0.239068
O O16 0.578999 0.456000 0.137447
O O17 0.741450 0.250000 0.980675
O O18 0.633039 0.085031 0.993754
O O19 0.538142 0.250000 0.052321
O O20 0.500000 0.000000 0.010960
#
# Coordination Sequence:
#
# PCOD9361690 Si02
#       8
#     8   8   8   4   8   8   8   8
#     4  10  22  41  65  92 123 158 197 244 299 359
#     4  11  24  44  66  89 122 162 205 256 309 364
#     4  12  26  42  64  92 122 160 207 253 305 365
#     4  10  24  38  68  94 126 158 206 246 310 366
#     4  10  22  40  63  89 122 162 205 254 309 367
#     4   9  18  35  59  87 119 158 202 249 304 364
#     4  11  23  40  62  88 122 163 206 254 308 364
#     4   9  19  36  59  87 119 159 204 250 303 362
#
# _framework density 20.140896999999999
#
# number of rings (size 3 to 8) (size 9 to 14) (size 15 to 20)
#    0.400    1.333    0.000    4.000    0.933    6.933 
#    0.000    5.333    0.000    0.000    0.000    0.000 
#    0.000    0.000    0.000    0.000    0.000    0.000 
#
# Total GULP energy -167315.559403 kJ/mol
# GULP energy per Si atom -5577.185313 kJ/mol
# Density = 2.009506 g / cm^3
# Si number density = 20.140897 Si / 1000 Ang^3
#
#
#
# Elastic Constant Matrix: (Units=GPa)
#
#
# Indices 1 2 3 4 5 6 
#
# 1 115.0369 55.4209 35.1610 0.0000 0.0000 0.0000
# 2 55.4209 139.5881 49.5742 0.0000 0.0000 0.0000
# 3 35.1610 49.5742 72.9422 0.0000 0.0000 0.0000
# 4 0.0000 0.0000 0.0000 18.9974 0.0000 0.0000
# 5 0.0000 0.0000 0.0000 0.0000 26.0174 0.0000
# 6 0.0000 0.0000 0.0000 0.0000 0.0000 26.2990
#
#
#
# Elastic Compliance Matrix: (Units=1/GPa)
#
#
# Indices 1 2 3 4 5 6 
#
# 1 0.011274 -0.003356 -0.003153 0.000000 0.000000 0.000000
# 2 -0.003356 0.010442 -0.005479 0.000000 0.000000 0.000000
# 3 -0.003153 -0.005479 0.018953 0.000000 0.000000 0.000000
# 4 0.000000 0.000000 0.000000 0.052639 0.000000 0.000000
# 5 0.000000 0.000000 0.000000 0.000000 0.038436 0.000000
# 6 0.000000 0.000000 0.000000 0.000000 0.000000 0.038024
#
#
# Mechanical properties :
#
#
# Convention : Reuss Voigt Hill
#
# Bulk Modulus (GPa) = 59.90916 67.54215 63.72565
# Shear Modulus (GPa) = 25.08661 26.75683 25.92172
#
# Velocity S-wave (km/s) = 3.53307 3.64879 3.59140
# Velocity P-wave (km/s) = 6.81565 7.16653 6.99329
#
# Compressibility (1/GPa) = 0.01669194
#
# Stress axis : x y z
#
# Youngs Moduli (GPa) = 88.70344 95.76416 52.76086
#
# Poissons Ratio (x) = 0.32139 0.16638
# Poissons Ratio (y) = 0.29769 0.28909
# Poissons Ratio (z) = 0.27972 0.52472
#
# Static dielectric constant tensor:
#      x y z
#    x 1.795690 0.000000 0.000000 
#    y 0.000000 1.687330 0.000000 
#    z 0.000000 0.000000 1.734500 
# 
# From -- ./inp_files/12984.got.cif
#   From: 2010.05.17/outbox.cif.g08.bks.cpg/sg39_7_cif.got.tgz:12984.got - 2010.06.03 18:22:40.
