data_PCOD9361757
_publ_section_title
;
Structure prediction by ZEFSAII (Michael W. Deem and Ramdas Pophale) SiO2 
 PCOD9361757
Probable space group: A B M 2
;
_chemical_formula_sum "Si O2"
_cell_formula_units_Z 40
_cell_length_a 7.760512
_cell_length_b 20.548472
_cell_length_c 11.954768
_cell_angle_alpha 90.000000
_cell_angle_beta 90.000000
_cell_angle_gamma 90.000000
_cell_volume 1906.386966
_symmetry_space_group_name_H-M "A B M 2"
_symmetry_group_IT_number 39
_symmetry_cell_setting 'orthorhombic'
loop_
_space_group_symop_operation_xyz
x,y,z
-x,-y,z
-x,1/2+y,z
x,1/2-y,z
x,1/2+y,1/2+z
-x,1/2-y,1/2+z
-x,y,1/2+z
x,-y,1/2+z
loop_
_atom_site_type_symbol
_atom_site_label
_atom_site_fract_x
_atom_site_fract_y
_atom_site_fract_z
Si Si1 0.694798 0.250000 0.960740
Si Si2 0.000000 0.000000 0.087100
Si Si3 0.930893 0.750000 0.996723
Si Si4 0.166287 0.606578 0.445447
Si Si5 0.502543 0.859954 0.083050
Si Si6 0.319414 0.036789 0.727368
Si Si7 0.677286 0.750000 0.207568
O O1 0.746296 0.250000 0.831704
O O2 0.583814 0.187333 0.992513
O O3 0.869941 0.250000 0.029794
O O4 0.833883 0.997335 0.167949
O O5 0.020080 0.062812 0.005793
O O6 0.817107 0.750000 0.109013
O O7 0.890011 0.817797 0.933460
O O8 0.331146 0.608550 0.527202
O O9 0.233597 0.572942 0.332714
O O10 0.375290 0.912184 0.132597
O O11 0.562635 0.813422 0.184349
O O12 0.500000 0.000000 0.757183
#
# Coordination Sequence:
#
# PCOD9361757 Si02
#       7
#     4   4   4   8   8   8   4
#     4  11  21  39  70 100 136 188 227 293 373 422
#     4  12  26  48  70 110 142 184 244 304 350 450
#     4  10  24  44  66 104 143 181 242 310 349 441
#     4  11  25  46  72 101 143 189 244 299 369 429
#     4  10  22  42  66  99 136 179 237 290 347 437
#     4  12  26  45  71 100 142 194 237 295 367 433
#     4   9  21  41  64  96 133 177 229 285 352 421
#
# _framework density 20.982101
#
# number of rings (size 3 to 8) (size 9 to 14) (size 15 to 20)
#    0.000    1.200    2.000    3.600    2.800    6.400 
#    7.200    0.000    0.000    0.000    0.000    0.000 
#    0.000    0.000    0.000    0.000    0.000    0.000 
#
# Total GULP energy -111697.400640 kJ/mol
# GULP energy per Si atom -5584.870032 kJ/mol
# Density = 2.093434 g / cm^3
# Si number density = 20.982101 Si / 1000 Ang^3
#
#
#
# Elastic Constant Matrix: (Units=GPa)
#
#
# Indices 1 2 3 4 5 6 
#
# 1 96.3555 30.9600 11.9450 0.0000 0.0000 0.0000
# 2 30.9600 103.5974 47.4765 0.0000 0.0000 0.0000
# 3 11.9450 47.4765 57.3325 0.0000 0.0000 0.0000
# 4 0.0000 0.0000 0.0000 -286.1072 0.0000 0.0000
# 5 0.0000 0.0000 0.0000 0.0000 12.1786 0.0000
# 6 0.0000 0.0000 0.0000 0.0000 0.0000 39.9771
#
#
#
# Elastic Compliance Matrix: (Units=1/GPa)
#
#
# Indices 1 2 3 4 5 6 
#
# 1 0.011499 -0.003769 0.000725 0.000000 0.000000 0.000000
# 2 -0.003769 0.016792 -0.013120 0.000000 0.000000 0.000000
# 3 0.000725 -0.013120 0.028155 0.000000 0.000000 0.000000
# 4 0.000000 0.000000 0.000000 -0.003495 0.000000 0.000000
# 5 0.000000 0.000000 0.000000 0.000000 0.082112 0.000000
# 6 0.000000 0.000000 0.000000 0.000000 0.000000 0.025014
#
#
# Mechanical properties :
#
#
# Convention : Reuss Voigt Hill
#
# Bulk Modulus (GPa) = 41.46053 48.67203 45.06628
# Shear Modulus (GPa) = 24.94469 -35.66337 -5.35934
#
# Velocity S-wave (km/s) = 3.45172 -4.12722 -1.59993
# Velocity P-wave (km/s) = 5.97400 0.73168 4.25582
#
# Compressibility (1/GPa) = 0.02411932
#
# Stress axis : x y z
#
# Youngs Moduli (GPa) = 86.96174 59.55377 35.51727
#
# Poissons Ratio (x) = 0.22445 -0.02575
# Poissons Ratio (y) = 0.32775 0.46598
# Poissons Ratio (z) = -0.06306 0.78133
#
# Static dielectric constant tensor:
#      x y z
#    x 1.762370 0.000000 0.000000 
#    y 0.000000 1.861480 0.000000 
#    z 0.000000 0.000000 1.710290 
# 
# From -- ./inp_files/4986.got.cif
#   From: 2010.05.17/outbox.cif.g08.bks.cpg/sg39_3_cif.got.tgz:4986.got - 2010.06.03 18:22:40.
