data_PCOD9361128
_publ_section_title
;
Structure prediction by ZEFSAII (Michael W. Deem and Ramdas Pophale) SiO2 
 PCOD9361128
Probable space group: A B M 2
;
_chemical_formula_sum "Si O2"
_cell_formula_units_Z 64
_cell_length_a 12.378420
_cell_length_b 14.364658
_cell_length_c 18.129441
_cell_angle_alpha 90.000000
_cell_angle_beta 90.000000
_cell_angle_gamma 90.000000
_cell_volume 3223.627991
_symmetry_space_group_name_H-M "A B M 2"
_symmetry_group_IT_number 39
_symmetry_cell_setting 'orthorhombic'
loop_
_space_group_symop_operation_xyz
x,y,z
-x,-y,z
-x,1/2+y,z
x,1/2-y,z
x,1/2+y,1/2+z
-x,1/2-y,1/2+z
-x,y,1/2+z
x,-y,1/2+z
loop_
_atom_site_type_symbol
_atom_site_label
_atom_site_fract_x
_atom_site_fract_y
_atom_site_fract_z
Si Si1 0.037518 0.861981 0.938250
Si Si2 0.193994 0.149211 0.693419
Si Si3 0.588732 0.853192 0.777593
Si Si4 0.172936 0.445685 0.159552
Si Si5 0.983221 0.142771 0.771510
Si Si6 0.345379 0.139935 0.272686
Si Si7 0.834248 0.037521 0.494409
Si Si8 0.623994 0.496593 0.902540
O O1 0.053282 0.750000 0.949540
O O2 0.058918 0.884947 0.851732
O O3 0.913283 0.892335 0.950623
O O4 0.106692 0.935554 0.986544
O O5 0.168019 0.250000 0.659338
O O6 0.317579 0.148450 0.717825
O O7 0.112835 0.139084 0.763345
O O8 0.175488 0.056474 0.649363
O O9 0.582066 0.750000 0.811201
O O10 0.469690 0.874127 0.747702
O O11 0.621359 0.926344 0.838597
O O12 0.068462 0.413497 0.204808
O O13 0.267849 0.411016 0.214273
O O14 0.174460 0.415688 0.075137
O O15 0.951742 0.250000 0.761070
O O16 0.320769 0.250000 0.274465
O O17 0.345206 0.096150 0.355316
O O18 0.716200 0.021503 0.460319
O O19 0.500000 0.500000 0.931845
#
# Coordination Sequence:
#
# PCOD9361128 Si02
#       8
#     8   8   8   8   8   8   8   8
#     4  10  24  44  65  88 121 164 212 260 305 365
#     4  10  21  35  58  89 119 155 196 251 307 354
#     4   9  18  36  63  94 117 149 206 258 304 349
#     4  12  24  38  58  91 127 160 200 252 308 370
#     4  10  22  39  65  92 117 157 206 255 304 357
#     4  10  21  38  65  93 120 159 210 260 300 352
#     4  11  26  40  59  95 128 167 204 244 318 386
#     4  10  20  40  64  92 124 164 205 259 305 364
#
# _framework density 19.853408000000002
#
# number of rings (size 3 to 8) (size 9 to 14) (size 15 to 20)
#    0.000    1.750    1.250    2.250    7.000    4.500 
#    2.250    0.000    0.000    0.000    0.000    0.000 
#    0.000    0.000    0.000    0.000    0.000    0.000 
#
# Total GULP energy -178369.185926 kJ/mol
# GULP energy per Si atom -5574.037060 kJ/mol
# Density = 1.980822 g / cm^3
# Si number density = 19.853408 Si / 1000 Ang^3
#
#
#
# Elastic Constant Matrix: (Units=GPa)
#
#
# Indices 1 2 3 4 5 6 
#
# 1 111.5222 5.7738 42.3830 0.0000 0.0000 0.0000
# 2 5.7738 72.2389 16.8010 0.0000 0.0000 0.0000
# 3 42.3830 16.8010 86.3092 0.0000 0.0000 0.0000
# 4 0.0000 0.0000 0.0000 8.4579 0.0000 0.0000
# 5 0.0000 0.0000 0.0000 0.0000 -20.4212 0.0000
# 6 0.0000 0.0000 0.0000 0.0000 0.0000 23.4371
#
#
#
# Elastic Compliance Matrix: (Units=1/GPa)
#
#
# Indices 1 2 3 4 5 6 
#
# 1 0.011035 0.000396 -0.005496 0.000000 0.000000 0.000000
# 2 0.000396 0.014514 -0.003020 0.000000 0.000000 0.000000
# 3 -0.005496 -0.003020 0.014873 0.000000 0.000000 0.000000
# 4 0.000000 0.000000 0.000000 0.118233 0.000000 0.000000
# 5 0.000000 0.000000 0.000000 0.000000 -0.048969 0.000000
# 6 0.000000 0.000000 0.000000 0.000000 0.000000 0.042667
#
#
# Mechanical properties :
#
#
# Convention : Reuss Voigt Hill
#
# Bulk Modulus (GPa) = 41.35223 44.44285 42.89754
# Shear Modulus (GPa) = 28.30405 15.96892 22.13649
#
# Velocity S-wave (km/s) = 3.77988 2.83917 3.34278
# Velocity P-wave (km/s) = 6.31854 5.76038 6.04590
#
# Compressibility (1/GPa) = 0.02418249
#
# Stress axis : x y z
#
# Youngs Moduli (GPa) = 90.62063 68.90076 67.23615
#
# Poissons Ratio (x) = -0.02730 0.36953
# Poissons Ratio (y) = -0.03591 0.20304
# Poissons Ratio (z) = 0.49805 0.20807
#
# Static dielectric constant tensor:
#      x y z
#    x 1.743030 0.000000 0.000000 
#    y 0.000000 1.751060 0.000000 
#    z 0.000000 0.000000 1.670680 
# 
# From -- ./inp_files/12349.got.cif
#   From: 2010.05.17/outbox.cif.g08.bks.cpg/sg39_7_cif.got.tgz:12349.got - 2010.06.03 18:22:40.
