data_PCOD9361981
_publ_section_title
;
Structure prediction by ZEFSAII (Michael W. Deem and Ramdas Pophale) SiO2 
 PCOD9361981
Probable space group: A B M 2
;
_chemical_formula_sum "Si O2"
_cell_formula_units_Z 44
_cell_length_a 8.330674
_cell_length_b 18.629598
_cell_length_c 13.482069
_cell_angle_alpha 90.000000
_cell_angle_beta 90.000000
_cell_angle_gamma 90.000000
_cell_volume 2092.378114
_symmetry_space_group_name_H-M "A B M 2"
_symmetry_group_IT_number 39
_symmetry_cell_setting 'orthorhombic'
loop_
_space_group_symop_operation_xyz
x,y,z
-x,-y,z
-x,1/2+y,z
x,1/2-y,z
x,1/2+y,1/2+z
-x,1/2-y,1/2+z
-x,y,1/2+z
x,-y,1/2+z
loop_
_atom_site_type_symbol
_atom_site_label
_atom_site_fract_x
_atom_site_fract_y
_atom_site_fract_z
Si Si1 0.209552 0.099727 0.815200
Si Si2 0.951024 0.250000 0.067833
Si Si3 0.000000 0.500000 0.952474
Si Si4 0.478551 0.864349 0.461987
Si Si5 0.341539 0.250000 0.326210
Si Si6 0.771021 0.903325 0.586970
Si Si7 0.958943 0.250000 0.343495
Si Si8 0.691801 0.750000 0.102644
O O1 0.366914 0.095694 0.883590
O O2 0.234988 0.075724 0.702402
O O3 0.139184 0.180554 0.809067
O O4 0.083177 0.055221 0.878257
O O5 0.118011 0.250000 0.128283
O O6 0.844949 0.321894 0.079994
O O7 0.035786 0.250000 0.961508
O O8 0.117344 0.544150 0.023875
O O9 0.590157 0.815948 0.390013
O O10 0.598224 0.905098 0.534809
O O11 0.365490 0.816908 0.535073
O O12 0.394773 0.250000 0.210736
O O13 0.149559 0.250000 0.325903
#
# Coordination Sequence:
#
# PCOD9361981 Si02
#       8
#     8   4   4   8   4   8   4   4
#     4  12  25  44  70  98 131 177 218 271 334 388
#     4  12  20  42  67  98 130 167 216 271 316 378
#     4  12  26  48  68  94 136 168 226 276 320 406
#     4  11  22  39  60  92 138 164 220 270 320 390
#     4  11  20  33  60  97 133 170 206 263 330 383
#     4  12  25  44  70  98 131 177 218 271 334 388
#     4  12  20  42  67  98 130 167 216 271 316 378
#     4  11  20  33  60  97 133 170 206 263 330 383
#
# _framework density 21.028704000000001
#
# number of rings (size 3 to 8) (size 9 to 14) (size 15 to 20)
#    0.000    0.364    5.455    4.364    0.000    0.727 
#    0.000    7.273    0.000    0.000    0.000    0.000 
#    0.000    0.000    0.000    0.000    0.000    0.000 
#
# Total GULP energy -122913.640730 kJ/mol
# GULP energy per Si atom -5586.983670 kJ/mol
# Density = 2.098084 g / cm^3
# Si number density = 21.028704 Si / 1000 Ang^3
#
#
#
# Elastic Constant Matrix: (Units=GPa)
#
#
# Indices 1 2 3 4 5 6 
#
# 1 113.2836 26.1096 31.5375 0.0000 0.0000 0.0000
# 2 26.1096 70.0710 24.6161 0.0000 0.0000 0.0000
# 3 31.5375 24.6161 152.8335 0.0000 0.0000 0.0000
# 4 0.0000 0.0000 0.0000 -33.5065 0.0000 0.0000
# 5 0.0000 0.0000 0.0000 0.0000 12.1077 0.0000
# 6 0.0000 0.0000 0.0000 0.0000 0.0000 390.8306
#
#
#
# Elastic Compliance Matrix: (Units=1/GPa)
#
#
# Indices 1 2 3 4 5 6 
#
# 1 0.009991 -0.003179 -0.001550 0.000000 0.000000 0.000000
# 2 -0.003179 0.016138 -0.001943 0.000000 0.000000 0.000000
# 3 -0.001550 -0.001943 0.007176 0.000000 0.000000 0.000000
# 4 0.000000 0.000000 0.000000 -0.029845 0.000000 0.000000
# 5 0.000000 0.000000 0.000000 0.000000 0.082592 0.000000
# 6 0.000000 0.000000 0.000000 0.000000 0.000000 0.002559
#
#
# Mechanical properties :
#
#
# Convention : Reuss Voigt Hill
#
# Bulk Modulus (GPa) = 50.09477 55.63495 52.86486
# Shear Modulus (GPa) = 46.03683 90.81469 68.42576
#
# Velocity S-wave (km/s) = 4.68400 6.57874 5.71050
# Velocity P-wave (km/s) = 7.28883 9.17717 8.28696
#
# Compressibility (1/GPa) = 0.01996216
#
# Stress axis : x y z
#
# Youngs Moduli (GPa) = 100.08563 61.96426 139.35556
#
# Poissons Ratio (x) = 0.19696 0.21597
# Poissons Ratio (y) = 0.31812 0.27083
# Poissons Ratio (z) = 0.15511 0.12042
#
# Static dielectric constant tensor:
#      x y z
#    x 1.769500 0.000000 0.000000 
#    y 0.000000 1.801580 0.000000 
#    z 0.000000 0.000000 1.774300 
# 
# From -- ./inp_files/8302.got.cif
#   From: 2010.05.17/outbox.cif.g08.bks.cpg/sg39_5_cif.got.tgz:8302.got - 2010.06.03 18:22:40.
