data_PCOD9361207
_publ_section_title
;
Structure prediction by ZEFSAII (Michael W. Deem and Ramdas Pophale) SiO2 
 PCOD9361207
Probable space group: A B M 2
;
_chemical_formula_sum "Si O2"
_cell_formula_units_Z 56
_cell_length_a 15.179345
_cell_length_b 16.655932
_cell_length_c 9.622819
_cell_angle_alpha 90.000000
_cell_angle_beta 90.000000
_cell_angle_gamma 90.000000
_cell_volume 2432.900166
_symmetry_space_group_name_H-M "A B M 2"
_symmetry_group_IT_number 39
_symmetry_cell_setting 'orthorhombic'
loop_
_space_group_symop_operation_xyz
x,y,z
-x,-y,z
-x,1/2+y,z
x,1/2-y,z
x,1/2+y,1/2+z
-x,1/2-y,1/2+z
-x,y,1/2+z
x,-y,1/2+z
loop_
_atom_site_type_symbol
_atom_site_label
_atom_site_fract_x
_atom_site_fract_y
_atom_site_fract_z
Si Si1 0.638387 0.900219 0.163440
Si Si2 0.109701 0.152301 0.577021
Si Si3 0.050048 0.151686 0.270829
Si Si4 0.738009 0.347825 0.262869
Si Si5 0.443788 0.843320 0.147774
Si Si6 0.810263 0.159034 0.549406
Si Si7 0.595156 0.025157 0.923169
O O1 0.544327 0.858621 0.190253
O O2 0.659442 0.952392 0.299142
O O3 0.716557 0.841068 0.126774
O O4 0.625003 0.959717 0.034155
O O5 0.110259 0.250000 0.570115
O O6 0.074262 0.124289 0.426774
O O7 0.207646 0.127244 0.625718
O O8 0.043609 0.130543 0.702845
O O9 0.053714 0.250000 0.275652
O O10 0.120633 0.122253 0.156271
O O11 0.741460 0.250000 0.270724
O O12 0.634152 0.366384 0.255140
O O13 0.788603 0.377864 0.399636
O O14 0.433093 0.750000 0.116874
O O15 0.424295 0.895860 0.013318
O O16 0.842349 0.250000 0.523226
O O17 0.500000 0.000000 0.861243
#
# Coordination Sequence:
#
# PCOD9361207 Si02
#       7
#     8   8   8   8   8   8   8
#     4  11  24  40  60  82 118 157 203 240 295 342
#     4   9  16  29  50  76 117 159 188 230 290 351
#     4   9  17  29  49  79 115 155 192 233 289 347
#     4   9  19  33  51  80 117 154 190 234 291 348
#     4  10  22  37  60  88 118 152 194 243 299 347
#     4  10  21  35  54  85 121 153 197 248 292 345
#     4  10  23  41  59  80 111 154 200 246 283 352
#
# _framework density 23.017796000000001
#
# number of rings (size 3 to 8) (size 9 to 14) (size 15 to 20)
#    0.000    2.286    0.000    2.571    8.000    4.571 
#    0.000    0.000    0.000    0.000    0.000    1.000 
#    0.000    0.000    0.000    0.000    0.000    0.000 
#
# Total GULP energy -156349.121937 kJ/mol
# GULP energy per Si atom -5583.897212 kJ/mol
# Density = 2.296541 g / cm^3
# Si number density = 23.017796 Si / 1000 Ang^3
#
#
#
# Elastic Constant Matrix: (Units=GPa)
#
#
# Indices 1 2 3 4 5 6 
#
# 1 112.4887 -2.9192 28.3329 0.0000 0.0000 0.0000
# 2 -2.9192 37.0279 -6.2169 0.0000 0.0000 0.0000
# 3 28.3329 -6.2169 86.9272 0.0000 0.0000 0.0000
# 4 0.0000 0.0000 0.0000 17.6294 0.0000 0.0000
# 5 0.0000 0.0000 0.0000 0.0000 35.0789 0.0000
# 6 0.0000 0.0000 0.0000 0.0000 0.0000 0.3108
#
#
#
# Elastic Compliance Matrix: (Units=1/GPa)
#
#
# Indices 1 2 3 4 5 6 
#
# 1 0.009687 0.000236 -0.003140 0.000000 0.000000 0.000000
# 2 0.000236 0.027341 0.001878 0.000000 0.000000 0.000000
# 3 -0.003140 0.001878 0.012662 0.000000 0.000000 0.000000
# 4 0.000000 0.000000 0.000000 0.056723 0.000000 0.000000
# 5 0.000000 0.000000 0.000000 0.000000 0.028507 0.000000
# 6 0.000000 0.000000 0.000000 0.000000 0.000000 3.217801
#
#
# Mechanical properties :
#
#
# Convention : Reuss Voigt Hill
#
# Bulk Modulus (GPa) = 20.99168 30.53751 25.76460
# Shear Modulus (GPa) = 1.48339 25.08694 13.28517
#
# Velocity S-wave (km/s) = 0.80365 3.30493 2.40504
# Velocity P-wave (km/s) = 3.16239 5.27818 4.35085
#
# Compressibility (1/GPa) = 0.04763791
#
# Stress axis : x y z
#
# Youngs Moduli (GPa) = 103.23215 36.57560 78.97775
#
# Poissons Ratio (x) = -0.00865 0.24802
# Poissons Ratio (y) = -0.02441 -0.14834
# Poissons Ratio (z) = 0.32419 -0.06870
#
# Static dielectric constant tensor:
#      x y z
#    x 1.877010 0.000000 0.000000 
#    y 0.000000 1.869010 0.000000 
#    z 0.000000 0.000000 1.860530 
# 
# From -- ./inp_files/3389.got.cif
#   From: 2010.05.17/outbox.cif.g08.bks.cpg/sg39_2_cif.got.tgz:3389.got - 2010.06.03 18:22:40.
