data_PCOD9361012
_publ_section_title
;
Structure prediction by ZEFSAII (Michael W. Deem and Ramdas Pophale) SiO2 
 PCOD9361012
Probable space group: A B M 2
;
_chemical_formula_sum "Si O2"
_cell_formula_units_Z 48
_cell_length_a 9.487046
_cell_length_b 26.764435
_cell_length_c 8.349006
_cell_angle_alpha 90.000000
_cell_angle_beta 90.000000
_cell_angle_gamma 90.000000
_cell_volume 2119.941415
_symmetry_space_group_name_H-M "A B M 2"
_symmetry_group_IT_number 39
_symmetry_cell_setting 'orthorhombic'
loop_
_space_group_symop_operation_xyz
x,y,z
-x,-y,z
-x,1/2+y,z
x,1/2-y,z
x,1/2+y,1/2+z
-x,1/2-y,1/2+z
-x,y,1/2+z
x,-y,1/2+z
loop_
_atom_site_type_symbol
_atom_site_label
_atom_site_fract_x
_atom_site_fract_y
_atom_site_fract_z
Si Si1 0.097814 0.451835 0.759600
Si Si2 0.632469 0.604081 0.204275
Si Si3 0.716429 0.192518 0.099983
Si Si4 0.410790 0.191777 0.960159
Si Si5 0.111670 0.394514 0.445068
Si Si6 0.594340 0.451719 0.389361
O O1 0.105879 0.438019 0.574696
O O2 0.255968 0.460248 0.812163
O O3 0.000000 0.500000 0.783469
O O4 0.034253 0.403128 0.851512
O O5 0.766940 0.597782 0.314844
O O6 0.492758 0.593996 0.310001
O O7 0.643896 0.654309 0.097746
O O8 0.621872 0.561188 0.072326
O O9 0.762988 0.250000 0.090052
O O10 0.657166 0.184895 0.282410
O O11 0.838205 0.154996 0.040677
O O12 0.581505 0.186220 0.979996
O O13 0.383072 0.250000 0.002738
O O14 0.500000 0.500000 0.375838
#
# Coordination Sequence:
#
# PCOD9361012 Si02
#       6
#     8   8   8   8   8   8
#     4  12  27  47  68  94 132 179 226 273 334 402
#     4  12  24  41  69 102 137 173 220 278 335 398
#     4  10  21  39  66 101 139 179 224 277 338 401
#     4  10  20  37  67 106 142 175 221 284 343 394
#     4  12  26  45  69  97 135 180 224 275 335 402
#     4  12  26  45  69 100 135 174 222 277 334 395
#
# _framework density 22.642135
#
# number of rings (size 3 to 8) (size 9 to 14) (size 15 to 20)
#    0.000    0.667    0.000    9.000    0.000    6.000 
#    0.000    2.500    0.000    4.000    0.000    0.000 
#    0.000    0.000    0.000    0.000    0.000    0.000 
#
# Total GULP energy -134280.370564 kJ/mol
# GULP energy per Si atom -5595.015440 kJ/mol
# Density = 2.259060 g / cm^3
# Si number density = 22.642135 Si / 1000 Ang^3
#
#
#
# Elastic Constant Matrix: (Units=GPa)
#
#
# Indices 1 2 3 4 5 6 
#
# 1 94.1092 62.6259 41.4143 0.0000 0.0000 0.0000
# 2 62.6259 154.2112 62.6660 0.0000 0.0000 0.0000
# 3 41.4143 62.6660 143.5979 0.0000 0.0000 0.0000
# 4 0.0000 0.0000 0.0000 150.9974 0.0000 0.0000
# 5 0.0000 0.0000 0.0000 0.0000 44.0263 0.0000
# 6 0.0000 0.0000 0.0000 0.0000 0.0000 11.0362
#
#
#
# Elastic Compliance Matrix: (Units=1/GPa)
#
#
# Indices 1 2 3 4 5 6 
#
# 1 0.015033 -0.005279 -0.002032 0.000000 0.000000 0.000000
# 2 -0.005279 0.009737 -0.002726 0.000000 0.000000 0.000000
# 3 -0.002032 -0.002726 0.008740 0.000000 0.000000 0.000000
# 4 0.000000 0.000000 0.000000 0.006623 0.000000 0.000000
# 5 0.000000 0.000000 0.000000 0.000000 0.022714 0.000000
# 6 0.000000 0.000000 0.000000 0.000000 0.000000 0.090611
#
#
# Mechanical properties :
#
#
# Convention : Reuss Voigt Hill
#
# Bulk Modulus (GPa) = 74.43621 80.59232 77.51427
# Shear Modulus (GPa) = 28.08830 56.22613 42.15721
#
# Velocity S-wave (km/s) = 3.52594 4.98863 4.31965
# Velocity P-wave (km/s) = 7.03724 8.29778 7.69337
#
# Compressibility (1/GPa) = 0.01343432
#
# Stress axis : x y z
#
# Youngs Moduli (GPa) = 66.51883 102.70584 114.42116
#
# Poissons Ratio (x) = 0.54223 0.23247
# Poissons Ratio (y) = 0.35119 0.31196
# Poissons Ratio (z) = 0.13515 0.28002
#
# Static dielectric constant tensor:
#      x y z
#    x 1.770920 0.000000 0.000000 
#    y 0.000000 1.893590 0.000000 
#    z 0.000000 0.000000 1.901050 
# 
# From -- ./inp_files/2321.got.cif
#   From: 2010.05.17/outbox.cif.g08.bks.cpg/sg39_2_cif.got.tgz:2321.got - 2010.06.03 18:22:40.
