data_PCOD9361931
_publ_section_title
;
Structure prediction by ZEFSAII (Michael W. Deem and Ramdas Pophale) SiO2 
 PCOD9361931
Probable space group: A B M 2
;
_chemical_formula_sum "Si O2"
_cell_formula_units_Z 32
_cell_length_a 9.762092
_cell_length_b 12.325413
_cell_length_c 10.198238
_cell_angle_alpha 90.000000
_cell_angle_beta 90.000000
_cell_angle_gamma 90.000000
_cell_volume 1227.070513
_symmetry_space_group_name_H-M "A B M 2"
_symmetry_group_IT_number 39
_symmetry_cell_setting 'orthorhombic'
loop_
_space_group_symop_operation_xyz
x,y,z
-x,-y,z
-x,1/2+y,z
x,1/2-y,z
x,1/2+y,1/2+z
-x,1/2-y,1/2+z
-x,y,1/2+z
x,-y,1/2+z
loop_
_atom_site_type_symbol
_atom_site_label
_atom_site_fract_x
_atom_site_fract_y
_atom_site_fract_z
Si Si1 0.480961 0.750000 0.311550
Si Si2 0.872655 0.934883 0.793585
Si Si3 0.248736 0.250000 0.440455
Si Si4 0.633228 0.435177 0.125269
Si Si5 0.754027 0.750000 0.978362
Si Si6 0.050179 0.250000 0.215253
O O1 0.639760 0.750000 0.326524
O O2 0.430709 0.646585 0.231742
O O3 0.409117 0.750000 0.455551
O O4 0.753975 0.994693 0.709601
O O5 0.804319 0.857232 0.900911
O O6 0.952450 0.852903 0.696400
O O7 0.000000 0.000000 0.851747
O O8 0.288756 0.141186 0.520826
O O9 0.104444 0.250000 0.365938
O O10 0.500000 0.500000 0.073327
O O11 0.827088 0.750000 0.115092
#
# Coordination Sequence:
#
# PCOD9361931 Si02
#       6
#     4   8   4   8   4   4
#     4   9  22  43  68  97 133 183 238 288 363 414
#     4  10  24  44  70 105 137 184 240 294 363 422
#     4  11  25  43  71 103 141 193 234 294 354 429
#     4  10  24  47  71 101 144 183 239 301 356 425
#     4   9  22  45  68  96 142 185 231 299 347 426
#     4  11  25  43  71 102 146 189 241 295 358 433
#
# _framework density 26.078371000000001
#
# number of rings (size 3 to 8) (size 9 to 14) (size 15 to 20)
#    0.000    2.000    0.000    2.250   14.000    2.000 
#    4.500    0.000    0.000    1.500    0.000    0.000 
#    0.000    0.000    0.000    0.000    0.000    0.000 
#
# Total GULP energy -89489.842406 kJ/mol
# GULP energy per Si atom -5593.115150 kJ/mol
# Density = 2.601902 g / cm^3
# Si number density = 26.078371 Si / 1000 Ang^3
#
#
#
# Elastic Constant Matrix: (Units=GPa)
#
#
# Indices 1 2 3 4 5 6 
#
# 1 154.9374 32.6044 45.0945 0.0000 0.0000 0.0000
# 2 32.6044 71.4194 7.8687 0.0000 0.0000 0.0000
# 3 45.0945 7.8687 91.0206 0.0000 0.0000 0.0000
# 4 0.0000 0.0000 0.0000 1.9142 0.0000 0.0000
# 5 0.0000 0.0000 0.0000 0.0000 48.2663 0.0000
# 6 0.0000 0.0000 0.0000 0.0000 0.0000 58.9663
#
#
#
# Elastic Compliance Matrix: (Units=1/GPa)
#
#
# Indices 1 2 3 4 5 6 
#
# 1 0.008268 -0.003355 -0.003806 0.000000 0.000000 0.000000
# 2 -0.003355 0.015498 0.000322 0.000000 0.000000 0.000000
# 3 -0.003806 0.000322 0.012844 0.000000 0.000000 0.000000
# 4 0.000000 0.000000 0.000000 0.522406 0.000000 0.000000
# 5 0.000000 0.000000 0.000000 0.000000 0.020718 0.000000
# 6 0.000000 0.000000 0.000000 0.000000 0.000000 0.016959
#
#
# Mechanical properties :
#
#
# Convention : Reuss Voigt Hill
#
# Bulk Modulus (GPa) = 43.60613 54.27918 48.94265
# Shear Modulus (GPa) = 8.09041 37.28336 22.68689
#
# Velocity S-wave (km/s) = 1.76326 3.78519 2.95269
# Velocity P-wave (km/s) = 4.57197 6.32160 5.51659
#
# Compressibility (1/GPa) = 0.02293256
#
# Stress axis : x y z
#
# Youngs Moduli (GPa) = 120.94727 64.52457 77.85514
#
# Poissons Ratio (x) = 0.21649 0.29633
# Poissons Ratio (y) = 0.40580 -0.02511
# Poissons Ratio (z) = 0.46035 -0.02081
#
# Static dielectric constant tensor:
#      x y z
#    x 1.957060 0.000000 0.000000 
#    y 0.000000 2.153200 0.000000 
#    z 0.000000 0.000000 2.050650 
# 
# From -- ./inp_files/4873.got.cif
#   From: 2010.05.17/outbox.cif.g08.bks.cpg/sg39_3_cif.got.tgz:4873.got - 2010.06.03 18:22:40.
