data_PCOD9361728
_publ_section_title
;
Structure prediction by ZEFSAII (Michael W. Deem and Ramdas Pophale) SiO2 
 PCOD9361728
Probable space group: A B M 2
;
_chemical_formula_sum "Si O2"
_cell_formula_units_Z 64
_cell_length_a 24.301889
_cell_length_b 8.726195
_cell_length_c 15.836814
_cell_angle_alpha 90.000000
_cell_angle_beta 90.000000
_cell_angle_gamma 90.000000
_cell_volume 3358.402640
_symmetry_space_group_name_H-M "A B M 2"
_symmetry_group_IT_number 39
_symmetry_cell_setting 'orthorhombic'
loop_
_space_group_symop_operation_xyz
x,y,z
-x,-y,z
-x,1/2+y,z
x,1/2-y,z
x,1/2+y,1/2+z
-x,1/2-y,1/2+z
-x,y,1/2+z
x,-y,1/2+z
loop_
_atom_site_type_symbol
_atom_site_label
_atom_site_fract_x
_atom_site_fract_y
_atom_site_fract_z
Si Si1 0.636858 0.566568 0.311340
Si Si2 0.369018 0.565525 0.489433
Si Si3 0.250365 0.932638 0.246183
Si Si4 0.133231 0.433023 0.499513
Si Si5 0.751827 0.433730 0.557359
Si Si6 0.561044 0.934731 0.153358
Si Si7 0.061061 0.566492 0.650845
Si Si8 0.136464 0.065474 0.309150
O O1 0.643113 0.750000 0.308434
O O2 0.615304 0.513920 0.402173
O O3 0.695922 0.489595 0.295481
O O4 0.596500 0.519202 0.235236
O O5 0.372605 0.750000 0.480443
O O6 0.305671 0.528152 0.512226
O O7 0.406777 0.518469 0.568374
O O8 0.250980 0.750000 0.238566
O O9 0.251172 0.008638 0.153574
O O10 0.194788 0.986811 0.291529
O O11 0.131340 0.250000 0.509634
O O12 0.195465 0.490011 0.514361
O O13 0.094839 0.508377 0.569917
O O14 0.116680 0.471842 0.403538
O O15 0.758332 0.250000 0.557005
O O16 0.558647 0.750000 0.153340
O O17 0.500000 0.000000 0.155841
O O18 0.058717 0.750000 0.648865
O O19 0.094347 0.520339 0.735340
O O20 0.000000 0.500000 0.651136
O O21 0.144096 0.250000 0.304572
#
# Coordination Sequence:
#
# PCOD9361728 Si02
#       8
#     8   8   8   8   8   8   8   8
#     4  11  23  41  63  90 125 162 201 250 307 364
#     4  10  22  41  63  90 124 160 202 249 303 366
#     4  12  23  36  62  95 125 161 204 248 301 366
#     4  11  23  40  63  95 126 159 204 251 301 366
#     4  11  21  38  62  89 127 165 197 246 309 365
#     4  10  23  43  63  86 120 161 205 255 307 359
#     4  11  24  43  65  88 121 165 207 258 309 357
#     4  10  23  42  64  91 127 164 200 248 308 364
#
# _framework density 19.05668
#
# number of rings (size 3 to 8) (size 9 to 14) (size 15 to 20)
#    0.000    1.250    2.500    3.375    0.000    7.000 
#    0.000    3.750    0.000    0.000    0.000    0.000 
#    0.000    0.000    0.000    0.000    0.000    0.000 
#
# Total GULP energy -178961.723737 kJ/mol
# GULP energy per Si atom -5592.553867 kJ/mol
# Density = 1.901331 g / cm^3
# Si number density = 19.056680 Si / 1000 Ang^3
#
#
#
# Elastic Constant Matrix: (Units=GPa)
#
#
# Indices 1 2 3 4 5 6 
#
# 1 141.8951 38.7001 71.4742 0.0000 0.0000 0.0000
# 2 38.7001 36.9932 43.6184 0.0000 0.0000 0.0000
# 3 71.4742 43.6184 170.5574 0.0000 0.0000 0.0000
# 4 0.0000 0.0000 0.0000 29.8284 0.0000 0.0000
# 5 0.0000 0.0000 0.0000 0.0000 -1.5514 0.0000
# 6 0.0000 0.0000 0.0000 0.0000 0.0000 35.6996
#
#
#
# Elastic Compliance Matrix: (Units=1/GPa)
#
#
# Indices 1 2 3 4 5 6 
#
# 1 0.010438 -0.008250 -0.002264 0.000000 0.000000 0.000000
# 2 -0.008250 0.045223 -0.008108 0.000000 0.000000 0.000000
# 3 -0.002264 -0.008108 0.008886 0.000000 0.000000 0.000000
# 4 0.000000 0.000000 0.000000 0.033525 0.000000 0.000000
# 5 0.000000 0.000000 0.000000 0.000000 -0.644576 0.000000
# 6 0.000000 0.000000 0.000000 0.000000 0.000000 0.028012
#
#
# Mechanical properties :
#
#
# Convention : Reuss Voigt Hill
#
# Bulk Modulus (GPa) = 36.62759 73.00346 54.81552
# Shear Modulus (GPa) = -10.58991 25.83884 7.62447
#
# Velocity S-wave (km/s) = -2.35990 3.68624 2.00241
# Velocity P-wave (km/s) = 3.44043 7.51729 5.84577
#
# Compressibility (1/GPa) = 0.02730183
#
# Stress axis : x y z
#
# Youngs Moduli (GPa) = 95.80291 22.11280 112.54136
#
# Poissons Ratio (x) = 0.18243 0.25484
# Poissons Ratio (y) = 0.79035 0.91250
# Poissons Ratio (z) = 0.21694 0.17929
#
# Static dielectric constant tensor:
#      x y z
#    x 1.625890 0.000000 0.000000 
#    y 0.000000 1.656390 0.000000 
#    z 0.000000 0.000000 1.666880 
# 
# From -- ./inp_files/10629.got.cif
#   From: 2010.05.17/outbox.cif.g08.bks.cpg/sg39_6_cif.got.tgz:10629.got - 2010.06.03 18:22:40.
