data_PCOD9361751
_publ_section_title
;
Structure prediction by ZEFSAII (Michael W. Deem and Ramdas Pophale) SiO2 
 PCOD9361751
Probable space group: A B M 2
;
_chemical_formula_sum "Si O2"
_cell_formula_units_Z 60
_cell_length_a 16.708780
_cell_length_b 29.630085
_cell_length_c 5.243266
_cell_angle_alpha 90.000000
_cell_angle_beta 90.000000
_cell_angle_gamma 90.000000
_cell_volume 2595.849615
_symmetry_space_group_name_H-M "A B M 2"
_symmetry_group_IT_number 39
_symmetry_cell_setting 'orthorhombic'
loop_
_space_group_symop_operation_xyz
x,y,z
-x,-y,z
-x,1/2+y,z
x,1/2-y,z
x,1/2+y,1/2+z
-x,1/2-y,1/2+z
-x,y,1/2+z
x,-y,1/2+z
loop_
_atom_site_type_symbol
_atom_site_label
_atom_site_fract_x
_atom_site_fract_y
_atom_site_fract_z
Si Si1 0.185776 0.333828 0.933200
Si Si2 0.908906 0.018311 0.791374
Si Si3 0.809198 0.587924 0.555590
Si Si4 0.047837 0.304291 0.269267
Si Si5 0.654591 0.471258 0.118571
Si Si6 0.550463 0.382426 0.043557
Si Si7 0.782549 0.750000 0.596718
Si Si8 0.299256 0.664960 0.821236
O O1 0.168546 0.380516 0.793445
O O2 0.171296 0.289991 0.760264
O O3 0.129256 0.326446 0.176861
O O4 0.279170 0.331002 0.020111
O O5 0.875271 0.984171 0.006328
O O6 0.886053 0.065976 0.916886
O O7 0.000000 0.000000 0.756349
O O8 0.744483 0.548919 0.611792
O O9 0.755528 0.621665 0.387778
O O10 0.061449 0.250000 0.274901
O O11 0.013276 0.316539 0.542796
O O12 0.643108 0.490915 0.401457
O O13 0.593953 0.431105 0.045133
O O14 0.480359 0.378122 0.833285
O O15 0.615465 0.346939 0.937503
O O16 0.733069 0.789581 0.445226
#
# Coordination Sequence:
#
# PCOD9361751 Si02
#       8
#     8   8   8   8   8   8   4   8
#     4  11  23  41  71  96 140 181 239 296 354 422
#     4  10  22  42  64  89 129 180 227 279 339 405
#     4  10  24  39  65  98 133 176 234 287 345 410
#     4  10  23  40  61  91 131 174 222 284 356 412
#     4  11  24  41  70 100 133 178 231 284 340 410
#     4  11  26  46  71 102 149 183 221 285 358 421
#     4  10  22  42  70 104 126 180 242 288 338 422
#     4  10  25  42  72 101 138 182 238 291 350 426
#
# _framework density 23.11382
#
# number of rings (size 3 to 8) (size 9 to 14) (size 15 to 20)
#    0.000    1.600    0.667    2.000   14.933    1.600 
#    4.800    0.667    0.000    0.000    0.000    0.000 
#    0.000    0.000    0.000    0.000    0.000    0.000 
#
# Total GULP energy -167043.268956 kJ/mol
# GULP energy per Si atom -5568.108965 kJ/mol
# Density = 2.306121 g / cm^3
# Si number density = 23.113820 Si / 1000 Ang^3
#
#
#
# Elastic Constant Matrix: (Units=GPa)
#
#
# Indices 1 2 3 4 5 6 
#
# 1 66.2479 19.5994 11.5318 0.0000 0.0000 0.0000
# 2 19.5994 62.1631 11.9670 0.0000 0.0000 0.0000
# 3 11.5318 11.9670 84.9251 0.0000 0.0000 0.0000
# 4 0.0000 0.0000 0.0000 19.5745 0.0000 0.0000
# 5 0.0000 0.0000 0.0000 0.0000 34.7329 0.0000
# 6 0.0000 0.0000 0.0000 0.0000 0.0000 -170.1559
#
#
#
# Elastic Compliance Matrix: (Units=1/GPa)
#
#
# Indices 1 2 3 4 5 6 
#
# 1 0.016852 -0.005009 -0.001583 0.000000 0.000000 0.000000
# 2 -0.005009 0.018024 -0.001860 0.000000 0.000000 0.000000
# 3 -0.001583 -0.001860 0.012252 0.000000 0.000000 0.000000
# 4 0.000000 0.000000 0.000000 0.051087 0.000000 0.000000
# 5 0.000000 0.000000 0.000000 0.000000 0.028791 0.000000
# 6 0.000000 0.000000 0.000000 0.000000 0.000000 -0.005877
#
#
# Mechanical properties :
#
#
# Convention : Reuss Voigt Hill
#
# Bulk Modulus (GPa) = 33.08379 33.28141 33.18260
# Shear Modulus (GPa) = 33.75958 -11.82051 10.96953
#
# Velocity S-wave (km/s) = 3.82590 -2.26388 2.18087
# Velocity P-wave (km/s) = 5.81904 2.75620 4.55290
#
# Compressibility (1/GPa) = 0.03022629
#
# Stress axis : x y z
#
# Youngs Moduli (GPa) = 59.33977 55.48192 81.61922
#
# Poissons Ratio (x) = 0.27789 0.12917
# Poissons Ratio (y) = 0.29721 0.15179
# Poissons Ratio (z) = 0.09391 0.10318
#
# Static dielectric constant tensor:
#      x y z
#    x 2.006750 0.000000 0.000000 
#    y 0.000000 1.783740 0.000000 
#    z 0.000000 0.000000 2.012970 
# 
# From -- ./inp_files/876.got.cif
#   From: 2010.05.17/outbox.cif.g08.bks.cpg/sg39_1_cif.got.tgz:876.got - 2010.06.03 18:22:40.
