data_PCOD9361125
_publ_section_title
;
Structure prediction by ZEFSAII (Michael W. Deem and Ramdas Pophale) SiO2 
 PCOD9361125
Probable space group: A B M 2
;
_chemical_formula_sum "Si O2"
_cell_formula_units_Z 60
_cell_length_a 18.243529
_cell_length_b 17.468834
_cell_length_c 9.626760
_cell_angle_alpha 90.000000
_cell_angle_beta 90.000000
_cell_angle_gamma 90.000000
_cell_volume 3067.982754
_symmetry_space_group_name_H-M "A B M 2"
_symmetry_group_IT_number 39
_symmetry_cell_setting 'orthorhombic'
loop_
_space_group_symop_operation_xyz
x,y,z
-x,-y,z
-x,1/2+y,z
x,1/2-y,z
x,1/2+y,1/2+z
-x,1/2-y,1/2+z
-x,y,1/2+z
x,-y,1/2+z
loop_
_atom_site_type_symbol
_atom_site_label
_atom_site_fract_x
_atom_site_fract_y
_atom_site_fract_z
Si Si1 0.714900 0.026315 0.828950
Si Si2 0.179039 0.161777 0.386235
Si Si3 0.915353 0.081392 0.668787
Si Si4 0.071381 0.659970 0.145509
Si Si5 0.135230 0.555162 0.359780
Si Si6 0.483994 0.870370 0.111574
Si Si7 0.484563 0.750000 0.861020
Si Si8 0.616576 0.012124 0.577585
O O1 0.752891 0.104073 0.883394
O O2 0.780080 0.964660 0.835228
O O3 0.684917 0.034357 0.674337
O O4 0.647688 0.002615 0.925017
O O5 0.201181 0.250000 0.396193
O O6 0.133270 0.145769 0.245582
O O7 0.124551 0.143995 0.514839
O O8 0.882243 0.055914 0.521999
O O9 0.996019 0.113033 0.639516
O O10 0.909230 0.011201 0.777335
O O11 0.055352 0.750000 0.146057
O O12 0.111835 0.633305 0.285481
O O13 0.497264 0.817043 0.244039
O O14 0.419932 0.933081 0.129460
O O15 0.556649 0.921327 0.083730
O O16 0.469645 0.816864 0.979439
#
# Coordination Sequence:
#
# PCOD9361125 Si02
#       8
#     8   8   8   8   8   8   4   8
#     4  11  22  39  63  87 122 169 206 247 293 377
#     4  10  22  41  59  88 126 162 202 255 314 370
#     4  11  22  38  62  88 115 154 207 264 314 372
#     4  11  23  39  61  86 119 158 204 260 323 373
#     4  11  23  39  60  87 122 156 206 260 306 370
#     4  10  22  40  68  95 130 158 202 267 300 358
#     4  10  20  40  62  98 134 152 186 258 330 336
#     4  11  22  41  66  93 121 170 215 242 306 371
#
# _framework density 19.556825
#
# number of rings (size 3 to 8) (size 9 to 14) (size 15 to 20)
#    0.000    1.333    0.000    7.200    0.000    6.400 
#    7.200    0.000   11.733    0.000    0.000    0.000 
#    0.000    0.000    0.000    0.000    0.000    0.000 
#
# Total GULP energy -167129.505750 kJ/mol
# GULP energy per Si atom -5570.983525 kJ/mol
# Density = 1.951231 g / cm^3
# Si number density = 19.556825 Si / 1000 Ang^3
#
#
#
# Elastic Constant Matrix: (Units=GPa)
#
#
# Indices 1 2 3 4 5 6 
#
# 1 58.7004 25.9771 -1.9779 0.0000 0.0000 0.0000
# 2 25.9771 75.2902 9.4921 0.0000 0.0000 0.0000
# 3 -1.9779 9.4921 82.9970 0.0000 0.0000 0.0000
# 4 0.0000 0.0000 0.0000 28.4336 0.0000 0.0000
# 5 0.0000 0.0000 0.0000 0.0000 12.8646 0.0000
# 6 0.0000 0.0000 0.0000 0.0000 0.0000 11.9108
#
#
#
# Elastic Compliance Matrix: (Units=1/GPa)
#
#
# Indices 1 2 3 4 5 6 
#
# 1 0.020243 -0.007148 0.001300 0.000000 0.000000 0.000000
# 2 -0.007148 0.016000 -0.002000 0.000000 0.000000 0.000000
# 3 0.001300 -0.002000 0.012308 0.000000 0.000000 0.000000
# 4 0.000000 0.000000 0.000000 0.035170 0.000000 0.000000
# 5 0.000000 0.000000 0.000000 0.000000 0.077732 0.000000
# 6 0.000000 0.000000 0.000000 0.000000 0.000000 0.083957
#
#
# Mechanical properties :
#
#
# Convention : Reuss Voigt Hill
#
# Bulk Modulus (GPa) = 30.43720 31.55225 30.99472
# Shear Modulus (GPa) = 18.37835 22.87491 20.62663
#
# Velocity S-wave (km/s) = 3.06884 3.42374 3.25114
# Velocity P-wave (km/s) = 5.30607 5.63897 5.47505
#
# Compressibility (1/GPa) = 0.03285453
#
# Stress axis : x y z
#
# Youngs Moduli (GPa) = 49.40032 62.49831 81.24549
#
# Poissons Ratio (x) = 0.44675 -0.10561
# Poissons Ratio (y) = 0.35312 0.16251
# Poissons Ratio (z) = -0.06422 0.12501
#
# Static dielectric constant tensor:
#      x y z
#    x 1.686190 0.000000 0.000000 
#    y 0.000000 1.678350 0.000000 
#    z 0.000000 0.000000 1.659620 
# 
# From -- ./inp_files/3813.got.cif
#   From: 2010.05.17/outbox.cif.g08.bks.cpg/sg39_2_cif.got.tgz:3813.got - 2010.06.03 18:22:40.
