data_PCOD9361247
_publ_section_title
;
Structure prediction by ZEFSAII (Michael W. Deem and Ramdas Pophale) SiO2 
 PCOD9361247
Probable space group: A B M 2
;
_chemical_formula_sum "Si O2"
_cell_formula_units_Z 60
_cell_length_a 7.872518
_cell_length_b 22.943370
_cell_length_c 18.734884
_cell_angle_alpha 90.000000
_cell_angle_beta 90.000000
_cell_angle_gamma 90.000000
_cell_volume 3383.933966
_symmetry_space_group_name_H-M "A B M 2"
_symmetry_group_IT_number 39
_symmetry_cell_setting 'orthorhombic'
loop_
_space_group_symop_operation_xyz
x,y,z
-x,-y,z
-x,1/2+y,z
x,1/2-y,z
x,1/2+y,1/2+z
-x,1/2-y,1/2+z
-x,y,1/2+z
x,-y,1/2+z
loop_
_atom_site_type_symbol
_atom_site_label
_atom_site_fract_x
_atom_site_fract_y
_atom_site_fract_z
Si Si1 0.802724 0.622173 0.411740
Si Si2 0.500432 0.818306 0.997843
Si Si3 0.496626 0.373214 0.653646
Si Si4 0.696733 0.183176 0.275076
Si Si5 0.818569 0.130717 0.417822
Si Si6 0.691946 0.183158 0.774159
Si Si7 0.500000 0.500000 0.089391
Si Si8 0.804008 0.502499 0.974402
O O1 0.649934 0.650369 0.455300
O O2 0.792234 0.645112 0.330930
O O3 0.784966 0.552942 0.422410
O O4 0.987283 0.640355 0.440861
O O5 0.473204 0.750000 0.994991
O O6 0.495956 0.840906 0.078527
O O7 0.681049 0.834156 0.963112
O O8 0.335785 0.352171 0.701788
O O9 0.657816 0.349915 0.699682
O O10 0.500213 0.441634 0.636993
O O11 0.754690 0.250000 0.263512
O O12 0.799492 0.149847 0.335572
O O13 0.502046 0.187011 0.303716
O O14 0.780587 0.062650 0.431683
O O15 0.752919 0.250000 0.766042
O O16 0.665111 0.499551 0.037348
O O17 0.000000 0.500000 0.001314
#
# Coordination Sequence:
#
# PCOD9361247 Si02
#       8
#     8   8   8   8   8   8   4   8
#     4  11  22  38  63  89 117 159 202 246 303 354
#     4  12  21  36  60  87 122 155 199 254 294 350
#     4  10  21  36  60  87 115 159 198 234 300 358
#     4   9  19  38  57  83 121 154 190 240 291 347
#     4  11  22  38  63  89 117 159 202 246 303 354
#     4   9  19  38  57  83 121 154 190 240 291 347
#     4  12  20  38  64  86 116 162 196 244 304 356
#     4  10  22  39  59  89 125 151 194 258 300 344
#
# _framework density 17.730843
#
# number of rings (size 3 to 8) (size 9 to 14) (size 15 to 20)
#    0.800    0.800    4.000    1.600    0.000    3.200 
#    0.000    2.667    0.000    3.200    0.000    0.000 
#    0.000    0.000    0.000    0.000    0.000    0.000 
#
# Total GULP energy -167119.256996 kJ/mol
# GULP energy per Si atom -5570.641900 kJ/mol
# Density = 1.769049 g / cm^3
# Si number density = 17.730843 Si / 1000 Ang^3
#
#
#
# Elastic Constant Matrix: (Units=GPa)
#
#
# Indices 1 2 3 4 5 6 
#
# 1 48.2826 4.9938 16.1397 0.0000 0.0000 0.0000
# 2 4.9938 93.0933 24.1744 0.0000 0.0000 0.0000
# 3 16.1397 24.1744 96.5027 0.0000 0.0000 0.0000
# 4 0.0000 0.0000 0.0000 59.8721 0.0000 0.0000
# 5 0.0000 0.0000 0.0000 0.0000 14.1743 0.0000
# 6 0.0000 0.0000 0.0000 0.0000 0.0000 10.8314
#
#
#
# Elastic Compliance Matrix: (Units=1/GPa)
#
#
# Indices 1 2 3 4 5 6 
#
# 1 0.021943 -0.000240 -0.003610 0.000000 0.000000 0.000000
# 2 -0.000240 0.011492 -0.002839 0.000000 0.000000 0.000000
# 3 -0.003610 -0.002839 0.011677 0.000000 0.000000 0.000000
# 4 0.000000 0.000000 0.000000 0.016702 0.000000 0.000000
# 5 0.000000 0.000000 0.000000 0.000000 0.070550 0.000000
# 6 0.000000 0.000000 0.000000 0.000000 0.000000 0.092324
#
#
# Mechanical properties :
#
#
# Convention : Reuss Voigt Hill
#
# Bulk Modulus (GPa) = 31.51031 36.49937 34.00484
# Shear Modulus (GPa) = 20.10908 29.81360 24.96134
#
# Velocity S-wave (km/s) = 3.37134 4.10500 3.75613
# Velocity P-wave (km/s) = 5.74148 6.56491 6.16695
#
# Compressibility (1/GPa) = 0.03173565
#
# Stress axis : x y z
#
# Youngs Moduli (GPa) = 45.57285 87.01768 85.63669
#
# Poissons Ratio (x) = 0.02086 0.30913
# Poissons Ratio (y) = 0.01092 0.24310
# Poissons Ratio (z) = 0.16451 0.24702
#
# Static dielectric constant tensor:
#      x y z
#    x 1.623660 0.000000 0.000000 
#    y 0.000000 1.605480 0.000000 
#    z 0.000000 0.000000 1.592710 
# 
# From -- ./inp_files/11925.got.cif
#   From: 2010.05.17/outbox.cif.g08.bks.cpg/sg39_6_cif.got.tgz:11925.got - 2010.06.03 18:22:40.
