data_PCOD9361719
_publ_section_title
;
Structure prediction by ZEFSAII (Michael W. Deem and Ramdas Pophale) SiO2 
 PCOD9361719
Probable space group: A B M 2
;
_chemical_formula_sum "Si O2"
_cell_formula_units_Z 36
_cell_length_a 7.780406
_cell_length_b 17.621844
_cell_length_c 14.752635
_cell_angle_alpha 90.000000
_cell_angle_beta 90.000000
_cell_angle_gamma 90.000000
_cell_volume 2022.661509
_symmetry_space_group_name_H-M "A B M 2"
_symmetry_group_IT_number 39
_symmetry_cell_setting 'orthorhombic'
loop_
_space_group_symop_operation_xyz
x,y,z
-x,-y,z
-x,1/2+y,z
x,1/2-y,z
x,1/2+y,1/2+z
-x,1/2-y,1/2+z
-x,y,1/2+z
x,-y,1/2+z
loop_
_atom_site_type_symbol
_atom_site_label
_atom_site_fract_x
_atom_site_fract_y
_atom_site_fract_z
Si Si1 0.669879 0.339856 0.340340
Si Si2 0.000000 0.500000 0.975683
Si Si3 0.024047 0.415208 0.297821
Si Si4 0.648033 0.660097 0.205705
Si Si5 0.644516 0.064502 0.524997
O O1 0.682297 0.250000 0.358563
O O2 0.846165 0.369738 0.295534
O O3 0.511236 0.353516 0.273133
O O4 0.642490 0.386591 0.432683
O O5 0.941901 0.433945 0.904630
O O6 0.165511 0.472686 0.029547
O O7 0.000000 0.500000 0.257820
O O8 0.179790 0.372055 0.251988
O O9 0.664284 0.750000 0.191064
O O10 0.617727 0.617284 0.111665
O O11 0.500000 0.000000 0.521095
#
# Coordination Sequence:
#
# PCOD9361719 Si02
#       5
#     8   4   8   8   8
#     4  10  22  41  61  85 122 156 190 244 299 345
#     4   8  20  36  56  90 110 146 194 236 292 334
#     4   9  20  37  62  85 111 153 196 238 291 347
#     4  11  24  38  59  89 120 156 195 240 296 349
#     4  11  23  36  60  87 118 154 198 240 282 347
#
# _framework density 17.798331000000001
#
# number of rings (size 3 to 8) (size 9 to 14) (size 15 to 20)
#    0.667    1.333    0.000    2.667    4.667    0.000 
#    0.000    0.000    0.000    8.000    0.000    0.000 
#    0.000    0.000    0.000    0.000    0.000    0.000 
#
# Total GULP energy -100435.766819 kJ/mol
# GULP energy per Si atom -5579.764823 kJ/mol
# Density = 1.775782 g / cm^3
# Si number density = 17.798331 Si / 1000 Ang^3
#
#
#
# Elastic Constant Matrix: (Units=GPa)
#
#
# Indices 1 2 3 4 5 6 
#
# 1 137.3920 105.5655 66.9069 0.0000 0.0000 0.0000
# 2 105.5655 127.1777 68.9157 0.0000 0.0000 0.0000
# 3 66.9069 68.9157 77.5178 0.0000 0.0000 0.0000
# 4 0.0000 0.0000 0.0000 41.3585 0.0000 0.0000
# 5 0.0000 0.0000 0.0000 0.0000 -2.0384 0.0000
# 6 0.0000 0.0000 0.0000 0.0000 0.0000 36.8375
#
#
#
# Elastic Compliance Matrix: (Units=1/GPa)
#
#
# Indices 1 2 3 4 5 6 
#
# 1 0.021087 -0.014744 -0.005093 0.000000 0.000000 0.000000
# 2 -0.014744 0.025481 -0.009928 0.000000 0.000000 0.000000
# 3 -0.005093 -0.009928 0.026122 0.000000 0.000000 0.000000
# 4 0.000000 0.000000 0.000000 0.024179 0.000000 0.000000
# 5 0.000000 0.000000 0.000000 0.000000 -0.490578 0.000000
# 6 0.000000 0.000000 0.000000 0.000000 0.000000 0.027146
#
#
# Mechanical properties :
#
#
# Convention : Reuss Voigt Hill
#
# Bulk Modulus (GPa) = 75.98070 91.65152 83.81611
# Shear Modulus (GPa) = -16.52090 21.94482 2.71196
#
# Velocity S-wave (km/s) = -3.04999 3.51518 1.23573
# Velocity P-wave (km/s) = 5.51174 8.25115 7.01644
#
# Compressibility (1/GPa) = 0.01316124
#
# Stress axis : x y z
#
# Youngs Moduli (GPa) = 47.42274 39.24489 38.28175
#
# Poissons Ratio (x) = 0.57862 0.19496
# Poissons Ratio (y) = 0.69919 0.38006
# Poissons Ratio (z) = 0.24151 0.38962
#
# Static dielectric constant tensor:
#      x y z
#    x 1.575670 0.000000 0.000000 
#    y 0.000000 1.592850 0.000000 
#    z 0.000000 0.000000 1.594020 
# 
# From -- ./inp_files/7350.got.cif
#   From: 2010.05.17/outbox.cif.g08.bks.cpg/sg39_4_cif.got.tgz:7350.got - 2010.06.03 18:22:40.
