data_PCOD9361033
_publ_section_title
;
Structure prediction by ZEFSAII (Michael W. Deem and Ramdas Pophale) SiO2 
 PCOD9361033
Probable space group: A B M 2
;
_chemical_formula_sum "Si O2"
_cell_formula_units_Z 40
_cell_length_a 21.054130
_cell_length_b 10.344394
_cell_length_c 8.939783
_cell_angle_alpha 90.000000
_cell_angle_beta 90.000000
_cell_angle_gamma 90.000000
_cell_volume 1947.015151
_symmetry_space_group_name_H-M "A B M 2"
_symmetry_group_IT_number 39
_symmetry_cell_setting 'orthorhombic'
loop_
_space_group_symop_operation_xyz
x,y,z
-x,-y,z
-x,1/2+y,z
x,1/2-y,z
x,1/2+y,1/2+z
-x,1/2-y,1/2+z
-x,y,1/2+z
x,-y,1/2+z
loop_
_atom_site_type_symbol
_atom_site_label
_atom_site_fract_x
_atom_site_fract_y
_atom_site_fract_z
Si Si1 0.778024 0.109746 0.322120
Si Si2 0.946467 0.391664 0.776336
Si Si3 0.860616 0.465494 0.050136
Si Si4 0.440436 0.401384 0.505554
Si Si5 0.632112 0.603889 0.815544
O O1 0.779476 0.250000 0.395676
O O2 0.827041 0.109107 0.184876
O O3 0.705892 0.087626 0.271401
O O4 0.803621 0.011979 0.444464
O O5 0.974768 0.250000 0.758360
O O6 0.899191 0.422976 0.638632
O O7 0.000000 0.500000 0.776104
O O8 0.908840 0.399778 0.933767
O O9 0.500000 0.500000 0.497547
O O10 0.452061 0.250000 0.458357
O O11 0.414090 0.395650 0.673508
O O12 0.387792 0.480329 0.412411
O O13 0.626335 0.750000 0.885340
#
# Coordination Sequence:
#
# PCOD9361033 Si02
#       5
#     8   8   8   8   8
#     4  10  20  38  61  85 117 153 190 236 290 348
#     4  11  24  40  60  87 118 154 197 243 292 347
#     4  10  22  38  60  87 117 152 194 239 290 347
#     4  11  23  39  60  87 119 156 198 242 290 344
#     4  10  22  39  61  90 120 153 194 240 292 348
#
# _framework density 20.544267000000001
#
# number of rings (size 3 to 8) (size 9 to 14) (size 15 to 20)
#    0.000    1.600    0.000    4.200    0.000    9.600 
#    0.000    5.000    0.000    0.000    0.000    0.000 
#    0.000    0.000    0.000    0.000    0.000    0.000 
#
# Total GULP energy -111511.643333 kJ/mol
# GULP energy per Si atom -5575.582167 kJ/mol
# Density = 2.049751 g / cm^3
# Si number density = 20.544267 Si / 1000 Ang^3
#
#
#
# Elastic Constant Matrix: (Units=GPa)
#
#
# Indices 1 2 3 4 5 6 
#
# 1 83.0175 40.8349 -4.9108 0.0000 0.0000 0.0000
# 2 40.8349 157.1807 22.6695 0.0000 0.0000 0.0000
# 3 -4.9108 22.6695 58.9137 0.0000 0.0000 0.0000
# 4 0.0000 0.0000 0.0000 6.5564 0.0000 0.0000
# 5 0.0000 0.0000 0.0000 0.0000 28.7773 0.0000
# 6 0.0000 0.0000 0.0000 0.0000 0.0000 26.1533
#
#
#
# Elastic Compliance Matrix: (Units=1/GPa)
#
#
# Indices 1 2 3 4 5 6 
#
# 1 0.014222 -0.004093 0.002760 0.000000 0.000000 0.000000
# 2 -0.004093 0.007914 -0.003386 0.000000 0.000000 0.000000
# 3 0.002760 -0.003386 0.018507 0.000000 0.000000 0.000000
# 4 0.000000 0.000000 0.000000 0.152523 0.000000 0.000000
# 5 0.000000 0.000000 0.000000 0.000000 0.034750 0.000000
# 6 0.000000 0.000000 0.000000 0.000000 0.000000 0.038236
#
#
# Mechanical properties :
#
#
# Convention : Reuss Voigt Hill
#
# Bulk Modulus (GPa) = 32.04576 46.25547 39.15061
# Shear Modulus (GPa) = 17.48304 28.33196 22.90750
#
# Velocity S-wave (km/s) = 2.92034 3.71761 3.34283
# Velocity P-wave (km/s) = 5.19649 6.40245 5.83073
#
# Compressibility (1/GPa) = 0.03120538
#
# Stress axis : x y z
#
# Youngs Moduli (GPa) = 70.31256 126.36078 54.03321
#
# Poissons Ratio (x) = 0.51719 -0.14916
# Poissons Ratio (y) = 0.28779 0.18298
# Poissons Ratio (z) = -0.19409 0.42790
#
# Static dielectric constant tensor:
#      x y z
#    x 1.726180 0.000000 0.000000 
#    y 0.000000 1.853590 0.000000 
#    z 0.000000 0.000000 1.707900 
# 
# From -- ./inp_files/3615.got.cif
#   From: 2010.05.17/outbox.cif.g08.bks.cpg/sg39_2_cif.got.tgz:3615.got - 2010.06.03 18:22:40.
