data_PCOD9361856
_publ_section_title
;
Structure prediction by ZEFSAII (Michael W. Deem and Ramdas Pophale) SiO2 
 PCOD9361856
Probable space group: A B M 2
;
_chemical_formula_sum "Si O2"
_cell_formula_units_Z 32
_cell_length_a 16.291891
_cell_length_b 7.940157
_cell_length_c 9.963270
_cell_angle_alpha 90.000000
_cell_angle_beta 90.000000
_cell_angle_gamma 90.000000
_cell_volume 1288.850325
_symmetry_space_group_name_H-M "A B M 2"
_symmetry_group_IT_number 39
_symmetry_cell_setting 'orthorhombic'
loop_
_space_group_symop_operation_xyz
x,y,z
-x,-y,z
-x,1/2+y,z
x,1/2-y,z
x,1/2+y,1/2+z
-x,1/2-y,1/2+z
-x,y,1/2+z
x,-y,1/2+z
loop_
_atom_site_type_symbol
_atom_site_label
_atom_site_fract_x
_atom_site_fract_y
_atom_site_fract_z
Si Si1 0.597855 0.750000 0.479131
Si Si2 0.475243 0.750000 0.708812
Si Si3 0.187859 0.447814 0.272278
Si Si4 0.668442 0.059248 0.583402
Si Si5 0.091649 0.952168 0.024462
O O1 0.557594 0.750000 0.625729
O O2 0.525842 0.750000 0.369120
O O3 0.651032 0.580365 0.471216
O O4 0.417040 0.903176 0.660254
O O5 0.204238 0.250000 0.290397
O O6 0.265486 0.513165 0.188287
O O7 0.157836 0.515865 0.414841
O O8 0.113018 0.471538 0.168427
O O9 0.692580 0.250000 0.538057
O O10 0.097799 0.750000 0.032192
O O11 0.000000 0.000000 0.982818
#
# Coordination Sequence:
#
# PCOD9361856 Si02
#       5
#     4   4   8   8   8
#     4  12  24  48  72  98 141 185 220 284 345 399
#     4  10  26  46  68 102 141 173 234 278 333 413
#     4  10  23  43  65  97 135 170 223 276 326 396
#     4   9  24  44  66 104 134 179 227 282 329 403
#     4  11  24  41  66  95 134 173 219 274 332 397
#
# _framework density 24.828329
#
# number of rings (size 3 to 8) (size 9 to 14) (size 15 to 20)
#    0.750    1.000    0.000    2.250    5.250    8.000 
#    2.250    0.000    0.000    0.000    0.000    0.000 
#    0.000    0.000    0.000    0.000    0.000    0.000 
#
# Total GULP energy -89437.138977 kJ/mol
# GULP energy per Si atom -5589.821186 kJ/mol
# Density = 2.477182 g / cm^3
# Si number density = 24.828329 Si / 1000 Ang^3
#
#
#
# Elastic Constant Matrix: (Units=GPa)
#
#
# Indices 1 2 3 4 5 6 
#
# 1 79.1904 11.6400 -1.6294 0.0000 0.0000 0.0000
# 2 11.6400 91.4400 30.3404 0.0000 0.0000 0.0000
# 3 -1.6294 30.3404 104.4810 0.0000 0.0000 0.0000
# 4 0.0000 0.0000 0.0000 16.9599 0.0000 0.0000
# 5 0.0000 0.0000 0.0000 0.0000 44.1609 0.0000
# 6 0.0000 0.0000 0.0000 0.0000 0.0000 23.9697
#
#
#
# Elastic Compliance Matrix: (Units=1/GPa)
#
#
# Indices 1 2 3 4 5 6 
#
# 1 0.012922 -0.001894 0.000752 0.000000 0.000000 0.000000
# 2 -0.001894 0.012380 -0.003625 0.000000 0.000000 0.000000
# 3 0.000752 -0.003625 0.010635 0.000000 0.000000 0.000000
# 4 0.000000 0.000000 0.000000 0.058963 0.000000 0.000000
# 5 0.000000 0.000000 0.000000 0.000000 0.022644 0.000000
# 6 0.000000 0.000000 0.000000 0.000000 0.000000 0.041719
#
#
# Mechanical properties :
#
#
# Convention : Reuss Voigt Hill
#
# Bulk Modulus (GPa) = 37.87517 39.53481 38.70499
# Shear Modulus (GPa) = 28.15332 32.66877 30.41104
#
# Velocity S-wave (km/s) = 3.37102 3.63131 3.50359
# Velocity P-wave (km/s) = 5.51722 5.79135 5.65594
#
# Compressibility (1/GPa) = 0.02640252
#
# Stress axis : x y z
#
# Youngs Moduli (GPa) = 77.38923 80.77598 94.02574
#
# Poissons Ratio (x) = 0.15301 -0.07067
# Poissons Ratio (y) = 0.14660 0.34080
# Poissons Ratio (z) = -0.05816 0.29278
#
# Static dielectric constant tensor:
#      x y z
#    x 1.943790 0.000000 0.000000 
#    y 0.000000 1.974620 0.000000 
#    z 0.000000 0.000000 1.936240 
# 
# From -- ./inp_files/6196.got.cif
#   From: 2010.05.17/outbox.cif.g08.bks.cpg/sg39_4_cif.got.tgz:6196.got - 2010.06.03 18:22:40.
