data_PCOD9361962
_publ_section_title
;
Structure prediction by ZEFSAII (Michael W. Deem and Ramdas Pophale) SiO2 
 PCOD9361962
Probable space group: A B M 2
;
_chemical_formula_sum "Si O2"
_cell_formula_units_Z 32
_cell_length_a 4.802997
_cell_length_b 24.193543
_cell_length_c 10.651226
_cell_angle_alpha 90.000000
_cell_angle_beta 90.000000
_cell_angle_gamma 90.000000
_cell_volume 1237.688592
_symmetry_space_group_name_H-M "A B M 2"
_symmetry_group_IT_number 39
_symmetry_cell_setting 'orthorhombic'
loop_
_space_group_symop_operation_xyz
x,y,z
-x,-y,z
-x,1/2+y,z
x,1/2-y,z
x,1/2+y,1/2+z
-x,1/2-y,1/2+z
-x,y,1/2+z
x,-y,1/2+z
loop_
_atom_site_type_symbol
_atom_site_label
_atom_site_fract_x
_atom_site_fract_y
_atom_site_fract_z
Si Si1 0.244149 0.962665 0.741660
Si Si2 0.188686 0.868608 0.912418
Si Si3 0.034620 0.750000 0.867078
Si Si4 0.679894 0.138267 0.569371
Si Si5 0.354918 0.750000 0.134287
O O1 0.103978 0.925715 0.849551
O O2 0.370489 0.914645 0.654409
O O3 0.500000 0.000000 0.784829
O O4 0.000000 0.000000 0.682914
O O5 0.137342 0.812137 0.836274
O O6 0.514388 0.871637 0.940190
O O7 0.005469 0.861944 0.037998
O O8 0.758568 0.750000 0.777728
O O9 0.124262 0.750000 0.018601
O O10 0.545937 0.196118 0.611521
#
# Coordination Sequence:
#
# PCOD9361962 Si02
#       5
#     8   8   4   8   4
#     4  12  28  46  74 108 148 210 267 322 379 472
#     4  11  26  47  74 110 153 196 255 324 400 461
#     4  10  25  45  82 118 154 204 248 330 394 488
#     4  11  26  48  74 111 150 202 249 330 393 469
#     4  10  25  49  82 122 162 202 260 324 412 480
#
# _framework density 25.854645000000001
#
# number of rings (size 3 to 8) (size 9 to 14) (size 15 to 20)
#    0.000    1.000    0.000    3.750   14.000    7.000 
#    0.000    0.000    0.000    0.000    0.000    0.000 
#    0.000    0.000    0.000    0.000    0.000    0.000 
#
# Total GULP energy -89299.792821 kJ/mol
# GULP energy per Si atom -5581.237051 kJ/mol
# Density = 2.579580 g / cm^3
# Si number density = 25.854645 Si / 1000 Ang^3
#
#
#
# Elastic Constant Matrix: (Units=GPa)
#
#
# Indices 1 2 3 4 5 6 
#
# 1 98.3019 57.2232 29.2804 0.0000 0.0000 0.0000
# 2 57.2232 229.8504 45.1792 0.0000 0.0000 0.0000
# 3 29.2804 45.1792 65.7215 0.0000 0.0000 0.0000
# 4 0.0000 0.0000 0.0000 44.8233 0.0000 0.0000
# 5 0.0000 0.0000 0.0000 0.0000 58.5450 0.0000
# 6 0.0000 0.0000 0.0000 0.0000 0.0000 52.1746
#
#
#
# Elastic Compliance Matrix: (Units=1/GPa)
#
#
# Indices 1 2 3 4 5 6 
#
# 1 0.012766 -0.002382 -0.004050 0.000000 0.000000 0.000000
# 2 -0.002382 0.005475 -0.002702 0.000000 0.000000 0.000000
# 3 -0.004050 -0.002702 0.018878 0.000000 0.000000 0.000000
# 4 0.000000 0.000000 0.000000 0.022310 0.000000 0.000000
# 5 0.000000 0.000000 0.000000 0.000000 0.017081 0.000000
# 6 0.000000 0.000000 0.000000 0.000000 0.000000 0.019166
#
#
# Mechanical properties :
#
#
# Convention : Reuss Voigt Hill
#
# Bulk Modulus (GPa) = 53.05130 73.02659 63.03894
# Shear Modulus (GPa) = 41.58792 48.58798 45.08795
#
# Velocity S-wave (km/s) = 4.01500 4.33976 4.18053
# Velocity P-wave (km/s) = 6.48515 7.30875 6.90923
#
# Compressibility (1/GPa) = 0.01884968
#
# Stress axis : x y z
#
# Youngs Moduli (GPa) = 78.33495 182.65296 52.97251
#
# Poissons Ratio (x) = 0.43510 0.21453
# Poissons Ratio (y) = 0.18660 0.14315
# Poissons Ratio (z) = 0.31725 0.49359
#
# Static dielectric constant tensor:
#      x y z
#    x 1.987310 0.000000 0.000000 
#    y 0.000000 1.981380 0.000000 
#    z 0.000000 0.000000 2.190980 
# 
# From -- ./inp_files/4451.got.cif
#   From: 2010.05.17/outbox.cif.g08.bks.cpg/sg39_3_cif.got.tgz:4451.got - 2010.06.03 18:22:40.
