data_PCOD9361122
_publ_section_title
;
Structure prediction by ZEFSAII (Michael W. Deem and Ramdas Pophale) SiO2 
 PCOD9361122
Probable space group: A B M 2
;
_chemical_formula_sum "Si O2"
_cell_formula_units_Z 44
_cell_length_a 6.399438
_cell_length_b 25.410462
_cell_length_c 14.388203
_cell_angle_alpha 90.000000
_cell_angle_beta 90.000000
_cell_angle_gamma 90.000000
_cell_volume 2339.704194
_symmetry_space_group_name_H-M "A B M 2"
_symmetry_group_IT_number 39
_symmetry_cell_setting 'orthorhombic'
loop_
_space_group_symop_operation_xyz
x,y,z
-x,-y,z
-x,1/2+y,z
x,1/2-y,z
x,1/2+y,1/2+z
-x,1/2-y,1/2+z
-x,y,1/2+z
x,-y,1/2+z
loop_
_atom_site_type_symbol
_atom_site_label
_atom_site_fract_x
_atom_site_fract_y
_atom_site_fract_z
Si Si1 0.328346 0.964142 0.649460
Si Si2 0.749417 0.689262 0.221437
Si Si3 0.981695 0.877809 0.076840
Si Si4 0.000000 0.000000 0.289667
Si Si5 0.008975 0.883990 0.360887
Si Si6 0.365319 0.875267 0.218054
O O1 0.157757 0.930651 0.592858
O O2 0.199429 0.000206 0.721128
O O3 0.463547 0.921069 0.705402
O O4 0.500000 0.000000 0.597438
O O5 0.793069 0.750000 0.239478
O O6 0.854466 0.669121 0.126039
O O7 0.851840 0.651630 0.300056
O O8 0.503660 0.677259 0.214075
O O9 0.196757 0.881067 0.134997
O O10 0.008735 0.870143 0.968133
O O11 0.973811 0.946479 0.346547
O O12 0.235290 0.875923 0.313243
#
# Coordination Sequence:
#
# PCOD9361122 Si02
#       6
#     8   8   8   4   8   8
#     4  11  19  37  61  87 126 176 206 243 302 374
#     4  10  23  44  66  90 124 167 214 264 319 372
#     4  10  23  41  62  96 126 161 213 260 313 370
#     4  12  20  38  62  94 134 166 204 252 310 378
#     4  11  23  40  64  98 129 163 208 259 313 378
#     4  10  20  40  61  85 126 164 209 255 309 367
#
# _framework density 18.805795
#
# number of rings (size 3 to 8) (size 9 to 14) (size 15 to 20)
#    0.000    1.455    7.273    0.000    0.000    8.727 
#    3.273    1.818    0.000    0.000    0.000    0.000 
#    0.000    0.000    0.000    0.000    0.000    0.000 
#
# Total GULP energy -122672.183541 kJ/mol
# GULP energy per Si atom -5576.008343 kJ/mol
# Density = 1.876299 g / cm^3
# Si number density = 18.805795 Si / 1000 Ang^3
#
#
#
# Elastic Constant Matrix: (Units=GPa)
#
#
# Indices 1 2 3 4 5 6 
#
# 1 101.0873 35.9412 41.8332 0.0000 0.0000 0.0000
# 2 35.9412 123.6890 43.2209 0.0000 0.0000 0.0000
# 3 41.8332 43.2209 130.4242 0.0000 0.0000 0.0000
# 4 0.0000 0.0000 0.0000 11.1853 0.0000 0.0000
# 5 0.0000 0.0000 0.0000 0.0000 4.7302 0.0000
# 6 0.0000 0.0000 0.0000 0.0000 0.0000 21.2638
#
#
#
# Elastic Compliance Matrix: (Units=1/GPa)
#
#
# Indices 1 2 3 4 5 6 
#
# 1 0.012017 -0.002426 -0.003051 0.000000 0.000000 0.000000
# 2 -0.002426 0.009633 -0.002414 0.000000 0.000000 0.000000
# 3 -0.003051 -0.002414 0.009446 0.000000 0.000000 0.000000
# 4 0.000000 0.000000 0.000000 0.089403 0.000000 0.000000
# 5 0.000000 0.000000 0.000000 0.000000 0.211406 0.000000
# 6 0.000000 0.000000 0.000000 0.000000 0.000000 0.047028
#
#
# Mechanical properties :
#
#
# Convention : Reuss Voigt Hill
#
# Bulk Modulus (GPa) = 65.29594 66.35457 65.82525
# Shear Modulus (GPa) = 12.50561 23.04955 17.77758
#
# Velocity S-wave (km/s) = 2.58153 3.50474 3.07795
# Velocity P-wave (km/s) = 6.60926 7.19294 6.90727
#
# Compressibility (1/GPa) = 0.01531489
#
# Stress axis : x y z
#
# Youngs Moduli (GPa) = 83.21240 103.80615 105.86713
#
# Poissons Ratio (x) = 0.25184 0.32296
# Poissons Ratio (y) = 0.20187 0.25559
# Poissons Ratio (z) = 0.25385 0.25061
#
# Static dielectric constant tensor:
#      x y z
#    x 1.686050 0.000000 0.000000 
#    y 0.000000 1.703780 0.000000 
#    z 0.000000 0.000000 1.611830 
# 
# From -- ./inp_files/7498.got.cif
#   From: 2010.05.17/outbox.cif.g08.bks.cpg/sg39_4_cif.got.tgz:7498.got - 2010.06.03 18:22:40.
