data_PCOD9361708
_publ_section_title
;
Structure prediction by ZEFSAII (Michael W. Deem and Ramdas Pophale) SiO2 
 PCOD9361708
Probable space group: A B M 2
;
_chemical_formula_sum "Si O2"
_cell_formula_units_Z 64
_cell_length_a 15.921506
_cell_length_b 21.952039
_cell_length_c 9.122165
_cell_angle_alpha 90.000000
_cell_angle_beta 90.000000
_cell_angle_gamma 90.000000
_cell_volume 3188.283516
_symmetry_space_group_name_H-M "A B M 2"
_symmetry_group_IT_number 39
_symmetry_cell_setting 'orthorhombic'
loop_
_space_group_symop_operation_xyz
x,y,z
-x,-y,z
-x,1/2+y,z
x,1/2-y,z
x,1/2+y,1/2+z
-x,1/2-y,1/2+z
-x,y,1/2+z
x,-y,1/2+z
loop_
_atom_site_type_symbol
_atom_site_label
_atom_site_fract_x
_atom_site_fract_y
_atom_site_fract_z
Si Si1 0.579427 0.680949 0.353770
Si Si2 0.700506 0.026374 0.050648
Si Si3 0.093265 0.175278 0.891977
Si Si4 0.245119 0.615401 0.565709
Si Si5 0.073109 0.179897 0.560767
Si Si6 0.569719 0.135561 0.538835
Si Si7 0.414036 0.522770 0.325615
Si Si8 0.763842 0.138678 0.909508
O O1 0.583037 0.750000 0.295462
O O2 0.503368 0.675369 0.467867
O O3 0.560437 0.637344 0.214482
O O4 0.670121 0.666627 0.425067
O O5 0.651800 0.041447 0.200584
O O6 0.736017 0.957315 0.051531
O O7 0.766689 0.076799 0.004577
O O8 0.632587 0.028849 0.919308
O O9 0.103392 0.250000 0.899487
O O10 0.170298 0.141745 0.970033
O O11 0.006952 0.155994 0.972179
O O12 0.087762 0.154850 0.723069
O O13 0.331372 0.650283 0.521219
O O14 0.227545 0.626871 0.736716
O O15 0.051184 0.250000 0.587196
O O16 0.158140 0.176884 0.467337
O O17 0.563606 0.072595 0.448713
O O18 0.500000 0.500000 0.255731
#
# Coordination Sequence:
#
# PCOD9361708 Si02
#       8
#     8   8   8   8   8   8   8   8
#     4  11  24  42  59  86 127 172 219 267 322 382
#     4  11  23  40  60  93 124 163 215 266 318 383
#     4  10  22  41  68  98 129 163 210 262 321 384
#     4  10  23  42  61  92 128 168 208 264 327 376
#     4  10  22  40  67 100 126 164 212 263 317 382
#     4  10  25  38  59  88 122 167 215 264 318 378
#     4  11  23  37  62  87 118 163 215 271 318 373
#     4  11  23  40  65  90 127 170 209 263 322 380
#
# _framework density 20.073495999999999
#
# number of rings (size 3 to 8) (size 9 to 14) (size 15 to 20)
#    0.000    1.500    1.250    2.625   10.500    4.000 
#    0.000    1.875    0.000    3.000    0.000    0.000 
#    0.000    0.000    0.000    0.000    0.000    0.000 
#
# Total GULP energy -178559.846141 kJ/mol
# GULP energy per Si atom -5579.995192 kJ/mol
# Density = 2.002781 g / cm^3
# Si number density = 20.073496 Si / 1000 Ang^3
#
#
#
# Elastic Constant Matrix: (Units=GPa)
#
#
# Indices 1 2 3 4 5 6 
#
# 1 133.2034 24.5314 74.7410 0.0000 0.0000 0.0000
# 2 24.5314 49.4899 19.0224 0.0000 0.0000 0.0000
# 3 74.7410 19.0224 119.9897 0.0000 0.0000 0.0000
# 4 0.0000 0.0000 0.0000 26.4313 0.0000 0.0000
# 5 0.0000 0.0000 0.0000 0.0000 39.5996 0.0000
# 6 0.0000 0.0000 0.0000 0.0000 0.0000 23.4397
#
#
#
# Elastic Compliance Matrix: (Units=1/GPa)
#
#
# Indices 1 2 3 4 5 6 
#
# 1 0.012021 -0.003280 -0.006968 0.000000 0.000000 0.000000
# 2 -0.003280 0.022413 -0.001510 0.000000 0.000000 0.000000
# 3 -0.006968 -0.001510 0.012914 0.000000 0.000000 0.000000
# 4 0.000000 0.000000 0.000000 0.037834 0.000000 0.000000
# 5 0.000000 0.000000 0.000000 0.000000 0.025253 0.000000
# 6 0.000000 0.000000 0.000000 0.000000 0.000000 0.042663
#
#
# Mechanical properties :
#
#
# Convention : Reuss Voigt Hill
#
# Bulk Modulus (GPa) = 41.96189 59.91919 50.94054
# Shear Modulus (GPa) = 27.09198 30.18668 28.63933
#
# Velocity S-wave (km/s) = 3.67773 3.88210 3.78130
# Velocity P-wave (km/s) = 6.24370 7.07170 6.67056
#
# Compressibility (1/GPa) = 0.02383115
#
# Stress axis : x y z
#
# Youngs Moduli (GPa) = 83.18673 44.61794 77.43756
#
# Poissons Ratio (x) = 0.14637 0.53957
# Poissons Ratio (y) = 0.27289 0.11691
# Poissons Ratio (z) = 0.57963 0.06736
#
# Static dielectric constant tensor:
#      x y z
#    x 1.711550 0.000000 0.000000 
#    y 0.000000 1.793230 0.000000 
#    z 0.000000 0.000000 1.713280 
# 
# From -- ./inp_files/3502.got.cif
#   From: 2010.05.17/outbox.cif.g08.bks.cpg/sg39_2_cif.got.tgz:3502.got - 2010.06.03 18:22:40.
