data_PCOD9361739
_publ_section_title
;
Structure prediction by ZEFSAII (Michael W. Deem and Ramdas Pophale) SiO2 
 PCOD9361739
Probable space group: A B M 2
;
_chemical_formula_sum "Si O2"
_cell_formula_units_Z 64
_cell_length_a 23.571526
_cell_length_b 14.290072
_cell_length_c 8.011410
_cell_angle_alpha 90.000000
_cell_angle_beta 90.000000
_cell_angle_gamma 90.000000
_cell_volume 2698.553760
_symmetry_space_group_name_H-M "A B M 2"
_symmetry_group_IT_number 39
_symmetry_cell_setting 'orthorhombic'
loop_
_space_group_symop_operation_xyz
x,y,z
-x,-y,z
-x,1/2+y,z
x,1/2-y,z
x,1/2+y,1/2+z
-x,1/2-y,1/2+z
-x,y,1/2+z
x,-y,1/2+z
loop_
_atom_site_type_symbol
_atom_site_label
_atom_site_fract_x
_atom_site_fract_y
_atom_site_fract_z
Si Si1 0.347073 0.001520 0.458010
Si Si2 0.433975 0.639700 0.420194
Si Si3 0.102363 0.857301 0.538895
Si Si4 0.738371 0.446346 0.204440
Si Si5 0.151413 0.355983 0.571714
Si Si6 0.563366 0.360607 0.021835
Si Si7 0.218976 0.150934 0.218724
Si Si8 0.934764 0.473028 0.865035
O O1 0.303060 0.070475 0.551113
O O2 0.394749 0.077503 0.409578
O O3 0.390032 0.922531 0.524430
O O4 0.303205 0.934905 0.358143
O O5 0.424026 0.750000 0.442466
O O6 0.427237 0.618609 0.220465
O O7 0.498296 0.619961 0.474699
O O8 0.081676 0.750000 0.523359
O O9 0.168465 0.853577 0.583639
O O10 0.094119 0.924360 0.380131
O O11 0.073658 0.911509 0.697425
O O12 0.799861 0.400751 0.188997
O O13 0.746494 0.557900 0.201731
O O14 0.137438 0.250000 0.623847
O O15 0.185748 0.351497 0.395023
O O16 0.096038 0.413983 0.512765
O O17 0.573045 0.250000 0.998204
O O18 0.249297 0.250000 0.203876
O O19 0.000000 0.500000 0.890792
#
# Coordination Sequence:
#
# PCOD9361739 Si02
#       8
#     8   8   8   8   8   8   8   8
#     4  12  25  38  63  95 126 164 210 267 319 384
#     4  10  23  43  64  90 127 166 207 263 320 381
#     4  10  22  41  66  95 133 176 219 275 342 404
#     4  12  23  39  62  92 125 164 215 264 322 387
#     4  10  22  42  67  91 127 177 220 264 336 408
#     4  10  23  43  65  89 123 166 211 257 320 386
#     4   9  19  39  63  85 119 167 212 258 320 389
#     4  11  22  41  70  99 134 174 224 286 338 409
#
# _framework density 23.716408000000001
#
# number of rings (size 3 to 8) (size 9 to 14) (size 15 to 20)
#    0.000    1.500    3.750    1.875    1.750    4.000 
#    0.000    1.250    0.000    0.000    0.000    0.000 
#    0.000    0.000    0.000    0.000    0.000    0.000 
#
# Total GULP energy -178399.396310 kJ/mol
# GULP energy per Si atom -5574.981135 kJ/mol
# Density = 2.366243 g / cm^3
# Si number density = 23.716408 Si / 1000 Ang^3
#
#
#
# Elastic Constant Matrix: (Units=GPa)
#
#
# Indices 1 2 3 4 5 6 
#
# 1 131.8288 50.2392 17.9221 0.0000 0.0000 0.0000
# 2 50.2392 154.4355 16.6802 0.0000 0.0000 0.0000
# 3 17.9221 16.6802 89.5453 0.0000 0.0000 0.0000
# 4 0.0000 0.0000 0.0000 8.2441 0.0000 0.0000
# 5 0.0000 0.0000 0.0000 0.0000 6.7905 0.0000
# 6 0.0000 0.0000 0.0000 0.0000 0.0000 -8.5795
#
#
#
# Elastic Compliance Matrix: (Units=1/GPa)
#
#
# Indices 1 2 3 4 5 6 
#
# 1 0.008795 -0.002726 -0.001252 0.000000 0.000000 0.000000
# 2 -0.002726 0.007453 -0.000843 0.000000 0.000000 0.000000
# 3 -0.001252 -0.000843 0.011575 0.000000 0.000000 0.000000
# 4 0.000000 0.000000 0.000000 0.121300 0.000000 0.000000
# 5 0.000000 0.000000 0.000000 0.000000 0.147264 0.000000
# 6 0.000000 0.000000 0.000000 0.000000 0.000000 -0.116557
#
#
# Mechanical properties :
#
#
# Convention : Reuss Voigt Hill
#
# Bulk Modulus (GPa) = 55.00290 60.61030 57.80660
# Shear Modulus (GPa) = 25.57134 20.68888 23.13011
#
# Velocity S-wave (km/s) = 3.28718 2.95675 3.12633
# Velocity P-wave (km/s) = 6.13593 6.10477 6.12037
#
# Compressibility (1/GPa) = 0.01818086
#
# Stress axis : x y z
#
# Youngs Moduli (GPa) = 113.70593 134.17570 86.39160
#
# Poissons Ratio (x) = 0.36572 0.10820
# Poissons Ratio (y) = 0.30993 0.07281
# Poissons Ratio (z) = 0.14241 0.11308
#
# Static dielectric constant tensor:
#      x y z
#    x 1.899240 0.000000 0.000000 
#    y 0.000000 1.904950 0.000000 
#    z 0.000000 0.000000 2.076990 
# 
# From -- ./inp_files/4091.got.cif
#   From: 2010.05.17/outbox.cif.g08.bks.cpg/sg39_3_cif.got.tgz:4091.got - 2010.06.03 18:22:40.
