data_PCOD9361722
_publ_section_title
;
Structure prediction by ZEFSAII (Michael W. Deem and Ramdas Pophale) SiO2 
 PCOD9361722
Probable space group: A B M 2
;
_chemical_formula_sum "Si O2"
_cell_formula_units_Z 64
_cell_length_a 23.955989
_cell_length_b 8.720031
_cell_length_c 15.653847
_cell_angle_alpha 90.000000
_cell_angle_beta 90.000000
_cell_angle_gamma 90.000000
_cell_volume 3270.041156
_symmetry_space_group_name_H-M "A B M 2"
_symmetry_group_IT_number 39
_symmetry_cell_setting 'orthorhombic'
loop_
_space_group_symop_operation_xyz
x,y,z
-x,-y,z
-x,1/2+y,z
x,1/2-y,z
x,1/2+y,1/2+z
-x,1/2-y,1/2+z
-x,y,1/2+z
x,-y,1/2+z
loop_
_atom_site_type_symbol
_atom_site_label
_atom_site_fract_x
_atom_site_fract_y
_atom_site_fract_z
Si Si1 0.379478 0.933092 0.274090
Si Si2 0.743560 0.567705 0.846709
Si Si3 0.143825 0.933100 0.780859
Si Si4 0.438811 0.066790 0.438895
Si Si5 0.061285 0.934844 0.934110
Si Si6 0.747994 0.932138 0.536006
Si Si7 0.127283 0.434117 0.602064
Si Si8 0.634206 0.567866 0.092389
O O1 0.387504 0.750000 0.271903
O O2 0.315111 0.963639 0.300682
O O3 0.417312 0.005734 0.347723
O O4 0.389405 0.003932 0.181236
O O5 0.746765 0.750000 0.862139
O O6 0.796374 0.513820 0.791879
O O7 0.745671 0.480628 0.936978
O O8 0.151424 0.750000 0.784655
O O9 0.104203 0.980618 0.859464
O O10 0.117488 0.982529 0.691202
O O11 0.439747 0.250000 0.439148
O O12 0.500000 0.000000 0.455812
O O13 0.397130 0.006656 0.511952
O O14 0.059050 0.750000 0.933446
O O15 0.086342 0.982276 0.025705
O O16 0.000000 0.000000 0.920203
O O17 0.738412 0.750000 0.543982
O O18 0.809380 0.966481 0.571775
O O19 0.698979 0.019944 0.584695
O O20 0.122634 0.250000 0.613261
O O21 0.628723 0.750000 0.088168
#
# Coordination Sequence:
#
# PCOD9361722 Si02
#       8
#     8   8   8   8   8   8   8   8
#     4  11  24  43  66  97 132 168 212 261 315 378
#     4  11  22  37  63  95 129 165 206 253 311 376
#     4  11  23  40  62  91 125 161 205 253 309 373
#     4  12  26  46  70  95 127 169 215 267 320 373
#     4  10  23  43  62  85 119 160 206 258 310 365
#     4  11  21  38  64  92 129 168 204 255 317 375
#     4  10  22  41  62  89 125 161 202 253 310 370
#     4  12  25  42  65  98 133 169 214 260 313 380
#
# _framework density 19.571618999999998
#
# number of rings (size 3 to 8) (size 9 to 14) (size 15 to 20)
#    0.000    1.000    2.500    4.500    0.000    8.000 
#    0.000    5.000    0.000    0.000    0.000    0.000 
#    0.000    0.000    0.000    0.000    0.000    0.000 
#
# Total GULP energy -179066.741264 kJ/mol
# GULP energy per Si atom -5595.835665 kJ/mol
# Density = 1.952707 g / cm^3
# Si number density = 19.571619 Si / 1000 Ang^3
#
#
#
# Elastic Constant Matrix: (Units=GPa)
#
#
# Indices 1 2 3 4 5 6 
#
# 1 50.1509 19.7365 -20.6222 0.0000 0.0000 0.0000
# 2 19.7365 66.3383 15.7823 0.0000 0.0000 0.0000
# 3 -20.6222 15.7823 77.0096 0.0000 0.0000 0.0000
# 4 0.0000 0.0000 0.0000 -37.5167 0.0000 0.0000
# 5 0.0000 0.0000 0.0000 0.0000 6.2115 0.0000
# 6 0.0000 0.0000 0.0000 0.0000 0.0000 32.2068
#
#
#
# Elastic Compliance Matrix: (Units=1/GPa)
#
#
# Indices 1 2 3 4 5 6 
#
# 1 0.028146 -0.010688 0.009728 0.000000 0.000000 0.000000
# 2 -0.010688 0.019906 -0.006942 0.000000 0.000000 0.000000
# 3 0.009728 -0.006942 0.017013 0.000000 0.000000 0.000000
# 4 0.000000 0.000000 0.000000 -0.026655 0.000000 0.000000
# 5 0.000000 0.000000 0.000000 0.000000 0.160993 0.000000
# 6 0.000000 0.000000 0.000000 0.000000 0.000000 0.031049
#
#
# Mechanical properties :
#
#
# Convention : Reuss Voigt Hill
#
# Bulk Modulus (GPa) = 20.30027 24.81021 22.55524
# Shear Modulus (GPa) = 19.03483 12.08711 15.56097
#
# Velocity S-wave (km/s) = 3.12199 2.48782 2.82277
# Velocity P-wave (km/s) = 4.83638 4.57782 4.70888
#
# Compressibility (1/GPa) = 0.04926044
#
# Stress axis : x y z
#
# Youngs Moduli (GPa) = 35.52892 50.23725 58.77878
#
# Poissons Ratio (x) = 0.53694 -0.57178
# Poissons Ratio (y) = 0.37974 0.40802
# Poissons Ratio (z) = -0.34561 0.34873
#
# Static dielectric constant tensor:
#      x y z
#    x 1.668540 0.000000 0.000000 
#    y 0.000000 1.655460 0.000000 
#    z 0.000000 0.000000 1.677470 
# 
# From -- ./inp_files/10642.got.cif
#   From: 2010.05.17/outbox.cif.g08.bks.cpg/sg39_6_cif.got.tgz:10642.got - 2010.06.03 18:22:40.
