data_PCOD9361325
_publ_section_title
;
Structure prediction by ZEFSAII (Michael W. Deem and Ramdas Pophale) SiO2 
 PCOD9361325
Probable space group: A B M 2
;
_chemical_formula_sum "Si O2"
_cell_formula_units_Z 60
_cell_length_a 21.367957
_cell_length_b 9.149665
_cell_length_c 15.171171
_cell_angle_alpha 90.000000
_cell_angle_beta 90.000000
_cell_angle_gamma 90.000000
_cell_volume 2966.110306
_symmetry_space_group_name_H-M "A B M 2"
_symmetry_group_IT_number 39
_symmetry_cell_setting 'orthorhombic'
loop_
_space_group_symop_operation_xyz
x,y,z
-x,-y,z
-x,1/2+y,z
x,1/2-y,z
x,1/2+y,1/2+z
-x,1/2-y,1/2+z
-x,y,1/2+z
x,-y,1/2+z
loop_
_atom_site_type_symbol
_atom_site_label
_atom_site_fract_x
_atom_site_fract_y
_atom_site_fract_z
Si Si1 0.230915 0.077791 0.808760
Si Si2 0.656568 0.075238 0.562038
Si Si3 0.000000 0.000000 0.198089
Si Si4 0.218150 0.080420 0.597964
Si Si5 0.435091 0.425807 0.697202
Si Si6 0.906693 0.414806 0.550225
Si Si7 0.634381 0.573159 0.867949
Si Si8 0.904154 0.424014 0.354045
O O1 0.231596 0.250000 0.833709
O O2 0.227384 0.070899 0.703315
O O3 0.296800 0.015016 0.840996
O O4 0.166107 0.012532 0.845105
O O5 0.654923 0.250000 0.576801
O O6 0.623327 0.039540 0.469412
O O7 0.728036 0.020050 0.556246
O O8 0.620963 0.986855 0.637446
O O9 0.040664 0.089085 0.125926
O O10 0.946618 0.043861 0.269070
O O11 0.225394 0.250000 0.572102
O O12 0.149199 0.022419 0.576544
O O13 0.500000 0.500000 0.670912
O O14 0.438666 0.250000 0.690786
O O15 0.416935 0.471432 0.796912
O O16 0.880838 0.250000 0.542908
O O17 0.929011 0.460335 0.451900
O O18 0.637439 0.750000 0.861114
O O19 0.898764 0.250000 0.351499
#
# Coordination Sequence:
#
# PCOD9361325 Si02
#       8
#     8   8   4   8   8   8   8   8
#     4   9  16  33  61  85 111 153 197 238 299 368
#     4  11  22  39  66  98 127 159 204 257 308 361
#     4  12  22  38  60  86 118 158 204 256 306 364
#     4  11  21  38  65  92 122 161 201 248 309 369
#     4  11  23  42  64  90 128 172 213 252 300 358
#     4  11  24  40  62  90 119 154 204 257 305 364
#     4   9  19  37  64  91 120 161 204 249 308 370
#     4  10  21  38  59  83 116 160 198 242 311 377
#
# _framework density 20.228513
#
# number of rings (size 3 to 8) (size 9 to 14) (size 15 to 20)
#    0.000    1.600    2.667    2.800    0.000    3.200 
#    0.000    5.333    0.000    0.000    0.000    0.000 
#    0.000    0.000    0.000    0.000    0.000    0.000 
#
# Total GULP energy -167215.308276 kJ/mol
# GULP energy per Si atom -5573.843609 kJ/mol
# Density = 2.018247 g / cm^3
# Si number density = 20.228513 Si / 1000 Ang^3
#
#
#
# Elastic Constant Matrix: (Units=GPa)
#
#
# Indices 1 2 3 4 5 6 
#
# 1 69.3515 19.1324 12.9980 0.0000 0.0000 0.0000
# 2 19.1324 60.6084 26.3228 0.0000 0.0000 0.0000
# 3 12.9980 26.3228 89.8942 0.0000 0.0000 0.0000
# 4 0.0000 0.0000 0.0000 17.8945 0.0000 0.0000
# 5 0.0000 0.0000 0.0000 0.0000 19.5999 0.0000
# 6 0.0000 0.0000 0.0000 0.0000 0.0000 -179.0530
#
#
#
# Elastic Compliance Matrix: (Units=1/GPa)
#
#
# Indices 1 2 3 4 5 6 
#
# 1 0.015865 -0.004596 -0.000948 0.000000 0.000000 0.000000
# 2 -0.004596 0.020235 -0.005261 0.000000 0.000000 0.000000
# 3 -0.000948 -0.005261 0.012802 0.000000 0.000000 0.000000
# 4 0.000000 0.000000 0.000000 0.055883 0.000000 0.000000
# 5 0.000000 0.000000 0.000000 0.000000 0.051021 0.000000
# 6 0.000000 0.000000 0.000000 0.000000 0.000000 -0.005585
#
#
# Mechanical properties :
#
#
# Convention : Reuss Voigt Hill
#
# Bulk Modulus (GPa) = 36.64127 37.41783 37.02955
# Shear Modulus (GPa) = 27.63528 -17.55167 5.04180
#
# Velocity S-wave (km/s) = 3.70016 -2.94882 1.58045
# Velocity P-wave (km/s) = 6.03390 2.63509 4.65573
#
# Compressibility (1/GPa) = 0.02729163
#
# Stress axis : x y z
#
# Youngs Moduli (GPa) = 63.03176 49.41920 78.11470
#
# Poissons Ratio (x) = 0.22715 0.07406
# Poissons Ratio (y) = 0.28972 0.41093
# Poissons Ratio (z) = 0.05976 0.25998
#
# Static dielectric constant tensor:
#      x y z
#    x 1.747240 0.000000 0.000000 
#    y 0.000000 1.705060 0.000000 
#    z 0.000000 0.000000 1.737350 
# 
# From -- ./inp_files/10537.got.cif
#   From: 2010.05.17/outbox.cif.g08.bks.cpg/sg39_6_cif.got.tgz:10537.got - 2010.06.03 18:22:40.
