data_PCOD9361956
_publ_section_title
;
Structure prediction by ZEFSAII (Michael W. Deem and Ramdas Pophale) SiO2 
 PCOD9361956
Probable space group: A B M 2
;
_chemical_formula_sum "Si O2"
_cell_formula_units_Z 64
_cell_length_a 11.877089
_cell_length_b 17.511327
_cell_length_c 15.412008
_cell_angle_alpha 90.000000
_cell_angle_beta 90.000000
_cell_angle_gamma 90.000000
_cell_volume 3205.444742
_symmetry_space_group_name_H-M "A B M 2"
_symmetry_group_IT_number 39
_symmetry_cell_setting 'orthorhombic'
loop_
_space_group_symop_operation_xyz
x,y,z
-x,-y,z
-x,1/2+y,z
x,1/2-y,z
x,1/2+y,1/2+z
-x,1/2-y,1/2+z
-x,y,1/2+z
x,-y,1/2+z
loop_
_atom_site_type_symbol
_atom_site_label
_atom_site_fract_x
_atom_site_fract_y
_atom_site_fract_z
Si Si1 0.005752 0.908041 0.918500
Si Si2 0.991642 0.658947 0.226859
Si Si3 0.257103 0.160985 0.698242
Si Si4 0.590741 0.339992 0.572634
Si Si5 0.554519 0.916787 0.423233
Si Si6 0.160960 0.089556 0.072093
Si Si7 0.221215 0.418028 0.526110
Si Si8 0.478958 0.590006 0.241430
O O1 0.024233 0.869411 0.825553
O O2 0.899008 0.889157 0.980243
O O3 0.000000 0.000000 0.905792
O O4 0.111783 0.887371 0.978285
O O5 0.969605 0.750000 0.219058
O O6 0.917669 0.615426 0.153313
O O7 0.125401 0.646130 0.213986
O O8 0.280524 0.250000 0.714522
O O9 0.269825 0.138570 0.597879
O O10 0.346488 0.109539 0.749963
O O11 0.596235 0.250000 0.569424
O O12 0.520832 0.370636 0.490879
O O13 0.716773 0.372860 0.576211
O O14 0.525621 0.367234 0.658073
O O15 0.680237 0.928612 0.456833
O O16 0.544446 0.883617 0.327075
O O17 0.500000 0.000000 0.417570
O O18 0.183410 0.998224 0.069618
O O19 0.500000 0.500000 0.227728
#
# Coordination Sequence:
#
# PCOD9361956 Si02
#       8
#     8   8   8   8   8   8   8   8
#     4  10  25  41  67 102 133 175 231 283 335 405
#     4  11  26  44  68 101 140 183 225 280 347 415
#     4  11  24  43  68  98 135 182 227 274 346 418
#     4  12  25  42  66  97 135 173 218 279 342 407
#     4  11  24  44  68  96 129 172 227 273 340 405
#     4  11  24  45  67  99 135 180 231 278 340 403
#     4  11  22  44  72  95 131 180 226 288 334 405
#     4  11  25  43  68  98 131 176 224 284 333 406
#
# _framework density 19.966027
#
# number of rings (size 3 to 8) (size 9 to 14) (size 15 to 20)
#    0.000    1.000    3.750    1.875    5.250    3.500 
#    0.000    0.000    0.000    0.000    0.000    0.000 
#    0.000    0.000    0.000    0.000    0.000    0.000 
#
# Total GULP energy -178788.663333 kJ/mol
# GULP energy per Si atom -5587.145729 kJ/mol
# Density = 1.992058 g / cm^3
# Si number density = 19.966027 Si / 1000 Ang^3
#
#
#
# Elastic Constant Matrix: (Units=GPa)
#
#
# Indices 1 2 3 4 5 6 
#
# 1 102.7142 32.6645 19.4087 0.0000 0.0000 0.0000
# 2 32.6645 57.7275 28.5955 0.0000 0.0000 0.0000
# 3 19.4087 28.5955 100.5851 0.0000 0.0000 0.0000
# 4 0.0000 0.0000 0.0000 245.9773 0.0000 0.0000
# 5 0.0000 0.0000 0.0000 0.0000 30.4809 0.0000
# 6 0.0000 0.0000 0.0000 0.0000 0.0000 24.2989
#
#
#
# Elastic Compliance Matrix: (Units=1/GPa)
#
#
# Indices 1 2 3 4 5 6 
#
# 1 0.011889 -0.006507 -0.000444 0.000000 0.000000 0.000000
# 2 -0.006507 0.023724 -0.005489 0.000000 0.000000 0.000000
# 3 -0.000444 -0.005489 0.011588 0.000000 0.000000 0.000000
# 4 0.000000 0.000000 0.000000 0.004065 0.000000 0.000000
# 5 0.000000 0.000000 0.000000 0.000000 0.032807 0.000000
# 6 0.000000 0.000000 0.000000 0.000000 0.000000 0.041154
#
#
# Mechanical properties :
#
#
# Convention : Reuss Voigt Hill
#
# Bulk Modulus (GPa) = 44.80228 46.92934 45.86581
# Shear Modulus (GPa) = 31.73626 72.17528 51.95577
#
# Velocity S-wave (km/s) = 3.99119 6.01893 5.10672
# Velocity P-wave (km/s) = 6.61268 8.47697 7.60219
#
# Compressibility (1/GPa) = 0.02232029
#
# Stress axis : x y z
#
# Youngs Moduli (GPa) = 84.11071 42.15178 86.29650
#
# Poissons Ratio (x) = 0.27430 0.03833
# Poissons Ratio (y) = 0.54734 0.47367
# Poissons Ratio (z) = 0.03735 0.23136
#
# Static dielectric constant tensor:
#      x y z
#    x 1.692720 0.000000 0.000000 
#    y 0.000000 1.556080 0.000000 
#    z 0.000000 0.000000 1.725350 
# 
# From -- ./inp_files/9450.got.cif
#   From: 2010.05.17/outbox.cif.g08.bks.cpg/sg39_5_cif.got.tgz:9450.got - 2010.06.03 18:22:40.
