data_PCOD9361494
_publ_section_title
;
Structure prediction by ZEFSAII (Michael W. Deem and Ramdas Pophale) SiO2 
 PCOD9361494
Probable space group: A B M 2
;
_chemical_formula_sum "Si O2"
_cell_formula_units_Z 60
_cell_length_a 10.945862
_cell_length_b 25.404445
_cell_length_c 9.468235
_cell_angle_alpha 90.000000
_cell_angle_beta 90.000000
_cell_angle_gamma 90.000000
_cell_volume 2632.865711
_symmetry_space_group_name_H-M "A B M 2"
_symmetry_group_IT_number 39
_symmetry_cell_setting 'orthorhombic'
loop_
_space_group_symop_operation_xyz
x,y,z
-x,-y,z
-x,1/2+y,z
x,1/2-y,z
x,1/2+y,1/2+z
-x,1/2-y,1/2+z
-x,y,1/2+z
x,-y,1/2+z
loop_
_atom_site_type_symbol
_atom_site_label
_atom_site_fract_x
_atom_site_fract_y
_atom_site_fract_z
Si Si1 0.709798 0.667797 0.593230
Si Si2 0.535243 0.886007 0.157269
Si Si3 0.415936 0.045134 0.422946
Si Si4 0.906175 0.193206 0.322814
Si Si5 0.783550 0.659533 0.109193
Si Si6 0.161165 0.942547 0.014065
Si Si7 0.968363 0.915823 0.236248
Si Si8 0.261730 0.750000 0.843156
O O1 0.582998 0.651550 0.667434
O O2 0.799600 0.693347 0.707239
O O3 0.778407 0.615052 0.539145
O O4 0.695766 0.704838 0.459679
O O5 0.586704 0.909078 0.304261
O O6 0.644049 0.855795 0.079725
O O7 0.487159 0.932530 0.057920
O O8 0.283568 0.025132 0.476538
O O9 0.500000 0.000000 0.359443
O O10 0.972553 0.250000 0.320519
O O11 0.851331 0.184690 0.476663
O O12 0.981176 0.141174 0.286566
O O13 0.854065 0.604623 0.143667
O O14 0.777313 0.702753 0.231995
O O15 0.071385 0.946972 0.148195
O O16 0.078517 0.944063 0.875465
#
# Coordination Sequence:
#
# PCOD9361494 Si02
#       8
#     8   8   8   8   8   8   8   4
#     4  10  22  40  58  89 133 180 226 286 328 379
#     4  11  23  44  67  95 135 171 219 283 359 414
#     4  11  23  44  75 107 126 163 225 292 350 435
#     4  11  23  36  55  88 128 179 245 275 314 380
#     4  12  23  38  59  92 129 184 231 271 330 399
#     4  10  21  40  65  99 134 177 220 269 351 402
#     4  11  21  38  63  92 137 186 215 277 336 407
#     4  12  22  36  58  86 134 182 244 284 310 380
#
# _framework density 22.788855999999999
#
# number of rings (size 3 to 8) (size 9 to 14) (size 15 to 20)
#    0.000    1.067    5.333    2.000    0.933    0.533 
#    2.400    0.000    0.000    0.800    6.933    0.000 
#    0.000    0.000    0.000    0.000    0.000    0.000 
#
# Total GULP energy -167139.103383 kJ/mol
# GULP energy per Si atom -5571.303446 kJ/mol
# Density = 2.273699 g / cm^3
# Si number density = 22.788856 Si / 1000 Ang^3
#
#
#
# Elastic Constant Matrix: (Units=GPa)
#
#
# Indices 1 2 3 4 5 6 
#
# 1 109.5166 9.7864 32.9778 0.0000 0.0000 0.0000
# 2 9.7864 25.4541 -1.8940 0.0000 0.0000 0.0000
# 3 32.9778 -1.8940 94.3033 0.0000 0.0000 0.0000
# 4 0.0000 0.0000 0.0000 16.8019 0.0000 0.0000
# 5 0.0000 0.0000 0.0000 0.0000 30.0312 0.0000
# 6 0.0000 0.0000 0.0000 0.0000 0.0000 -26.2504
#
#
#
# Elastic Compliance Matrix: (Units=1/GPa)
#
#
# Indices 1 2 3 4 5 6 
#
# 1 0.010674 -0.004388 -0.003821 0.000000 0.000000 0.000000
# 2 -0.004388 0.041149 0.002361 0.000000 0.000000 0.000000
# 3 -0.003821 0.002361 0.011988 0.000000 0.000000 0.000000
# 4 0.000000 0.000000 0.000000 0.059517 0.000000 0.000000
# 5 0.000000 0.000000 0.000000 0.000000 0.033299 0.000000
# 6 0.000000 0.000000 0.000000 0.000000 0.000000 -0.038095
#
#
# Mechanical properties :
#
#
# Convention : Reuss Voigt Hill
#
# Bulk Modulus (GPa) = 19.18840 34.55716 26.87278
# Shear Modulus (GPa) = 33.87567 16.67680 25.27624
#
# Velocity S-wave (km/s) = 3.85970 2.70811 3.33400
# Velocity P-wave (km/s) = 5.31991 4.99754 5.16124
#
# Compressibility (1/GPa) = 0.05211482
#
# Stress axis : x y z
#
# Youngs Moduli (GPa) = 93.68875 24.30183 83.41962
#
# Poissons Ratio (x) = 0.10664 0.31872
# Poissons Ratio (y) = 0.41111 -0.19695
# Poissons Ratio (z) = 0.35796 -0.05737
#
# Static dielectric constant tensor:
#      x y z
#    x 1.891060 0.000000 0.000000 
#    y 0.000000 1.872060 0.000000 
#    z 0.000000 0.000000 1.808170 
# 
# From -- ./inp_files/2864.got.cif
#   From: 2010.05.17/outbox.cif.g08.bks.cpg/sg39_2_cif.got.tgz:2864.got - 2010.06.03 18:22:40.
