data_PCOD9361716
_publ_section_title
;
Structure prediction by ZEFSAII (Michael W. Deem and Ramdas Pophale) SiO2 
 PCOD9361716
Probable space group: A B M 2
;
_chemical_formula_sum "Si O2"
_cell_formula_units_Z 60
_cell_length_a 26.053186
_cell_length_b 12.255024
_cell_length_c 8.738950
_cell_angle_alpha 90.000000
_cell_angle_beta 90.000000
_cell_angle_gamma 90.000000
_cell_volume 2790.193102
_symmetry_space_group_name_H-M "A B M 2"
_symmetry_group_IT_number 39
_symmetry_cell_setting 'orthorhombic'
loop_
_space_group_symop_operation_xyz
x,y,z
-x,-y,z
-x,1/2+y,z
x,1/2-y,z
x,1/2+y,1/2+z
-x,1/2-y,1/2+z
-x,y,1/2+z
x,-y,1/2+z
loop_
_atom_site_type_symbol
_atom_site_label
_atom_site_fract_x
_atom_site_fract_y
_atom_site_fract_z
Si Si1 0.816754 0.369827 0.071560
Si Si2 0.613931 0.620222 0.475867
Si Si3 0.312754 0.930988 0.534564
Si Si4 0.039912 0.869766 0.430238
Si Si5 0.556217 0.449357 0.278743
Si Si6 0.066188 0.417940 0.579589
Si Si7 0.400170 0.750000 0.460990
Si Si8 0.240958 0.477584 0.298503
O O1 0.801063 0.250000 0.124979
O O2 0.877823 0.371990 0.051197
O O3 0.799624 0.460613 0.192413
O O4 0.787878 0.399655 0.915667
O O5 0.619736 0.750000 0.449478
O O6 0.664539 0.555090 0.530079
O O7 0.592566 0.550392 0.332576
O O8 0.574871 0.599146 0.616790
O O9 0.357837 0.845517 0.508749
O O10 0.281770 0.916630 0.690597
O O11 0.272645 0.932611 0.395318
O O12 0.059935 0.750000 0.458398
O O13 0.049350 0.898181 0.253701
O O14 0.979524 0.874791 0.471317
O O15 0.067230 0.954745 0.540375
O O16 0.500000 0.500000 0.269570
O O17 0.561614 0.348650 0.396676
#
# Coordination Sequence:
#
# PCOD9361716 Si02
#       8
#     8   8   8   8   8   8   4   8
#     4  11  24  44  66  95 135 176 216 280 360 393
#     4  11  24  44  69  98 136 179 218 274 329 380
#     4  10  22  43  67  99 132 166 234 273 333 404
#     4  11  22  39  64  92 129 183 220 276 340 375
#     4  11  24  45  66 102 136 179 221 260 327 395
#     4  11  23  40  64  97 134 170 236 277 321 436
#     4  10  22  40  70  94 134 176 206 280 320 376
#     4  10  24  42  65  99 126 171 224 280 337 415
#
# _framework density 21.503888
#
# number of rings (size 3 to 8) (size 9 to 14) (size 15 to 20)
#    0.000    1.333    0.667    5.600    2.800    2.133 
#    9.600    4.667    0.000    0.000    0.000    0.000 
#    0.000    0.000    0.000    0.000    0.000    0.000 
#
# Total GULP energy -167204.664696 kJ/mol
# GULP energy per Si atom -5573.488823 kJ/mol
# Density = 2.145494 g / cm^3
# Si number density = 21.503888 Si / 1000 Ang^3
#
#
#
# Elastic Constant Matrix: (Units=GPa)
#
#
# Indices 1 2 3 4 5 6 
#
# 1 86.7000 20.4615 25.0231 0.0000 0.0000 0.0000
# 2 20.4615 164.2577 15.0676 0.0000 0.0000 0.0000
# 3 25.0231 15.0676 40.4707 0.0000 0.0000 0.0000
# 4 0.0000 0.0000 0.0000 1.1107 0.0000 0.0000
# 5 0.0000 0.0000 0.0000 0.0000 17.5559 0.0000
# 6 0.0000 0.0000 0.0000 0.0000 0.0000 -0.0156
#
#
#
# Elastic Compliance Matrix: (Units=1/GPa)
#
#
# Indices 1 2 3 4 5 6 
#
# 1 0.014195 -0.000997 -0.008406 0.000000 0.000000 0.000000
# 2 -0.000997 0.006373 -0.001756 0.000000 0.000000 0.000000
# 3 -0.008406 -0.001756 0.030560 0.000000 0.000000 0.000000
# 4 0.000000 0.000000 0.000000 0.900333 0.000000 0.000000
# 5 0.000000 0.000000 0.000000 0.000000 0.056961 0.000000
# 6 0.000000 0.000000 0.000000 0.000000 0.000000-64.183104
#
#
# Mechanical properties :
#
#
# Convention : Reuss Voigt Hill
#
# Bulk Modulus (GPa) = 34.70942 45.83698 40.27320
# Shear Modulus (GPa) = -0.07919 19.12196 9.52139
#
# Velocity S-wave (km/s) = -0.19210 2.98524 2.10650
# Velocity P-wave (km/s) = 4.01582 5.76577 4.96845
#
# Compressibility (1/GPa) = 0.02881063
#
# Stress axis : x y z
#
# Youngs Moduli (GPa) = 70.44524 156.90401 32.72207
#
# Poissons Ratio (x) = 0.15647 0.27505
# Poissons Ratio (y) = 0.07025 0.05747
# Poissons Ratio (z) = 0.59215 0.27556
#
# Static dielectric constant tensor:
#      x y z
#    x 1.771310 0.000000 0.000000 
#    y 0.000000 1.777540 0.000000 
#    z 0.000000 0.000000 1.806050 
# 
# From -- ./inp_files/4123.got.cif
#   From: 2010.05.17/outbox.cif.g08.bks.cpg/sg39_3_cif.got.tgz:4123.got - 2010.06.03 18:22:40.
