data_PCOD9361498
_publ_section_title
;
Structure prediction by ZEFSAII (Michael W. Deem and Ramdas Pophale) SiO2 
 PCOD9361498
Probable space group: A B M 2
;
_chemical_formula_sum "Si O2"
_cell_formula_units_Z 64
_cell_length_a 20.549429
_cell_length_b 16.888357
_cell_length_c 9.586316
_cell_angle_alpha 90.000000
_cell_angle_beta 90.000000
_cell_angle_gamma 90.000000
_cell_volume 3326.893515
_symmetry_space_group_name_H-M "A B M 2"
_symmetry_group_IT_number 39
_symmetry_cell_setting 'orthorhombic'
loop_
_space_group_symop_operation_xyz
x,y,z
-x,-y,z
-x,1/2+y,z
x,1/2-y,z
x,1/2+y,1/2+z
-x,1/2-y,1/2+z
-x,y,1/2+z
x,-y,1/2+z
loop_
_atom_site_type_symbol
_atom_site_label
_atom_site_fract_x
_atom_site_fract_y
_atom_site_fract_z
Si Si1 0.558326 0.158920 0.726260
Si Si2 0.623206 0.064621 0.941535
Si Si3 0.043317 0.577782 0.606049
Si Si4 0.419120 0.419273 0.755377
Si Si5 0.060922 0.156108 0.804224
Si Si6 0.338085 0.158369 0.982147
Si Si7 0.157829 0.476514 0.733639
Si Si8 0.754434 0.991947 0.987361
O O1 0.540138 0.250000 0.709974
O O2 0.596787 0.143290 0.869616
O O3 0.492302 0.109378 0.731460
O O4 0.607970 0.139144 0.601017
O O5 0.587345 0.994578 0.856970
O O6 0.699576 0.049395 0.924843
O O7 0.608613 0.060577 0.104220
O O8 0.055273 0.625440 0.463654
O O9 0.108162 0.543313 0.678456
O O10 0.000000 0.500000 0.570989
O O11 0.002728 0.629323 0.717262
O O12 0.375162 0.354589 0.835442
O O13 0.069664 0.250000 0.799354
O O14 0.119866 0.106608 0.734839
O O15 0.318043 0.250000 0.998611
O O16 0.280199 0.094315 0.993233
O O17 0.182931 0.491417 0.888961
O O18 0.221187 0.478835 0.636589
#
# Coordination Sequence:
#
# PCOD9361498 Si02
#       8
#     8   8   8   8   8   8   8   8
#     4  11  23  39  59  86 119 153 197 257 329 391
#     4  11  23  39  60  86 119 156 206 254 312 369
#     4  10  21  40  66  95 129 169 203 247 308 369
#     4  11  22  38  61  88 115 152 200 262 321 390
#     4  11  23  40  65 101 133 159 201 261 312 354
#     4  10  22  40  61  88 123 163 205 262 326 379
#     4  11  22  40  65  90 122 171 217 247 295 372
#     4  11  22  40  61  86 121 167 215 254 291 363
#
# _framework density 19.237165000000001
#
# number of rings (size 3 to 8) (size 9 to 14) (size 15 to 20)
#    0.000    1.250    1.250    6.750    1.750    4.500 
#    0.000    0.625    0.000    1.500    0.000    0.000 
#    0.000    0.000    0.000    0.000    0.000    0.000 
#
# Total GULP energy -178779.567566 kJ/mol
# GULP energy per Si atom -5586.861486 kJ/mol
# Density = 1.919338 g / cm^3
# Si number density = 19.237165 Si / 1000 Ang^3
#
#
#
# Elastic Constant Matrix: (Units=GPa)
#
#
# Indices 1 2 3 4 5 6 
#
# 1 85.3064 34.0260 30.5380 0.0000 0.0000 0.0000
# 2 34.0260 72.2278 42.1269 0.0000 0.0000 0.0000
# 3 30.5380 42.1269 116.9173 0.0000 0.0000 0.0000
# 4 0.0000 0.0000 0.0000 18.5496 0.0000 0.0000
# 5 0.0000 0.0000 0.0000 0.0000 -49.8436 0.0000
# 6 0.0000 0.0000 0.0000 0.0000 0.0000 12.3159
#
#
#
# Elastic Compliance Matrix: (Units=1/GPa)
#
#
# Indices 1 2 3 4 5 6 
#
# 1 0.014697 -0.005931 -0.001702 0.000000 0.000000 0.000000
# 2 -0.005931 0.019922 -0.005629 0.000000 0.000000 0.000000
# 3 -0.001702 -0.005629 0.011026 0.000000 0.000000 0.000000
# 4 0.000000 0.000000 0.000000 0.053910 0.000000 0.000000
# 5 0.000000 0.000000 0.000000 0.000000 -0.020063 0.000000
# 6 0.000000 0.000000 0.000000 0.000000 0.000000 0.081196
#
#
# Mechanical properties :
#
#
# Convention : Reuss Voigt Hill
#
# Bulk Modulus (GPa) = 52.29757 54.20371 53.25064
# Shear Modulus (GPa) = 25.82822 7.38842 16.60832
#
# Velocity S-wave (km/s) = 3.66815 1.96190 2.94146
# Velocity P-wave (km/s) = 6.72199 5.77666 6.26717
#
# Compressibility (1/GPa) = 0.01912135
#
# Stress axis : x y z
#
# Youngs Moduli (GPa) = 68.03900 50.19457 90.69657
#
# Poissons Ratio (x) = 0.29772 0.15434
# Poissons Ratio (y) = 0.40356 0.51054
# Poissons Ratio (z) = 0.11578 0.28255
#
# Static dielectric constant tensor:
#      x y z
#    x 1.710320 0.000000 0.000000 
#    y 0.000000 1.668010 0.000000 
#    z 0.000000 0.000000 1.679650 
# 
# From -- ./inp_files/4029.got.cif
#   From: 2010.05.17/outbox.cif.g08.bks.cpg/sg39_3_cif.got.tgz:4029.got - 2010.06.03 18:22:40.
