data_PCOD9361627
_publ_section_title
;
Structure prediction by ZEFSAII (Michael W. Deem and Ramdas Pophale) SiO2 
 PCOD9361627
Probable space group: A B M 2
;
_chemical_formula_sum "Si O2"
_cell_formula_units_Z 64
_cell_length_a 12.059641
_cell_length_b 18.462583
_cell_length_c 14.227404
_cell_angle_alpha 90.000000
_cell_angle_beta 90.000000
_cell_angle_gamma 90.000000
_cell_volume 3167.761704
_symmetry_space_group_name_H-M "A B M 2"
_symmetry_group_IT_number 39
_symmetry_cell_setting 'orthorhombic'
loop_
_space_group_symop_operation_xyz
x,y,z
-x,-y,z
-x,1/2+y,z
x,1/2-y,z
x,1/2+y,1/2+z
-x,1/2-y,1/2+z
-x,y,1/2+z
x,-y,1/2+z
loop_
_atom_site_type_symbol
_atom_site_label
_atom_site_fract_x
_atom_site_fract_y
_atom_site_fract_z
Si Si1 0.655905 0.553859 0.867720
Si Si2 0.886117 0.669079 0.109678
Si Si3 0.644126 0.116013 0.643651
Si Si4 0.276651 0.044733 0.650916
Si Si5 0.845169 0.835674 0.900149
Si Si6 0.413739 0.831529 0.053401
Si Si7 0.955161 0.074631 0.233285
Si Si8 0.402313 0.399004 0.365575
O O1 0.679583 0.552667 0.756991
O O2 0.736142 0.613988 0.910568
O O3 0.669729 0.469685 0.895914
O O4 0.529190 0.576071 0.877412
O O5 0.921957 0.750000 0.135729
O O6 0.753965 0.661947 0.123517
O O7 0.948350 0.612397 0.174617
O O8 0.908700 0.658086 0.999077
O O9 0.536210 0.142470 0.587026
O O10 0.619956 0.118026 0.756296
O O11 0.677103 0.033015 0.617724
O O12 0.328402 0.111189 0.595751
O O13 0.144819 0.052300 0.662976
O O14 0.820639 0.750000 0.885394
O O15 0.910090 0.870795 0.812670
O O16 0.397161 0.750000 0.087770
O O17 0.393401 0.836080 0.941576
O O18 0.000000 0.000000 0.277386
#
# Coordination Sequence:
#
# PCOD9361627 Si02
#       8
#     8   8   8   8   8   8   8   8
#     4   9  19  38  64  91 123 169 215 259 314 380
#     4  11  24  42  67  98 130 169 217 266 327 384
#     4  11  22  44  67  93 132 169 218 270 318 385
#     4  10  22  42  66  90 126 166 220 265 313 384
#     4  10  23  42  67  98 129 167 217 269 325 387
#     4  12  26  39  61  99 136 172 211 260 333 393
#     4  11  23  45  69  95 126 170 218 271 322 384
#     4  10  22  38  61  94 130 170 214 262 317 383
#
# _framework density 20.20354
#
# number of rings (size 3 to 8) (size 9 to 14) (size 15 to 20)
#    0.000    1.500    2.500    1.875    5.250    5.500 
#    2.250    0.000    0.000    0.000    0.000    0.000 
#    0.000    0.000    0.000    0.000    0.000    0.000 
#
# Total GULP energy -178651.817248 kJ/mol
# GULP energy per Si atom -5582.869289 kJ/mol
# Density = 2.015756 g / cm^3
# Si number density = 20.203540 Si / 1000 Ang^3
#
#
#
# Elastic Constant Matrix: (Units=GPa)
#
#
# Indices 1 2 3 4 5 6 
#
# 1 54.3224 23.1887 24.8674 0.0000 0.0000 0.0000
# 2 23.1887 125.5665 45.9987 0.0000 0.0000 0.0000
# 3 24.8674 45.9987 74.8438 0.0000 0.0000 0.0000
# 4 0.0000 0.0000 0.0000 25.3555 0.0000 0.0000
# 5 0.0000 0.0000 0.0000 0.0000 8.4780 0.0000
# 6 0.0000 0.0000 0.0000 0.0000 0.0000 0.0347
#
#
#
# Elastic Compliance Matrix: (Units=1/GPa)
#
#
# Indices 1 2 3 4 5 6 
#
# 1 0.022018 -0.001789 -0.006216 0.000000 0.000000 0.000000
# 2 -0.001789 0.010423 -0.005812 0.000000 0.000000 0.000000
# 3 -0.006216 -0.005812 0.018998 0.000000 0.000000 0.000000
# 4 0.000000 0.000000 0.000000 0.039439 0.000000 0.000000
# 5 0.000000 0.000000 0.000000 0.000000 0.117953 0.000000
# 6 0.000000 0.000000 0.000000 0.000000 0.000000 28.855735
#
#
# Mechanical properties :
#
#
# Convention : Reuss Voigt Hill
#
# Bulk Modulus (GPa) = 42.00634 49.20470 45.60552
# Shear Modulus (GPa) = 0.17182 17.48550 8.82866
#
# Velocity S-wave (km/s) = 0.29194 2.94507 2.09269
# Velocity P-wave (km/s) = 4.57715 5.99766 5.33490
#
# Compressibility (1/GPa) = 0.02380593
#
# Stress axis : x y z
#
# Youngs Moduli (GPa) = 45.41775 95.93915 52.63616
#
# Poissons Ratio (x) = 0.17163 0.32719
# Poissons Ratio (y) = 0.08125 0.30591
# Poissons Ratio (z) = 0.28232 0.55757
#
# Static dielectric constant tensor:
#      x y z
#    x 1.724350 0.000000 0.000000 
#    y 0.000000 1.710640 0.000000 
#    z 0.000000 0.000000 1.721980 
# 
# From -- ./inp_files/9421.got.cif
#   From: 2010.05.17/outbox.cif.g08.bks.cpg/sg39_5_cif.got.tgz:9421.got - 2010.06.03 18:22:40.
