data_PCOD9361853
_publ_section_title
;
Structure prediction by ZEFSAII (Michael W. Deem and Ramdas Pophale) SiO2 
 PCOD9361853
Probable space group: A B M 2
;
_chemical_formula_sum "Si O2"
_cell_formula_units_Z 32
_cell_length_a 11.513580
_cell_length_b 13.645811
_cell_length_c 7.969248
_cell_angle_alpha 90.000000
_cell_angle_beta 90.000000
_cell_angle_gamma 90.000000
_cell_volume 1252.065580
_symmetry_space_group_name_H-M "A B M 2"
_symmetry_group_IT_number 39
_symmetry_cell_setting 'orthorhombic'
loop_
_space_group_symop_operation_xyz
x,y,z
-x,-y,z
-x,1/2+y,z
x,1/2-y,z
x,1/2+y,1/2+z
-x,1/2-y,1/2+z
-x,y,1/2+z
x,-y,1/2+z
loop_
_atom_site_type_symbol
_atom_site_label
_atom_site_fract_x
_atom_site_fract_y
_atom_site_fract_z
Si Si1 0.313955 0.633746 0.042490
Si Si2 0.866108 0.027267 0.823602
Si Si3 0.236681 0.366261 0.004647
Si Si4 0.461277 0.633137 0.700840
O O1 0.292314 0.750000 0.069436
O O2 0.409366 0.593118 0.175921
O O3 0.194557 0.584415 0.979103
O O4 0.394369 0.620912 0.874493
O O5 0.840628 0.092479 0.659850
O O6 0.000000 0.000000 0.841997
O O7 0.802687 0.921803 0.837991
O O8 0.225622 0.250000 0.991679
O O9 0.367785 0.391636 0.057313
O O10 0.477921 0.750000 0.684437
#
# Coordination Sequence:
#
# PCOD9361853 Si02
#       4
#     8   8   8   8
#     4   9  18  35  61  93 130 167 209 269 325 381
#     4  11  23  41  64  93 129 175 224 261 317 394
#     4  10  23  43  64  91 129 167 214 277 324 375
#     4   8  16  33  57  87 123 163 207 258 325 387
#
# _framework density 25.557767999999999
#
# number of rings (size 3 to 8) (size 9 to 14) (size 15 to 20)
#    0.000    2.500    0.000    3.000    0.000    5.000 
#    0.000   10.000    0.000    0.000    0.000    0.000 
#    0.000    0.000    0.000    0.000    0.000    0.000 
#
# Total GULP energy -89486.575546 kJ/mol
# GULP energy per Si atom -5592.910972 kJ/mol
# Density = 2.549960 g / cm^3
# Si number density = 25.557768 Si / 1000 Ang^3
#
#
#
# Elastic Constant Matrix: (Units=GPa)
#
#
# Indices 1 2 3 4 5 6 
#
# 1 214.1769 43.2779 27.8498 0.0000 0.0000 0.0000
# 2 43.2779 153.5358 -1.0293 0.0000 0.0000 0.0000
# 3 27.8498 -1.0293 75.9305 0.0000 0.0000 0.0000
# 4 0.0000 0.0000 0.0000 33.1281 0.0000 0.0000
# 5 0.0000 0.0000 0.0000 0.0000 29.3575 0.0000
# 6 0.0000 0.0000 0.0000 0.0000 0.0000 92.7656
#
#
#
# Elastic Compliance Matrix: (Units=1/GPa)
#
#
# Indices 1 2 3 4 5 6 
#
# 1 0.005221 -0.001485 -0.001935 0.000000 0.000000 0.000000
# 2 -0.001485 0.006936 0.000639 0.000000 0.000000 0.000000
# 3 -0.001935 0.000639 0.013888 0.000000 0.000000 0.000000
# 4 0.000000 0.000000 0.000000 0.030186 0.000000 0.000000
# 5 0.000000 0.000000 0.000000 0.000000 0.034063 0.000000
# 6 0.000000 0.000000 0.000000 0.000000 0.000000 0.010780
#
#
# Mechanical properties :
#
#
# Convention : Reuss Voigt Hill
#
# Bulk Modulus (GPa) = 48.82129 64.87113 56.84621
# Shear Modulus (GPa) = 44.06729 55.95323 50.01026
#
# Velocity S-wave (km/s) = 4.15688 4.68406 4.42832
# Velocity P-wave (km/s) = 6.49487 7.39534 6.95969
#
# Compressibility (1/GPa) = 0.02048287
#
# Stress axis : x y z
#
# Youngs Moduli (GPa) = 191.54829 144.17797 72.00309
#
# Poissons Ratio (x) = 0.21404 0.13932
# Poissons Ratio (y) = 0.28436 -0.04598
# Poissons Ratio (z) = 0.37064 -0.09206
#
# Static dielectric constant tensor:
#      x y z
#    x 1.978970 0.000000 0.000000 
#    y 0.000000 2.057210 0.000000 
#    z 0.000000 0.000000 2.155890 
# 
# From -- ./inp_files/2426.got.cif
#   From: 2010.05.17/outbox.cif.g08.bks.cpg/sg39_2_cif.got.tgz:2426.got - 2010.06.03 18:22:40.
