data_PCOD9361276
_publ_section_title
;
Structure prediction by ZEFSAII (Michael W. Deem and Ramdas Pophale) SiO2 
 PCOD9361276
Probable space group: A B M 2
;
_chemical_formula_sum "Si O2"
_cell_formula_units_Z 64
_cell_length_a 24.649611
_cell_length_b 8.735433
_cell_length_c 15.650465
_cell_angle_alpha 90.000000
_cell_angle_beta 90.000000
_cell_angle_gamma 90.000000
_cell_volume 3369.936773
_symmetry_space_group_name_H-M "A B M 2"
_symmetry_group_IT_number 39
_symmetry_cell_setting 'orthorhombic'
loop_
_space_group_symop_operation_xyz
x,y,z
-x,-y,z
-x,1/2+y,z
x,1/2-y,z
x,1/2+y,1/2+z
-x,1/2-y,1/2+z
-x,y,1/2+z
x,-y,1/2+z
loop_
_atom_site_type_symbol
_atom_site_label
_atom_site_fract_x
_atom_site_fract_y
_atom_site_fract_z
Si Si1 0.747018 0.429803 0.427280
Si Si2 0.439809 0.566034 0.289169
Si Si3 0.872312 0.064976 0.691905
Si Si4 0.940134 0.065053 0.527691
Si Si5 0.638964 0.566210 0.636385
Si Si6 0.135752 0.065215 0.870436
Si Si7 0.631585 0.067281 0.939333
Si Si8 0.245562 0.929256 0.632048
O O1 0.737950 0.250000 0.407132
O O2 0.801614 0.485113 0.381511
O O3 0.692284 0.521745 0.409954
O O4 0.758206 0.440169 0.529034
O O5 0.500000 0.500000 0.283347
O O6 0.441586 0.750000 0.288958
O O7 0.403716 0.514227 0.207675
O O8 0.410760 0.509645 0.375558
O O9 0.871627 0.250000 0.693405
O O10 0.912602 0.016731 0.616662
O O11 0.810904 0.012912 0.670256
O O12 0.887758 0.999690 0.783266
O O13 0.942413 0.250000 0.527023
O O14 0.900326 0.017374 0.450983
O O15 0.000000 0.000000 0.517694
O O16 0.638186 0.750000 0.634962
O O17 0.626589 0.514795 0.538749
O O18 0.699748 0.513705 0.659085
O O19 0.136615 0.250000 0.869020
O O20 0.625157 0.250000 0.936866
O O21 0.251222 0.750000 0.653361
#
# Coordination Sequence:
#
# PCOD9361276 Si02
#       8
#     8   8   8   8   8   8   8   8
#     4   9  17  34  58  83 115 154 190 230 286 347
#     4  11  24  42  61  84 116 155 197 239 286 342
#     4  10  21  37  57  85 117 150 190 238 289 343
#     4  10  22  42  62  81 114 156 197 241 288 344
#     4   9  21  39  58  84 118 152 189 236 286 338
#     4  10  21  37  58  84 115 152 192 236 289 345
#     4  10  21  38  59  87 119 152 191 238 287 340
#     4   9  17  33  58  84 114 151 189 230 284 344
#
# _framework density 18.991453
#
# number of rings (size 3 to 8) (size 9 to 14) (size 15 to 20)
#    0.000    2.250    1.250    0.750    1.750    4.500 
#    0.000    3.750    0.000    0.000    0.000    0.000 
#    0.000    0.000    0.000    0.000    0.000    0.000 
#
# Total GULP energy -178670.718500 kJ/mol
# GULP energy per Si atom -5583.459953 kJ/mol
# Density = 1.894823 g / cm^3
# Si number density = 18.991453 Si / 1000 Ang^3
#
#
#
# Elastic Constant Matrix: (Units=GPa)
#
#
# Indices 1 2 3 4 5 6 
#
# 1 75.8414 14.2100 11.4782 0.0000 0.0000 0.0000
# 2 14.2100 15.1771 13.0859 0.0000 0.0000 0.0000
# 3 11.4782 13.0859 46.7038 0.0000 0.0000 0.0000
# 4 0.0000 0.0000 0.0000 25.2972 0.0000 0.0000
# 5 0.0000 0.0000 0.0000 0.0000 2.4643 0.0000
# 6 0.0000 0.0000 0.0000 0.0000 0.0000 33.9276
#
#
#
# Elastic Compliance Matrix: (Units=1/GPa)
#
#
# Indices 1 2 3 4 5 6 
#
# 1 0.015995 -0.015277 0.000349 0.000000 0.000000 0.000000
# 2 -0.015277 0.101468 -0.024676 0.000000 0.000000 0.000000
# 3 0.000349 -0.024676 0.028240 0.000000 0.000000 0.000000
# 4 0.000000 0.000000 0.000000 0.039530 0.000000 0.000000
# 5 0.000000 0.000000 0.000000 0.000000 0.405790 0.000000
# 6 0.000000 0.000000 0.000000 0.000000 0.000000 0.029474
#
#
# Mechanical properties :
#
#
# Convention : Reuss Voigt Hill
#
# Bulk Modulus (GPa) = 15.03850 23.91893 19.47872
# Shear Modulus (GPa) = 6.92647 18.93439 12.93043
#
# Velocity S-wave (km/s) = 1.91182 3.16095 2.61215
# Velocity P-wave (km/s) = 3.57899 5.09353 4.40189
#
# Compressibility (1/GPa) = 0.06649599
#
# Stress axis : x y z
#
# Youngs Moduli (GPa) = 62.51998 9.85533 35.41137
#
# Poissons Ratio (x) = 0.15056 -0.01237
# Poissons Ratio (y) = 0.95511 0.87380
# Poissons Ratio (z) = -0.02185 0.24319
#
# Static dielectric constant tensor:
#      x y z
#    x 1.631950 0.000000 0.000000 
#    y 0.000000 1.646500 0.000000 
#    z 0.000000 0.000000 1.668650 
# 
# From -- ./inp_files/10584.got.cif
#   From: 2010.05.17/outbox.cif.g08.bks.cpg/sg39_6_cif.got.tgz:10584.got - 2010.06.03 18:22:40.
