data_PCOD9361391
_publ_section_title
;
Structure prediction by ZEFSAII (Michael W. Deem and Ramdas Pophale) SiO2 
 PCOD9361391
Probable space group: A B M 2
;
_chemical_formula_sum "Si O2"
_cell_formula_units_Z 56
_cell_length_a 5.521157
_cell_length_b 19.657421
_cell_length_c 24.111802
_cell_angle_alpha 90.000000
_cell_angle_beta 90.000000
_cell_angle_gamma 90.000000
_cell_volume 2616.895043
_symmetry_space_group_name_H-M "A B M 2"
_symmetry_group_IT_number 39
_symmetry_cell_setting 'orthorhombic'
loop_
_space_group_symop_operation_xyz
x,y,z
-x,-y,z
-x,1/2+y,z
x,1/2-y,z
x,1/2+y,1/2+z
-x,1/2-y,1/2+z
-x,y,1/2+z
x,-y,1/2+z
loop_
_atom_site_type_symbol
_atom_site_label
_atom_site_fract_x
_atom_site_fract_y
_atom_site_fract_z
Si Si1 0.161974 0.828574 0.251980
Si Si2 0.757239 0.585381 0.947295
Si Si3 0.979425 0.077412 0.558306
Si Si4 0.707418 0.829406 0.626503
Si Si5 0.333834 0.562221 0.660148
Si Si6 0.328010 0.097887 0.279681
Si Si7 0.262986 0.430291 0.403264
O O1 0.209724 0.750000 0.264970
O O2 0.140703 0.833826 0.184566
O O3 0.400739 0.870481 0.272396
O O4 0.902550 0.851126 0.276347
O O5 0.743466 0.503989 0.933136
O O6 0.498011 0.609864 0.925369
O O7 0.007178 0.605321 0.916693
O O8 0.797521 0.604785 0.011572
O O9 0.887995 0.065075 0.619991
O O10 0.195160 0.129188 0.572801
O O11 0.000000 0.000000 0.537112
O O12 0.678185 0.750000 0.613904
O O13 0.466453 0.866911 0.647382
O O14 0.500000 0.500000 0.640709
O O15 0.287482 0.552730 0.724806
O O16 0.299815 0.060294 0.337839
#
# Coordination Sequence:
#
# PCOD9361391 Si02
#       7
#     8   8   8   8   8   8   8
#     4  10  21  40  63  93 128 172 217 263 329 408
#     4  10  23  38  61  89 124 170 215 264 326 391
#     4  12  22  40  66  96 129 172 223 277 333 394
#     4  10  23  41  62  95 138 178 216 264 337 416
#     4  11  24  36  62 101 133 171 212 285 343 398
#     4  11  22  39  62  96 131 166 215 272 337 395
#     4  10  21  39  58  90 122 169 209 264 325 390
#
# _framework density 21.399405000000002
#
# number of rings (size 3 to 8) (size 9 to 14) (size 15 to 20)
#    0.000    1.429    4.286    1.286    6.000    1.143 
#    5.143    0.000    0.000    5.143    0.000    0.000 
#    0.000    0.000    0.000    0.000    0.000    0.000 
#
# Total GULP energy -155917.502421 kJ/mol
# GULP energy per Si atom -5568.482229 kJ/mol
# Density = 2.135070 g / cm^3
# Si number density = 21.399405 Si / 1000 Ang^3
#
#
#
# Elastic Constant Matrix: (Units=GPa)
#
#
# Indices 1 2 3 4 5 6 
#
# 1 125.6352 16.9820 31.9367 0.0000 0.0000 0.0000
# 2 16.9820 56.4342 27.1712 0.0000 0.0000 0.0000
# 3 31.9367 27.1712 111.9721 0.0000 0.0000 0.0000
# 4 0.0000 0.0000 0.0000 -5.5545 0.0000 0.0000
# 5 0.0000 0.0000 0.0000 0.0000 42.7342 0.0000
# 6 0.0000 0.0000 0.0000 0.0000 0.0000 20.6214
#
#
#
# Elastic Compliance Matrix: (Units=1/GPa)
#
#
# Indices 1 2 3 4 5 6 
#
# 1 0.008710 -0.001613 -0.002093 0.000000 0.000000 0.000000
# 2 -0.001613 0.020363 -0.004481 0.000000 0.000000 0.000000
# 3 -0.002093 -0.004481 0.010615 0.000000 0.000000 0.000000
# 4 0.000000 0.000000 0.000000 -0.180033 0.000000 0.000000
# 5 0.000000 0.000000 0.000000 0.000000 0.023400 0.000000
# 6 0.000000 0.000000 0.000000 0.000000 0.000000 0.048493
#
#
# Mechanical properties :
#
#
# Convention : Reuss Voigt Hill
#
# Bulk Modulus (GPa) = 42.89406 49.58013 46.23710
# Shear Modulus (GPa) = -112.85064 26.09032 -43.38016
#
# Velocity S-wave (km/s) = -7.26979 3.49550 -4.50729
# Velocity P-wave (km/s) = 7.09778 6.28575 2.33108
#
# Compressibility (1/GPa) = 0.02331325
#
# Stress axis : x y z
#
# Youngs Moduli (GPa) = 114.81602 49.10933 94.20589
#
# Poissons Ratio (x) = 0.07923 0.19714
# Poissons Ratio (y) = 0.18523 0.42214
# Poissons Ratio (z) = 0.24027 0.22006
#
# Static dielectric constant tensor:
#      x y z
#    x 1.651430 0.000000 0.000000 
#    y 0.000000 1.824960 0.000000 
#    z 0.000000 0.000000 1.781300 
# 
# From -- ./inp_files/15301.got.cif
#   From: 2010.05.17/outbox.cif.g08.bks.cpg/sg39_8_cif.got.tgz:15301.got - 2010.06.03 18:22:40.
