data_PCOD9361908
_publ_section_title
;
Structure prediction by ZEFSAII (Michael W. Deem and Ramdas Pophale) SiO2 
 PCOD9361908
Probable space group: A B M 2
;
_chemical_formula_sum "Si O2"
_cell_formula_units_Z 60
_cell_length_a 5.843905
_cell_length_b 26.917947
_cell_length_c 17.554010
_cell_angle_alpha 90.000000
_cell_angle_beta 90.000000
_cell_angle_gamma 90.000000
_cell_volume 2761.349782
_symmetry_space_group_name_H-M "A B M 2"
_symmetry_group_IT_number 39
_symmetry_cell_setting 'orthorhombic'
loop_
_space_group_symop_operation_xyz
x,y,z
-x,-y,z
-x,1/2+y,z
x,1/2-y,z
x,1/2+y,1/2+z
-x,1/2-y,1/2+z
-x,y,1/2+z
x,-y,1/2+z
loop_
_atom_site_type_symbol
_atom_site_label
_atom_site_fract_x
_atom_site_fract_y
_atom_site_fract_z
Si Si1 0.351788 0.923199 0.432240
Si Si2 0.995172 0.807833 0.169091
Si Si3 0.502498 0.689762 0.740906
Si Si4 0.016503 0.145485 0.009682
Si Si5 0.500000 0.000000 0.535925
Si Si6 0.938845 0.558421 0.787099
Si Si7 0.273823 0.131261 0.370646
Si Si8 0.865976 0.552492 0.611874
O O1 0.321191 0.972283 0.481729
O O2 0.257664 0.932126 0.348390
O O3 0.615520 0.912195 0.421477
O O4 0.250505 0.874396 0.472196
O O5 0.995144 0.750000 0.188888
O O6 0.246692 0.824836 0.204462
O O7 0.992501 0.815474 0.077857
O O8 0.736711 0.824697 0.196115
O O9 0.504471 0.750000 0.746696
O O10 0.453280 0.664136 0.823049
O O11 0.944619 0.095585 0.055908
O O12 0.869843 0.160162 0.934997
O O13 0.606906 0.959025 0.589757
O O14 0.884898 0.567162 0.699347
O O15 0.000000 0.500000 0.794259
O O16 0.123536 0.599276 0.812313
O O17 0.000000 0.500000 0.604706
#
# Coordination Sequence:
#
# PCOD9361908 Si02
#       8
#     8   8   8   8   4   8   8   8
#     4  11  24  39  62  92 128 176 222 276 344 407
#     4  10  24  47  73 102 140 179 224 284 350 412
#     4  10  24  46  73 102 135 179 226 281 346 417
#     4  11  24  40  64  97 131 173 223 282 345 408
#     4  12  22  38  62  86 136 180 220 274 338 396
#     4  10  24  41  61  88 127 174 232 280 329 407
#     4  11  24  41  65  95 130 177 222 283 344 411
#     4  11  23  40  57  89 126 171 222 277 324 397
#
# _framework density 21.728503
#
# number of rings (size 3 to 8) (size 9 to 14) (size 15 to 20)
#    0.000    1.333    2.667    1.600    9.333    3.200 
#    0.000    0.667    0.000    0.000    0.000    0.000 
#    0.000    0.000    0.000    0.000    0.000    0.000 
#
# Total GULP energy -167036.739871 kJ/mol
# GULP energy per Si atom -5567.891329 kJ/mol
# Density = 2.167905 g / cm^3
# Si number density = 21.728503 Si / 1000 Ang^3
#
#
#
# Elastic Constant Matrix: (Units=GPa)
#
#
# Indices 1 2 3 4 5 6 
#
# 1 71.5056 11.0958 50.3224 0.0000 0.0000 0.0000
# 2 11.0958 23.0894 10.1815 0.0000 0.0000 0.0000
# 3 50.3224 10.1815 140.4525 0.0000 0.0000 0.0000
# 4 0.0000 0.0000 0.0000 34.4510 0.0000 0.0000
# 5 0.0000 0.0000 0.0000 0.0000 46.9714 0.0000
# 6 0.0000 0.0000 0.0000 0.0000 0.0000 119.6341
#
#
#
# Elastic Compliance Matrix: (Units=1/GPa)
#
#
# Indices 1 2 3 4 5 6 
#
# 1 0.019610 -0.006535 -0.006552 0.000000 0.000000 0.000000
# 2 -0.006535 0.046918 -0.001060 0.000000 0.000000 0.000000
# 3 -0.006552 -0.001060 0.009544 0.000000 0.000000 0.000000
# 4 0.000000 0.000000 0.000000 0.029027 0.000000 0.000000
# 5 0.000000 0.000000 0.000000 0.000000 0.021290 0.000000
# 6 0.000000 0.000000 0.000000 0.000000 0.000000 0.008359
#
#
# Mechanical properties :
#
#
# Convention : Reuss Voigt Hill
#
# Bulk Modulus (GPa) = 20.92990 42.02743 31.47867
# Shear Modulus (GPa) = 27.93813 51.10781 39.52297
#
# Velocity S-wave (km/s) = 3.58967 4.85512 4.26954
# Velocity P-wave (km/s) = 5.18019 7.12837 6.23089
#
# Compressibility (1/GPa) = 0.04777854
#
# Stress axis : x y z
#
# Youngs Moduli (GPa) = 50.99389 21.31399 104.77431
#
# Poissons Ratio (x) = 0.13928 0.68652
# Poissons Ratio (y) = 0.33322 0.11104
# Poissons Ratio (z) = 0.33413 0.02259
#
# Static dielectric constant tensor:
#      x y z
#    x 1.878400 0.000000 0.000000 
#    y 0.000000 1.795330 0.000000 
#    z 0.000000 0.000000 1.780390 
# 
# From -- ./inp_files/11153.got.cif
#   From: 2010.05.17/outbox.cif.g08.bks.cpg/sg39_6_cif.got.tgz:11153.got - 2010.06.03 18:22:40.
