data_PCOD9361766
_publ_section_title
;
Structure prediction by ZEFSAII (Michael W. Deem and Ramdas Pophale) SiO2 
 PCOD9361766
Probable space group: A B M 2
;
_chemical_formula_sum "Si O2"
_cell_formula_units_Z 40
_cell_length_a 11.555848
_cell_length_b 10.993896
_cell_length_c 14.450244
_cell_angle_alpha 90.000000
_cell_angle_beta 90.000000
_cell_angle_gamma 90.000000
_cell_volume 1835.813780
_symmetry_space_group_name_H-M "A B M 2"
_symmetry_group_IT_number 39
_symmetry_cell_setting 'orthorhombic'
loop_
_space_group_symop_operation_xyz
x,y,z
-x,-y,z
-x,1/2+y,z
x,1/2-y,z
x,1/2+y,1/2+z
-x,1/2-y,1/2+z
-x,y,1/2+z
x,-y,1/2+z
loop_
_atom_site_type_symbol
_atom_site_label
_atom_site_fract_x
_atom_site_fract_y
_atom_site_fract_z
Si Si1 0.500000 0.500000 0.505400
Si Si2 0.484893 0.250000 0.514131
Si Si3 0.654358 0.750000 0.836507
Si Si4 0.739024 0.510048 0.923625
Si Si5 0.267730 0.750000 0.135215
Si Si6 0.088315 0.386275 0.298548
Si Si7 0.136785 0.995757 0.610672
O O1 0.529895 0.376650 0.557571
O O2 0.390796 0.466519 0.443118
O O3 0.544713 0.250000 0.409871
O O4 0.350125 0.250000 0.544873
O O5 0.726163 0.629238 0.861255
O O6 0.647849 0.750000 0.725192
O O7 0.816961 0.408168 0.877022
O O8 0.795998 0.546704 0.020443
O O9 0.188449 0.629303 0.134402
O O10 0.038286 0.250000 0.303657
O O11 0.147083 0.408879 0.199090
O O12 0.000000 0.500000 0.308183
O O13 0.000000 0.000000 0.589731
#
# Coordination Sequence:
#
# PCOD9361766 Si02
#       7
#     4   4   4   8   4   8   8
#     4  10  22  42  70 100 132 186 234 292 358 444
#     4  10  22  44  72  98 148 186 240 292 368 440
#     4  10  24  43  73 107 138 191 246 305 365 442
#     4  11  23  45  70 101 146 184 245 303 366 435
#     4  12  22  49  75 101 152 201 238 313 377 434
#     4  11  27  46  71 104 144 189 243 302 363 445
#     4  11  26  42  70 104 142 197 245 299 361 444
#
# _framework density 21.788703000000002
#
# number of rings (size 3 to 8) (size 9 to 14) (size 15 to 20)
#    0.000    1.200    4.000    0.600   11.200    0.000 
#    0.000   13.000    0.000    0.000    0.000    0.000 
#    0.000    0.000    0.000    0.000    0.000    0.000 
#
# Total GULP energy -111526.432271 kJ/mol
# GULP energy per Si atom -5576.321614 kJ/mol
# Density = 2.173911 g / cm^3
# Si number density = 21.788703 Si / 1000 Ang^3
#
#
#
# Elastic Constant Matrix: (Units=GPa)
#
#
# Indices 1 2 3 4 5 6 
#
# 1 105.2680 25.5589 54.4533 0.0000 0.0000 0.0000
# 2 25.5589 171.3064 20.4804 0.0000 0.0000 0.0000
# 3 54.4533 20.4804 81.9358 0.0000 0.0000 0.0000
# 4 0.0000 0.0000 0.0000 24.9261 0.0000 0.0000
# 5 0.0000 0.0000 0.0000 0.0000 20.2148 0.0000
# 6 0.0000 0.0000 0.0000 0.0000 0.0000 30.5764
#
#
#
# Elastic Compliance Matrix: (Units=1/GPa)
#
#
# Indices 1 2 3 4 5 6 
#
# 1 0.014658 -0.001054 -0.009478 0.000000 0.000000 0.000000
# 2 -0.001054 0.006093 -0.000823 0.000000 0.000000 0.000000
# 3 -0.009478 -0.000823 0.018709 0.000000 0.000000 0.000000
# 4 0.000000 0.000000 0.000000 0.040119 0.000000 0.000000
# 5 0.000000 0.000000 0.000000 0.000000 0.049469 0.000000
# 6 0.000000 0.000000 0.000000 0.000000 0.000000 0.032705
#
#
# Mechanical properties :
#
#
# Convention : Reuss Voigt Hill
#
# Bulk Modulus (GPa) = 59.69686 62.16614 60.93150
# Shear Modulus (GPa) = 26.30933 32.34464 29.32698
#
# Velocity S-wave (km/s) = 3.47864 3.85706 3.67273
# Velocity P-wave (km/s) = 6.60244 6.95911 6.78312
#
# Compressibility (1/GPa) = 0.01675130
#
# Stress axis : x y z
#
# Youngs Moduli (GPa) = 68.22017 164.12068 53.44892
#
# Poissons Ratio (x) = 0.17296 0.50661
# Poissons Ratio (y) = 0.07189 0.04397
# Poissons Ratio (z) = 0.64661 0.13501
#
# Static dielectric constant tensor:
#      x y z
#    x 1.831110 0.000000 0.000000 
#    y 0.000000 1.913760 0.000000 
#    z 0.000000 0.000000 1.783440 
# 
# From -- ./inp_files/9100.got.cif
#   From: 2010.05.17/outbox.cif.g08.bks.cpg/sg39_5_cif.got.tgz:9100.got - 2010.06.03 18:22:40.
