data_PCOD9361022
_publ_section_title
;
Structure prediction by ZEFSAII (Michael W. Deem and Ramdas Pophale) SiO2 
 PCOD9361022
Probable space group: A B M 2
;
_chemical_formula_sum "Si O2"
_cell_formula_units_Z 52
_cell_length_a 13.809690
_cell_length_b 18.991997
_cell_length_c 10.086501
_cell_angle_alpha 90.000000
_cell_angle_beta 90.000000
_cell_angle_gamma 90.000000
_cell_volume 2645.422838
_symmetry_space_group_name_H-M "A B M 2"
_symmetry_group_IT_number 39
_symmetry_cell_setting 'orthorhombic'
loop_
_space_group_symop_operation_xyz
x,y,z
-x,-y,z
-x,1/2+y,z
x,1/2-y,z
x,1/2+y,1/2+z
-x,1/2-y,1/2+z
-x,y,1/2+z
x,-y,1/2+z
loop_
_atom_site_type_symbol
_atom_site_label
_atom_site_fract_x
_atom_site_fract_y
_atom_site_fract_z
Si Si1 0.474688 0.250000 0.597230
Si Si2 0.500000 0.500000 0.077681
Si Si3 0.218377 0.829977 0.476637
Si Si4 0.622900 0.750000 0.869114
Si Si5 0.335036 0.086131 0.199826
Si Si6 0.203294 0.961727 0.124062
Si Si7 0.899835 0.458170 0.389408
Si Si8 0.641165 0.117311 0.990612
O O1 0.459127 0.250000 0.756619
O O2 0.575576 0.250000 0.516591
O O3 0.420500 0.319088 0.545788
O O4 0.558162 0.559703 0.158943
O O5 0.420513 0.544259 0.996992
O O6 0.188528 0.750000 0.511444
O O7 0.302517 0.816159 0.365114
O O8 0.278094 0.867985 0.592339
O O9 0.128065 0.878821 0.436544
O O10 0.335000 0.126519 0.337293
O O11 0.275731 0.013377 0.203171
O O12 0.119263 0.954233 0.231577
O O13 0.263677 0.894329 0.078896
O O14 0.171108 0.997371 0.986231
O O15 0.000000 0.500000 0.408726
#
# Coordination Sequence:
#
# PCOD9361022 Si02
#       8
#     4   4   8   4   8   8   8   8
#     4  12  26  36  62  91 130 180 235 264 313 374
#     4  10  22  36  58  86 126 174 230 278 302 372
#     4   9  22  41  65  88 135 173 212 263 343 390
#     4  10  24  42  56  93 134 184 215 272 313 390
#     4  10  20  38  59  90 126 178 215 273 319 377
#     4  10  21  40  62  94 126 161 208 271 329 384
#     4  11  21  40  71  96 123 158 215 268 332 408
#     4  11  23  37  61  87 133 170 226 267 318 375
#
# _framework density 19.656593000000001
#
# number of rings (size 3 to 8) (size 9 to 14) (size 15 to 20)
#    0.462    1.231    1.538    2.769    5.385    0.000 
#    0.000    0.000    1.692    7.385    0.000    0.000 
#    0.000    0.000    0.000    0.000    0.000    0.000 
#
# Total GULP energy -144735.752539 kJ/mol
# GULP energy per Si atom -5566.759713 kJ/mol
# Density = 1.961185 g / cm^3
# Si number density = 19.656593 Si / 1000 Ang^3
#
#
#
# Elastic Constant Matrix: (Units=GPa)
#
#
# Indices 1 2 3 4 5 6 
#
# 1 82.8977 33.2255 23.2097 0.0000 0.0000 0.0000
# 2 33.2255 92.0887 18.9690 0.0000 0.0000 0.0000
# 3 23.2097 18.9690 98.6915 0.0000 0.0000 0.0000
# 4 0.0000 0.0000 0.0000 4.9462 0.0000 0.0000
# 5 0.0000 0.0000 0.0000 0.0000 18.9450 0.0000
# 6 0.0000 0.0000 0.0000 0.0000 0.0000 35.7861
#
#
#
# Elastic Compliance Matrix: (Units=1/GPa)
#
#
# Indices 1 2 3 4 5 6 
#
# 1 0.014688 -0.004777 -0.002536 0.000000 0.000000 0.000000
# 2 -0.004777 0.012860 -0.001348 0.000000 0.000000 0.000000
# 3 -0.002536 -0.001348 0.010988 0.000000 0.000000 0.000000
# 4 0.000000 0.000000 0.000000 0.202177 0.000000 0.000000
# 5 0.000000 0.000000 0.000000 0.000000 0.052784 0.000000
# 6 0.000000 0.000000 0.000000 0.000000 0.000000 0.027944
#
#
# Mechanical properties :
#
#
# Convention : Reuss Voigt Hill
#
# Bulk Modulus (GPa) = 47.13979 47.16515 47.15247
# Shear Modulus (GPa) = 14.45774 25.15370 19.80572
#
# Velocity S-wave (km/s) = 2.71498 3.58111 3.17769
# Velocity P-wave (km/s) = 5.81910 6.41450 6.12404
#
# Compressibility (1/GPa) = 0.02121350
#
# Stress axis : x y z
#
# Youngs Moduli (GPa) = 68.08419 77.75841 91.00704
#
# Poissons Ratio (x) = 0.37145 0.23080
# Poissons Ratio (y) = 0.32523 0.12271
# Poissons Ratio (z) = 0.17266 0.10485
#
# Static dielectric constant tensor:
#      x y z
#    x 1.763020 0.000000 0.000000 
#    y 0.000000 1.699690 0.000000 
#    z 0.000000 0.000000 1.717730 
# 
# From -- ./inp_files/3375.got.cif
#   From: 2010.05.17/outbox.cif.g08.bks.cpg/sg39_2_cif.got.tgz:3375.got - 2010.06.03 18:22:40.
