data_PCOD9361376
_publ_section_title
;
Structure prediction by ZEFSAII (Michael W. Deem and Ramdas Pophale) SiO2 
 PCOD9361376
Probable space group: A B M 2
;
_chemical_formula_sum "Si O2"
_cell_formula_units_Z 64
_cell_length_a 11.727792
_cell_length_b 17.398403
_cell_length_c 14.921676
_cell_angle_alpha 90.000000
_cell_angle_beta 90.000000
_cell_angle_gamma 90.000000
_cell_volume 3044.691164
_symmetry_space_group_name_H-M "A B M 2"
_symmetry_group_IT_number 39
_symmetry_cell_setting 'orthorhombic'
loop_
_space_group_symop_operation_xyz
x,y,z
-x,-y,z
-x,1/2+y,z
x,1/2-y,z
x,1/2+y,1/2+z
-x,1/2-y,1/2+z
-x,y,1/2+z
x,-y,1/2+z
loop_
_atom_site_type_symbol
_atom_site_label
_atom_site_fract_x
_atom_site_fract_y
_atom_site_fract_z
Si Si1 0.748078 0.334796 0.678060
Si Si2 0.138974 0.661885 0.485916
Si Si3 0.783214 0.521966 0.870662
Si Si4 0.105157 0.420714 0.515641
Si Si5 0.126752 0.510542 0.698642
Si Si6 0.486375 0.841762 0.236691
Si Si7 0.662228 0.659785 0.569830
Si Si8 0.442493 0.927046 0.911744
O O1 0.775073 0.250000 0.716512
O O2 0.782509 0.333592 0.574140
O O3 0.825387 0.404211 0.712794
O O4 0.614690 0.348969 0.695617
O O5 0.124022 0.750000 0.452821
O O6 0.204016 0.602776 0.421148
O O7 0.014003 0.625610 0.510899
O O8 0.800719 0.539617 0.766554
O O9 0.671896 0.468758 0.877571
O O10 0.873401 0.466491 0.923375
O O11 0.120184 0.483050 0.596283
O O12 0.211584 0.366831 0.541571
O O13 0.000000 0.500000 0.733164
O O14 0.469436 0.750000 0.254876
O O15 0.396215 0.869561 0.161811
O O16 0.489847 0.890594 0.328367
O O17 0.662784 0.750000 0.579587
O O18 0.584755 0.635386 0.485940
O O19 0.500000 0.000000 0.958595
#
# Coordination Sequence:
#
# PCOD9361376 Si02
#       8
#     8   8   8   8   8   8   8   8
#     4  10  21  38  64  93 122 169 216 259 320 384
#     4  11  22  42  66  94 133 172 215 271 331 387
#     4  11  24  41  63  97 127 173 222 261 330 391
#     4  11  22  41  65  94 133 170 217 267 327 390
#     4  12  21  38  64  94 131 169 214 274 322 388
#     4  10  22  43  66  92 129 170 215 268 324 387
#     4  10  24  43  66  95 126 170 217 266 329 390
#     4  11  25  40  65  95 128 167 216 271 323 389
#
# _framework density 21.020192999999999
#
# number of rings (size 3 to 8) (size 9 to 14) (size 15 to 20)
#    0.000    1.250    3.750    1.875    3.500    0.500 
#    0.000    4.375    0.000    0.000    0.000    0.000 
#    0.000    0.000    0.000    0.000    0.000    0.000 
#
# Total GULP energy -178392.878839 kJ/mol
# GULP energy per Si atom -5574.777464 kJ/mol
# Density = 2.097235 g / cm^3
# Si number density = 21.020193 Si / 1000 Ang^3
#
#
#
# Elastic Constant Matrix: (Units=GPa)
#
#
# Indices 1 2 3 4 5 6 
#
# 1 37.3695 24.6991 21.8456 0.0000 0.0000 0.0000
# 2 24.6991 99.3274 36.8279 0.0000 0.0000 0.0000
# 3 21.8456 36.8279 78.5630 0.0000 0.0000 0.0000
# 4 0.0000 0.0000 0.0000 -3.4012 0.0000 0.0000
# 5 0.0000 0.0000 0.0000 0.0000 23.5524 0.0000
# 6 0.0000 0.0000 0.0000 0.0000 0.0000 35.9954
#
#
#
# Elastic Compliance Matrix: (Units=1/GPa)
#
#
# Indices 1 2 3 4 5 6 
#
# 1 0.034785 -0.006129 -0.006800 0.000000 0.000000 0.000000
# 2 -0.006129 0.013265 -0.004514 0.000000 0.000000 0.000000
# 3 -0.006800 -0.004514 0.016736 0.000000 0.000000 0.000000
# 4 0.000000 0.000000 0.000000 -0.294011 0.000000 0.000000
# 5 0.000000 0.000000 0.000000 0.000000 0.042458 0.000000
# 6 0.000000 0.000000 0.000000 0.000000 0.000000 0.027781
#
#
# Mechanical properties :
#
#
# Convention : Reuss Voigt Hill
#
# Bulk Modulus (GPa) = 33.44348 42.44501 37.94424
# Shear Modulus (GPa) = -43.80896 20.02179 -11.89358
#
# Velocity S-wave (km/s) = -4.57019 3.08961 -2.38127
# Velocity P-wave (km/s) = 3.45023 5.74142 3.24498
#
# Compressibility (1/GPa) = 0.02990120
#
# Stress axis : x y z
#
# Youngs Moduli (GPa) = 28.74762 75.38363 59.75310
#
# Poissons Ratio (x) = 0.46201 0.40630
# Poissons Ratio (y) = 0.17619 0.26974
# Poissons Ratio (z) = 0.19547 0.34030
#
# Static dielectric constant tensor:
#      x y z
#    x 2.318890 0.000000 0.000000 
#    y 0.000000 1.780880 0.000000 
#    z 0.000000 0.000000 1.734650 
# 
# From -- ./inp_files/9455.got.cif
#   From: 2010.05.17/outbox.cif.g08.bks.cpg/sg39_5_cif.got.tgz:9455.got - 2010.06.03 18:22:40.
