data_PCOD9361927
_publ_section_title
;
Structure prediction by ZEFSAII (Michael W. Deem and Ramdas Pophale) SiO2 
 PCOD9361927
Probable space group: A B M 2
;
_chemical_formula_sum "Si O2"
_cell_formula_units_Z 56
_cell_length_a 20.279425
_cell_length_b 15.378019
_cell_length_c 9.392210
_cell_angle_alpha 90.000000
_cell_angle_beta 90.000000
_cell_angle_gamma 90.000000
_cell_volume 2929.030031
_symmetry_space_group_name_H-M "A B M 2"
_symmetry_group_IT_number 39
_symmetry_cell_setting 'orthorhombic'
loop_
_space_group_symop_operation_xyz
x,y,z
-x,-y,z
-x,1/2+y,z
x,1/2-y,z
x,1/2+y,1/2+z
-x,1/2-y,1/2+z
-x,y,1/2+z
x,-y,1/2+z
loop_
_atom_site_type_symbol
_atom_site_label
_atom_site_fract_x
_atom_site_fract_y
_atom_site_fract_z
Si Si1 0.210408 0.855195 0.962860
Si Si2 0.063446 0.143902 0.795533
Si Si3 0.339286 0.914837 0.800893
Si Si4 0.063446 0.643902 0.966148
Si Si5 0.431396 0.250000 0.962119
Si Si6 0.339286 0.414837 0.960788
Si Si7 0.210408 0.144805 0.798821
Si Si8 0.568604 0.750000 0.299562
O O1 0.213907 0.750000 0.953641
O O2 0.267596 0.894190 0.866648
O O3 0.136588 0.882444 0.916690
O O4 0.218974 0.877421 0.130840
O O5 0.063102 0.250000 0.801198
O O6 0.057169 0.119341 0.630841
O O7 0.136588 0.117556 0.844991
O O8 0.000000 0.112516 0.880841
O O9 0.335260 0.926617 0.630840
O O10 0.387118 0.834136 0.832128
O O11 0.364670 0.000000 0.880840
O O12 0.063101 0.750000 0.960484
O O13 0.387118 0.334136 0.929553
O O14 0.500000 0.250000 0.880841
O O15 0.444306 0.250000 0.130841
O O16 0.267596 0.394189 0.895032
O O17 0.213907 0.250000 0.808040
#
# Coordination Sequence:
#
# PCOD9361927 Si02
#       8
#     8   8   8   8   4   8   8   4
#     4   9  17  31  53  80 112 153 197 242 293 347
#     4   8  14  24  40  68 105 144 190 238 287 343
#     4  11  23  40  61  90 122 155 197 241 287 344
#     4   8  14  24  40  68 105 144 190 238 287 343
#     4  10  24  44  66  92 123 154 191 234 283 344
#     4  11  23  40  61  90 122 155 197 241 287 344
#     4   9  17  31  53  80 112 153 197 242 293 347
#     4  10  24  44  66  92 123 154 191 234 283 344
#
# _framework density 19.118957000000002
#
# number of rings (size 3 to 8) (size 9 to 14) (size 15 to 20)
#    0.000    2.571    1.429    2.571    0.000    4.000 
#    0.000    5.714    0.000    0.857    0.000    6.000 
#    0.000    0.000    0.000    0.000    0.000    0.000 
#
# Total GULP energy -156275.650596 kJ/mol
# GULP energy per Si atom -5581.273236 kJ/mol
# Density = 1.907544 g / cm^3
# Si number density = 19.118957 Si / 1000 Ang^3
#
#
#
# Elastic Constant Matrix: (Units=GPa)
#
#
# Indices 1 2 3 4 5 6 
#
# 1 169.7864 64.5608 86.5881 0.0000 0.0000 0.0000
# 2 64.5608 98.3547 58.2264 0.0000 0.0000 0.0000
# 3 86.5881 58.2264 77.9611 0.0000 0.0000 0.0000
# 4 0.0000 0.0000 0.0000 22.7714 0.0000 0.0000
# 5 0.0000 0.0000 0.0000 0.0000 42.7272 0.0000
# 6 0.0000 0.0000 0.0000 0.0000 0.0000 -12.3950
#
#
#
# Elastic Compliance Matrix: (Units=1/GPa)
#
#
# Indices 1 2 3 4 5 6 
#
# 1 0.013584 0.000027 -0.015107 0.000000 0.000000 0.000000
# 2 0.000027 0.018226 -0.013642 0.000000 0.000000 0.000000
# 3 -0.015107 -0.013642 0.039795 0.000000 0.000000 0.000000
# 4 0.000000 0.000000 0.000000 0.043915 0.000000 0.000000
# 5 0.000000 0.000000 0.000000 0.000000 0.023404 0.000000
# 6 0.000000 0.000000 0.000000 0.000000 0.000000 -0.080678
#
#
# Mechanical properties :
#
#
# Convention : Reuss Voigt Hill
#
# Bulk Modulus (GPa) = 70.62346 84.98364 77.80355
# Shear Modulus (GPa) = 41.52462 19.73584 30.63023
#
# Velocity S-wave (km/s) = 4.66543 3.21637 4.00695
# Velocity P-wave (km/s) = 8.12655 7.63805 7.88608
#
# Compressibility (1/GPa) = 0.01415960
#
# Stress axis : x y z
#
# Youngs Moduli (GPa) = 73.61652 54.86720 25.12897
#
# Poissons Ratio (x) = -0.00148 0.37963
# Poissons Ratio (y) = -0.00198 0.34281
# Poissons Ratio (z) = 1.11214 0.74851
#
# Static dielectric constant tensor:
#      x y z
#    x 1.651690 0.000000 0.000000 
#    y 0.000000 1.710210 0.000000 
#    z 0.000000 0.000000 1.633390 
# 
# From -- ./inp_files/3982.got.cif
#   From: 2010.05.17/outbox.cif.g08.bks.cpg/sg39_2_cif.got.tgz:3982.got - 2010.06.03 18:22:40.
