data_PCOD9361659
_publ_section_title
;
Structure prediction by ZEFSAII (Michael W. Deem and Ramdas Pophale) SiO2 
 PCOD9361659
Probable space group: A B M 2
;
_chemical_formula_sum "Si O2"
_cell_formula_units_Z 36
_cell_length_a 6.555987
_cell_length_b 25.156903
_cell_length_c 9.800611
_cell_angle_alpha 90.000000
_cell_angle_beta 90.000000
_cell_angle_gamma 90.000000
_cell_volume 1616.398396
_symmetry_space_group_name_H-M "A B M 2"
_symmetry_group_IT_number 39
_symmetry_cell_setting 'orthorhombic'
loop_
_space_group_symop_operation_xyz
x,y,z
-x,-y,z
-x,1/2+y,z
x,1/2-y,z
x,1/2+y,1/2+z
-x,1/2-y,1/2+z
-x,y,1/2+z
x,-y,1/2+z
loop_
_atom_site_type_symbol
_atom_site_label
_atom_site_fract_x
_atom_site_fract_y
_atom_site_fract_z
Si Si1 0.602026 0.750000 0.814580
Si Si2 0.119410 0.551193 0.967050
Si Si3 0.804786 0.910611 0.191691
Si Si4 0.500000 0.000000 0.105955
Si Si5 0.229186 0.250000 0.513494
Si Si6 0.171244 0.192888 0.031337
O O1 0.648312 0.750000 0.655419
O O2 0.720457 0.800489 0.884706
O O3 0.382541 0.750000 0.887110
O O4 0.128889 0.593916 0.847507
O O5 0.339298 0.532165 0.015031
O O6 0.000000 0.500000 0.907388
O O7 0.989915 0.568808 0.097458
O O8 0.630044 0.955770 0.186438
O O9 0.749525 0.855419 0.119783
O O10 0.072581 0.300190 0.513636
O O11 0.220034 0.250000 0.100428
#
# Coordination Sequence:
#
# PCOD9361659 Si02
#       6
#     4   8   8   4   4   8
#     4   9  20  40  61  95 129 167 219 259 308 378
#     4  10  22  39  63  90 125 160 208 264 322 381
#     4  11  22  41  66  92 125 167 211 262 325 382
#     4  10  22  40  62  98 122 158 212 270 316 386
#     4   9  20  40  65  87 133 165 219 265 312 372
#     4   8  23  39  59  91 131 171 205 256 312 382
#
# _framework density 22.271737999999999
#
# number of rings (size 3 to 8) (size 9 to 14) (size 15 to 20)
#    1.333    0.889    0.000    2.667    3.111    7.111 
#    4.000    0.000    0.000    0.000    0.000    0.000 
#    0.000    0.000    0.000    0.000    0.000    0.000 
#
# Total GULP energy -100373.322647 kJ/mol
# GULP energy per Si atom -5576.295703 kJ/mol
# Density = 2.222105 g / cm^3
# Si number density = 22.271738 Si / 1000 Ang^3
#
#
#
# Elastic Constant Matrix: (Units=GPa)
#
#
# Indices 1 2 3 4 5 6 
#
# 1 117.9036 17.9526 46.6120 0.0000 0.0000 0.0000
# 2 17.9526 91.6791 26.6192 0.0000 0.0000 0.0000
# 3 46.6120 26.6192 112.1842 0.0000 0.0000 0.0000
# 4 0.0000 0.0000 0.0000 20.7854 0.0000 0.0000
# 5 0.0000 0.0000 0.0000 0.0000 -10.1309 0.0000
# 6 0.0000 0.0000 0.0000 0.0000 0.0000 8.0838
#
#
#
# Elastic Compliance Matrix: (Units=1/GPa)
#
#
# Indices 1 2 3 4 5 6 
#
# 1 0.010206 -0.000824 -0.004045 0.000000 0.000000 0.000000
# 2 -0.000824 0.011781 -0.002453 0.000000 0.000000 0.000000
# 3 -0.004045 -0.002453 0.011177 0.000000 0.000000 0.000000
# 4 0.000000 0.000000 0.000000 0.048111 0.000000 0.000000
# 5 0.000000 0.000000 0.000000 0.000000 -0.098708 0.000000
# 6 0.000000 0.000000 0.000000 0.000000 0.000000 0.123704
#
#
# Mechanical properties :
#
#
# Convention : Reuss Voigt Hill
#
# Bulk Modulus (GPa) = 53.99667 56.01492 55.00580
# Shear Modulus (GPa) = 39.34261 19.11987 29.23124
#
# Velocity S-wave (km/s) = 4.20751 2.93316 3.62675
# Velocity P-wave (km/s) = 6.92108 6.05612 6.50299
#
# Compressibility (1/GPa) = 0.01851966
#
# Stress axis : x y z
#
# Youngs Moduli (GPa) = 97.98000 84.88076 89.47193
#
# Poissons Ratio (x) = 0.06995 0.36192
# Poissons Ratio (y) = 0.08074 0.21948
# Poissons Ratio (z) = 0.39634 0.20822
#
# Static dielectric constant tensor:
#      x y z
#    x 1.851830 0.000000 0.000000 
#    y 0.000000 1.886580 0.000000 
#    z 0.000000 0.000000 1.802050 
# 
# From -- ./inp_files/4594.got.cif
#   From: 2010.05.17/outbox.cif.g08.bks.cpg/sg39_3_cif.got.tgz:4594.got - 2010.06.03 18:22:40.
