data_PCOD9361906
_publ_section_title
;
Structure prediction by ZEFSAII (Michael W. Deem and Ramdas Pophale) SiO2 
 PCOD9361906
Probable space group: A B M 2
;
_chemical_formula_sum "Si O2"
_cell_formula_units_Z 40
_cell_length_a 8.611514
_cell_length_b 18.479221
_cell_length_c 12.082510
_cell_angle_alpha 90.000000
_cell_angle_beta 90.000000
_cell_angle_gamma 90.000000
_cell_volume 1922.738996
_symmetry_space_group_name_H-M "A B M 2"
_symmetry_group_IT_number 39
_symmetry_cell_setting 'orthorhombic'
loop_
_space_group_symop_operation_xyz
x,y,z
-x,-y,z
-x,1/2+y,z
x,1/2-y,z
x,1/2+y,1/2+z
-x,1/2-y,1/2+z
-x,y,1/2+z
x,-y,1/2+z
loop_
_atom_site_type_symbol
_atom_site_label
_atom_site_fract_x
_atom_site_fract_y
_atom_site_fract_z
Si Si1 0.250315 0.619709 0.635250
Si Si2 0.561001 0.583289 0.738016
Si Si3 0.675614 0.971789 0.518958
Si Si4 0.782519 0.831221 0.902356
Si Si5 0.075388 0.078579 0.341366
O O1 0.406333 0.626187 0.707332
O O2 0.244180 0.541921 0.572578
O O3 0.255827 0.672088 0.532039
O O4 0.117660 0.616896 0.726246
O O5 0.500000 0.500000 0.754299
O O6 0.658339 0.581404 0.623692
O O7 0.661115 0.617907 0.835548
O O8 0.775117 0.938425 0.419445
O O9 0.500000 0.000000 0.492048
O O10 0.783123 0.750000 0.855715
O O11 0.949019 0.870134 0.897131
O O12 0.000000 0.000000 0.319732
#
# Coordination Sequence:
#
# PCOD9361906 Si02
#       5
#     8   8   8   8   8
#     4  10  24  40  68  96 135 176 233 290 343 410
#     4   9  22  43  74 101 131 176 241 297 339 414
#     4   9  21  39  70 106 132 169 238 299 337 403
#     4  12  28  45  66 104 149 184 229 291 361 428
#     4  12  24  39  71  99 138 183 234 290 349 411
#
# _framework density 20.803654999999999
#
# number of rings (size 3 to 8) (size 9 to 14) (size 15 to 20)
#    0.000    2.000    2.000    2.400   11.200    3.200 
#    0.000    0.000    0.000    0.000    0.000    0.000 
#    0.000    0.000    0.000    0.000    0.000    0.000 
#
# Total GULP energy -111607.472056 kJ/mol
# GULP energy per Si atom -5580.373603 kJ/mol
# Density = 2.075631 g / cm^3
# Si number density = 20.803655 Si / 1000 Ang^3
#
#
#
# Elastic Constant Matrix: (Units=GPa)
#
#
# Indices 1 2 3 4 5 6 
#
# 1 101.6596 45.2135 70.2906 0.0000 0.0000 0.0000
# 2 45.2135 69.3101 21.2417 0.0000 0.0000 0.0000
# 3 70.2906 21.2417 140.8477 0.0000 0.0000 0.0000
# 4 0.0000 0.0000 0.0000 4.3444 0.0000 0.0000
# 5 0.0000 0.0000 0.0000 0.0000 31.9265 0.0000
# 6 0.0000 0.0000 0.0000 0.0000 0.0000 4.0038
#
#
#
# Elastic Compliance Matrix: (Units=1/GPa)
#
#
# Indices 1 2 3 4 5 6 
#
# 1 0.020636 -0.010805 -0.008669 0.000000 0.000000 0.000000
# 2 -0.010805 0.020785 0.002258 0.000000 0.000000 0.000000
# 3 -0.008669 0.002258 0.011086 0.000000 0.000000 0.000000
# 4 0.000000 0.000000 0.000000 0.230180 0.000000 0.000000
# 5 0.000000 0.000000 0.000000 0.000000 0.031322 0.000000
# 6 0.000000 0.000000 0.000000 0.000000 0.000000 0.249760
#
#
# Mechanical properties :
#
#
# Convention : Reuss Voigt Hill
#
# Bulk Modulus (GPa) = 55.32887 65.03433 60.18160
# Shear Modulus (GPa) = 8.27504 19.72640 14.00072
#
# Velocity S-wave (km/s) = 1.99658 3.08266 2.59703
# Velocity P-wave (km/s) = 5.65408 6.63319 6.16311
#
# Compressibility (1/GPa) = 0.01807375
#
# Stress axis : x y z
#
# Youngs Moduli (GPa) = 48.45795 48.11275 90.20590
#
# Poissons Ratio (x) = 0.51986 0.78201
# Poissons Ratio (y) = 0.52359 -0.20366
# Poissons Ratio (z) = 0.42009 -0.10862
#
# Static dielectric constant tensor:
#      x y z
#    x 1.772300 0.000000 0.000000 
#    y 0.000000 1.784160 0.000000 
#    z 0.000000 0.000000 1.803060 
# 
# From -- ./inp_files/5042.got.cif
#   From: 2010.05.17/outbox.cif.g08.bks.cpg/sg39_3_cif.got.tgz:5042.got - 2010.06.03 18:22:40.
