data_PCOD9361527
_publ_section_title
;
Structure prediction by ZEFSAII (Michael W. Deem and Ramdas Pophale) SiO2 
 PCOD9361527
Probable space group: A B M 2
;
_chemical_formula_sum "Si O2"
_cell_formula_units_Z 56
_cell_length_a 5.173110
_cell_length_b 15.380264
_cell_length_c 34.213045
_cell_angle_alpha 90.000000
_cell_angle_beta 90.000000
_cell_angle_gamma 90.000000
_cell_volume 2722.119784
_symmetry_space_group_name_H-M "A B M 2"
_symmetry_group_IT_number 39
_symmetry_cell_setting 'orthorhombic'
loop_
_space_group_symop_operation_xyz
x,y,z
-x,-y,z
-x,1/2+y,z
x,1/2-y,z
x,1/2+y,1/2+z
-x,1/2-y,1/2+z
-x,y,1/2+z
x,-y,1/2+z
loop_
_atom_site_type_symbol
_atom_site_label
_atom_site_fract_x
_atom_site_fract_y
_atom_site_fract_z
Si Si1 0.979427 0.855177 0.019880
Si Si2 0.995609 0.105129 0.248894
Si Si3 0.475712 0.645021 0.969785
Si Si4 0.000000 0.500000 0.584808
Si Si5 0.085319 0.900349 0.337210
Si Si6 0.491068 0.652077 0.700368
Si Si7 0.584640 0.851313 0.381864
Si Si8 0.500000 0.000000 0.638200
O O1 0.978429 0.750000 0.027617
O O2 0.953841 0.915280 0.057768
O O3 0.746857 0.874891 0.989967
O O4 0.244084 0.880949 0.998252
O O5 0.942566 0.134722 0.293228
O O6 0.765773 0.136418 0.221023
O O7 0.267776 0.137727 0.232478
O O8 0.000000 0.000000 0.248059
O O9 0.457840 0.750000 0.967199
O O10 0.442160 0.611948 0.925693
O O11 0.750082 0.514489 0.611581
O O12 0.375416 0.893757 0.353140
O O13 0.876101 0.857888 0.366152
O O14 0.000000 0.000000 0.335648
O O15 0.476124 0.750000 0.685230
O O16 0.454747 0.582167 0.666350
O O17 0.511692 0.750000 0.382957
#
# Coordination Sequence:
#
# PCOD9361527 Si02
#       8
#     8   8   8   4   8   8   8   4
#     4  10  21  41  64  91 125 162 209 257 306 376
#     4  11  22  43  66  88 133 176 212 270 323 367
#     4   9  19  38  62  85 121 168 207 257 315 360
#     4  12  26  42  68  98 122 166 202 246 326 390
#     4  11  24  39  58  91 132 171 210 266 328 363
#     4  12  25  43  71  99 125 171 218 255 317 387
#     4  11  22  39  61  88 127 172 219 268 317 366
#     4  12  26  46  66  94 138 156 196 266 320 380
#
# _framework density 20.572201
#
# number of rings (size 3 to 8) (size 9 to 14) (size 15 to 20)
#    0.000    1.143    1.429    4.714    0.000    9.143 
#    7.714    0.000    0.000    0.000    0.000    0.000 
#    0.000    0.000    0.000    0.000    0.000    0.000 
#
# Total GULP energy -156632.865329 kJ/mol
# GULP energy per Si atom -5594.030905 kJ/mol
# Density = 2.052538 g / cm^3
# Si number density = 20.572201 Si / 1000 Ang^3
#
#
#
# Elastic Constant Matrix: (Units=GPa)
#
#
# Indices 1 2 3 4 5 6 
#
# 1 12.1564 6.2361 -42.4680 0.0000 0.0000 0.0000
# 2 6.2361 81.3890 33.7596 0.0000 0.0000 0.0000
# 3 -42.4680 33.7596 70.3522 0.0000 0.0000 0.0000
# 4 0.0000 0.0000 0.0000 42.5613 0.0000 0.0000
# 5 0.0000 0.0000 0.0000 0.0000 36.2453 0.0000
# 6 0.0000 0.0000 0.0000 0.0000 0.0000 2.5335
#
#
#
# Elastic Compliance Matrix: (Units=1/GPa)
#
#
# Indices 1 2 3 4 5 6 
#
# 1 -0.041075 0.016770 -0.032842 0.000000 0.000000 0.000000
# 2 0.016770 0.008493 0.006048 0.000000 0.000000 0.000000
# 3 -0.032842 0.006048 -0.008513 0.000000 0.000000 0.000000
# 4 0.000000 0.000000 0.000000 0.023496 0.000000 0.000000
# 5 0.000000 0.000000 0.000000 0.000000 0.027590 0.000000
# 6 0.000000 0.000000 0.000000 0.000000 0.000000 0.394716
#
#
# Mechanical properties :
#
#
# Convention : Reuss Voigt Hill
#
# Bulk Modulus (GPa) = -16.35475 17.66147 0.65336
# Shear Modulus (GPa) = 12.36478 27.35933 19.86206
#
# Velocity S-wave (km/s) = 2.45428 3.65076 3.11059
# Velocity P-wave (km/s) = 0.25322 5.13561 3.63584
#
# Compressibility (1/GPa) = -0.06114431
#
# Stress axis : x y z
#
# Youngs Moduli (GPa) = -24.34562 117.74065 -117.46770
#
# Poissons Ratio (x) = -1.97451 -3.85791
# Poissons Ratio (y) = 0.40828 0.71039
# Poissons Ratio (z) = -0.79957 -0.71204
#
# Static dielectric constant tensor:
#      x y z
#    x 1.688100 0.000000 0.000000 
#    y 0.000000 1.744280 0.000000 
#    z 0.000000 0.000000 1.711570 
# 
# From -- ./inp_files/17306.got.cif
#   From: 2010.05.17/outbox.cif.g08.bks.cpg/sg39_9_cif.got.tgz:17306.got - 2010.06.03 18:22:40.
