data_PCOD9361701
_publ_section_title
;
Structure prediction by ZEFSAII (Michael W. Deem and Ramdas Pophale) SiO2 
 PCOD9361701
Probable space group: A B M 2
;
_chemical_formula_sum "Si O2"
_cell_formula_units_Z 64
_cell_length_a 10.137824
_cell_length_b 26.450528
_cell_length_c 12.517613
_cell_angle_alpha 90.000000
_cell_angle_beta 90.000000
_cell_angle_gamma 90.000000
_cell_volume 3356.607910
_symmetry_space_group_name_H-M "A B M 2"
_symmetry_group_IT_number 39
_symmetry_cell_setting 'orthorhombic'
loop_
_space_group_symop_operation_xyz
x,y,z
-x,-y,z
-x,1/2+y,z
x,1/2-y,z
x,1/2+y,1/2+z
-x,1/2-y,1/2+z
-x,y,1/2+z
x,-y,1/2+z
loop_
_atom_site_type_symbol
_atom_site_label
_atom_site_fract_x
_atom_site_fract_y
_atom_site_fract_z
Si Si1 0.116377 0.460372 0.349540
Si Si2 0.393080 0.897208 0.179149
Si Si3 0.638922 0.620703 0.026155
Si Si4 0.766598 0.691282 0.369996
Si Si5 0.881740 0.368492 0.684051
Si Si6 0.863747 0.112910 0.044828
Si Si7 0.544992 0.190078 0.338565
Si Si8 0.628329 0.028768 0.372499
O O1 0.120098 0.419366 0.255223
O O2 0.095509 0.430873 0.461464
O O3 0.254720 0.489607 0.353729
O O4 0.000000 0.500000 0.331923
O O5 0.254610 0.905042 0.120550
O O6 0.395176 0.844249 0.244368
O O7 0.412889 0.941825 0.264608
O O8 0.510633 0.893770 0.094682
O O9 0.602810 0.667230 0.948308
O O10 0.673505 0.572671 0.952721
O O11 0.759024 0.632535 0.103751
O O12 0.778826 0.750000 0.394806
O O13 0.858149 0.675570 0.270445
O O14 0.806551 0.657295 0.470224
O O15 0.613337 0.681029 0.340383
O O16 0.015124 0.368259 0.616196
O O17 0.568242 0.250000 0.327472
O O18 0.500000 0.000000 0.415328
#
# Coordination Sequence:
#
# PCOD9361701 Si02
#       8
#     8   8   8   8   8   8   8   8
#     4  11  24  42  61  87 125 167 209 245 299 370
#     4  11  22  39  62  90 122 160 205 251 305 362
#     4  11  22  39  62  90 122 160 205 251 305 362
#     4  10  22  42  65  91 125 160 200 256 312 364
#     4  11  24  41  64  91 125 163 204 253 306 365
#     4  11  24  41  64  91 125 163 204 253 306 365
#     4  10  22  40  65  94 123 159 207 254 302 372
#     4  11  24  36  57  89 123 155 202 259 301 349
#
# _framework density 19.066869000000001
#
# number of rings (size 3 to 8) (size 9 to 14) (size 15 to 20)
#    0.000    1.250    2.500    3.000    3.500   11.000 
#    0.000    1.250    0.000    0.000    0.000    0.000 
#    0.000    0.000    0.000    0.000    0.000    0.000 
#
# Total GULP energy -178902.888807 kJ/mol
# GULP energy per Si atom -5590.715275 kJ/mol
# Density = 1.902347 g / cm^3
# Si number density = 19.066869 Si / 1000 Ang^3
#
#
#
# Elastic Constant Matrix: (Units=GPa)
#
#
# Indices 1 2 3 4 5 6 
#
# 1 47.0242 -16.9401 -13.1638 0.0000 0.0000 0.0000
# 2 -16.9401 58.4686 2.7682 0.0000 0.0000 0.0000
# 3 -13.1638 2.7682 62.2168 0.0000 0.0000 0.0000
# 4 0.0000 0.0000 0.0000 5.6893 0.0000 0.0000
# 5 0.0000 0.0000 0.0000 0.0000 34.0356 0.0000
# 6 0.0000 0.0000 0.0000 0.0000 0.0000 28.6286
#
#
#
# Elastic Compliance Matrix: (Units=1/GPa)
#
#
# Indices 1 2 3 4 5 6 
#
# 1 0.025218 0.007069 0.005021 0.000000 0.000000 0.000000
# 2 0.007069 0.019121 0.000645 0.000000 0.000000 0.000000
# 3 0.005021 0.000645 0.017106 0.000000 0.000000 0.000000
# 4 0.000000 0.000000 0.000000 0.175770 0.000000 0.000000
# 5 0.000000 0.000000 0.000000 0.000000 0.029381 0.000000
# 6 0.000000 0.000000 0.000000 0.000000 0.000000 0.034930
#
#
# Mechanical properties :
#
#
# Convention : Reuss Voigt Hill
#
# Bulk Modulus (GPa) = 11.50567 12.55979 12.03273
# Shear Modulus (GPa) = 16.39194 26.67370 21.53282
#
# Velocity S-wave (km/s) = 2.93526 3.74432 3.36420
# Velocity P-wave (km/s) = 4.18750 5.02939 4.62763
#
# Compressibility (1/GPa) = 0.08691365
#
# Stress axis : x y z
#
# Youngs Moduli (GPa) = 39.65482 52.29947 58.45737
#
# Poissons Ratio (x) = -0.36968 -0.29352
# Poissons Ratio (y) = -0.28030 -0.03770
# Poissons Ratio (z) = -0.19911 -0.03373
#
# Static dielectric constant tensor:
#      x y z
#    x 1.632440 0.000000 0.000000 
#    y 0.000000 1.631530 0.000000 
#    z 0.000000 0.000000 1.651910 
# 
# From -- ./inp_files/5428.got.cif
#   From: 2010.05.17/outbox.cif.g08.bks.cpg/sg39_3_cif.got.tgz:5428.got - 2010.06.03 18:22:40.
