data_PCOD9361116
_publ_section_title
;
Structure prediction by ZEFSAII (Michael W. Deem and Ramdas Pophale) SiO2 
 PCOD9361116
Probable space group: A B M 2
;
_chemical_formula_sum "Si O2"
_cell_formula_units_Z 52
_cell_length_a 11.847312
_cell_length_b 15.225238
_cell_length_c 11.832364
_cell_angle_alpha 90.000000
_cell_angle_beta 90.000000
_cell_angle_gamma 90.000000
_cell_volume 2134.299868
_symmetry_space_group_name_H-M "A B M 2"
_symmetry_group_IT_number 39
_symmetry_cell_setting 'orthorhombic'
loop_
_space_group_symop_operation_xyz
x,y,z
-x,-y,z
-x,1/2+y,z
x,1/2-y,z
x,1/2+y,1/2+z
-x,1/2-y,1/2+z
-x,y,1/2+z
x,-y,1/2+z
loop_
_atom_site_type_symbol
_atom_site_label
_atom_site_fract_x
_atom_site_fract_y
_atom_site_fract_z
Si Si1 0.317529 0.913607 0.159300
Si Si2 0.085738 0.647399 0.781053
Si Si3 0.837300 0.847215 0.840793
Si Si4 0.436408 0.250000 0.325410
Si Si5 0.482116 0.603454 0.492503
Si Si6 0.125191 0.517265 0.990228
Si Si7 0.692006 0.604593 0.178500
O O1 0.266432 0.852850 0.254910
O O2 0.420612 0.876230 0.087169
O O3 0.346991 0.007159 0.214984
O O4 0.218540 0.943300 0.073108
O O5 0.108753 0.750000 0.801245
O O6 0.111147 0.589354 0.890973
O O7 0.172792 0.614126 0.686446
O O8 0.951498 0.640110 0.765059
O O9 0.844893 0.750000 0.893264
O O10 0.838226 0.928035 0.926627
O O11 0.503464 0.328043 0.393876
O O12 0.360319 0.325568 0.262023
O O13 0.500000 0.500000 0.465482
O O14 0.364592 0.616951 0.556935
O O15 0.000000 0.500000 0.039283
#
# Coordination Sequence:
#
# PCOD9361116 Si02
#       7
#     8   8   8   4   8   8   8
#     4  11  24  42  68  97 143 181 231 288 345 415
#     4  10  20  39  69  98 139 179 235 280 348 416
#     4  10  23  42  64 102 139 188 226 283 347 417
#     4  12  24  46  78  98 136 182 232 286 350 402
#     4  10  26  46  66 107 137 178 238 283 347 422
#     4  10  22  40  68  99 139 182 232 279 350 415
#     4  11  23  43  69 101 133 181 229 287 346 410
#
# _framework density 24.363962000000001
#
# number of rings (size 3 to 8) (size 9 to 14) (size 15 to 20)
#    0.000    1.538    2.308    1.385    3.231    2.462 
#    4.154    0.000    0.000    0.000    0.000    0.000 
#    0.000    0.000    0.000    0.000    0.000    0.000 
#
# Total GULP energy -145069.511272 kJ/mol
# GULP energy per Si atom -5579.596587 kJ/mol
# Density = 2.430851 g / cm^3
# Si number density = 24.363962 Si / 1000 Ang^3
#
#
#
# Elastic Constant Matrix: (Units=GPa)
#
#
# Indices 1 2 3 4 5 6 
#
# 1 135.1020 23.8024 53.3034 0.0000 0.0000 0.0000
# 2 23.8024 77.3532 15.4549 0.0000 0.0000 0.0000
# 3 53.3034 15.4549 37.0231 0.0000 0.0000 0.0000
# 4 0.0000 0.0000 0.0000 74.3375 0.0000 0.0000
# 5 0.0000 0.0000 0.0000 0.0000 55.6012 0.0000
# 6 0.0000 0.0000 0.0000 0.0000 0.0000 35.8238
#
#
#
# Elastic Compliance Matrix: (Units=1/GPa)
#
#
# Indices 1 2 3 4 5 6 
#
# 1 0.017145 -0.000375 -0.024528 0.000000 0.000000 0.000000
# 2 -0.000375 0.014112 -0.005351 0.000000 0.000000 0.000000
# 3 -0.024528 -0.005351 0.064557 0.000000 0.000000 0.000000
# 4 0.000000 0.000000 0.000000 0.013452 0.000000 0.000000
# 5 0.000000 0.000000 0.000000 0.000000 0.017985 0.000000
# 6 0.000000 0.000000 0.000000 0.000000 0.000000 0.027914
#
#
# Mechanical properties :
#
#
# Convention : Reuss Voigt Hill
#
# Bulk Modulus (GPa) = 28.32298 48.28887 38.30592
# Shear Modulus (GPa) = 21.98347 43.61366 32.79857
#
# Velocity S-wave (km/s) = 3.00708 4.23553 3.67303
# Velocity P-wave (km/s) = 4.86897 6.61683 5.80902
#
# Compressibility (1/GPa) = 0.03530702
#
# Stress axis : x y z
#
# Youngs Moduli (GPa) = 58.32539 70.86046 15.49008
#
# Poissons Ratio (x) = 0.02658 0.37994
# Poissons Ratio (y) = 0.02188 0.08289
# Poissons Ratio (z) = 1.43060 0.37917
#
# Static dielectric constant tensor:
#      x y z
#    x 1.985760 0.000000 0.000000 
#    y 0.000000 1.890330 0.000000 
#    z 0.000000 0.000000 1.931230 
# 
# From -- ./inp_files/9318.got.cif
#   From: 2010.05.17/outbox.cif.g08.bks.cpg/sg39_5_cif.got.tgz:9318.got - 2010.06.03 18:22:40.
