data_PCOD9361331
_publ_section_title
;
Structure prediction by ZEFSAII (Michael W. Deem and Ramdas Pophale) SiO2 
 PCOD9361331
Probable space group: A B M 2
;
_chemical_formula_sum "Si O2"
_cell_formula_units_Z 64
_cell_length_a 20.974027
_cell_length_b 8.697485
_cell_length_c 18.818064
_cell_angle_alpha 90.000000
_cell_angle_beta 90.000000
_cell_angle_gamma 90.000000
_cell_volume 3432.815420
_symmetry_space_group_name_H-M "A B M 2"
_symmetry_group_IT_number 39
_symmetry_cell_setting 'orthorhombic'
loop_
_space_group_symop_operation_xyz
x,y,z
-x,-y,z
-x,1/2+y,z
x,1/2-y,z
x,1/2+y,1/2+z
-x,1/2-y,1/2+z
-x,y,1/2+z
x,-y,1/2+z
loop_
_atom_site_type_symbol
_atom_site_label
_atom_site_fract_x
_atom_site_fract_y
_atom_site_fract_z
Si Si1 0.431560 0.435097 0.814200
Si Si2 0.306570 0.565296 0.400609
Si Si3 0.931032 0.065623 0.904845
Si Si4 0.690990 0.935749 0.558672
Si Si5 0.568581 0.564639 0.649716
Si Si6 0.069531 0.566440 0.561367
Si Si7 0.809784 0.434188 0.809192
Si Si8 0.815262 0.565814 0.651568
O O1 0.500000 0.500000 0.836787
O O2 0.434677 0.250000 0.815331
O O3 0.372974 0.483228 0.863483
O O4 0.420413 0.482775 0.731967
O O5 0.302391 0.750000 0.397199
O O6 0.304794 0.510072 0.481525
O O7 0.248332 0.493939 0.356850
O O8 0.935042 0.250000 0.911455
O O9 0.875767 0.026747 0.849322
O O10 0.000000 0.000000 0.883699
O O11 0.915483 0.996570 0.982334
O O12 0.689744 0.750000 0.551285
O O13 0.626869 0.984153 0.600011
O O14 0.752558 0.975208 0.605954
O O15 0.500000 0.500000 0.627299
O O16 0.566070 0.750000 0.648566
O O17 0.066697 0.750000 0.559586
O O18 0.123296 0.509439 0.615104
O O19 0.000000 0.500000 0.580441
O O20 0.806390 0.250000 0.802910
O O21 0.807584 0.509104 0.731831
O O22 0.821823 0.750000 0.650255
#
# Coordination Sequence:
#
# PCOD9361331 Si02
#       8
#     8   8   8   8   8   8   8   8
#     4   9  19  36  57  82 111 146 188 232 282 339
#     4  11  23  38  58  84 114 149 191 237 284 338
#     4  10  21  38  60  86 116 150 188 231 280 335
#     4  10  22  39  58  81 113 151 188 232 286 340
#     4   9  18  35  57  80 109 145 185 229 279 335
#     4  11  22  38  61  88 118 152 191 233 280 337
#     4  11  24  40  59  85 116 150 191 236 285 343
#     4  11  23  40  61  84 114 151 191 238 289 339
#
# _framework density 18.643588999999999
#
# number of rings (size 3 to 8) (size 9 to 14) (size 15 to 20)
#    0.000    1.750    0.000    4.875    0.000   10.500 
#    0.000    6.250    0.000    0.000    0.000    0.000 
#    0.000    0.000    0.000    0.000    0.000    0.000 
#
# Total GULP energy -178857.140789 kJ/mol
# GULP energy per Si atom -5589.285650 kJ/mol
# Density = 1.860116 g / cm^3
# Si number density = 18.643589 Si / 1000 Ang^3
#
#
#
# Elastic Constant Matrix: (Units=GPa)
#
#
# Indices 1 2 3 4 5 6 
#
# 1 151.4679 57.7347 114.1902 0.0000 0.0000 0.0000
# 2 57.7347 56.8435 51.9906 0.0000 0.0000 0.0000
# 3 114.1902 51.9906 139.9050 0.0000 0.0000 0.0000
# 4 0.0000 0.0000 0.0000 2.5668 0.0000 0.0000
# 5 0.0000 0.0000 0.0000 0.0000 42.0074 0.0000
# 6 0.0000 0.0000 0.0000 0.0000 0.0000 31.8154
#
#
#
# Elastic Compliance Matrix: (Units=1/GPa)
#
#
# Indices 1 2 3 4 5 6 
#
# 1 0.019221 -0.007837 -0.012775 0.000000 0.000000 0.000000
# 2 -0.007837 0.029846 -0.004694 0.000000 0.000000 0.000000
# 3 -0.012775 -0.004694 0.019319 0.000000 0.000000 0.000000
# 4 0.000000 0.000000 0.000000 0.389590 0.000000 0.000000
# 5 0.000000 0.000000 0.000000 0.000000 0.023805 0.000000
# 6 0.000000 0.000000 0.000000 0.000000 0.000000 0.031431
#
#
# Mechanical properties :
#
#
# Convention : Reuss Voigt Hill
#
# Bulk Modulus (GPa) = 56.26858 88.44972 72.35915
# Shear Modulus (GPa) = 8.77576 23.56465 16.17021
#
# Velocity S-wave (km/s) = 2.17194 3.55907 2.94825
# Velocity P-wave (km/s) = 6.04454 8.02713 7.10532
#
# Compressibility (1/GPa) = 0.01777191
#
# Stress axis : x y z
#
# Youngs Moduli (GPa) = 52.02744 33.50537 51.76125
#
# Poissons Ratio (x) = 0.26259 0.66127
# Poissons Ratio (y) = 0.40775 0.24299
# Poissons Ratio (z) = 0.66467 0.15729
#
# Static dielectric constant tensor:
#      x y z
#    x 1.623740 0.000000 0.000000 
#    y 0.000000 1.629310 0.000000 
#    z 0.000000 0.000000 1.612330 
# 
# From -- ./inp_files/13091.got.cif
#   From: 2010.05.17/outbox.cif.g08.bks.cpg/sg39_7_cif.got.tgz:13091.got - 2010.06.03 18:22:40.
