data_PCOD9361047
_publ_section_title
;
Structure prediction by ZEFSAII (Michael W. Deem and Ramdas Pophale) SiO2 
 PCOD9361047
Probable space group: A B M 2
;
_chemical_formula_sum "Si O2"
_cell_formula_units_Z 60
_cell_length_a 17.761553
_cell_length_b 19.720126
_cell_length_c 8.573507
_cell_angle_alpha 90.000000
_cell_angle_beta 90.000000
_cell_angle_gamma 90.000000
_cell_volume 3002.957103
_symmetry_space_group_name_H-M "A B M 2"
_symmetry_group_IT_number 39
_symmetry_cell_setting 'orthorhombic'
loop_
_space_group_symop_operation_xyz
x,y,z
-x,-y,z
-x,1/2+y,z
x,1/2-y,z
x,1/2+y,1/2+z
-x,1/2-y,1/2+z
-x,y,1/2+z
x,-y,1/2+z
loop_
_atom_site_type_symbol
_atom_site_label
_atom_site_fract_x
_atom_site_fract_y
_atom_site_fract_z
Si Si1 0.500000 0.000000 0.821020
Si Si2 0.261295 0.054265 0.861311
Si Si3 0.034957 0.830721 0.727190
Si Si4 0.181632 0.329124 0.038920
Si Si5 0.672781 0.172683 0.764712
Si Si6 0.253687 0.418014 0.509349
Si Si7 0.410545 0.426199 0.064422
Si Si8 0.107096 0.670107 0.063773
O O1 0.566026 0.024785 0.706599
O O2 0.474678 0.061346 0.934458
O O3 0.279905 0.058351 0.679635
O O4 0.210191 0.118283 0.910053
O O5 0.335051 0.056524 0.970120
O O6 0.226437 0.981882 0.906674
O O7 0.029519 0.750000 0.697097
O O8 0.103225 0.852912 0.615166
O O9 0.951383 0.856869 0.692869
O O10 0.060910 0.838463 0.903325
O O11 0.174853 0.250000 0.986808
O O12 0.247175 0.329629 0.171552
O O13 0.659341 0.250000 0.811672
O O14 0.608952 0.144829 0.647346
O O15 0.684151 0.122509 0.910173
O O16 0.184034 0.368949 0.542725
O O17 0.123272 0.750000 0.086019
#
# Coordination Sequence:
#
# PCOD9361047 Si02
#       8
#     4   8   8   8   8   8   8   8
#     4  10  20  38  68  96 124 158 196 238 282 362
#     4  11  24  38  60  89 122 161 201 252 306 355
#     4   9  18  34  56  82 112 148 198 253 307 368
#     4   9  18  36  61  83 112 152 200 253 307 362
#     4  10  20  38  62  88 120 158 198 249 303 350
#     4  12  23  37  58  84 121 160 208 258 307 363
#     4  10  21  39  64  95 122 155 200 237 292 354
#     4  10  21  36  59  85 112 155 207 259 315 372
#
# _framework density 19.980305000000001
#
# number of rings (size 3 to 8) (size 9 to 14) (size 15 to 20)
#    0.000    1.867    1.333    3.600    1.867    2.133 
#    0.000    1.333    0.000    0.000    0.000    0.000 
#    0.000    0.000    0.000    0.000    0.000    0.000 
#
# Total GULP energy -167374.564911 kJ/mol
# GULP energy per Si atom -5579.152164 kJ/mol
# Density = 1.993483 g / cm^3
# Si number density = 19.980305 Si / 1000 Ang^3
#
#
#
# Elastic Constant Matrix: (Units=GPa)
#
#
# Indices 1 2 3 4 5 6 
#
# 1 68.4549 21.0380 19.8031 0.0000 0.0000 0.0000
# 2 21.0380 90.0836 46.8753 0.0000 0.0000 0.0000
# 3 19.8031 46.8753 103.7510 0.0000 0.0000 0.0000
# 4 0.0000 0.0000 0.0000 25.6461 0.0000 0.0000
# 5 0.0000 0.0000 0.0000 0.0000 31.3361 0.0000
# 6 0.0000 0.0000 0.0000 0.0000 0.0000 24.6002
#
#
#
# Elastic Compliance Matrix: (Units=1/GPa)
#
#
# Indices 1 2 3 4 5 6 
#
# 1 0.015986 -0.002805 -0.001784 0.000000 0.000000 0.000000
# 2 -0.002805 0.015005 -0.006244 0.000000 0.000000 0.000000
# 3 -0.001784 -0.006244 0.012800 0.000000 0.000000 0.000000
# 4 0.000000 0.000000 0.000000 0.038992 0.000000 0.000000
# 5 0.000000 0.000000 0.000000 0.000000 0.031912 0.000000
# 6 0.000000 0.000000 0.000000 0.000000 0.000000 0.040650
#
#
# Mechanical properties :
#
#
# Convention : Reuss Voigt Hill
#
# Bulk Modulus (GPa) = 45.19718 48.63583 46.91650
# Shear Modulus (GPa) = 27.11691 27.95468 27.53579
#
# Velocity S-wave (km/s) = 3.68799 3.74453 3.71637
# Velocity P-wave (km/s) = 6.38788 6.56430 6.47669
#
# Compressibility (1/GPa) = 0.02212527
#
# Stress axis : x y z
#
# Youngs Moduli (GPa) = 62.55345 66.64466 78.12504
#
# Poissons Ratio (x) = 0.18695 0.13937
# Poissons Ratio (y) = 0.17547 0.48780
# Poissons Ratio (z) = 0.11159 0.41612
#
# Static dielectric constant tensor:
#      x y z
#    x 1.725730 0.000000 0.000000 
#    y 0.000000 1.705910 0.000000 
#    z 0.000000 0.000000 1.741280 
# 
# From -- ./inp_files/3810.got.cif
#   From: 2010.05.17/outbox.cif.g08.bks.cpg/sg39_2_cif.got.tgz:3810.got - 2010.06.03 18:22:40.
