data_PCOD9361163
_publ_section_title
;
Structure prediction by ZEFSAII (Michael W. Deem and Ramdas Pophale) SiO2 
 PCOD9361163
Probable space group: A B M 2
;
_chemical_formula_sum "Si O2"
_cell_formula_units_Z 56
_cell_length_a 5.527873
_cell_length_b 31.429072
_cell_length_c 13.805393
_cell_angle_alpha 90.000000
_cell_angle_beta 90.000000
_cell_angle_gamma 90.000000
_cell_volume 2398.492633
_symmetry_space_group_name_H-M "A B M 2"
_symmetry_group_IT_number 39
_symmetry_cell_setting 'orthorhombic'
loop_
_space_group_symop_operation_xyz
x,y,z
-x,-y,z
-x,1/2+y,z
x,1/2-y,z
x,1/2+y,1/2+z
-x,1/2-y,1/2+z
-x,y,1/2+z
x,-y,1/2+z
loop_
_atom_site_type_symbol
_atom_site_label
_atom_site_fract_x
_atom_site_fract_y
_atom_site_fract_z
Si Si1 0.139537 0.455821 0.815060
Si Si2 0.890381 0.109524 0.928355
Si Si3 0.525126 0.451051 0.506094
Si Si4 0.385584 0.904375 0.172004
Si Si5 0.050986 0.250000 0.113989
Si Si6 0.554097 0.750000 0.732163
Si Si7 0.967989 0.843958 0.093995
Si Si8 0.632677 0.661192 0.287639
O O1 0.313251 0.453745 0.909334
O O2 0.256276 0.446538 0.711757
O O3 0.000000 0.500000 0.817019
O O4 0.974245 0.414750 0.832687
O O5 0.724783 0.073116 0.977882
O O6 0.755013 0.151120 0.889256
O O7 0.095027 0.128020 0.999383
O O8 0.500000 0.500000 0.535218
O O9 0.589784 0.423043 0.600890
O O10 0.217715 0.867901 0.123409
O O11 0.470555 0.880009 0.267508
O O12 0.828338 0.250000 0.192085
O O13 0.012164 0.205083 0.061804
O O14 0.328028 0.250000 0.154901
O O15 0.507140 0.794289 0.787280
O O16 0.806447 0.840481 0.191586
#
# Coordination Sequence:
#
# PCOD9361163 Si02
#       8
#     8   8   8   8   4   4   8   8
#     4  12  24  43  67  93 133 174 225 281 339 409
#     4  11  23  40  64  93 127 173 220 270 338 402
#     4  11  24  42  61  92 129 167 218 283 331 400
#     4  11  23  40  66  93 125 173 219 271 340 408
#     4  10  20  41  66  97 137 177 224 283 342 409
#     4  10  22  37  70  99 133 181 222 283 346 411
#     4  10  22  40  64  93 130 172 222 272 337 405
#     4  11  21  41  66  93 132 170 218 276 335 411
#
# _framework density 23.347998
#
# number of rings (size 3 to 8) (size 9 to 14) (size 15 to 20)
#    0.000    1.143    5.714    0.857    0.000    2.286 
#    5.143    0.000    0.000    1.714    0.000    0.000 
#    0.000    0.000    0.000    0.000    0.000    0.000 
#
# Total GULP energy -155980.535071 kJ/mol
# GULP energy per Si atom -5570.733395 kJ/mol
# Density = 2.329486 g / cm^3
# Si number density = 23.347998 Si / 1000 Ang^3
#
#
#
# Elastic Constant Matrix: (Units=GPa)
#
#
# Indices 1 2 3 4 5 6 
#
# 1 23.7438 16.5998 -4.9869 0.0000 0.0000 0.0000
# 2 16.5998 145.1855 40.6844 0.0000 0.0000 0.0000
# 3 -4.9869 40.6844 51.0094 0.0000 0.0000 0.0000
# 4 0.0000 0.0000 0.0000 19.8441 0.0000 0.0000
# 5 0.0000 0.0000 0.0000 0.0000 27.4779 0.0000
# 6 0.0000 0.0000 0.0000 0.0000 0.0000 25.9691
#
#
#
# Elastic Compliance Matrix: (Units=1/GPa)
#
#
# Indices 1 2 3 4 5 6 
#
# 1 0.051281 -0.009360 0.012479 0.000000 0.000000 0.000000
# 2 -0.009360 0.010579 -0.009353 0.000000 0.000000 0.000000
# 3 0.012479 -0.009353 0.028284 0.000000 0.000000 0.000000
# 4 0.000000 0.000000 0.000000 0.050393 0.000000 0.000000
# 5 0.000000 0.000000 0.000000 0.000000 0.036393 0.000000
# 6 0.000000 0.000000 0.000000 0.000000 0.000000 0.038507
#
#
# Mechanical properties :
#
#
# Convention : Reuss Voigt Hill
#
# Bulk Modulus (GPa) = 12.87397 36.05925 24.46661
# Shear Modulus (GPa) = 19.70087 25.83432 22.76760
#
# Velocity S-wave (km/s) = 2.90796 3.33000 3.12611
# Velocity P-wave (km/s) = 4.09889 5.50118 4.85098
#
# Compressibility (1/GPa) = 0.07767614
#
# Stress axis : x y z
#
# Youngs Moduli (GPa) = 19.50039 94.52921 35.35605
#
# Poissons Ratio (x) = 0.88481 -0.44121
# Poissons Ratio (y) = 0.18253 0.33067
# Poissons Ratio (z) = -0.24335 0.88409
#
# Static dielectric constant tensor:
#      x y z
#    x 2.074020 0.000000 0.000000 
#    y 0.000000 1.845090 0.000000 
#    z 0.000000 0.000000 1.957280 
# 
# From -- ./inp_files/7690.got.cif
#   From: 2010.05.17/outbox.cif.g08.bks.cpg/sg39_4_cif.got.tgz:7690.got - 2010.06.03 18:22:40.
