data_PCOD9361992
_publ_section_title
;
Structure prediction by ZEFSAII (Michael W. Deem and Ramdas Pophale) SiO2 
 PCOD9361992
Probable space group: A B M 2
;
_chemical_formula_sum "Si O2"
_cell_formula_units_Z 64
_cell_length_a 17.708503
_cell_length_b 20.074122
_cell_length_c 9.840344
_cell_angle_alpha 90.000000
_cell_angle_beta 90.000000
_cell_angle_gamma 90.000000
_cell_volume 3498.071559
_symmetry_space_group_name_H-M "A B M 2"
_symmetry_group_IT_number 39
_symmetry_cell_setting 'orthorhombic'
loop_
_space_group_symop_operation_xyz
x,y,z
-x,-y,z
-x,1/2+y,z
x,1/2-y,z
x,1/2+y,1/2+z
-x,1/2-y,1/2+z
-x,y,1/2+z
x,-y,1/2+z
loop_
_atom_site_type_symbol
_atom_site_label
_atom_site_fract_x
_atom_site_fract_y
_atom_site_fract_z
Si Si1 0.419330 0.033378 0.183690
Si Si2 0.522225 0.825440 0.234058
Si Si3 0.165478 0.036448 0.553012
Si Si4 0.026673 0.824945 0.831514
Si Si5 0.919411 0.465859 0.782655
Si Si6 0.902083 0.174790 0.118295
Si Si7 0.667886 0.962227 0.451125
Si Si8 0.596740 0.824960 0.514552
O O1 0.430750 0.112782 0.176264
O O2 0.356473 0.021355 0.298472
O O3 0.500000 0.000000 0.221283
O O4 0.390750 0.001385 0.045830
O O5 0.547509 0.750000 0.198366
O O6 0.531382 0.830575 0.397362
O O7 0.441003 0.833061 0.162447
O O8 0.104197 0.019792 0.437054
O O9 0.154640 0.114467 0.591072
O O10 0.247304 0.022061 0.492901
O O11 0.143595 0.994301 0.683808
O O12 0.052062 0.750000 0.794574
O O13 0.073860 0.886181 0.772152
O O14 0.944732 0.832986 0.762270
O O15 0.036035 0.829845 0.994898
O O16 0.000000 0.500000 0.752019
O O17 0.870514 0.250000 0.110972
O O18 0.653325 0.883917 0.479990
O O19 0.627731 0.750000 0.503712
#
# Coordination Sequence:
#
# PCOD9361992 Si02
#       8
#     8   8   8   8   8   8   8   8
#     4  11  21  36  58  80 107 142 186 221 261 321
#     4   9  18  32  53  81 105 133 178 227 262 303
#     4  11  23  36  53  81 114 144 175 222 274 317
#     4   9  18  32  53  81 105 133 178 227 262 303
#     4  11  21  36  58  80 107 142 186 221 261 321
#     4   9  18  33  53  78 106 138 177 220 265 315
#     4  11  23  36  53  81 114 144 175 222 274 317
#     4   9  18  33  53  78 106 138 177 220 265 315
#
# _framework density 18.295795999999999
#
# number of rings (size 3 to 8) (size 9 to 14) (size 15 to 20)
#    0.000    2.000    2.500    1.500    3.500    0.500 
#    0.000    0.000    0.000    2.250    0.000    0.000 
#    0.000    0.000    0.000    0.000    0.000    0.000 
#
# Total GULP energy -178277.319649 kJ/mol
# GULP energy per Si atom -5571.166239 kJ/mol
# Density = 1.825415 g / cm^3
# Si number density = 18.295796 Si / 1000 Ang^3
#
#
#
# Elastic Constant Matrix: (Units=GPa)
#
#
# Indices 1 2 3 4 5 6 
#
# 1 31.8968 -0.1345 -7.2541 0.0000 0.0000 0.0000
# 2 -0.1345 61.4135 9.4069 0.0000 0.0000 0.0000
# 3 -7.2541 9.4069 29.8152 0.0000 0.0000 0.0000
# 4 0.0000 0.0000 0.0000 18.0769 0.0000 0.0000
# 5 0.0000 0.0000 0.0000 0.0000 18.9273 0.0000
# 6 0.0000 0.0000 0.0000 0.0000 0.0000 9.8643
#
#
#
# Elastic Compliance Matrix: (Units=1/GPa)
#
#
# Indices 1 2 3 4 5 6 
#
# 1 0.033275 -0.001226 0.008483 0.000000 0.000000 0.000000
# 2 -0.001226 0.017155 -0.005711 0.000000 0.000000 0.000000
# 3 0.008483 -0.005711 0.037406 0.000000 0.000000 0.000000
# 4 0.000000 0.000000 0.000000 0.055319 0.000000 0.000000
# 5 0.000000 0.000000 0.000000 0.000000 0.052834 0.000000
# 6 0.000000 0.000000 0.000000 0.000000 0.000000 0.101375
#
#
# Mechanical properties :
#
#
# Convention : Reuss Voigt Hill
#
# Bulk Modulus (GPa) = 10.99786 14.12913 12.56350
# Shear Modulus (GPa) = 15.40440 17.44750 16.42595
#
# Velocity S-wave (km/s) = 2.90481 3.09145 2.99958
# Velocity P-wave (km/s) = 4.15629 4.52572 4.34493
#
# Compressibility (1/GPa) = 0.09092675
#
# Stress axis : x y z
#
# Youngs Moduli (GPa) = 30.05249 58.29150 26.73390
#
# Poissons Ratio (x) = 0.07149 -0.22678
# Poissons Ratio (y) = 0.03686 0.15268
# Poissons Ratio (z) = -0.25493 0.33290
#
# Static dielectric constant tensor:
#      x y z
#    x 1.606000 0.000000 0.000000 
#    y 0.000000 1.654150 0.000000 
#    z 0.000000 0.000000 1.633890 
# 
# From -- ./inp_files/3872.got.cif
#   From: 2010.05.17/outbox.cif.g08.bks.cpg/sg39_2_cif.got.tgz:3872.got - 2010.06.03 18:22:40.
