data_PCOD9361278
_publ_section_title
;
Structure prediction by ZEFSAII (Michael W. Deem and Ramdas Pophale) SiO2 
 PCOD9361278
Probable space group: A B M 2
;
_chemical_formula_sum "Si O2"
_cell_formula_units_Z 64
_cell_length_a 15.856447
_cell_length_b 14.994478
_cell_length_c 12.276838
_cell_angle_alpha 90.000000
_cell_angle_beta 90.000000
_cell_angle_gamma 90.000000
_cell_volume 2918.930515
_symmetry_space_group_name_H-M "A B M 2"
_symmetry_group_IT_number 39
_symmetry_cell_setting 'orthorhombic'
loop_
_space_group_symop_operation_xyz
x,y,z
-x,-y,z
-x,1/2+y,z
x,1/2-y,z
x,1/2+y,1/2+z
-x,1/2-y,1/2+z
-x,y,1/2+z
x,-y,1/2+z
loop_
_atom_site_type_symbol
_atom_site_label
_atom_site_fract_x
_atom_site_fract_y
_atom_site_fract_z
Si Si1 0.389055 0.140625 0.522790
Si Si2 0.149242 0.853322 0.766792
Si Si3 0.905112 0.609303 0.509191
Si Si4 0.241613 0.357007 0.682341
Si Si5 0.910906 0.904020 0.051804
Si Si6 0.420026 0.640725 0.564625
Si Si7 0.661852 0.858680 0.283198
Si Si8 0.258189 0.644588 0.428531
O O1 0.387668 0.250000 0.525124
O O2 0.323228 0.109873 0.614834
O O3 0.485760 0.112741 0.535488
O O4 0.358111 0.111182 0.404256
O O5 0.142278 0.750000 0.732558
O O6 0.092500 0.907503 0.683048
O O7 0.244406 0.885114 0.750373
O O8 0.130019 0.857949 0.894179
O O9 0.841619 0.628472 0.608788
O O10 0.910808 0.502947 0.504672
O O11 0.000930 0.642502 0.523011
O O12 0.249708 0.250000 0.689237
O O13 0.240820 0.391878 0.806584
O O14 0.824883 0.863991 0.003392
O O15 0.418823 0.750000 0.561384
O O16 0.400843 0.613550 0.688479
O O17 0.342959 0.609304 0.487581
O O18 0.661690 0.750000 0.286283
O O19 0.273378 0.750000 0.416335
#
# Coordination Sequence:
#
# PCOD9361278 Si02
#       8
#     8   8   8   8   8   8   8   8
#     4   9  17  29  50  82 118 154 192 244 305 357
#     4  11  22  41  67  91 120 161 211 258 299 359
#     4  11  26  42  62  87 122 159 204 251 308 370
#     4  10  21  37  57  86 122 155 196 250 304 359
#     4  11  26  42  62  87 122 159 204 251 308 370
#     4   9  17  29  50  82 118 154 192 244 305 357
#     4   9  16  30  51  79 115 148 193 248 292 346
#     4  10  21  37  57  86 122 155 196 250 304 359
#
# _framework density 21.925837999999999
#
# number of rings (size 3 to 8) (size 9 to 14) (size 15 to 20)
#    0.000    2.000    2.500    0.750    5.250    3.000 
#    0.000    0.000    0.000    0.750    0.000    3.500 
#    0.000    0.000    0.000    0.000    0.000    0.000 
#
# Total GULP energy -178692.316620 kJ/mol
# GULP energy per Si atom -5584.134894 kJ/mol
# Density = 2.187593 g / cm^3
# Si number density = 21.925838 Si / 1000 Ang^3
#
#
#
# Elastic Constant Matrix: (Units=GPa)
#
#
# Indices 1 2 3 4 5 6 
#
# 1 137.7442 -6.5029 48.1800 0.0000 0.0000 0.0000
# 2 -6.5029 39.3768 -5.4265 0.0000 0.0000 0.0000
# 3 48.1800 -5.4265 132.1507 0.0000 0.0000 0.0000
# 4 0.0000 0.0000 0.0000 66.3291 0.0000 0.0000
# 5 0.0000 0.0000 0.0000 0.0000 25.6926 0.0000
# 6 0.0000 0.0000 0.0000 0.0000 0.0000 25.6661
#
#
#
# Elastic Compliance Matrix: (Units=1/GPa)
#
#
# Indices 1 2 3 4 5 6 
#
# 1 0.008357 0.000966 -0.003007 0.000000 0.000000 0.000000
# 2 0.000966 0.025652 0.000701 0.000000 0.000000 0.000000
# 3 -0.003007 0.000701 0.008692 0.000000 0.000000 0.000000
# 4 0.000000 0.000000 0.000000 0.015076 0.000000 0.000000
# 5 0.000000 0.000000 0.000000 0.000000 0.038922 0.000000
# 6 0.000000 0.000000 0.000000 0.000000 0.000000 0.038962
#
#
# Mechanical properties :
#
#
# Convention : Reuss Voigt Hill
#
# Bulk Modulus (GPa) = 24.98702 42.41924 33.70313
# Shear Modulus (GPa) = 32.96364 41.73897 37.35131
#
# Velocity S-wave (km/s) = 3.88160 4.36781 4.13186
# Velocity P-wave (km/s) = 5.61337 6.69520 6.17801
#
# Compressibility (1/GPa) = 0.04002078
#
# Stress axis : x y z
#
# Youngs Moduli (GPa) = 119.65570 38.98366 115.04410
#
# Poissons Ratio (x) = -0.03765 0.34597
# Poissons Ratio (y) = -0.11556 -0.08067
# Poissons Ratio (z) = 0.35984 -0.02734
#
# Static dielectric constant tensor:
#      x y z
#    x 1.794670 0.000000 0.000000 
#    y 0.000000 1.839170 0.000000 
#    z 0.000000 0.000000 1.766430 
# 
# From -- ./inp_files/6649.got.cif
#   From: 2010.05.17/outbox.cif.g08.bks.cpg/sg39_4_cif.got.tgz:6649.got - 2010.06.03 18:22:40.
