data_PCOD9361453
_publ_section_title
;
Structure prediction by ZEFSAII (Michael W. Deem and Ramdas Pophale) SiO2 
 PCOD9361453
Probable space group: A B M 2
;
_chemical_formula_sum "Si O2"
_cell_formula_units_Z 48
_cell_length_a 14.981166
_cell_length_b 27.321819
_cell_length_c 5.250728
_cell_angle_alpha 90.000000
_cell_angle_beta 90.000000
_cell_angle_gamma 90.000000
_cell_volume 2149.189685
_symmetry_space_group_name_H-M "A B M 2"
_symmetry_group_IT_number 39
_symmetry_cell_setting 'orthorhombic'
loop_
_space_group_symop_operation_xyz
x,y,z
-x,-y,z
-x,1/2+y,z
x,1/2-y,z
x,1/2+y,1/2+z
-x,1/2-y,1/2+z
-x,y,1/2+z
x,-y,1/2+z
loop_
_atom_site_type_symbol
_atom_site_label
_atom_site_fract_x
_atom_site_fract_y
_atom_site_fract_z
Si Si1 0.463751 0.944819 0.558460
Si Si2 0.185976 0.885990 0.877200
Si Si3 0.299365 0.606113 0.368833
Si Si4 0.438690 0.694069 0.313291
Si Si5 0.100722 0.019272 0.230752
Si Si6 0.946491 0.808280 0.557913
O O1 0.525210 0.921783 0.336966
O O2 0.364709 0.938010 0.454920
O O3 0.500000 0.000000 0.594799
O O4 0.236672 0.882120 0.609811
O O5 0.108179 0.925852 0.829027
O O6 0.141805 0.836533 0.976949
O O7 0.248799 0.904315 0.106052
O O8 0.362400 0.653284 0.323625
O O9 0.402473 0.750000 0.314587
O O10 0.501239 0.688938 0.561260
O O11 0.143768 0.986876 0.454099
O O12 0.000000 0.000000 0.192482
O O13 0.933847 0.750000 0.547357
O O14 0.980248 0.821153 0.840707
#
# Coordination Sequence:
#
# PCOD9361453 Si02
#       6
#     8   8   8   8   8   8
#     4  10  21  41  63  82 114 167 211 250 305 374
#     4  12  26  41  66  98 133 164 208 277 328 373
#     4  12  24  41  62  99 130 162 209 268 332 372
#     4  10  21  39  66  95 128 174 217 253 303 387
#     4  10  23  43  65  89 119 171 216 258 313 387
#     4  10  23  43  70  97 128 174 219 252 307 393
#
# _framework density 22.333998000000001
#
# number of rings (size 3 to 8) (size 9 to 14) (size 15 to 20)
#    0.000    1.333    0.000    5.000    4.667    1.333 
#   18.000    0.000    0.000    0.000    0.000    0.000 
#    0.000    0.000    0.000    0.000    0.000    0.000 
#
# Total GULP energy -134145.385341 kJ/mol
# GULP energy per Si atom -5589.391056 kJ/mol
# Density = 2.228316 g / cm^3
# Si number density = 22.333998 Si / 1000 Ang^3
#
#
#
# Elastic Constant Matrix: (Units=GPa)
#
#
# Indices 1 2 3 4 5 6 
#
# 1 61.3787 24.6625 -2.4484 0.0000 0.0000 0.0000
# 2 24.6625 75.3848 -2.7674 0.0000 0.0000 0.0000
# 3 -2.4484 -2.7674 123.7646 0.0000 0.0000 0.0000
# 4 0.0000 0.0000 0.0000 26.6623 0.0000 0.0000
# 5 0.0000 0.0000 0.0000 0.0000 56.3323 0.0000
# 6 0.0000 0.0000 0.0000 0.0000 0.0000 28.5717
#
#
#
# Elastic Compliance Matrix: (Units=1/GPa)
#
#
# Indices 1 2 3 4 5 6 
#
# 1 0.018765 -0.006130 0.000234 0.000000 0.000000 0.000000
# 2 -0.006130 0.015279 0.000220 0.000000 0.000000 0.000000
# 3 0.000234 0.000220 0.008089 0.000000 0.000000 0.000000
# 4 0.000000 0.000000 0.000000 0.037506 0.000000 0.000000
# 5 0.000000 0.000000 0.000000 0.000000 0.017752 0.000000
# 6 0.000000 0.000000 0.000000 0.000000 0.000000 0.035000
#
#
# Mechanical properties :
#
#
# Convention : Reuss Voigt Hill
#
# Bulk Modulus (GPa) = 32.48711 33.26905 32.87808
# Shear Modulus (GPa) = 32.46687 38.38537 35.42612
#
# Velocity S-wave (km/s) = 3.81687 4.15021 3.98703
# Velocity P-wave (km/s) = 5.83115 6.15583 5.99569
#
# Compressibility (1/GPa) = 0.03078144
#
# Stress axis : x y z
#
# Youngs Moduli (GPa) = 53.29093 65.44943 123.61837
#
# Poissons Ratio (x) = 0.40123 -0.02894
# Poissons Ratio (y) = 0.32670 -0.02724
# Poissons Ratio (z) = -0.01248 -0.01442
#
# Static dielectric constant tensor:
#      x y z
#    x 1.701910 0.000000 0.000000 
#    y 0.000000 1.915650 0.000000 
#    z 0.000000 0.000000 1.871930 
# 
# From -- ./inp_files/597.got.cif
#   From: 2010.05.17/outbox.cif.g08.bks.cpg/sg39_1_cif.got.tgz:597.got - 2010.06.03 18:22:40.
