data_PCOD9361709
_publ_section_title
;
Structure prediction by ZEFSAII (Michael W. Deem and Ramdas Pophale) SiO2 
 PCOD9361709
Probable space group: A B M 2
;
_chemical_formula_sum "Si O2"
_cell_formula_units_Z 64
_cell_length_a 12.152459
_cell_length_b 16.449049
_cell_length_c 14.507789
_cell_angle_alpha 90.000000
_cell_angle_beta 90.000000
_cell_angle_gamma 90.000000
_cell_volume 2900.054700
_symmetry_space_group_name_H-M "A B M 2"
_symmetry_group_IT_number 39
_symmetry_cell_setting 'orthorhombic'
loop_
_space_group_symop_operation_xyz
x,y,z
-x,-y,z
-x,1/2+y,z
x,1/2-y,z
x,1/2+y,1/2+z
-x,1/2-y,1/2+z
-x,y,1/2+z
x,-y,1/2+z
loop_
_atom_site_type_symbol
_atom_site_label
_atom_site_fract_x
_atom_site_fract_y
_atom_site_fract_z
Si Si1 0.734286 0.482290 0.008410
Si Si2 0.401731 0.435073 0.660355
Si Si3 0.923900 0.342636 0.424158
Si Si4 0.929798 0.342761 0.749575
Si Si5 0.322346 0.843728 0.464206
Si Si6 0.491791 0.157419 0.311644
Si Si7 0.724494 0.047360 0.793761
Si Si8 0.039347 0.919238 0.091046
O O1 0.637882 0.429026 0.055470
O O2 0.841431 0.440593 0.053172
O O3 0.698860 0.577065 0.029277
O O4 0.749767 0.479097 0.898590
O O5 0.500000 0.500000 0.661816
O O6 0.443523 0.357266 0.715687
O O7 0.305953 0.474857 0.723996
O O8 0.954822 0.250000 0.451492
O O9 0.793621 0.341542 0.409716
O O10 0.993468 0.364398 0.335531
O O11 0.959284 0.402766 0.504866
O O12 0.891303 0.250000 0.758970
O O13 0.823406 0.400035 0.751603
O O14 0.009870 0.349186 0.661791
O O15 0.335194 0.750000 0.502216
O O16 0.423608 0.861080 0.395451
O O17 0.457128 0.250000 0.321280
O O18 0.386207 0.100208 0.307443
O O19 0.000000 0.000000 0.142876
#
# Coordination Sequence:
#
# PCOD9361709 Si02
#       8
#     8   8   8   8   8   8   8   8
#     4  12  24  41  70 103 136 179 236 295 344 414
#     4  10  24  41  65  99 135 185 230 284 352 412
#     4  10  22  42  62  90 131 174 215 268 339 407
#     4  11  25  44  67  96 136 180 221 281 351 412
#     4  10  22  40  67  96 132 178 226 279 345 413
#     4  10  22  44  69  99 136 182 232 284 348 422
#     4  11  23  44  70  98 139 181 233 287 348 421
#     4  12  24  40  63  99 131 174 231 280 338 413
#
# _framework density 22.068548
#
# number of rings (size 3 to 8) (size 9 to 14) (size 15 to 20)
#    0.000    1.250    3.750    1.500    3.500    1.500 
#    0.000    4.375    0.000    0.000    0.000    0.000 
#    0.000    0.000    0.000    0.000    0.000    0.000 
#
# Total GULP energy -178560.482906 kJ/mol
# GULP energy per Si atom -5580.015091 kJ/mol
# Density = 2.201832 g / cm^3
# Si number density = 22.068548 Si / 1000 Ang^3
#
#
#
# Elastic Constant Matrix: (Units=GPa)
#
#
# Indices 1 2 3 4 5 6 
#
# 1 76.4049 30.3765 12.9553 0.0000 0.0000 0.0000
# 2 30.3765 48.1654 18.3314 0.0000 0.0000 0.0000
# 3 12.9553 18.3314 67.6916 0.0000 0.0000 0.0000
# 4 0.0000 0.0000 0.0000 30.2237 0.0000 0.0000
# 5 0.0000 0.0000 0.0000 0.0000 33.4058 0.0000
# 6 0.0000 0.0000 0.0000 0.0000 0.0000 31.3291
#
#
#
# Elastic Compliance Matrix: (Units=1/GPa)
#
#
# Indices 1 2 3 4 5 6 
#
# 1 0.017478 -0.010870 -0.000401 0.000000 0.000000 0.000000
# 2 -0.010870 0.029908 -0.006019 0.000000 0.000000 0.000000
# 3 -0.000401 -0.006019 0.016480 0.000000 0.000000 0.000000
# 4 0.000000 0.000000 0.000000 0.033087 0.000000 0.000000
# 5 0.000000 0.000000 0.000000 0.000000 0.029935 0.000000
# 6 0.000000 0.000000 0.000000 0.000000 0.000000 0.031919
#
#
# Mechanical properties :
#
#
# Convention : Reuss Voigt Hill
#
# Bulk Modulus (GPa) = 34.14731 35.06538 34.60635
# Shear Modulus (GPa) = 24.61257 27.69830 26.15543
#
# Velocity S-wave (km/s) = 3.34320 3.54659 3.44639
# Velocity P-wave (km/s) = 5.51448 5.71794 5.61713
#
# Compressibility (1/GPa) = 0.02928488
#
# Stress axis : x y z
#
# Youngs Moduli (GPa) = 57.21540 33.43597 60.68084
#
# Poissons Ratio (x) = 0.36345 0.02436
# Poissons Ratio (y) = 0.62193 0.36523
# Poissons Ratio (z) = 0.02296 0.20125
#
# Static dielectric constant tensor:
#      x y z
#    x 1.807350 0.000000 0.000000 
#    y 0.000000 1.810810 0.000000 
#    z 0.000000 0.000000 1.840610 
# 
# From -- ./inp_files/9431.got.cif
#   From: 2010.05.17/outbox.cif.g08.bks.cpg/sg39_5_cif.got.tgz:9431.got - 2010.06.03 18:22:40.
