data_PCOD9361597
_publ_section_title
;
Structure prediction by ZEFSAII (Michael W. Deem and Ramdas Pophale) SiO2 
 PCOD9361597
Probable space group: A B M 2
;
_chemical_formula_sum "Si O2"
_cell_formula_units_Z 52
_cell_length_a 14.385674
_cell_length_b 18.296425
_cell_length_c 9.269134
_cell_angle_alpha 90.000000
_cell_angle_beta 90.000000
_cell_angle_gamma 90.000000
_cell_volume 2439.695441
_symmetry_space_group_name_H-M "A B M 2"
_symmetry_group_IT_number 39
_symmetry_cell_setting 'orthorhombic'
loop_
_space_group_symop_operation_xyz
x,y,z
-x,-y,z
-x,1/2+y,z
x,1/2-y,z
x,1/2+y,1/2+z
-x,1/2-y,1/2+z
-x,y,1/2+z
x,-y,1/2+z
loop_
_atom_site_type_symbol
_atom_site_label
_atom_site_fract_x
_atom_site_fract_y
_atom_site_fract_z
Si Si1 0.733798 0.035687 0.580720
Si Si2 0.815035 0.669019 0.228801
Si Si3 0.601299 0.831030 0.305971
Si Si4 0.440775 0.163448 0.614118
Si Si5 0.110736 0.433533 0.452027
Si Si6 0.394960 0.966371 0.312720
Si Si7 0.000000 0.000000 0.695827
O O1 0.801957 0.105252 0.608645
O O2 0.652188 0.045518 0.465700
O O3 0.798417 0.969592 0.523708
O O4 0.677819 0.017474 0.726462
O O5 0.843706 0.750000 0.178695
O O6 0.709403 0.673629 0.284289
O O7 0.871928 0.642323 0.369513
O O8 0.562563 0.750000 0.338417
O O9 0.578109 0.869541 0.456143
O O10 0.548065 0.847159 0.158968
O O11 0.414618 0.250000 0.624712
O O12 0.393059 0.111342 0.730385
O O13 0.080218 0.481419 0.311625
O O14 0.035324 0.438482 0.581839
O O15 0.500000 0.000000 0.309173
#
# Coordination Sequence:
#
# PCOD9361597 Si02
#       7
#     8   8   8   8   8   8   4
#     4  12  24  43  63  94 131 176 226 271 333 398
#     4  11  23  41  67  98 133 171 217 276 338 394
#     4   9  20  36  55  80 121 169 217 268 331 389
#     4  10  22  37  55  81 117 168 226 286 340 381
#     4  11  21  43  70 101 128 172 211 268 325 416
#     4  12  26  37  60  89 130 177 235 285 324 389
#     4  10  22  40  76 102 128 164 222 254 336 418
#
# _framework density 21.314136000000001
#
# number of rings (size 3 to 8) (size 9 to 14) (size 15 to 20)
#    0.000    1.231    3.077    2.308    6.462    0.615 
#    0.000    0.769    0.000    2.769    0.000    0.000 
#    0.000    0.000    0.000    0.000    0.000    0.000 
#
# Total GULP energy -144826.337614 kJ/mol
# GULP energy per Si atom -5570.243754 kJ/mol
# Density = 2.126562 g / cm^3
# Si number density = 21.314136 Si / 1000 Ang^3
#
#
#
# Elastic Constant Matrix: (Units=GPa)
#
#
# Indices 1 2 3 4 5 6 
#
# 1 48.4289 -2.2389 8.7121 0.0000 0.0000 0.0000
# 2 -2.2389 100.9432 4.5563 0.0000 0.0000 0.0000
# 3 8.7121 4.5563 90.3628 0.0000 0.0000 0.0000
# 4 0.0000 0.0000 0.0000 26.8352 0.0000 0.0000
# 5 0.0000 0.0000 0.0000 0.0000 41.3996 0.0000
# 6 0.0000 0.0000 0.0000 0.0000 0.0000 18.5580
#
#
#
# Elastic Compliance Matrix: (Units=1/GPa)
#
#
# Indices 1 2 3 4 5 6 
#
# 1 0.021045 0.000560 -0.002057 0.000000 0.000000 0.000000
# 2 0.000560 0.009944 -0.000555 0.000000 0.000000 0.000000
# 3 -0.002057 -0.000555 0.011293 0.000000 0.000000 0.000000
# 4 0.000000 0.000000 0.000000 0.037264 0.000000 0.000000
# 5 0.000000 0.000000 0.000000 0.000000 0.024155 0.000000
# 6 0.000000 0.000000 0.000000 0.000000 0.000000 0.053885
#
#
# Mechanical properties :
#
#
# Convention : Reuss Voigt Hill
#
# Bulk Modulus (GPa) = 26.19457 29.08819 27.64138
# Shear Modulus (GPa) = 28.66689 32.60559 30.63624
#
# Velocity S-wave (km/s) = 3.67136 3.91546 3.79538
# Velocity P-wave (km/s) = 5.50348 5.84107 5.67479
#
# Compressibility (1/GPa) = 0.03817585
#
# Stress axis : x y z
#
# Youngs Moduli (GPa) = 47.51770 100.56271 88.55165
#
# Poissons Ratio (x) = -0.05628 0.18217
# Poissons Ratio (y) = -0.02659 0.04918
# Poissons Ratio (z) = 0.09775 0.05585
#
# Static dielectric constant tensor:
#      x y z
#    x 1.814350 0.000000 0.000000 
#    y 0.000000 1.979550 0.000000 
#    z 0.000000 0.000000 1.783830 
# 
# From -- ./inp_files/3333.got.cif
#   From: 2010.05.17/outbox.cif.g08.bks.cpg/sg39_2_cif.got.tgz:3333.got - 2010.06.03 18:22:40.
