data_PCOD9361323
_publ_section_title
;
Structure prediction by ZEFSAII (Michael W. Deem and Ramdas Pophale) SiO2 
 PCOD9361323
Probable space group: A B M 2
;
_chemical_formula_sum "Si O2"
_cell_formula_units_Z 64
_cell_length_a 8.817123
_cell_length_b 16.991508
_cell_length_c 21.560888
_cell_angle_alpha 90.000000
_cell_angle_beta 90.000000
_cell_angle_gamma 90.000000
_cell_volume 3230.170654
_symmetry_space_group_name_H-M "A B M 2"
_symmetry_group_IT_number 39
_symmetry_cell_setting 'orthorhombic'
loop_
_space_group_symop_operation_xyz
x,y,z
-x,-y,z
-x,1/2+y,z
x,1/2-y,z
x,1/2+y,1/2+z
-x,1/2-y,1/2+z
-x,y,1/2+z
x,-y,1/2+z
loop_
_atom_site_type_symbol
_atom_site_label
_atom_site_fract_x
_atom_site_fract_y
_atom_site_fract_z
Si Si1 0.309242 0.416400 0.189210
Si Si2 0.661317 0.155744 0.950824
Si Si3 0.675822 0.899794 0.826083
Si Si4 0.303278 0.842607 0.459298
Si Si5 0.812607 0.340043 0.073410
Si Si6 0.693194 0.918004 0.323972
Si Si7 0.649364 0.897447 0.693435
Si Si8 0.891364 0.078853 0.564738
O O1 0.248342 0.388474 0.256778
O O2 0.473896 0.376271 0.179741
O O3 0.342687 0.508518 0.201340
O O4 0.207025 0.416541 0.127976
O O5 0.673565 0.250000 0.948334
O O6 0.483175 0.137701 0.959757
O O7 0.734682 0.124156 0.887715
O O8 0.743346 0.122931 0.011402
O O9 0.733636 0.854696 0.886423
O O10 0.490909 0.906272 0.823265
O O11 0.710239 0.864028 0.758551
O O12 0.730045 0.989923 0.831005
O O13 0.283495 0.750000 0.476146
O O14 0.213655 0.901130 0.505304
O O15 0.764500 0.250000 0.074993
O O16 0.750848 0.378083 0.135272
O O17 0.990475 0.349948 0.068878
O O18 0.000000 0.000000 0.562050
#
# Coordination Sequence:
#
# PCOD9361323 Si02
#       8
#     8   8   8   8   8   8   8   8
#     4   9  18  35  59  86 114 140 187 243 286 332
#     4   9  19  36  59  86 114 148 189 236 291 343
#     4   8  16  30  57  87 111 139 179 234 292 336
#     4  10  21  38  58  84 116 148 189 242 292 340
#     4  11  23  38  55  79 118 156 189 233 282 341
#     4   8  15  31  56  86 114 138 177 236 288 339
#     4   9  17  35  60  88 111 142 186 240 291 336
#     4  12  24  38  55  81 115 158 197 234 280 345
#
# _framework density 19.813196000000001
#
# number of rings (size 3 to 8) (size 9 to 14) (size 15 to 20)
#    0.000    2.500    1.250    2.625    1.750    0.500 
#    0.000    5.000    0.000    1.500    0.000    0.000 
#    0.000    0.000    0.000    0.000    0.000    0.000 
#
# Total GULP energy -178160.497101 kJ/mol
# GULP energy per Si atom -5567.515534 kJ/mol
# Density = 1.976810 g / cm^3
# Si number density = 19.813196 Si / 1000 Ang^3
#
#
#
# Elastic Constant Matrix: (Units=GPa)
#
#
# Indices 1 2 3 4 5 6 
#
# 1 45.6587 13.2707 60.6374 0.0000 0.0000 0.0000
# 2 13.2707 26.8232 31.9295 0.0000 0.0000 0.0000
# 3 60.6374 31.9295 199.2701 0.0000 0.0000 0.0000
# 4 0.0000 0.0000 0.0000 -619.2395 0.0000 0.0000
# 5 0.0000 0.0000 0.0000 0.0000 -22.4790 0.0000
# 6 0.0000 0.0000 0.0000 0.0000 0.0000 18.8462
#
#
#
# Elastic Compliance Matrix: (Units=1/GPa)
#
#
# Indices 1 2 3 4 5 6 
#
# 1 0.037559 -0.006151 -0.010444 0.000000 0.000000 0.000000
# 2 -0.006151 0.047075 -0.005671 0.000000 0.000000 0.000000
# 3 -0.010444 -0.005671 0.009105 0.000000 0.000000 0.000000
# 4 0.000000 0.000000 0.000000 -0.001615 0.000000 0.000000
# 5 0.000000 0.000000 0.000000 0.000000 -0.044486 0.000000
# 6 0.000000 0.000000 0.000000 0.000000 0.000000 0.053061
#
#
# Mechanical properties :
#
#
# Convention : Reuss Voigt Hill
#
# Bulk Modulus (GPa) = 20.32186 53.71413 37.01800
# Shear Modulus (GPa) = 30.93431 -113.51351 -41.28960
#
# Velocity S-wave (km/s) = 3.95561 -7.57735 -4.56998
# Velocity P-wave (km/s) = 5.58046 7.02751 3.02029
#
# Compressibility (1/GPa) = 0.04920808
#
# Stress axis : x y z
#
# Youngs Moduli (GPa) = 26.62485 21.24266 109.82983
#
# Poissons Ratio (x) = 0.13065 1.14701
# Poissons Ratio (y) = 0.16376 0.62288
# Poissons Ratio (z) = 0.27806 0.12047
#
# Static dielectric constant tensor:
#      x y z
#    x 1.699480 0.000000 0.000000 
#    y 0.000000 1.857250 0.000000 
#    z 0.000000 0.000000 1.758730 
# 
# From -- ./inp_files/14242.got.cif
#   From: 2010.05.17/outbox.cif.g08.bks.cpg/sg39_8_cif.got.tgz:14242.got - 2010.06.03 18:22:40.
