data_PCOD9361107
_publ_section_title
;
Structure prediction by ZEFSAII (Michael W. Deem and Ramdas Pophale) SiO2 
 PCOD9361107
Probable space group: A B M 2
;
_chemical_formula_sum "Si O2"
_cell_formula_units_Z 64
_cell_length_a 11.683083
_cell_length_b 27.330676
_cell_length_c 9.538805
_cell_angle_alpha 90.000000
_cell_angle_beta 90.000000
_cell_angle_gamma 90.000000
_cell_volume 3045.802974
_symmetry_space_group_name_H-M "A B M 2"
_symmetry_group_IT_number 39
_symmetry_cell_setting 'orthorhombic'
loop_
_space_group_symop_operation_xyz
x,y,z
-x,-y,z
-x,1/2+y,z
x,1/2-y,z
x,1/2+y,1/2+z
-x,1/2-y,1/2+z
-x,y,1/2+z
x,-y,1/2+z
loop_
_atom_site_type_symbol
_atom_site_label
_atom_site_fract_x
_atom_site_fract_y
_atom_site_fract_z
Si Si1 0.263152 0.029606 0.602340
Si Si2 0.620281 0.931701 0.046683
Si Si3 0.424950 0.395131 0.743675
Si Si4 0.886331 0.470789 0.827607
Si Si5 0.836882 0.620801 0.158353
Si Si6 0.925192 0.306560 0.430549
Si Si7 0.805045 0.193960 0.884956
Si Si8 0.727761 0.307729 0.203731
O O1 0.323729 0.077136 0.661076
O O2 0.187616 0.039324 0.465620
O O3 0.359928 0.989365 0.565353
O O4 0.186353 0.005172 0.723385
O O5 0.540382 0.907906 0.163625
O O6 0.746172 0.908329 0.063472
O O7 0.570023 0.917798 0.897431
O O8 0.382095 0.339475 0.746410
O O9 0.906956 0.420138 0.744433
O O10 0.000000 0.500000 0.866222
O O11 0.769270 0.654436 0.270185
O O12 0.907394 0.656381 0.058142
O O13 0.903621 0.250000 0.475070
O O14 0.835350 0.318465 0.306632
O O15 0.056460 0.308669 0.383070
O O16 0.772119 0.250000 0.850649
O O17 0.762486 0.183164 0.041990
O O18 0.705017 0.250000 0.216855
#
# Coordination Sequence:
#
# PCOD9361107 Si02
#       8
#     8   8   8   8   8   8   8   8
#     4  11  24  45  68  95 133 169 218 270 315 384
#     4  11  27  43  68  97 122 166 223 270 329 383
#     4  12  25  46  70  92 128 168 217 279 329 381
#     4  11  25  42  63  98 138 175 211 255 322 397
#     4  11  23  41  63  95 132 172 217 262 329 388
#     4  10  20  39  65  95 132 174 219 267 318 386
#     4  10  21  37  63  98 130 168 219 265 314 384
#     4  10  22  41  64  96 135 170 212 268 330 393
#
# _framework density 21.012522000000001
#
# number of rings (size 3 to 8) (size 9 to 14) (size 15 to 20)
#    0.000    1.250    2.500    2.625    5.250    8.000 
#    0.000    1.875    0.000    0.000    0.000    0.000 
#    0.000    0.000    0.000    0.000    0.000    0.000 
#
# Total GULP energy -179023.327326 kJ/mol
# GULP energy per Si atom -5594.478979 kJ/mol
# Density = 2.096470 g / cm^3
# Si number density = 21.012522 Si / 1000 Ang^3
#
#
#
# Elastic Constant Matrix: (Units=GPa)
#
#
# Indices 1 2 3 4 5 6 
#
# 1 33.3826 0.0542 3.5699 0.0000 0.0000 0.0000
# 2 0.0542 65.0655 11.8985 0.0000 0.0000 0.0000
# 3 3.5699 11.8985 82.4252 0.0000 0.0000 0.0000
# 4 0.0000 0.0000 0.0000 27.3757 0.0000 0.0000
# 5 0.0000 0.0000 0.0000 0.0000 20.1476 0.0000
# 6 0.0000 0.0000 0.0000 0.0000 0.0000 10.5716
#
#
#
# Elastic Compliance Matrix: (Units=1/GPa)
#
#
# Indices 1 2 3 4 5 6 
#
# 1 0.030098 0.000219 -0.001335 0.000000 0.000000 0.000000
# 2 0.000219 0.015787 -0.002288 0.000000 0.000000 0.000000
# 3 -0.001335 -0.002288 0.012520 0.000000 0.000000 0.000000
# 4 0.000000 0.000000 0.000000 0.036529 0.000000 0.000000
# 5 0.000000 0.000000 0.000000 0.000000 0.049634 0.000000
# 6 0.000000 0.000000 0.000000 0.000000 0.000000 0.094593
#
#
# Mechanical properties :
#
#
# Convention : Reuss Voigt Hill
#
# Bulk Modulus (GPa) = 19.38105 23.54651 21.46378
# Shear Modulus (GPa) = 18.99915 22.64236 20.82075
#
# Velocity S-wave (km/s) = 3.01022 3.28619 3.15123
# Velocity P-wave (km/s) = 4.61796 5.06251 4.84533
#
# Compressibility (1/GPa) = 0.05159678
#
# Stress axis : x y z
#
# Youngs Moduli (GPa) = 33.22463 63.34151 79.86971
#
# Poissons Ratio (x) = -0.01388 0.10664
# Poissons Ratio (y) = -0.00728 0.18278
# Poissons Ratio (z) = 0.04436 0.14496
#
# Static dielectric constant tensor:
#      x y z
#    x 1.726310 0.000000 0.000000 
#    y 0.000000 1.766960 0.000000 
#    z 0.000000 0.000000 1.737390 
# 
# From -- ./inp_files/2899.got.cif
#   From: 2010.05.17/outbox.cif.g08.bks.cpg/sg39_2_cif.got.tgz:2899.got - 2010.06.03 18:22:40.
