data_PCOD9361020
_publ_section_title
;
Structure prediction by ZEFSAII (Michael W. Deem and Ramdas Pophale) SiO2 
 PCOD9361020
Probable space group: A B M 2
;
_chemical_formula_sum "Si O2"
_cell_formula_units_Z 44
_cell_length_a 11.873060
_cell_length_b 15.743303
_cell_length_c 10.686901
_cell_angle_alpha 90.000000
_cell_angle_beta 90.000000
_cell_angle_gamma 90.000000
_cell_volume 1997.608157
_symmetry_space_group_name_H-M "A B M 2"
_symmetry_group_IT_number 39
_symmetry_cell_setting 'orthorhombic'
loop_
_space_group_symop_operation_xyz
x,y,z
-x,-y,z
-x,1/2+y,z
x,1/2-y,z
x,1/2+y,1/2+z
-x,1/2-y,1/2+z
-x,y,1/2+z
x,-y,1/2+z
loop_
_atom_site_type_symbol
_atom_site_label
_atom_site_fract_x
_atom_site_fract_y
_atom_site_fract_z
Si Si1 0.730292 0.845457 0.930050
Si Si2 0.356522 0.843167 0.707758
Si Si3 0.976545 0.656034 0.050123
Si Si4 0.617824 0.510813 0.388585
Si Si5 0.000000 0.500000 0.236007
Si Si6 0.172809 0.401413 0.381525
O O1 0.721620 0.750000 0.877009
O O2 0.674431 0.921372 0.852257
O O3 0.659847 0.848801 0.060269
O O4 0.859792 0.857774 0.974706
O O5 0.404782 0.750000 0.739779
O O6 0.231745 0.849627 0.770032
O O7 0.410657 0.925193 0.773404
O O8 0.971454 0.750000 0.106703
O O9 0.002215 0.582449 0.148874
O O10 0.081525 0.650458 0.956057
O O11 0.500000 0.500000 0.457856
O O12 0.719897 0.561191 0.457196
O O13 0.106602 0.481062 0.322709
#
# Coordination Sequence:
#
# PCOD9361020 Si02
#       6
#     8   8   8   8   4   8
#     4  10  20  38  59  86 116 152 189 231 286 346
#     4   9  20  38  59  79 112 151 190 227 282 343
#     4  11  22  36  58  88 121 149 184 233 288 346
#     4  10  22  38  60  83 113 151 195 243 282 326
#     4  12  20  36  60  86 118 154 184 234 280 346
#     4  10  22  34  59  83 117 145 192 225 286 332
#
# _framework density 22.026342
#
# number of rings (size 3 to 8) (size 9 to 14) (size 15 to 20)
#    1.091    0.727    1.818    3.273    0.000    2.182 
#    0.000    0.909    0.000    3.273    0.000    0.000 
#    0.000    0.000    0.000    0.000    0.000    0.000 
#
# Total GULP energy -122538.949642 kJ/mol
# GULP energy per Si atom -5569.952256 kJ/mol
# Density = 2.197621 g / cm^3
# Si number density = 22.026342 Si / 1000 Ang^3
#
#
#
# Elastic Constant Matrix: (Units=GPa)
#
#
# Indices 1 2 3 4 5 6 
#
# 1 109.5639 41.2178 5.1859 0.0000 0.0000 0.0000
# 2 41.2178 175.4949 26.3882 0.0000 0.0000 0.0000
# 3 5.1859 26.3882 22.2860 0.0000 0.0000 0.0000
# 4 0.0000 0.0000 0.0000 9.4202 0.0000 0.0000
# 5 0.0000 0.0000 0.0000 0.0000 10.4182 0.0000
# 6 0.0000 0.0000 0.0000 0.0000 0.0000 4.6173
#
#
#
# Elastic Compliance Matrix: (Units=1/GPa)
#
#
# Indices 1 2 3 4 5 6 
#
# 1 0.010017 -0.002436 0.000553 0.000000 0.000000 0.000000
# 2 -0.002436 0.007525 -0.008343 0.000000 0.000000 0.000000
# 3 0.000553 -0.008343 0.054621 0.000000 0.000000 0.000000
# 4 0.000000 0.000000 0.000000 0.106154 0.000000 0.000000
# 5 0.000000 0.000000 0.000000 0.000000 0.095985 0.000000
# 6 0.000000 0.000000 0.000000 0.000000 0.000000 0.216578
#
#
# Mechanical properties :
#
#
# Convention : Reuss Voigt Hill
#
# Bulk Modulus (GPa) = 19.33784 50.32538 34.83161
# Shear Modulus (GPa) = 9.45948 20.52801 14.99375
#
# Velocity S-wave (km/s) = 2.07459 3.05614 2.61189
# Velocity P-wave (km/s) = 3.81275 5.94565 4.99439
#
# Compressibility (1/GPa) = 0.05171208
#
# Stress axis : x y z
#
# Youngs Moduli (GPa) = 99.82734 132.89416 18.30786
#
# Poissons Ratio (x) = 0.32372 -0.01013
# Poissons Ratio (y) = 0.24317 0.15274
# Poissons Ratio (z) = -0.05524 1.10874
#
# Static dielectric constant tensor:
#      x y z
#    x 1.835260 0.000000 0.000000 
#    y 0.000000 1.871260 0.000000 
#    z 0.000000 0.000000 1.813360 
# 
# From -- ./inp_files/5765.got.cif
#   From: 2010.05.17/outbox.cif.g08.bks.cpg/sg39_3_cif.got.tgz:5765.got - 2010.06.03 18:22:40.
