data_PCOD9361304
_publ_section_title
;
Structure prediction by ZEFSAII (Michael W. Deem and Ramdas Pophale) SiO2 
 PCOD9361304
Probable space group: A B M 2
;
_chemical_formula_sum "Si O2"
_cell_formula_units_Z 64
_cell_length_a 14.954266
_cell_length_b 8.643747
_cell_length_c 25.461543
_cell_angle_alpha 90.000000
_cell_angle_beta 90.000000
_cell_angle_gamma 90.000000
_cell_volume 3291.181757
_symmetry_space_group_name_H-M "A B M 2"
_symmetry_group_IT_number 39
_symmetry_cell_setting 'orthorhombic'
loop_
_space_group_symop_operation_xyz
x,y,z
-x,-y,z
-x,1/2+y,z
x,1/2-y,z
x,1/2+y,1/2+z
-x,1/2-y,1/2+z
-x,y,1/2+z
x,-y,1/2+z
loop_
_atom_site_type_symbol
_atom_site_label
_atom_site_fract_x
_atom_site_fract_y
_atom_site_fract_z
Si Si1 0.399655 0.565125 0.662600
Si Si2 0.747784 0.564150 0.464835
Si Si3 0.101400 0.935813 0.768864
Si Si4 0.899828 0.436387 0.884634
Si Si5 0.399272 0.935929 0.387627
Si Si6 0.246475 0.064342 0.082034
Si Si7 0.398760 0.064738 0.771497
Si Si8 0.899271 0.565741 0.659781
O O1 0.500000 0.500000 0.656205
O O2 0.405132 0.750000 0.664846
O O3 0.334791 0.519108 0.615172
O O4 0.360297 0.505991 0.718212
O O5 0.747672 0.750000 0.467249
O O6 0.833979 0.512943 0.430742
O O7 0.662201 0.506738 0.432430
O O8 0.749495 0.496519 0.523006
O O9 0.101435 0.750000 0.763905
O O10 0.137121 0.979616 0.826525
O O11 0.139837 0.007974 0.715813
O O12 0.000000 0.000000 0.770170
O O13 0.904904 0.250000 0.885293
O O14 0.000000 0.500000 0.890673
O O15 0.401217 0.750000 0.391362
O O16 0.362537 0.977215 0.329130
O O17 0.500000 0.000000 0.391580
O O18 0.240762 0.250000 0.082197
O O19 0.162167 0.995905 0.113134
O O20 0.399966 0.250000 0.766958
O O21 0.500000 0.000000 0.772312
O O22 0.903023 0.750000 0.659805
O O23 0.000000 0.500000 0.655014
#
# Coordination Sequence:
#
# PCOD9361304 Si02
#       8
#     8   8   8   8   8   8   8   8
#     4  10  21  37  60  86 115 149 186 231 286 341
#     4  11  24  41  59  83 114 151 196 243 286 338
#     4   9  16  31  55  85 118 149 183 226 278 340
#     4   9  20  37  59  86 116 150 187 229 283 339
#     4  10  21  38  60  87 117 152 189 232 285 340
#     4  11  25  43  59  81 113 152 198 244 286 337
#     4   9  17  31  55  86 118 148 184 227 279 341
#     4  11  22  38  61  88 117 151 189 234 287 342
#
# _framework density 19.445902
#
# number of rings (size 3 to 8) (size 9 to 14) (size 15 to 20)
#    0.000    2.000    0.000    4.875    0.000    7.000 
#    0.000    6.250    0.000    0.000    0.000    0.000 
#    0.000    0.000    0.000    0.000    0.000    0.000 
#
# Total GULP energy -178682.926970 kJ/mol
# GULP energy per Si atom -5583.841468 kJ/mol
# Density = 1.940164 g / cm^3
# Si number density = 19.445902 Si / 1000 Ang^3
#
#
#
# Elastic Constant Matrix: (Units=GPa)
#
#
# Indices 1 2 3 4 5 6 
#
# 1 109.7445 37.1165 87.6929 0.0000 0.0000 0.0000
# 2 37.1165 75.9182 65.9129 0.0000 0.0000 0.0000
# 3 87.6929 65.9129 224.7090 0.0000 0.0000 0.0000
# 4 0.0000 0.0000 0.0000 52.2187 0.0000 0.0000
# 5 0.0000 0.0000 0.0000 0.0000 35.4642 0.0000
# 6 0.0000 0.0000 0.0000 0.0000 0.0000 23.8320
#
#
#
# Elastic Compliance Matrix: (Units=1/GPa)
#
#
# Indices 1 2 3 4 5 6 
#
# 1 0.013656 -0.002750 -0.004523 0.000000 0.000000 0.000000
# 2 -0.002750 0.018226 -0.004273 0.000000 0.000000 0.000000
# 3 -0.004523 -0.004273 0.007469 0.000000 0.000000 0.000000
# 4 0.000000 0.000000 0.000000 0.019150 0.000000 0.000000
# 5 0.000000 0.000000 0.000000 0.000000 0.028197 0.000000
# 6 0.000000 0.000000 0.000000 0.000000 0.000000 0.041960
#
#
# Mechanical properties :
#
#
# Convention : Reuss Voigt Hill
#
# Bulk Modulus (GPa) = 61.50154 87.97958 74.74056
# Shear Modulus (GPa) = 31.81264 36.94630 34.37947
#
# Velocity S-wave (km/s) = 4.04908 4.36357 4.20927
# Velocity P-wave (km/s) = 7.31818 8.41006 7.88305
#
# Compressibility (1/GPa) = 0.01625976
#
# Stress axis : x y z
#
# Youngs Moduli (GPa) = 73.22800 54.86535 133.89382
#
# Poissons Ratio (x) = 0.15087 0.60556
# Poissons Ratio (y) = 0.20136 0.57215
# Poissons Ratio (z) = 0.33119 0.23445
#
# Static dielectric constant tensor:
#      x y z
#    x 1.659490 0.000000 0.000000 
#    y 0.000000 1.653150 0.000000 
#    z 0.000000 0.000000 1.692480 
# 
# From -- ./inp_files/16258.got.cif
#   From: 2010.05.17/outbox.cif.g08.bks.cpg/sg39_9_cif.got.tgz:16258.got - 2010.06.03 18:22:40.
