data_PCOD9361275
_publ_section_title
;
Structure prediction by ZEFSAII (Michael W. Deem and Ramdas Pophale) SiO2 
 PCOD9361275
Probable space group: A B M 2
;
_chemical_formula_sum "Si O2"
_cell_formula_units_Z 56
_cell_length_a 19.807015
_cell_length_b 8.667973
_cell_length_c 16.202897
_cell_angle_alpha 90.000000
_cell_angle_beta 90.000000
_cell_angle_gamma 90.000000
_cell_volume 2781.821450
_symmetry_space_group_name_H-M "A B M 2"
_symmetry_group_IT_number 39
_symmetry_cell_setting 'orthorhombic'
loop_
_space_group_symop_operation_xyz
x,y,z
-x,-y,z
-x,1/2+y,z
x,1/2-y,z
x,1/2+y,1/2+z
-x,1/2-y,1/2+z
-x,y,1/2+z
x,-y,1/2+z
loop_
_atom_site_type_symbol
_atom_site_label
_atom_site_fract_x
_atom_site_fract_y
_atom_site_fract_z
Si Si1 0.212868 0.568047 0.973790
Si Si2 0.654040 0.066811 0.210307
Si Si3 0.338845 0.436287 0.893063
Si Si4 0.928683 0.066465 0.209177
Si Si5 0.575174 0.934388 0.053707
Si Si6 0.931505 0.566465 0.393488
Si Si7 0.788926 0.931182 0.149273
O O1 0.220429 0.750000 0.992650
O O2 0.266711 0.517390 0.905524
O O3 0.136386 0.541135 0.944640
O O4 0.227783 0.467445 0.054298
O O5 0.647743 0.250000 0.200509
O O6 0.631675 0.024221 0.303110
O O7 0.613667 0.988142 0.136115
O O8 0.732310 0.018816 0.201689
O O9 0.330040 0.250000 0.895338
O O10 0.384873 0.483318 0.970777
O O11 0.928223 0.250000 0.201194
O O12 0.924436 0.016966 0.305249
O O13 0.863476 0.994954 0.166038
O O14 0.000000 0.000000 0.177693
O O15 0.572893 0.750000 0.053396
O O16 0.500000 0.000000 0.053079
O O17 0.938974 0.750000 0.379737
O O18 0.000000 0.500000 0.432925
O O19 0.785994 0.750000 0.166469
#
# Coordination Sequence:
#
# PCOD9361275 Si02
#       7
#     8   8   8   8   8   8   8
#     4  11  23  38  60  89 122 162 212 264 318 378
#     4  11  23  42  68  99 132 171 216 266 320 379
#     4  10  23  42  66  96 131 169 213 262 319 382
#     4  11  22  38  59  84 117 159 208 263 321 382
#     4  11  24  44  68  98 134 173 212 261 317 377
#     4  10  21  37  57  84 117 157 206 259 318 382
#     4  12  24  39  60  88 124 165 211 265 320 379
#
# _framework density 20.130693999999998
#
# number of rings (size 3 to 8) (size 9 to 14) (size 15 to 20)
#    0.000    1.143    1.429    6.000    0.000    7.429 
#    0.000    2.857    0.000    0.000    0.000    0.000 
#    0.000    0.000    0.000    0.000    0.000    0.000 
#
# Total GULP energy -156592.437292 kJ/mol
# GULP energy per Si atom -5592.587046 kJ/mol
# Density = 2.008488 g / cm^3
# Si number density = 20.130694 Si / 1000 Ang^3
#
#
#
# Elastic Constant Matrix: (Units=GPa)
#
#
# Indices 1 2 3 4 5 6 
#
# 1 112.5371 20.4417 42.4827 0.0000 0.0000 0.0000
# 2 20.4417 54.9257 24.3658 0.0000 0.0000 0.0000
# 3 42.4827 24.3658 107.5842 0.0000 0.0000 0.0000
# 4 0.0000 0.0000 0.0000 27.7112 0.0000 0.0000
# 5 0.0000 0.0000 0.0000 0.0000 13.9371 0.0000
# 6 0.0000 0.0000 0.0000 0.0000 0.0000 29.9586
#
#
#
# Elastic Compliance Matrix: (Units=1/GPa)
#
#
# Indices 1 2 3 4 5 6 
#
# 1 0.010708 -0.002345 -0.003697 0.000000 0.000000 0.000000
# 2 -0.002345 0.020753 -0.003774 0.000000 0.000000 0.000000
# 3 -0.003697 -0.003774 0.011610 0.000000 0.000000 0.000000
# 4 0.000000 0.000000 0.000000 0.036086 0.000000 0.000000
# 5 0.000000 0.000000 0.000000 0.000000 0.071751 0.000000
# 6 0.000000 0.000000 0.000000 0.000000 0.000000 0.033379
#
#
# Mechanical properties :
#
#
# Convention : Reuss Voigt Hill
#
# Bulk Modulus (GPa) = 42.66560 49.95860 46.31210
# Shear Modulus (GPa) = 23.61467 26.83850 25.22658
#
# Velocity S-wave (km/s) = 3.42872 3.65528 3.54381
# Velocity P-wave (km/s) = 6.07579 6.53343 6.30876
#
# Compressibility (1/GPa) = 0.02343809
#
# Stress axis : x y z
#
# Youngs Moduli (GPa) = 93.39196 48.18474 86.13442
#
# Poissons Ratio (x) = 0.11299 0.31845
# Poissons Ratio (y) = 0.21900 0.32510
# Poissons Ratio (z) = 0.34528 0.18186
#
# Static dielectric constant tensor:
#      x y z
#    x 1.707290 0.000000 0.000000 
#    y 0.000000 1.671740 0.000000 
#    z 0.000000 0.000000 1.731640 
# 
# From -- ./inp_files/10326.got.cif
#   From: 2010.05.17/outbox.cif.g08.bks.cpg/sg39_6_cif.got.tgz:10326.got - 2010.06.03 18:22:40.
