data_PCOD9361957
_publ_section_title
;
Structure prediction by ZEFSAII (Michael W. Deem and Ramdas Pophale) SiO2 
 PCOD9361957
Probable space group: A B M 2
;
_chemical_formula_sum "Si O2"
_cell_formula_units_Z 40
_cell_length_a 5.366130
_cell_length_b 27.019846
_cell_length_c 11.095253
_cell_angle_alpha 90.000000
_cell_angle_beta 90.000000
_cell_angle_gamma 90.000000
_cell_volume 1608.722992
_symmetry_space_group_name_H-M "A B M 2"
_symmetry_group_IT_number 39
_symmetry_cell_setting 'orthorhombic'
loop_
_space_group_symop_operation_xyz
x,y,z
-x,-y,z
-x,1/2+y,z
x,1/2-y,z
x,1/2+y,1/2+z
-x,1/2-y,1/2+z
-x,y,1/2+z
x,-y,1/2+z
loop_
_atom_site_type_symbol
_atom_site_label
_atom_site_fract_x
_atom_site_fract_y
_atom_site_fract_z
Si Si1 0.168494 0.307838 0.798130
Si Si2 0.139509 0.551972 0.081813
Si Si3 0.262099 0.529538 0.834102
Si Si4 0.480012 0.382647 0.213081
Si Si5 0.102949 0.652815 0.552451
O O1 0.220059 0.250000 0.788100
O O2 0.415347 0.341873 0.802665
O O3 0.027709 0.324838 0.674092
O O4 0.046700 0.318514 0.929187
O O5 0.294661 0.580408 0.182619
O O6 0.000000 0.500000 0.108653
O O7 0.965307 0.595244 0.030035
O O8 0.324468 0.541118 0.972316
O O9 0.500000 0.500000 0.785139
O O10 0.262800 0.581619 0.763558
O O11 0.000000 0.500000 0.840442
O O12 0.388518 0.352616 0.096302
#
# Coordination Sequence:
#
# PCOD9361957 Si02
#       5
#     8   8   8   8   8
#     4  11  26  49  77 110 149 203 267 340 411 474
#     4  10  25  42  66 104 152 202 253 316 393 473
#     4  11  27  43  70 106 155 211 261 315 387 470
#     4  11  26  43  71 108 152 203 258 328 388 492
#     4  11  25  47  75 110 153 197 267 330 404 487
#
# _framework density 24.864443000000001
#
# number of rings (size 3 to 8) (size 9 to 14) (size 15 to 20)
#    0.000    1.200    0.000    3.000   19.600    3.200 
#    0.000    0.000    0.000    0.000    0.000    0.000 
#    0.000    0.000    0.000    0.000    0.000    0.000 
#
# Total GULP energy -111627.861860 kJ/mol
# GULP energy per Si atom -5581.393093 kJ/mol
# Density = 2.480785 g / cm^3
# Si number density = 24.864443 Si / 1000 Ang^3
#
#
#
# Elastic Constant Matrix: (Units=GPa)
#
#
# Indices 1 2 3 4 5 6 
#
# 1 85.6457 47.5147 13.9602 0.0000 0.0000 0.0000
# 2 47.5147 192.0325 66.9564 0.0000 0.0000 0.0000
# 3 13.9602 66.9564 133.8626 0.0000 0.0000 0.0000
# 4 0.0000 0.0000 0.0000 39.0799 0.0000 0.0000
# 5 0.0000 0.0000 0.0000 0.0000 30.1344 0.0000
# 6 0.0000 0.0000 0.0000 0.0000 0.0000 22.9344
#
#
#
# Elastic Compliance Matrix: (Units=1/GPa)
#
#
# Indices 1 2 3 4 5 6 
#
# 1 0.013545 -0.003463 0.000319 0.000000 0.000000 0.000000
# 2 -0.003463 0.007193 -0.003237 0.000000 0.000000 0.000000
# 3 0.000319 -0.003237 0.009056 0.000000 0.000000 0.000000
# 4 0.000000 0.000000 0.000000 0.025589 0.000000 0.000000
# 5 0.000000 0.000000 0.000000 0.000000 0.033185 0.000000
# 6 0.000000 0.000000 0.000000 0.000000 0.000000 0.043603
#
#
# Mechanical properties :
#
#
# Convention : Reuss Voigt Hill
#
# Bulk Modulus (GPa) = 58.70667 74.26706 66.48686
# Shear Modulus (GPa) = 33.19886 37.30371 35.25128
#
# Velocity S-wave (km/s) = 3.65800 3.87755 3.76937
# Velocity P-wave (km/s) = 6.44230 7.06971 6.76328
#
# Compressibility (1/GPa) = 0.01703384
#
# Stress axis : x y z
#
# Youngs Moduli (GPa) = 73.82761 139.02824 110.42483
#
# Poissons Ratio (x) = 0.48144 -0.03528
# Poissons Ratio (y) = 0.25565 0.35740
# Poissons Ratio (z) = -0.02359 0.44998
#
# Static dielectric constant tensor:
#      x y z
#    x 2.080580 0.000000 0.000000 
#    y 0.000000 1.955100 0.000000 
#    z 0.000000 0.000000 2.101100 
# 
# From -- ./inp_files/4506.got.cif
#   From: 2010.05.17/outbox.cif.g08.bks.cpg/sg39_3_cif.got.tgz:4506.got - 2010.06.03 18:22:40.
