data_PCOD9361190
_publ_section_title
;
Structure prediction by ZEFSAII (Michael W. Deem and Ramdas Pophale) SiO2 
 PCOD9361190
Probable space group: A B M 2
;
_chemical_formula_sum "Si O2"
_cell_formula_units_Z 56
_cell_length_a 5.227569
_cell_length_b 14.333415
_cell_length_c 34.954549
_cell_angle_alpha 90.000000
_cell_angle_beta 90.000000
_cell_angle_gamma 90.000000
_cell_volume 2619.106463
_symmetry_space_group_name_H-M "A B M 2"
_symmetry_group_IT_number 39
_symmetry_cell_setting 'orthorhombic'
loop_
_space_group_symop_operation_xyz
x,y,z
-x,-y,z
-x,1/2+y,z
x,1/2-y,z
x,1/2+y,1/2+z
-x,1/2-y,1/2+z
-x,y,1/2+z
x,-y,1/2+z
loop_
_atom_site_type_symbol
_atom_site_label
_atom_site_fract_x
_atom_site_fract_y
_atom_site_fract_z
Si Si1 0.860216 0.640080 0.216250
Si Si2 0.761775 0.750000 0.985903
Si Si3 0.038822 0.112294 0.048780
Si Si4 0.746864 0.065916 0.883932
Si Si5 0.363315 0.362799 0.675279
Si Si6 0.250093 0.436610 0.297046
Si Si7 0.745357 0.750000 0.435815
Si Si8 0.536359 0.108324 0.087875
O O1 0.871788 0.750000 0.208604
O O2 0.630546 0.600236 0.191182
O O3 0.789988 0.628216 0.260548
O O4 0.130817 0.602317 0.201523
O O5 0.477694 0.750000 0.968234
O O6 0.969905 0.750000 0.952565
O O7 0.834963 0.839840 0.011879
O O8 0.754699 0.146582 0.059704
O O9 0.245223 0.141123 0.081640
O O10 0.000000 0.000000 0.044949
O O11 0.738613 0.103133 0.839958
O O12 0.726250 0.154908 0.911336
O O13 0.500000 0.000000 0.889118
O O14 0.000000 0.000000 0.889000
O O15 0.368624 0.250000 0.678549
O O16 0.353659 0.383313 0.630408
O O17 0.500000 0.500000 0.291352
O O18 0.000000 0.500000 0.296956
O O19 0.500000 0.000000 0.078941
#
# Coordination Sequence:
#
# PCOD9361190 Si02
#       8
#     8   4   8   8   8   8   4   8
#     4  10  21  36  53  83 122 159 203 254 308 360
#     4  12  26  42  68 100 125 166 213 256 326 402
#     4  10  23  41  61  90 124 160 207 260 312 376
#     4  10  23  44  68  99 136 172 216 269 320 385
#     4  10  21  34  53  84 118 158 205 255 309 359
#     4  10  21  38  61  88 118 162 211 251 308 368
#     4  12  26  44  70 104 131 170 219 254 332 408
#     4  10  21  38  59  84 117 161 209 252 310 369
#
# _framework density 21.381336999999998
#
# number of rings (size 3 to 8) (size 9 to 14) (size 15 to 20)
#    0.000    1.714    0.000    3.429    3.000    3.429 
#    0.000    0.000    0.000    0.000    0.000    0.000 
#    0.000    0.000    0.000    0.000    0.000    0.000 
#
# Total GULP energy -156272.686499 kJ/mol
# GULP energy per Si atom -5581.167375 kJ/mol
# Density = 2.133267 g / cm^3
# Si number density = 21.381337 Si / 1000 Ang^3
#
#
#
# Elastic Constant Matrix: (Units=GPa)
#
#
# Indices 1 2 3 4 5 6 
#
# 1 140.7491 29.0383 24.7574 0.0000 0.0000 0.0000
# 2 29.0383 79.6403 20.5594 0.0000 0.0000 0.0000
# 3 24.7574 20.5594 81.1858 0.0000 0.0000 0.0000
# 4 0.0000 0.0000 0.0000 46.5260 0.0000 0.0000
# 5 0.0000 0.0000 0.0000 0.0000 41.5644 0.0000
# 6 0.0000 0.0000 0.0000 0.0000 0.0000 12.2493
#
#
#
# Elastic Compliance Matrix: (Units=1/GPa)
#
#
# Indices 1 2 3 4 5 6 
#
# 1 0.007922 -0.002423 -0.001802 0.000000 0.000000 0.000000
# 2 -0.002423 0.014176 -0.002851 0.000000 0.000000 0.000000
# 3 -0.001802 -0.002851 0.013589 0.000000 0.000000 0.000000
# 4 0.000000 0.000000 0.000000 0.021493 0.000000 0.000000
# 5 0.000000 0.000000 0.000000 0.000000 0.024059 0.000000
# 6 0.000000 0.000000 0.000000 0.000000 0.000000 0.081637
#
#
# Mechanical properties :
#
#
# Convention : Reuss Voigt Hill
#
# Bulk Modulus (GPa) = 46.43771 50.03168 48.23470
# Shear Modulus (GPa) = 27.14341 35.21594 31.17968
#
# Velocity S-wave (km/s) = 3.56686 4.06278 3.82287
# Velocity P-wave (km/s) = 6.22328 6.74231 6.48799
#
# Compressibility (1/GPa) = 0.02153422
#
# Stress axis : x y z
#
# Youngs Moduli (GPa) = 126.23462 70.54185 73.58926
#
# Poissons Ratio (x) = 0.17094 0.13261
# Poissons Ratio (y) = 0.30589 0.20980
# Poissons Ratio (z) = 0.22748 0.20111
#
# Static dielectric constant tensor:
#      x y z
#    x 1.775260 0.000000 0.000000 
#    y 0.000000 1.781880 0.000000 
#    z 0.000000 0.000000 1.789470 
# 
# From -- ./inp_files/17337.got.cif
#   From: 2010.05.17/outbox.cif.g08.bks.cpg/sg39_9_cif.got.tgz:17337.got - 2010.06.03 18:22:40.
