data_PCOD9361573
_publ_section_title
;
Structure prediction by ZEFSAII (Michael W. Deem and Ramdas Pophale) SiO2 
 PCOD9361573
Probable space group: A B M 2
;
_chemical_formula_sum "Si O2"
_cell_formula_units_Z 56
_cell_length_a 11.761467
_cell_length_b 27.205557
_cell_length_c 7.715523
_cell_angle_alpha 90.000000
_cell_angle_beta 90.000000
_cell_angle_gamma 90.000000
_cell_volume 2468.791916
_symmetry_space_group_name_H-M "A B M 2"
_symmetry_group_IT_number 39
_symmetry_cell_setting 'orthorhombic'
loop_
_space_group_symop_operation_xyz
x,y,z
-x,-y,z
-x,1/2+y,z
x,1/2-y,z
x,1/2+y,1/2+z
-x,1/2-y,1/2+z
-x,y,1/2+z
x,-y,1/2+z
loop_
_atom_site_type_symbol
_atom_site_label
_atom_site_fract_x
_atom_site_fract_y
_atom_site_fract_z
Si Si1 0.967124 0.193406 0.533440
Si Si2 0.689636 0.559648 0.355902
Si Si3 0.597175 0.117582 0.171616
Si Si4 0.390060 0.536177 0.471941
Si Si5 0.611324 0.193915 0.663601
Si Si6 0.170631 0.348725 0.339858
Si Si7 0.247194 0.304217 0.801757
O O1 0.963568 0.250000 0.595596
O O2 0.906513 0.158588 0.669757
O O3 0.881253 0.191827 0.369304
O O4 0.092360 0.176924 0.482513
O O5 0.636174 0.556934 0.162709
O O6 0.608609 0.587394 0.494510
O O7 0.705482 0.503790 0.417743
O O8 0.799407 0.594176 0.357801
O O9 0.603427 0.078283 0.327509
O O10 0.490950 0.154980 0.172682
O O11 0.707688 0.151849 0.186856
O O12 0.500000 0.500000 0.471478
O O13 0.572786 0.250000 0.696014
O O14 0.710718 0.178863 0.797079
O O15 0.672554 0.192761 0.475435
O O16 0.264481 0.250000 0.725341
#
# Coordination Sequence:
#
# PCOD9361573 Si02
#       7
#     8   8   8   8   8   8   8
#     4  10  21  43  72 102 141 189 248 306 356 427
#     4  12  28  45  71 109 144 187 249 307 373 440
#     4  12  26  44  75 107 151 194 240 299 374 453
#     4  12  26  46  73 107 146 191 249 308 365 443
#     4  10  22  42  66 106 156 195 236 293 367 452
#     4  11  24  43  71 105 144 192 247 310 367 428
#     4   9  21  41  67 102 144 190 240 297 360 435
#
# _framework density 22.683157999999999
#
# number of rings (size 3 to 8) (size 9 to 14) (size 15 to 20)
#    0.000    1.143    1.429    5.571    8.000    0.571 
#    0.000    2.857    0.000    9.429    0.000    0.000 
#    0.000    0.000    0.000    0.000    0.000    0.000 
#
# Total GULP energy -156812.672779 kJ/mol
# GULP energy per Si atom -5600.452599 kJ/mol
# Density = 2.263153 g / cm^3
# Si number density = 22.683158 Si / 1000 Ang^3
#
#
#
# Elastic Constant Matrix: (Units=GPa)
#
#
# Indices 1 2 3 4 5 6 
#
# 1 124.4340 74.0990 30.6429 0.0000 0.0000 0.0000
# 2 74.0990 190.8476 62.5469 0.0000 0.0000 0.0000
# 3 30.6429 62.5469 131.2868 0.0000 0.0000 0.0000
# 4 0.0000 0.0000 0.0000 45.3195 0.0000 0.0000
# 5 0.0000 0.0000 0.0000 0.0000 39.7762 0.0000
# 6 0.0000 0.0000 0.0000 0.0000 0.0000 44.3257
#
#
#
# Elastic Compliance Matrix: (Units=1/GPa)
#
#
# Indices 1 2 3 4 5 6 
#
# 1 0.010493 -0.003877 -0.000602 0.000000 0.000000 0.000000
# 2 -0.003877 0.007642 -0.002736 0.000000 0.000000 0.000000
# 3 -0.000602 -0.002736 0.009061 0.000000 0.000000 0.000000
# 4 0.000000 0.000000 0.000000 0.022066 0.000000 0.000000
# 5 0.000000 0.000000 0.000000 0.000000 0.025141 0.000000
# 6 0.000000 0.000000 0.000000 0.000000 0.000000 0.022560
#
#
# Mechanical properties :
#
#
# Convention : Reuss Voigt Hill
#
# Bulk Modulus (GPa) = 78.33158 86.79400 82.56279
# Shear Modulus (GPa) = 43.23503 44.50291 43.86897
#
# Velocity S-wave (km/s) = 4.37056 4.43418 4.40248
# Velocity P-wave (km/s) = 7.75093 8.03509 7.89429
#
# Compressibility (1/GPa) = 0.01276624
#
# Stress axis : x y z
#
# Youngs Moduli (GPa) = 95.29921 130.86325 110.36558
#
# Poissons Ratio (x) = 0.50733 0.06646
# Poissons Ratio (y) = 0.36945 0.30193
# Poissons Ratio (z) = 0.05739 0.35800
#
# Static dielectric constant tensor:
#      x y z
#    x 1.857030 0.000000 0.000000 
#    y 0.000000 1.821190 0.000000 
#    z 0.000000 0.000000 1.942760 
# 
# From -- ./inp_files/6110.got.cif
#   From: 2010.05.17/outbox.cif.g08.bks.cpg/sg39_4_cif.got.tgz:6110.got - 2010.06.03 18:22:40.
