data_PCOD9361069
_publ_section_title
;
Structure prediction by ZEFSAII (Michael W. Deem and Ramdas Pophale) SiO2 
 PCOD9361069
Probable space group: A B M 2
;
_chemical_formula_sum "Si O2"
_cell_formula_units_Z 64
_cell_length_a 11.676627
_cell_length_b 16.960816
_cell_length_c 15.860802
_cell_angle_alpha 90.000000
_cell_angle_beta 90.000000
_cell_angle_gamma 90.000000
_cell_volume 3141.154468
_symmetry_space_group_name_H-M "A B M 2"
_symmetry_group_IT_number 39
_symmetry_cell_setting 'orthorhombic'
loop_
_space_group_symop_operation_xyz
x,y,z
-x,-y,z
-x,1/2+y,z
x,1/2-y,z
x,1/2+y,1/2+z
-x,1/2-y,1/2+z
-x,y,1/2+z
x,-y,1/2+z
loop_
_atom_site_type_symbol
_atom_site_label
_atom_site_fract_x
_atom_site_fract_y
_atom_site_fract_z
Si Si1 0.740817 0.662378 0.732590
Si Si2 0.003316 0.156519 0.676325
Si Si3 0.962086 0.156814 0.869892
Si Si4 0.766470 0.929271 0.459915
Si Si5 0.631852 0.657329 0.991713
Si Si6 0.593255 0.162339 0.074399
Si Si7 0.383391 0.460040 0.844525
Si Si8 0.119232 0.584811 0.513947
O O1 0.752607 0.750000 0.774108
O O2 0.858730 0.650110 0.681751
O O3 0.635310 0.666252 0.669047
O O4 0.707270 0.588670 0.788923
O O5 0.976372 0.250000 0.664278
O O6 0.964007 0.132477 0.771196
O O7 0.948818 0.109162 0.598523
O O8 0.984712 0.250000 0.871728
O O9 0.842608 0.136292 0.914337
O O10 0.055553 0.114245 0.929044
O O11 0.677196 0.895863 0.526523
O O12 0.690707 0.974026 0.391011
O O13 0.851854 0.992693 0.502844
O O14 0.636589 0.750000 0.972097
O O15 0.583656 0.605502 0.914591
O O16 0.539703 0.643313 0.065187
O O17 0.757154 0.627207 0.015152
O O18 0.609284 0.250000 0.036605
O O19 0.500000 0.500000 0.809301
#
# Coordination Sequence:
#
# PCOD9361069 Si02
#       8
#     8   8   8   8   8   8   8   8
#     4  10  22  41  65  90 120 163 210 257 312 380
#     4  10  21  40  66  95 127 165 214 266 316 380
#     4  11  23  41  63  91 128 168 213 260 312 385
#     4  11  23  40  63  93 128 165 205 257 325 382
#     4  10  20  38  65  90 121 163 211 258 308 379
#     4  10  21  40  63  88 120 164 212 254 309 379
#     4  11  22  41  60  91 126 162 207 257 319 372
#     4  11  23  39  66  95 131 165 212 268 329 386
#
# _framework density 20.374675
#
# number of rings (size 3 to 8) (size 9 to 14) (size 15 to 20)
#    0.000    1.500    1.250    4.500    0.000    3.000 
#    6.750    3.750    0.000    0.000    0.000    0.000 
#    0.000    0.000    0.000    0.000    0.000    0.000 
#
# Total GULP energy -178642.720010 kJ/mol
# GULP energy per Si atom -5582.585000 kJ/mol
# Density = 2.032830 g / cm^3
# Si number density = 20.374675 Si / 1000 Ang^3
#
#
#
# Elastic Constant Matrix: (Units=GPa)
#
#
# Indices 1 2 3 4 5 6 
#
# 1 59.1253 18.5040 13.9431 0.0000 0.0000 0.0000
# 2 18.5040 62.9730 19.8027 0.0000 0.0000 0.0000
# 3 13.9431 19.8027 64.3318 0.0000 0.0000 0.0000
# 4 0.0000 0.0000 0.0000 30.1558 0.0000 0.0000
# 5 0.0000 0.0000 0.0000 0.0000 10.2707 0.0000
# 6 0.0000 0.0000 0.0000 0.0000 0.0000 50.7358
#
#
#
# Elastic Compliance Matrix: (Units=1/GPa)
#
#
# Indices 1 2 3 4 5 6 
#
# 1 0.019029 -0.004755 -0.002661 0.000000 0.000000 0.000000
# 2 -0.004755 0.018770 -0.004747 0.000000 0.000000 0.000000
# 3 -0.002661 -0.004747 0.017582 0.000000 0.000000 0.000000
# 4 0.000000 0.000000 0.000000 0.033161 0.000000 0.000000
# 5 0.000000 0.000000 0.000000 0.000000 0.097364 0.000000
# 6 0.000000 0.000000 0.000000 0.000000 0.000000 0.019710
#
#
# Mechanical properties :
#
#
# Convention : Reuss Voigt Hill
#
# Bulk Modulus (GPa) = 32.20018 32.32552 32.26285
# Shear Modulus (GPa) = 20.80793 27.17784 23.99289
#
# Velocity S-wave (km/s) = 3.19919 3.65623 3.43532
# Velocity P-wave (km/s) = 5.42999 5.80723 5.62178
#
# Compressibility (1/GPa) = 0.03105573
#
# Stress axis : x y z
#
# Youngs Moduli (GPa) = 52.55218 53.27720 56.87525
#
# Poissons Ratio (x) = 0.25332 0.15132
# Poissons Ratio (y) = 0.24987 0.27000
# Poissons Ratio (z) = 0.13982 0.25292
#
# Static dielectric constant tensor:
#      x y z
#    x 1.721940 0.000000 0.000000 
#    y 0.000000 1.759770 0.000000 
#    z 0.000000 0.000000 1.731800 
# 
# From -- ./inp_files/9486.got.cif
#   From: 2010.05.17/outbox.cif.g08.bks.cpg/sg39_5_cif.got.tgz:9486.got - 2010.06.03 18:22:40.
