data_PCOD9361120
_publ_section_title
;
Structure prediction by ZEFSAII (Michael W. Deem and Ramdas Pophale) SiO2 
 PCOD9361120
Probable space group: A B M 2
;
_chemical_formula_sum "Si O2"
_cell_formula_units_Z 48
_cell_length_a 8.707819
_cell_length_b 10.288470
_cell_length_c 28.227660
_cell_angle_alpha 90.000000
_cell_angle_beta 90.000000
_cell_angle_gamma 90.000000
_cell_volume 2528.919857
_symmetry_space_group_name_H-M "A B M 2"
_symmetry_group_IT_number 39
_symmetry_cell_setting 'orthorhombic'
loop_
_space_group_symop_operation_xyz
x,y,z
-x,-y,z
-x,1/2+y,z
x,1/2-y,z
x,1/2+y,1/2+z
-x,1/2-y,1/2+z
-x,y,1/2+z
x,-y,1/2+z
loop_
_atom_site_type_symbol
_atom_site_label
_atom_site_fract_x
_atom_site_fract_y
_atom_site_fract_z
Si Si1 0.830533 0.250000 0.569860
Si Si2 0.318162 0.517210 0.628479
Si Si3 0.138565 0.899539 0.827162
Si Si4 0.317944 0.982849 0.918757
Si Si5 0.284603 0.750000 0.465972
Si Si6 0.808239 0.750000 0.590571
Si Si7 0.348269 0.750000 0.987813
Si Si8 0.142227 0.900800 0.719353
O O1 0.747440 0.376194 0.591899
O O2 0.812557 0.250000 0.513622
O O3 0.009506 0.250000 0.582766
O O4 0.500000 0.500000 0.623516
O O5 0.239516 0.379530 0.618109
O O6 0.268919 0.565904 0.680373
O O7 0.086973 0.750000 0.832087
O O8 0.200249 0.913637 0.773461
O O9 0.253911 0.932458 0.869219
O O10 0.000000 0.000000 0.831461
O O11 0.254360 0.121567 0.935349
O O12 0.500000 0.000000 0.914387
O O13 0.290472 0.876683 0.959670
O O14 0.465087 0.750000 0.482874
O O15 0.714503 0.750000 0.540928
O O16 0.093128 0.750000 0.712703
O O17 0.000000 0.000000 0.713342
#
# Coordination Sequence:
#
# PCOD9361120 Si02
#       8
#     4   8   8   8   4   4   4   8
#     4  12  24  44  63  94 127 164 213 258 310 374
#     4  12  25  42  65  94 127 165 208 258 314 374
#     4  10  22  40  63  91 125 164 206 256 310 368
#     4  10  21  38  62  89 122 165 206 252 310 366
#     4  10  22  36  61  90 125 162 207 258 308 372
#     4  12  26  40  67  94 125 166 209 260 314 372
#     4  10  20  40  59  88 123 166 209 254 312 364
#     4  10  22  42  66  92 124 164 209 260 315 373
#
# _framework density 18.980435
#
# number of rings (size 3 to 8) (size 9 to 14) (size 15 to 20)
#    0.000    1.333    1.667    4.000    2.333    3.333 
#    0.000    0.000    0.000    0.000    0.000    0.000 
#    0.000    0.000    0.000    0.000    0.000    0.000 
#
# Total GULP energy -134136.666548 kJ/mol
# GULP energy per Si atom -5589.027773 kJ/mol
# Density = 1.893724 g / cm^3
# Si number density = 18.980435 Si / 1000 Ang^3
#
#
#
# Elastic Constant Matrix: (Units=GPa)
#
#
# Indices 1 2 3 4 5 6 
#
# 1 65.9757 36.2330 23.7845 0.0000 0.0000 0.0000
# 2 36.2330 168.3410 49.9100 0.0000 0.0000 0.0000
# 3 23.7845 49.9100 94.0755 0.0000 0.0000 0.0000
# 4 0.0000 0.0000 0.0000 26.4216 0.0000 0.0000
# 5 0.0000 0.0000 0.0000 0.0000 32.6252 0.0000
# 6 0.0000 0.0000 0.0000 0.0000 0.0000 25.1622
#
#
#
# Elastic Compliance Matrix: (Units=1/GPa)
#
#
# Indices 1 2 3 4 5 6 
#
# 1 0.017847 -0.002971 -0.002936 0.000000 0.000000 0.000000
# 2 -0.002971 0.007544 -0.003251 0.000000 0.000000 0.000000
# 3 -0.002936 -0.003251 0.013097 0.000000 0.000000 0.000000
# 4 0.000000 0.000000 0.000000 0.037848 0.000000 0.000000
# 5 0.000000 0.000000 0.000000 0.000000 0.030651 0.000000
# 6 0.000000 0.000000 0.000000 0.000000 0.000000 0.039742
#
#
# Mechanical properties :
#
#
# Convention : Reuss Voigt Hill
#
# Bulk Modulus (GPa) = 49.57438 60.91638 55.24538
# Shear Modulus (GPa) = 29.10896 31.40612 30.25754
#
# Velocity S-wave (km/s) = 3.92041 4.07216 3.99700
# Velocity P-wave (km/s) = 6.83141 7.36709 7.10430
#
# Compressibility (1/GPa) = 0.02017171
#
# Stress axis : x y z
#
# Youngs Moduli (GPa) = 56.03153 132.56217 76.35433
#
# Poissons Ratio (x) = 0.39382 0.22418
# Poissons Ratio (y) = 0.16646 0.24823
# Poissons Ratio (z) = 0.16451 0.43096
#
# Static dielectric constant tensor:
#      x y z
#    x 1.625740 0.000000 0.000000 
#    y 0.000000 1.653690 0.000000 
#    z 0.000000 0.000000 1.646230 
# 
# From -- ./inp_files/17683.got.cif
#   From: 2010.05.17/outbox.cif.g08.bks.cpg/sg39_9_cif.got.tgz:17683.got - 2010.06.03 18:22:40.
