data_PCOD9361945
_publ_section_title
;
Structure prediction by ZEFSAII (Michael W. Deem and Ramdas Pophale) SiO2 
 PCOD9361945
Probable space group: A B M 2
;
_chemical_formula_sum "Si O2"
_cell_formula_units_Z 32
_cell_length_a 13.071297
_cell_length_b 9.504900
_cell_length_c 10.036373
_cell_angle_alpha 90.000000
_cell_angle_beta 90.000000
_cell_angle_gamma 90.000000
_cell_volume 1246.932740
_symmetry_space_group_name_H-M "A B M 2"
_symmetry_group_IT_number 39
_symmetry_cell_setting 'orthorhombic'
loop_
_space_group_symop_operation_xyz
x,y,z
-x,-y,z
-x,1/2+y,z
x,1/2-y,z
x,1/2+y,1/2+z
-x,1/2-y,1/2+z
-x,y,1/2+z
x,-y,1/2+z
loop_
_atom_site_type_symbol
_atom_site_label
_atom_site_fract_x
_atom_site_fract_y
_atom_site_fract_z
Si Si1 0.380044 0.974306 0.913370
Si Si2 0.000000 0.000000 0.131198
Si Si3 0.295944 0.250000 0.982531
Si Si4 0.861815 0.750000 0.229617
Si Si5 0.335183 0.250000 0.636446
Si Si6 0.561858 0.250000 0.709955
Si Si7 0.866020 0.750000 0.529945
O O1 0.386679 0.883471 0.779550
O O2 0.500000 0.000000 0.937385
O O3 0.347407 0.885362 0.040928
O O4 0.303582 0.105815 0.901256
O O5 0.929336 0.891721 0.213943
O O6 0.067642 0.891341 0.045258
O O7 0.213739 0.250000 0.101069
O O8 0.405923 0.250000 0.057955
O O9 0.819049 0.750000 0.380461
O O10 0.439183 0.250000 0.724152
O O11 0.213229 0.250000 0.654400
#
# Coordination Sequence:
#
# PCOD9361945 Si02
#       7
#     8   4   4   4   4   4   4
#     4  11  23  43  63  94 139 185 231 277 338 411
#     4  10  24  46  74 106 146 182 240 306 368 444
#     4  12  24  44  66 103 137 183 243 285 340 428
#     4  11  23  43  78 103 144 191 231 301 379 411
#     4  11  23  45  68 100 142 188 237 289 341 429
#     4  11  25  43  66  90 144 196 223 290 351 402
#     4  11  23  47  72 108 143 182 248 299 363 436
#
# _framework density 25.662970999999999
#
# number of rings (size 3 to 8) (size 9 to 14) (size 15 to 20)
#    0.000    1.000    2.500    4.500    3.500    0.000 
#    4.500    0.000   11.000    0.000    0.000    0.000 
#    0.000    0.000    0.000    0.000    0.000    0.000 
#
# Total GULP energy -89500.217588 kJ/mol
# GULP energy per Si atom -5593.763599 kJ/mol
# Density = 2.560456 g / cm^3
# Si number density = 25.662971 Si / 1000 Ang^3
#
#
#
# Elastic Constant Matrix: (Units=GPa)
#
#
# Indices 1 2 3 4 5 6 
#
# 1 110.2637 57.5656 45.7828 0.0000 0.0000 0.0000
# 2 57.5656 182.7067 52.1827 0.0000 0.0000 0.0000
# 3 45.7828 52.1827 97.2102 0.0000 0.0000 0.0000
# 4 0.0000 0.0000 0.0000 32.7740 0.0000 0.0000
# 5 0.0000 0.0000 0.0000 0.0000 37.2210 0.0000
# 6 0.0000 0.0000 0.0000 0.0000 0.0000 36.3356
#
#
#
# Elastic Compliance Matrix: (Units=1/GPa)
#
#
# Indices 1 2 3 4 5 6 
#
# 1 0.012245 -0.002611 -0.004365 0.000000 0.000000 0.000000
# 2 -0.002611 0.007021 -0.002539 0.000000 0.000000 0.000000
# 3 -0.004365 -0.002539 0.013706 0.000000 0.000000 0.000000
# 4 0.000000 0.000000 0.000000 0.030512 0.000000 0.000000
# 5 0.000000 0.000000 0.000000 0.000000 0.026867 0.000000
# 6 0.000000 0.000000 0.000000 0.000000 0.000000 0.027521
#
#
# Mechanical properties :
#
#
# Convention : Reuss Voigt Hill
#
# Bulk Modulus (GPa) = 71.73245 77.91586 74.82415
# Shear Modulus (GPa) = 35.32320 36.90942 36.11631
#
# Velocity S-wave (km/s) = 3.71405 3.79652 3.75551
# Velocity P-wave (km/s) = 6.81209 7.04594 6.93000
#
# Compressibility (1/GPa) = 0.01394069
#
# Stress axis : x y z
#
# Youngs Moduli (GPa) = 81.66651 142.42570 72.96127
#
# Poissons Ratio (x) = 0.37191 0.31849
# Poissons Ratio (y) = 0.21325 0.18526
# Poissons Ratio (z) = 0.35649 0.36164
#
# Static dielectric constant tensor:
#      x y z
#    x 2.048490 0.000000 0.000000 
#    y 0.000000 2.081830 0.000000 
#    z 0.000000 0.000000 2.031020 
# 
# From -- ./inp_files/6228.got.cif
#   From: 2010.05.17/outbox.cif.g08.bks.cpg/sg39_4_cif.got.tgz:6228.got - 2010.06.03 18:22:40.
