data_PCOD9361928
_publ_section_title
;
Structure prediction by ZEFSAII (Michael W. Deem and Ramdas Pophale) SiO2 
 PCOD9361928
Probable space group: A B M 2
;
_chemical_formula_sum "Si O2"
_cell_formula_units_Z 52
_cell_length_a 18.266445
_cell_length_b 8.527302
_cell_length_c 15.628739
_cell_angle_alpha 90.000000
_cell_angle_beta 90.000000
_cell_angle_gamma 90.000000
_cell_volume 2434.386978
_symmetry_space_group_name_H-M "A B M 2"
_symmetry_group_IT_number 39
_symmetry_cell_setting 'orthorhombic'
loop_
_space_group_symop_operation_xyz
x,y,z
-x,-y,z
-x,1/2+y,z
x,1/2-y,z
x,1/2+y,1/2+z
-x,1/2-y,1/2+z
-x,y,1/2+z
x,-y,1/2+z
loop_
_atom_site_type_symbol
_atom_site_label
_atom_site_fract_x
_atom_site_fract_y
_atom_site_fract_z
Si Si1 0.039576 0.250000 0.285880
Si Si2 0.582065 0.561372 0.363458
Si Si3 0.164546 0.499324 0.250802
Si Si4 0.672943 0.070891 0.698970
Si Si5 0.308804 0.435765 0.516035
Si Si6 0.069756 0.750000 0.969376
Si Si7 0.089562 0.250000 0.654118
Si Si8 0.161326 0.575187 0.446060
O O1 0.093359 0.392275 0.264282
O O2 0.019275 0.250000 0.385954
O O3 0.967674 0.250000 0.230798
O O4 0.500000 0.500000 0.366665
O O5 0.580873 0.750000 0.359916
O O6 0.624586 0.508377 0.277747
O O7 0.628572 0.520273 0.447791
O O8 0.242643 0.425224 0.230363
O O9 0.142948 0.604898 0.169944
O O10 0.173027 0.579572 0.343377
O O11 0.650702 0.250000 0.679674
O O12 0.668232 0.970457 0.612998
O O13 0.291858 0.250000 0.505066
O O14 0.237588 0.536731 0.492337
O O15 0.044982 0.750000 0.066841
O O16 0.113482 0.583709 0.961314
O O17 0.135262 0.750000 0.473524
#
# Coordination Sequence:
#
# PCOD9361928 Si02
#       8
#     4   8   8   8   8   4   4   8
#     4  10  24  46  70  94 137 188 223 285 354 416
#     4  10  24  44  66  93 138 183 227 285 353 413
#     4  11  22  41  69  97 135 176 232 284 339 413
#     4  11  23  42  68 101 133 180 233 285 342 412
#     4  11  23  40  65  98 139 176 226 285 345 407
#     4  10  24  44  72  96 143 178 227 292 340 414
#     4  12  24  44  66 106 136 180 230 285 358 410
#     4  11  21  40  69 104 132 179 229 285 344 408
#
# _framework density 21.360613000000001
#
# number of rings (size 3 to 8) (size 9 to 14) (size 15 to 20)
#    0.000    1.231    3.846    1.846    1.077    2.462 
#    1.385   10.769    0.000    0.000    0.000    0.000 
#    0.000    0.000    0.000    0.000    0.000    0.000 
#
# Total GULP energy -145207.464474 kJ/mol
# GULP energy per Si atom -5584.902480 kJ/mol
# Density = 2.131200 g / cm^3
# Si number density = 21.360613 Si / 1000 Ang^3
#
#
#
# Elastic Constant Matrix: (Units=GPa)
#
#
# Indices 1 2 3 4 5 6 
#
# 1 90.7729 21.5070 42.6132 0.0000 0.0000 0.0000
# 2 21.5070 90.9620 26.6717 0.0000 0.0000 0.0000
# 3 42.6132 26.6717 149.1770 0.0000 0.0000 0.0000
# 4 0.0000 0.0000 0.0000 21.1824 0.0000 0.0000
# 5 0.0000 0.0000 0.0000 0.0000 19.2851 0.0000
# 6 0.0000 0.0000 0.0000 0.0000 0.0000 2.7159
#
#
#
# Elastic Compliance Matrix: (Units=1/GPa)
#
#
# Indices 1 2 3 4 5 6 
#
# 1 0.013095 -0.002110 -0.003364 0.000000 0.000000 0.000000
# 2 -0.002110 0.011942 -0.001532 0.000000 0.000000 0.000000
# 3 -0.003364 -0.001532 0.007938 0.000000 0.000000 0.000000
# 4 0.000000 0.000000 0.000000 0.047209 0.000000 0.000000
# 5 0.000000 0.000000 0.000000 0.000000 0.051853 0.000000
# 6 0.000000 0.000000 0.000000 0.000000 0.000000 0.368202
#
#
# Mechanical properties :
#
#
# Convention : Reuss Voigt Hill
#
# Bulk Modulus (GPa) = 52.73247 56.94395 54.83821
# Shear Modulus (GPa) = 9.60481 24.64469 17.12475
#
# Velocity S-wave (km/s) = 2.12280 3.40037 2.83450
# Velocity P-wave (km/s) = 5.54515 6.49099 6.03662
#
# Compressibility (1/GPa) = 0.01896365
#
# Stress axis : x y z
#
# Youngs Moduli (GPa) = 76.36244 83.73936 125.97268
#
# Poissons Ratio (x) = 0.17669 0.42371
# Poissons Ratio (y) = 0.16113 0.19304
# Poissons Ratio (z) = 0.25685 0.12832
#
# Static dielectric constant tensor:
#      x y z
#    x 1.724410 0.000000 0.000000 
#    y 0.000000 1.800110 0.000000 
#    z 0.000000 0.000000 1.761550 
# 
# From -- ./inp_files/10312.got.cif
#   From: 2010.05.17/outbox.cif.g08.bks.cpg/sg39_6_cif.got.tgz:10312.got - 2010.06.03 18:22:40.
