data_PCOD9361234
_publ_section_title
;
Structure prediction by ZEFSAII (Michael W. Deem and Ramdas Pophale) SiO2 
 PCOD9361234
Probable space group: A B M 2
;
_chemical_formula_sum "Si O2"
_cell_formula_units_Z 60
_cell_length_a 14.060203
_cell_length_b 19.046424
_cell_length_c 11.675144
_cell_angle_alpha 90.000000
_cell_angle_beta 90.000000
_cell_angle_gamma 90.000000
_cell_volume 3126.563726
_symmetry_space_group_name_H-M "A B M 2"
_symmetry_group_IT_number 39
_symmetry_cell_setting 'orthorhombic'
loop_
_space_group_symop_operation_xyz
x,y,z
-x,-y,z
-x,1/2+y,z
x,1/2-y,z
x,1/2+y,1/2+z
-x,1/2-y,1/2+z
-x,y,1/2+z
x,-y,1/2+z
loop_
_atom_site_type_symbol
_atom_site_label
_atom_site_fract_x
_atom_site_fract_y
_atom_site_fract_z
Si Si1 0.500000 0.500000 0.017190
Si Si2 0.894580 0.468190 0.408020
Si Si3 0.594762 0.110055 0.889284
Si Si4 0.809373 0.033840 0.147515
Si Si5 0.783550 0.333337 0.465860
Si Si6 0.702802 0.169112 0.096379
Si Si7 0.655024 0.581333 0.142210
Si Si8 0.399878 0.168830 0.814123
O O1 0.553012 0.559187 0.091271
O O2 0.414943 0.532136 0.940818
O O3 0.855906 0.477798 0.275049
O O4 0.853555 0.505523 0.525766
O O5 0.870652 0.385874 0.436479
O O6 0.000000 0.500000 0.402529
O O7 0.638811 0.113313 0.765452
O O8 0.484233 0.129500 0.875515
O O9 0.658694 0.155831 0.972613
O O10 0.786623 0.115343 0.125107
O O11 0.711145 0.991454 0.155696
O O12 0.805588 0.250000 0.479543
O O13 0.722549 0.366423 0.570536
O O14 0.704601 0.340948 0.366391
O O15 0.729889 0.250000 0.113687
O O16 0.615495 0.152513 0.181955
O O17 0.424921 0.250000 0.826556
#
# Coordination Sequence:
#
# PCOD9361234 Si02
#       8
#     4   8   8   8   8   8   8   8
#     4  12  22  34  54  90 130 176 230 268 312 360
#     4  11  24  44  72  99 125 157 206 268 337 413
#     4  12  23  35  55  87 132 173 228 273 308 356
#     4  11  23  42  66  95 128 163 211 264 330 400
#     4  10  22  42  66  91 123 167 211 259 327 397
#     4  11  23  39  60  87 124 172 218 266 316 374
#     4  11  24  37  59  90 128 176 217 273 315 373
#     4  10  21  36  55  83 121 170 217 257 305 365
#
# _framework density 19.190396
#
# number of rings (size 3 to 8) (size 9 to 14) (size 15 to 20)
#    0.000    1.067    4.000    2.800    3.733    1.067 
#    0.000    0.667    0.000    6.400    0.000    0.000 
#    0.000    0.000    0.000    0.000    0.000    0.000 
#
# Total GULP energy -167046.570675 kJ/mol
# GULP energy per Si atom -5568.219023 kJ/mol
# Density = 1.914672 g / cm^3
# Si number density = 19.190396 Si / 1000 Ang^3
#
#
#
# Elastic Constant Matrix: (Units=GPa)
#
#
# Indices 1 2 3 4 5 6 
#
# 1 67.4106 50.7201 38.4059 0.0000 0.0000 0.0000
# 2 50.7201 115.5147 48.0964 0.0000 0.0000 0.0000
# 3 38.4059 48.0964 146.9422 0.0000 0.0000 0.0000
# 4 0.0000 0.0000 0.0000 20.6622 0.0000 0.0000
# 5 0.0000 0.0000 0.0000 0.0000 13.1030 0.0000
# 6 0.0000 0.0000 0.0000 0.0000 0.0000 7.3285
#
#
#
# Elastic Compliance Matrix: (Units=1/GPa)
#
#
# Indices 1 2 3 4 5 6 
#
# 1 0.023372 -0.008937 -0.003184 0.000000 0.000000 0.000000
# 2 -0.008937 0.013440 -0.002063 0.000000 0.000000 0.000000
# 3 -0.003184 -0.002063 0.008313 0.000000 0.000000 0.000000
# 4 0.000000 0.000000 0.000000 0.048398 0.000000 0.000000
# 5 0.000000 0.000000 0.000000 0.000000 0.076318 0.000000
# 6 0.000000 0.000000 0.000000 0.000000 0.000000 0.136453
#
#
# Mechanical properties :
#
#
# Convention : Reuss Voigt Hill
#
# Bulk Modulus (GPa) = 59.67396 67.14580 63.40988
# Shear Modulus (GPa) = 14.69520 21.06175 17.87848
#
# Velocity S-wave (km/s) = 2.77024 3.31647 3.05558
# Velocity P-wave (km/s) = 6.43393 7.05199 6.75004
#
# Compressibility (1/GPa) = 0.01675773
#
# Stress axis : x y z
#
# Youngs Moduli (GPa) = 42.78560 74.40508 120.29571
#
# Poissons Ratio (x) = 0.66494 0.38298
# Poissons Ratio (y) = 0.38236 0.24821
# Poissons Ratio (z) = 0.13621 0.15352
#
# Static dielectric constant tensor:
#      x y z
#    x 1.664310 0.000000 0.000000 
#    y 0.000000 1.702390 0.000000 
#    z 0.000000 0.000000 1.753240 
# 
# From -- ./inp_files/6598.got.cif
#   From: 2010.05.17/outbox.cif.g08.bks.cpg/sg39_4_cif.got.tgz:6598.got - 2010.06.03 18:22:40.
