data_PCOD9361364
_publ_section_title
;
Structure prediction by ZEFSAII (Michael W. Deem and Ramdas Pophale) SiO2 
 PCOD9361364
Probable space group: A B M 2
;
_chemical_formula_sum "Si O2"
_cell_formula_units_Z 56
_cell_length_a 14.150855
_cell_length_b 14.464260
_cell_length_c 11.449140
_cell_angle_alpha 90.000000
_cell_angle_beta 90.000000
_cell_angle_gamma 90.000000
_cell_volume 2343.428820
_symmetry_space_group_name_H-M "A B M 2"
_symmetry_group_IT_number 39
_symmetry_cell_setting 'orthorhombic'
loop_
_space_group_symop_operation_xyz
x,y,z
-x,-y,z
-x,1/2+y,z
x,1/2-y,z
x,1/2+y,1/2+z
-x,1/2-y,1/2+z
-x,y,1/2+z
x,-y,1/2+z
loop_
_atom_site_type_symbol
_atom_site_label
_atom_site_fract_x
_atom_site_fract_y
_atom_site_fract_z
Si Si1 0.598184 0.507303 0.858290
Si Si2 0.771348 0.055380 0.496558
Si Si3 0.762039 0.145882 0.051363
Si Si4 0.033311 0.859868 0.438439
Si Si5 0.345687 0.142901 0.189684
Si Si6 0.557164 0.646428 0.652886
Si Si7 0.942688 0.641220 0.681831
O O1 0.500000 0.500000 0.928223
O O2 0.632258 0.407854 0.811517
O O3 0.572509 0.566549 0.745045
O O4 0.679013 0.564703 0.919015
O O5 0.857305 0.117969 0.460148
O O6 0.734915 0.084533 0.624676
O O7 0.793012 0.946184 0.484374
O O8 0.781899 0.250000 0.005517
O O9 0.649144 0.138309 0.070438
O O10 0.828127 0.136824 0.167826
O O11 0.015850 0.750000 0.434894
O O12 0.017051 0.895320 0.305145
O O13 0.982890 0.894914 0.557579
O O14 0.318684 0.250000 0.202860
O O15 0.446374 0.141066 0.119826
O O16 0.566077 0.750000 0.704947
O O17 0.966360 0.750000 0.682586
#
# Coordination Sequence:
#
# PCOD9361364 Si02
#       7
#     8   8   8   8   8   8   8
#     4  10  22  37  59  89 130 172 223 277 341 406
#     4  12  24  37  66  97 129 178 225 288 336 417
#     4  10  21  38  62  92 125 171 225 281 345 413
#     4  10  22  43  71 104 138 177 228 287 356 420
#     4  10  22  40  60  90 135 177 220 278 345 407
#     4   9  18  37  62  86 124 172 219 278 338 406
#     4   9  20  43  71  98 133 175 223 287 353 420
#
# _framework density 23.896606999999999
#
# number of rings (size 3 to 8) (size 9 to 14) (size 15 to 20)
#    0.000    2.000    1.429    1.286    2.000    3.429 
#    2.571    1.429    0.000    0.000    0.000    0.000 
#    0.000    0.000    0.000    0.000    0.000    0.000 
#
# Total GULP energy -156093.701646 kJ/mol
# GULP energy per Si atom -5574.775059 kJ/mol
# Density = 2.384222 g / cm^3
# Si number density = 23.896607 Si / 1000 Ang^3
#
#
#
# Elastic Constant Matrix: (Units=GPa)
#
#
# Indices 1 2 3 4 5 6 
#
# 1 93.3809 -5.8752 46.5964 0.0000 0.0000 0.0000
# 2 -5.8752 87.6172 18.5642 0.0000 0.0000 0.0000
# 3 46.5964 18.5642 117.3634 0.0000 0.0000 0.0000
# 4 0.0000 0.0000 0.0000 -0.7084 0.0000 0.0000
# 5 0.0000 0.0000 0.0000 0.0000 29.6338 0.0000
# 6 0.0000 0.0000 0.0000 0.0000 0.0000 25.2347
#
#
#
# Elastic Compliance Matrix: (Units=1/GPa)
#
#
# Indices 1 2 3 4 5 6 
#
# 1 0.013735 0.002148 -0.005793 0.000000 0.000000 0.000000
# 2 0.002148 0.012145 -0.002774 0.000000 0.000000 0.000000
# 3 -0.005793 -0.002774 0.011259 0.000000 0.000000 0.000000
# 4 0.000000 0.000000 0.000000 -1.411609 0.000000 0.000000
# 5 0.000000 0.000000 0.000000 0.000000 0.033745 0.000000
# 6 0.000000 0.000000 0.000000 0.000000 0.000000 0.039628
#
#
# Mechanical properties :
#
#
# Convention : Reuss Voigt Hill
#
# Bulk Modulus (GPa) = 41.14904 46.32581 43.73742
# Shear Modulus (GPa) = -3.90577 26.77043 11.43233
#
# Velocity S-wave (km/s) = -1.27984 3.35066 2.18963
# Velocity P-wave (km/s) = 3.88240 5.86492 4.97344
#
# Compressibility (1/GPa) = 0.02430191
#
# Stress axis : x y z
#
# Youngs Moduli (GPa) = 72.80908 82.33779 88.81607
#
# Poissons Ratio (x) = -0.17689 0.51449
# Poissons Ratio (y) = -0.15642 0.24638
# Poissons Ratio (z) = 0.42177 0.22841
#
# Static dielectric constant tensor:
#      x y z
#    x 1.979150 0.000000 0.000000 
#    y 0.000000 1.890290 0.000000 
#    z 0.000000 0.000000 1.962740 
# 
# From -- ./inp_files/6475.got.cif
#   From: 2010.05.17/outbox.cif.g08.bks.cpg/sg39_4_cif.got.tgz:6475.got - 2010.06.03 18:22:40.
