data_PCOD9361883
_publ_section_title
;
Structure prediction by ZEFSAII (Michael W. Deem and Ramdas Pophale) SiO2 
 PCOD9361883
Probable space group: A B M 2
;
_chemical_formula_sum "Si O2"
_cell_formula_units_Z 40
_cell_length_a 7.627530
_cell_length_b 17.094595
_cell_length_c 12.743173
_cell_angle_alpha 90.000000
_cell_angle_beta 90.000000
_cell_angle_gamma 90.000000
_cell_volume 1661.576417
_symmetry_space_group_name_H-M "A B M 2"
_symmetry_group_IT_number 39
_symmetry_cell_setting 'orthorhombic'
loop_
_space_group_symop_operation_xyz
x,y,z
-x,-y,z
-x,1/2+y,z
x,1/2-y,z
x,1/2+y,1/2+z
-x,1/2-y,1/2+z
-x,y,1/2+z
x,-y,1/2+z
loop_
_atom_site_type_symbol
_atom_site_label
_atom_site_fract_x
_atom_site_fract_y
_atom_site_fract_z
Si Si1 0.294469 0.837409 0.603260
Si Si2 0.676954 0.952603 0.472909
Si Si3 0.292425 0.340456 0.653531
Si Si4 0.792992 0.656694 0.321982
Si Si5 0.826734 0.103218 0.381211
O O1 0.224848 0.750000 0.605957
O O2 0.499757 0.837638 0.630477
O O3 0.205790 0.877354 0.703864
O O4 0.257440 0.864719 0.487633
O O5 0.765391 0.908966 0.572215
O O6 0.641175 0.882682 0.390928
O O7 0.500000 0.000000 0.502823
O O8 0.795777 0.011534 0.404166
O O9 0.227128 0.250000 0.637510
O O10 0.255627 0.367619 0.771794
O O11 0.768051 0.750000 0.321464
O O12 0.976234 0.635280 0.374900
#
# Coordination Sequence:
#
# PCOD9361883 Si02
#       5
#     8   8   8   8   8
#     4  10  23  44  73 107 145 194 253 309 370 453
#     4  12  26  47  74 109 151 196 251 315 379 445
#     4  11  25  47  77 110 150 202 255 310 379 458
#     4  11  26  48  75 109 153 200 251 313 383 459
#     4  12  26  47  77 109 152 197 252 314 384 442
#
# _framework density 24.073522000000001
#
# number of rings (size 3 to 8) (size 9 to 14) (size 15 to 20)
#    0.000    0.800    2.000    4.200    5.600    0.800 
#    0.000    0.000    0.000    0.000    0.000    0.000 
#    0.000    0.000    0.000    0.000    0.000    0.000 
#
# Total GULP energy -111723.547557 kJ/mol
# GULP energy per Si atom -5586.177378 kJ/mol
# Density = 2.401873 g / cm^3
# Si number density = 24.073522 Si / 1000 Ang^3
#
#
#
# Elastic Constant Matrix: (Units=GPa)
#
#
# Indices 1 2 3 4 5 6 
#
# 1 54.8792 13.4966 43.3985 0.0000 0.0000 0.0000
# 2 13.4966 137.8021 75.3571 0.0000 0.0000 0.0000
# 3 43.3985 75.3571 216.6022 0.0000 0.0000 0.0000
# 4 0.0000 0.0000 0.0000 49.8041 0.0000 0.0000
# 5 0.0000 0.0000 0.0000 0.0000 30.9766 0.0000
# 6 0.0000 0.0000 0.0000 0.0000 0.0000 43.4434
#
#
#
# Elastic Compliance Matrix: (Units=1/GPa)
#
#
# Indices 1 2 3 4 5 6 
#
# 1 0.021663 0.000311 -0.004449 0.000000 0.000000 0.000000
# 2 0.000311 0.008966 -0.003182 0.000000 0.000000 0.000000
# 3 -0.004449 -0.003182 0.006615 0.000000 0.000000 0.000000
# 4 0.000000 0.000000 0.000000 0.020079 0.000000 0.000000
# 5 0.000000 0.000000 0.000000 0.000000 0.032282 0.000000
# 6 0.000000 0.000000 0.000000 0.000000 0.000000 0.023018
#
#
# Mechanical properties :
#
#
# Convention : Reuss Voigt Hill
#
# Bulk Modulus (GPa) = 44.23635 74.86533 59.55084
# Shear Modulus (GPa) = 37.09246 43.31356 40.20301
#
# Velocity S-wave (km/s) = 3.92956 4.24632 4.09101
# Velocity P-wave (km/s) = 6.24532 7.43020 6.86337
#
# Compressibility (1/GPa) = 0.02260585
#
# Stress axis : x y z
#
# Youngs Moduli (GPa) = 46.16092 111.52940 151.17089
#
# Poissons Ratio (x) = -0.03469 0.67251
# Poissons Ratio (y) = -0.01436 0.48098
# Poissons Ratio (z) = 0.20535 0.35485
#
# Static dielectric constant tensor:
#      x y z
#    x 1.947930 0.000000 0.000000 
#    y 0.000000 2.083850 0.000000 
#    z 0.000000 0.000000 1.955930 
# 
# From -- ./inp_files/4915.got.cif
#   From: 2010.05.17/outbox.cif.g08.bks.cpg/sg39_3_cif.got.tgz:4915.got - 2010.06.03 18:22:40.
