data_PCOD9361059
_publ_section_title
;
Structure prediction by ZEFSAII (Michael W. Deem and Ramdas Pophale) SiO2 
 PCOD9361059
Probable space group: A B M 2
;
_chemical_formula_sum "Si O2"
_cell_formula_units_Z 64
_cell_length_a 16.092714
_cell_length_b 18.540274
_cell_length_c 10.982750
_cell_angle_alpha 90.000000
_cell_angle_beta 90.000000
_cell_angle_gamma 90.000000
_cell_volume 3276.849829
_symmetry_space_group_name_H-M "A B M 2"
_symmetry_group_IT_number 39
_symmetry_cell_setting 'orthorhombic'
loop_
_space_group_symop_operation_xyz
x,y,z
-x,-y,z
-x,1/2+y,z
x,1/2-y,z
x,1/2+y,1/2+z
-x,1/2-y,1/2+z
-x,y,1/2+z
x,-y,1/2+z
loop_
_atom_site_type_symbol
_atom_site_label
_atom_site_fract_x
_atom_site_fract_y
_atom_site_fract_z
Si Si1 0.791539 0.918041 0.239980
Si Si2 0.232347 0.077619 0.653849
Si Si3 0.653232 0.953878 0.437592
Si Si4 0.650154 0.880773 0.852392
Si Si5 0.480873 0.416802 0.257395
Si Si6 0.656504 0.669395 0.110177
Si Si7 0.073607 0.336068 0.586859
Si Si8 0.957789 0.163474 0.815736
O O1 0.726163 0.924474 0.350364
O O2 0.742985 0.869618 0.142124
O O3 0.875293 0.880060 0.280828
O O4 0.802650 0.999338 0.191607
O O5 0.313604 0.061862 0.571275
O O6 0.267957 0.120260 0.769922
O O7 0.160840 0.122241 0.587795
O O8 0.567546 0.920906 0.387667
O O9 0.647120 0.038763 0.410983
O O10 0.566660 0.875145 0.773645
O O11 0.649316 0.828681 0.965671
O O12 0.500000 0.500000 0.221071
O O13 0.417587 0.378611 0.166027
O O14 0.654255 0.750000 0.162417
O O15 0.087784 0.250000 0.588644
O O16 0.025345 0.351927 0.459420
O O17 0.025485 0.355045 0.712024
O O18 0.943884 0.250000 0.806356
#
# Coordination Sequence:
#
# PCOD9361059 Si02
#       8
#     8   8   8   8   8   8   8   8
#     4  10  20  38  63  88 117 158 203 249 303 369
#     4  11  21  38  64  92 123 158 206 257 307 374
#     4   9  18  37  59  88 116 152 206 251 295 359
#     4  10  22  35  58  87 121 159 197 257 308 360
#     4   9  21  37  62  85 113 162 211 253 301 360
#     4  11  23  38  57  88 126 157 201 256 310 370
#     4  10  23  42  65  92 125 163 211 258 315 380
#     4  10  21  41  64  89 122 164 207 257 312 378
#
# _framework density 19.530954000000001
#
# number of rings (size 3 to 8) (size 9 to 14) (size 15 to 20)
#    0.000    2.000    2.500    1.125    1.750    3.000 
#    0.000    2.500    0.000    0.000    0.000    0.000 
#    0.000    0.000    0.000    0.000    0.000    0.000 
#
# Total GULP energy -178532.366351 kJ/mol
# GULP energy per Si atom -5579.136448 kJ/mol
# Density = 1.948650 g / cm^3
# Si number density = 19.530954 Si / 1000 Ang^3
#
#
#
# Elastic Constant Matrix: (Units=GPa)
#
#
# Indices 1 2 3 4 5 6 
#
# 1 64.6997 22.4563 24.6271 0.0000 0.0000 0.0000
# 2 22.4563 33.9154 17.1741 0.0000 0.0000 0.0000
# 3 24.6271 17.1741 92.2189 0.0000 0.0000 0.0000
# 4 0.0000 0.0000 0.0000 17.3927 0.0000 0.0000
# 5 0.0000 0.0000 0.0000 0.0000 26.2184 0.0000
# 6 0.0000 0.0000 0.0000 0.0000 0.0000 3.3717
#
#
#
# Elastic Compliance Matrix: (Units=1/GPa)
#
#
# Indices 1 2 3 4 5 6 
#
# 1 0.020953 -0.012189 -0.003325 0.000000 0.000000 0.000000
# 2 -0.012189 0.039646 -0.004128 0.000000 0.000000 0.000000
# 3 -0.003325 -0.004128 0.012501 0.000000 0.000000 0.000000
# 4 0.000000 0.000000 0.000000 0.057495 0.000000 0.000000
# 5 0.000000 0.000000 0.000000 0.000000 0.038141 0.000000
# 6 0.000000 0.000000 0.000000 0.000000 0.000000 0.296583
#
#
# Mechanical properties :
#
#
# Convention : Reuss Voigt Hill
#
# Bulk Modulus (GPa) = 29.57381 35.48324 32.52852
# Shear Modulus (GPa) = 9.69224 17.83500 13.76362
#
# Velocity S-wave (km/s) = 2.23008 3.02514 2.65751
# Velocity P-wave (km/s) = 4.66968 5.51445 5.10955
#
# Compressibility (1/GPa) = 0.03381370
#
# Stress axis : x y z
#
# Youngs Moduli (GPa) = 47.72695 25.22292 79.99601
#
# Poissons Ratio (x) = 0.30745 0.26601
# Poissons Ratio (y) = 0.58176 0.33025
# Poissons Ratio (z) = 0.15871 0.10413
#
# Static dielectric constant tensor:
#      x y z
#    x 1.649980 0.000000 0.000000 
#    y 0.000000 1.669260 0.000000 
#    z 0.000000 0.000000 1.741740 
# 
# From -- ./inp_files/6653.got.cif
#   From: 2010.05.17/outbox.cif.g08.bks.cpg/sg39_4_cif.got.tgz:6653.got - 2010.06.03 18:22:40.
