data_PCOD9361340
_publ_section_title
;
Structure prediction by ZEFSAII (Michael W. Deem and Ramdas Pophale) SiO2 
 PCOD9361340
Probable space group: A B M 2
;
_chemical_formula_sum "Si O2"
_cell_formula_units_Z 64
_cell_length_a 10.264692
_cell_length_b 14.889668
_cell_length_c 18.882055
_cell_angle_alpha 90.000000
_cell_angle_beta 90.000000
_cell_angle_gamma 90.000000
_cell_volume 2885.892803
_symmetry_space_group_name_H-M "A B M 2"
_symmetry_group_IT_number 39
_symmetry_cell_setting 'orthorhombic'
loop_
_space_group_symop_operation_xyz
x,y,z
-x,-y,z
-x,1/2+y,z
x,1/2-y,z
x,1/2+y,1/2+z
-x,1/2-y,1/2+z
-x,y,1/2+z
x,-y,1/2+z
loop_
_atom_site_type_symbol
_atom_site_label
_atom_site_fract_x
_atom_site_fract_y
_atom_site_fract_z
Si Si1 0.177065 0.846764 0.669970
Si Si2 0.445370 0.643200 0.394823
Si Si3 0.040771 0.103669 0.783405
Si Si4 0.032071 0.898751 0.061470
Si Si5 0.659890 0.854788 0.741563
Si Si6 0.287878 0.470879 0.621579
Si Si7 0.889169 0.845610 0.412555
Si Si8 0.319479 0.019560 0.452224
O O1 0.244073 0.750000 0.674578
O O2 0.069181 0.853272 0.731955
O O3 0.089060 0.855156 0.599732
O O4 0.265889 0.934598 0.661373
O O5 0.446083 0.750000 0.410289
O O6 0.430359 0.631259 0.310287
O O7 0.566559 0.587085 0.425985
O O8 0.330224 0.583683 0.429017
O O9 0.191063 0.119827 0.763871
O O10 0.009813 0.141755 0.860914
O O11 0.000000 0.000000 0.780537
O O12 0.149526 0.917110 0.116137
O O13 0.073662 0.843603 0.994405
O O14 0.000000 0.000000 0.036647
O O15 0.659179 0.750000 0.724044
O O16 0.622726 0.911695 0.672406
O O17 0.321241 0.478899 0.538230
O O18 0.822673 0.750000 0.394221
O O19 0.801029 0.934224 0.412117
#
# Coordination Sequence:
#
# PCOD9361340 Si02
#       8
#     8   8   8   8   8   8   8   8
#     4  11  20  33  55  87 132 174 207 255 312 384
#     4  10  23  45  70  95 121 161 217 277 330 382
#     4  12  21  36  56  88 136 175 209 258 317 387
#     4   9  18  34  51  81 124 171 214 255 311 379
#     4  11  22  38  64  96 128 168 216 264 322 389
#     4  10  21  38  60  91 123 168 214 258 326 387
#     4  11  22  34  57  92 126 170 216 260 321 395
#     4  10  23  44  68  91 125 166 213 275 330 385
#
# _framework density 22.176846999999999
#
# number of rings (size 3 to 8) (size 9 to 14) (size 15 to 20)
#    0.000    1.500    2.500    3.375    0.000    5.000 
#    0.000    3.750    0.000    0.000    0.000    0.000 
#    0.000    0.000    0.000    0.000    0.000    0.000 
#
# Total GULP energy -178550.551944 kJ/mol
# GULP energy per Si atom -5579.704748 kJ/mol
# Density = 2.212637 g / cm^3
# Si number density = 22.176847 Si / 1000 Ang^3
#
#
#
# Elastic Constant Matrix: (Units=GPa)
#
#
# Indices 1 2 3 4 5 6 
#
# 1 23.1166 1.4205 10.5622 0.0000 0.0000 0.0000
# 2 1.4205 124.0407 47.5273 0.0000 0.0000 0.0000
# 3 10.5622 47.5273 58.8483 0.0000 0.0000 0.0000
# 4 0.0000 0.0000 0.0000 29.5420 0.0000 0.0000
# 5 0.0000 0.0000 0.0000 0.0000 19.7892 0.0000
# 6 0.0000 0.0000 0.0000 0.0000 0.0000 23.7895
#
#
#
# Elastic Compliance Matrix: (Units=1/GPa)
#
#
# Indices 1 2 3 4 5 6 
#
# 1 0.048471 0.004023 -0.011949 0.000000 0.000000 0.000000
# 2 0.004023 0.012008 -0.010420 0.000000 0.000000 0.000000
# 3 -0.011949 -0.010420 0.027553 0.000000 0.000000 0.000000
# 4 0.000000 0.000000 0.000000 0.033850 0.000000 0.000000
# 5 0.000000 0.000000 0.000000 0.000000 0.050533 0.000000
# 6 0.000000 0.000000 0.000000 0.000000 0.000000 0.042035
#
#
# Mechanical properties :
#
#
# Convention : Reuss Voigt Hill
#
# Bulk Modulus (GPa) = 19.47769 36.11394 27.79582
# Shear Modulus (GPa) = 18.63882 24.39051 21.51466
#
# Velocity S-wave (km/s) = 2.90222 3.31995 3.11809
# Velocity P-wave (km/s) = 4.47576 5.56920 5.05215
#
# Compressibility (1/GPa) = 0.05134079
#
# Stress axis : x y z
#
# Youngs Moduli (GPa) = 20.63071 83.27449 36.29330
#
# Poissons Ratio (x) = -0.33504 0.43367
# Poissons Ratio (y) = -0.08300 0.37819
# Poissons Ratio (z) = 0.24652 0.86776
#
# Static dielectric constant tensor:
#      x y z
#    x 1.912990 0.000000 0.000000 
#    y 0.000000 1.806640 0.000000 
#    z 0.000000 0.000000 1.814330 
# 
# From -- ./inp_files/12382.got.cif
#   From: 2010.05.17/outbox.cif.g08.bks.cpg/sg39_7_cif.got.tgz:12382.got - 2010.06.03 18:22:40.
