data_PCOD9361790
_publ_section_title
;
Structure prediction by ZEFSAII (Michael W. Deem and Ramdas Pophale) SiO2 
 PCOD9361790
Probable space group: A B M 2
;
_chemical_formula_sum "Si O2"
_cell_formula_units_Z 40
_cell_length_a 16.836800
_cell_length_b 10.369026
_cell_length_c 9.571255
_cell_angle_alpha 90.000000
_cell_angle_beta 90.000000
_cell_angle_gamma 90.000000
_cell_volume 1670.961346
_symmetry_space_group_name_H-M "A B M 2"
_symmetry_group_IT_number 39
_symmetry_cell_setting 'orthorhombic'
loop_
_space_group_symop_operation_xyz
x,y,z
-x,-y,z
-x,1/2+y,z
x,1/2-y,z
x,1/2+y,1/2+z
-x,1/2-y,1/2+z
-x,y,1/2+z
x,-y,1/2+z
loop_
_atom_site_type_symbol
_atom_site_label
_atom_site_fract_x
_atom_site_fract_y
_atom_site_fract_z
Si Si1 0.902304 0.750000 0.928800
Si Si2 0.676820 0.975472 0.375415
Si Si3 0.774773 0.396118 0.144348
Si Si4 0.939541 0.250000 0.754354
Si Si5 0.905688 0.974440 0.452664
Si Si6 0.437069 0.250000 0.269687
Si Si7 0.596583 0.750000 0.943181
O O1 0.863416 0.610495 0.919613
O O2 0.971599 0.750000 0.814633
O O3 0.935035 0.750000 0.088865
O O4 0.644172 0.116442 0.419715
O O5 0.722838 0.910470 0.503286
O O6 0.608738 0.877452 0.324569
O O7 0.736750 0.001261 0.248017
O O8 0.767901 0.250000 0.197385
O O9 0.864060 0.419388 0.089575
O O10 0.900553 0.374269 0.826483
O O11 0.000000 0.000000 0.474640
O O12 0.524797 0.250000 0.332838
O O13 0.435527 0.250000 0.101833
#
# Coordination Sequence:
#
# PCOD9361790 Si02
#       7
#     4   8   8   4   8   4   4
#     4  10  24  42  65  96 133 174 239 306 367 439
#     4  12  27  48  76 111 152 200 255 297 368 453
#     4  12  26  48  75 104 151 204 246 316 382 435
#     4  10  22  44  64  92 135 180 228 306 375 437
#     4  10  24  44  70 103 140 190 253 311 374 441
#     4  12  28  48  79 114 160 197 242 302 357 441
#     4  12  28  48  78 118 154 199 247 292 363 447
#
# _framework density 23.938317000000001
#
# number of rings (size 3 to 8) (size 9 to 14) (size 15 to 20)
#    0.000    0.800    5.000    0.600    5.600   10.400 
#    0.000    0.000    0.000    0.000    0.000    0.000 
#    0.000    0.000    0.000    0.000    0.000    0.000 
#
# Total GULP energy -112090.263336 kJ/mol
# GULP energy per Si atom -5604.513167 kJ/mol
# Density = 2.388383 g / cm^3
# Si number density = 23.938317 Si / 1000 Ang^3
#
#
#
# Elastic Constant Matrix: (Units=GPa)
#
#
# Indices 1 2 3 4 5 6 
#
# 1 84.1603 17.6444 27.9190 0.0000 0.0000 0.0000
# 2 17.6444 160.2798 11.9696 0.0000 0.0000 0.0000
# 3 27.9190 11.9696 116.1276 0.0000 0.0000 0.0000
# 4 0.0000 0.0000 0.0000 47.7756 0.0000 0.0000
# 5 0.0000 0.0000 0.0000 0.0000 32.8432 0.0000
# 6 0.0000 0.0000 0.0000 0.0000 0.0000 39.0541
#
#
#
# Elastic Compliance Matrix: (Units=1/GPa)
#
#
# Indices 1 2 3 4 5 6 
#
# 1 0.013145 -0.001220 -0.003034 0.000000 0.000000 0.000000
# 2 -0.001220 0.006401 -0.000366 0.000000 0.000000 0.000000
# 3 -0.003034 -0.000366 0.009378 0.000000 0.000000 0.000000
# 4 0.000000 0.000000 0.000000 0.020931 0.000000 0.000000
# 5 0.000000 0.000000 0.000000 0.000000 0.030448 0.000000
# 6 0.000000 0.000000 0.000000 0.000000 0.000000 0.025605
#
#
# Mechanical properties :
#
#
# Convention : Reuss Voigt Hill
#
# Bulk Modulus (GPa) = 50.80893 52.84821 51.82857
# Shear Modulus (GPa) = 41.08090 44.13689 42.60890
#
# Velocity S-wave (km/s) = 4.14710 4.29858 4.22352
# Velocity P-wave (km/s) = 6.64848 6.83826 6.74404
#
# Compressibility (1/GPa) = 0.01968158
#
# Stress axis : x y z
#
# Youngs Moduli (GPa) = 76.07702 156.23049 106.62692
#
# Poissons Ratio (x) = 0.19067 0.32355
# Poissons Ratio (y) = 0.09285 0.03906
# Poissons Ratio (z) = 0.23085 0.05723
#
# Static dielectric constant tensor:
#      x y z
#    x 1.898940 0.000000 0.000000 
#    y 0.000000 1.925260 0.000000 
#    z 0.000000 0.000000 1.880120 
# 
# From -- ./inp_files/3652.got.cif
#   From: 2010.05.17/outbox.cif.g08.bks.cpg/sg39_2_cif.got.tgz:3652.got - 2010.06.03 18:22:40.
