data_PCOD9361384
_publ_section_title
;
Structure prediction by ZEFSAII (Michael W. Deem and Ramdas Pophale) SiO2 
 PCOD9361384
Probable space group: A B M 2
;
_chemical_formula_sum "Si O2"
_cell_formula_units_Z 64
_cell_length_a 15.588240
_cell_length_b 17.427815
_cell_length_c 11.953968
_cell_angle_alpha 90.000000
_cell_angle_beta 90.000000
_cell_angle_gamma 90.000000
_cell_volume 3247.522089
_symmetry_space_group_name_H-M "A B M 2"
_symmetry_group_IT_number 39
_symmetry_cell_setting 'orthorhombic'
loop_
_space_group_symop_operation_xyz
x,y,z
-x,-y,z
-x,1/2+y,z
x,1/2-y,z
x,1/2+y,1/2+z
-x,1/2-y,1/2+z
-x,y,1/2+z
x,-y,1/2+z
loop_
_atom_site_type_symbol
_atom_site_label
_atom_site_fract_x
_atom_site_fract_y
_atom_site_fract_z
Si Si1 0.250977 0.661188 0.504380
Si Si2 0.083498 0.400479 0.880678
Si Si3 0.757354 0.424627 0.738260
Si Si4 0.894963 0.582216 0.421880
Si Si5 0.606383 0.417261 0.912279
Si Si6 0.179660 0.094493 0.668434
Si Si7 0.413738 0.597835 0.372455
Si Si8 0.647777 0.338530 0.145405
O O1 0.251324 0.750000 0.530890
O O2 0.164213 0.640366 0.437744
O O3 0.249160 0.613875 0.618543
O O4 0.336804 0.641619 0.434573
O O5 0.092326 0.490545 0.909686
O O6 0.098564 0.392415 0.748217
O O7 0.987915 0.378161 0.916621
O O8 0.835023 0.395939 0.817256
O O9 0.672239 0.406674 0.809950
O O10 0.776397 0.514830 0.712110
O O11 0.849097 0.592454 0.540391
O O12 0.596842 0.509602 0.911072
O O13 0.511922 0.381340 0.898689
O O14 0.641763 0.382764 0.027599
O O15 0.252792 0.157841 0.681216
O O16 0.402082 0.614048 0.240651
O O17 0.619234 0.250000 0.138266
#
# Coordination Sequence:
#
# PCOD9361384 Si02
#       8
#     8   8   8   8   8   8   8   8
#     4  12  25  43  63  92 137 180 217 272 341 417
#     4  10  22  36  65  99 121 168 222 271 335 393
#     4  11  22  41  66  96 127 172 224 276 337 402
#     4  10  21  38  66  98 128 160 224 289 325 388
#     4  11  25  43  72  99 131 170 228 286 339 405
#     4  11  20  40  68  91 131 171 219 279 332 400
#     4  11  25  44  70  99 129 175 230 280 342 414
#     4  12  25  43  67  96 135 179 224 279 343 412
#
# _framework density 19.707333999999999
#
# number of rings (size 3 to 8) (size 9 to 14) (size 15 to 20)
#    0.000    1.000    5.000    1.875    3.500    3.500 
#    0.000    1.250    0.000    0.000    0.000    0.000 
#    0.000    0.000    0.000    0.000    0.000    0.000 
#
# Total GULP energy -178627.241927 kJ/mol
# GULP energy per Si atom -5582.101310 kJ/mol
# Density = 1.966248 g / cm^3
# Si number density = 19.707334 Si / 1000 Ang^3
#
#
#
# Elastic Constant Matrix: (Units=GPa)
#
#
# Indices 1 2 3 4 5 6 
#
# 1 128.3751 8.9865 32.1958 0.0000 0.0000 0.0000
# 2 8.9865 58.6291 18.8061 0.0000 0.0000 0.0000
# 3 32.1958 18.8061 120.4246 0.0000 0.0000 0.0000
# 4 0.0000 0.0000 0.0000 -9.4873 0.0000 0.0000
# 5 0.0000 0.0000 0.0000 0.0000 14.6420 0.0000
# 6 0.0000 0.0000 0.0000 0.0000 0.0000 1.6401
#
#
#
# Elastic Compliance Matrix: (Units=1/GPa)
#
#
# Indices 1 2 3 4 5 6 
#
# 1 0.008369 -0.000595 -0.002145 0.000000 0.000000 0.000000
# 2 -0.000595 0.017998 -0.002652 0.000000 0.000000 0.000000
# 3 -0.002145 -0.002652 0.009291 0.000000 0.000000 0.000000
# 4 0.000000 0.000000 0.000000 -0.105404 0.000000 0.000000
# 5 0.000000 0.000000 0.000000 0.000000 0.068297 0.000000
# 6 0.000000 0.000000 0.000000 0.000000 0.000000 0.609729
#
#
# Mechanical properties :
#
#
# Convention : Reuss Voigt Hill
#
# Bulk Modulus (GPa) = 40.19869 47.48951 43.84410
# Shear Modulus (GPa) = 7.96997 17.85498 12.91247
#
# Velocity S-wave (km/s) = 2.01319 3.01326 2.56249
# Velocity P-wave (km/s) = 5.08390 6.02130 5.57234
#
# Compressibility (1/GPa) = 0.02487643
#
# Stress axis : x y z
#
# Youngs Moduli (GPa) = 119.48611 55.56136 107.62628
#
# Poissons Ratio (x) = 0.03305 0.23082
# Poissons Ratio (y) = 0.07108 0.28539
# Poissons Ratio (z) = 0.25625 0.14733
#
# Static dielectric constant tensor:
#      x y z
#    x 1.764350 0.000000 0.000000 
#    y 0.000000 1.695660 0.000000 
#    z 0.000000 0.000000 1.671620 
# 
# From -- ./inp_files/6670.got.cif
#   From: 2010.05.17/outbox.cif.g08.bks.cpg/sg39_4_cif.got.tgz:6670.got - 2010.06.03 18:22:40.
