data_PCOD9361801
_publ_section_title
;
Structure prediction by ZEFSAII (Michael W. Deem and Ramdas Pophale) SiO2 
 PCOD9361801
Probable space group: A B M 2
;
_chemical_formula_sum "Si O2"
_cell_formula_units_Z 64
_cell_length_a 14.815116
_cell_length_b 21.839210
_cell_length_c 9.088226
_cell_angle_alpha 90.000000
_cell_angle_beta 90.000000
_cell_angle_gamma 90.000000
_cell_volume 2940.499426
_symmetry_space_group_name_H-M "A B M 2"
_symmetry_group_IT_number 39
_symmetry_cell_setting 'orthorhombic'
loop_
_space_group_symop_operation_xyz
x,y,z
-x,-y,z
-x,1/2+y,z
x,1/2-y,z
x,1/2+y,1/2+z
-x,1/2-y,1/2+z
-x,y,1/2+z
x,-y,1/2+z
loop_
_atom_site_type_symbol
_atom_site_label
_atom_site_fract_x
_atom_site_fract_y
_atom_site_fract_z
Si Si1 0.843983 0.004187 0.771980
Si Si2 0.467966 0.320950 0.828563
Si Si3 0.713598 0.993956 0.511938
Si Si4 0.696856 0.638582 0.014502
Si Si5 0.241870 0.178288 0.339004
Si Si6 0.941853 0.628935 0.234312
Si Si7 0.612996 0.377561 0.031526
Si Si8 0.886455 0.127872 0.398538
O O1 0.802501 0.987891 0.614154
O O2 0.918149 0.057150 0.765075
O O3 0.875162 0.943464 0.854735
O O4 0.752949 0.026482 0.854532
O O5 0.496096 0.250000 0.814597
O O6 0.387915 0.327228 0.947570
O O7 0.547784 0.362250 0.894809
O O8 0.429411 0.346107 0.674790
O O9 0.685372 0.064877 0.505700
O O10 0.634062 0.948821 0.558749
O O11 0.785432 0.653371 0.915340
O O12 0.717579 0.654978 0.182919
O O13 0.256853 0.250000 0.345251
O O14 0.136141 0.163459 0.324080
O O15 0.290896 0.149776 0.480375
O O16 0.040006 0.650624 0.283463
O O17 0.927505 0.635664 0.060753
#
# Coordination Sequence:
#
# PCOD9361801 Si02
#       8
#     8   8   8   8   8   8   8   8
#     4  11  19  37  60  94 129 166 207 263 330 398
#     4  12  26  44  67  97 126 169 223 268 328 403
#     4  11  21  40  67  96 130 164 210 268 339 399
#     4  10  22  45  66  95 129 173 219 274 335 396
#     4  11  22  42  67  92 130 178 222 276 333 392
#     4  11  22  38  57  93 130 171 224 265 327 391
#     4  12  25  43  70  96 131 166 217 283 334 406
#     4  10  23  35  59  90 130 170 216 268 326 390
#
# _framework density 21.765011000000001
#
# number of rings (size 3 to 8) (size 9 to 14) (size 15 to 20)
#    0.000    1.000    5.000    4.125    1.750    2.500 
#    0.000    4.375    0.000    0.000    0.000    0.000 
#    0.000    0.000    0.000    0.000    0.000    0.000 
#
# Total GULP energy -178829.531352 kJ/mol
# GULP energy per Si atom -5588.422855 kJ/mol
# Density = 2.171547 g / cm^3
# Si number density = 21.765011 Si / 1000 Ang^3
#
#
#
# Elastic Constant Matrix: (Units=GPa)
#
#
# Indices 1 2 3 4 5 6 
#
# 1 55.6838 8.6763 2.1870 0.0000 0.0000 0.0000
# 2 8.6763 50.3646 4.1380 0.0000 0.0000 0.0000
# 3 2.1870 4.1380 39.8377 0.0000 0.0000 0.0000
# 4 0.0000 0.0000 0.0000 20.9861 0.0000 0.0000
# 5 0.0000 0.0000 0.0000 0.0000 49.5148 0.0000
# 6 0.0000 0.0000 0.0000 0.0000 0.0000 4.8426
#
#
#
# Elastic Compliance Matrix: (Units=1/GPa)
#
#
# Indices 1 2 3 4 5 6 
#
# 1 0.018473 -0.003126 -0.000689 0.000000 0.000000 0.000000
# 2 -0.003126 0.020555 -0.001963 0.000000 0.000000 0.000000
# 3 -0.000689 -0.001963 0.025344 0.000000 0.000000 0.000000
# 4 0.000000 0.000000 0.000000 0.047651 0.000000 0.000000
# 5 0.000000 0.000000 0.000000 0.000000 0.020196 0.000000
# 6 0.000000 0.000000 0.000000 0.000000 0.000000 0.206500
#
#
# Mechanical properties :
#
#
# Convention : Reuss Voigt Hill
#
# Bulk Modulus (GPa) = 18.93432 19.54319 19.23876
# Shear Modulus (GPa) = 13.59141 23.79436 18.69289
#
# Velocity S-wave (km/s) = 2.50163 3.31000 2.93379
# Velocity P-wave (km/s) = 4.13068 4.85869 4.50940
#
# Compressibility (1/GPa) = 0.05281414
#
# Stress axis : x y z
#
# Youngs Moduli (GPa) = 54.13409 48.64995 39.45763
#
# Poissons Ratio (x) = 0.15206 0.02720
# Poissons Ratio (y) = 0.16920 0.07747
# Poissons Ratio (z) = 0.03732 0.09552
#
# Static dielectric constant tensor:
#      x y z
#    x 1.814120 0.000000 0.000000 
#    y 0.000000 1.806720 0.000000 
#    z 0.000000 0.000000 1.787770 
# 
# From -- ./inp_files/3527.got.cif
#   From: 2010.05.17/outbox.cif.g08.bks.cpg/sg39_2_cif.got.tgz:3527.got - 2010.06.03 18:22:40.
