data_PCOD9361537
_publ_section_title
;
Structure prediction by ZEFSAII (Michael W. Deem and Ramdas Pophale) SiO2 
 PCOD9361537
Probable space group: A B M 2
;
_chemical_formula_sum "Si O2"
_cell_formula_units_Z 56
_cell_length_a 5.074337
_cell_length_b 14.692130
_cell_length_c 34.490581
_cell_angle_alpha 90.000000
_cell_angle_beta 90.000000
_cell_angle_gamma 90.000000
_cell_volume 2571.370038
_symmetry_space_group_name_H-M "A B M 2"
_symmetry_group_IT_number 39
_symmetry_cell_setting 'orthorhombic'
loop_
_space_group_symop_operation_xyz
x,y,z
-x,-y,z
-x,1/2+y,z
x,1/2-y,z
x,1/2+y,1/2+z
-x,1/2-y,1/2+z
-x,y,1/2+z
x,-y,1/2+z
loop_
_atom_site_type_symbol
_atom_site_label
_atom_site_fract_x
_atom_site_fract_y
_atom_site_fract_z
Si Si1 0.736810 0.250000 0.336421
Si Si2 0.097305 0.096597 0.221466
Si Si3 0.766900 0.750000 0.281241
Si Si4 0.738596 0.562189 0.884351
Si Si5 0.420330 0.639434 0.467602
Si Si6 0.575329 0.147081 0.175294
Si Si7 0.920498 0.640946 0.515635
Si Si8 0.244940 0.440282 0.597439
O O1 0.471507 0.250000 0.311237
O O2 0.759662 0.157569 0.361499
O O3 0.970430 0.250000 0.306008
O O4 0.221492 0.161809 0.253719
O O5 0.330249 0.086076 0.189726
O O6 0.834740 0.137860 0.201945
O O7 0.000000 0.000000 0.237311
O O8 0.500000 0.500000 0.868688
O O9 0.662136 0.591788 0.928022
O O10 0.000000 0.500000 0.883522
O O11 0.414813 0.750000 0.462043
O O12 0.706454 0.612661 0.483418
O O13 0.208853 0.615673 0.500739
O O14 0.474433 0.250000 0.177647
O O15 0.664987 0.125680 0.131796
O O16 0.907532 0.750000 0.517375
O O17 0.852346 0.604794 0.557820
O O18 0.500000 0.500000 0.588272
O O19 0.000000 0.500000 0.612253
#
# Coordination Sequence:
#
# PCOD9361537 Si02
#       8
#     4   8   4   8   8   8   8   8
#     4  12  28  50  74 104 153 174 229 286 344 426
#     4  12  25  45  73 106 136 175 230 282 334 413
#     4  12  26  48  76 106 139 186 213 280 358 412
#     4  12  26  45  74 106 139 188 236 281 349 414
#     4  10  21  41  66  94 133 178 230 289 339 402
#     4  12  23  44  69  96 136 180 234 279 339 408
#     4  10  22  39  62  91 131 181 228 281 347 400
#     4  12  25  39  59  92 135 178 228 290 344 391
#
# _framework density 21.778272000000001
#
# number of rings (size 3 to 8) (size 9 to 14) (size 15 to 20)
#    0.000    0.571    2.143    6.429    0.000    5.143 
#    0.000    4.286    0.000    0.000    0.000    0.000 
#    0.000    0.000    0.000    0.000    0.000    0.000 
#
# Total GULP energy -156808.846053 kJ/mol
# GULP energy per Si atom -5600.315930 kJ/mol
# Density = 2.172870 g / cm^3
# Si number density = 21.778272 Si / 1000 Ang^3
#
#
#
# Elastic Constant Matrix: (Units=GPa)
#
#
# Indices 1 2 3 4 5 6 
#
# 1 86.0561 19.7014 -12.3602 0.0000 0.0000 0.0000
# 2 19.7014 118.8285 36.9720 0.0000 0.0000 0.0000
# 3 -12.3602 36.9720 79.3548 0.0000 0.0000 0.0000
# 4 0.0000 0.0000 0.0000 12.4455 0.0000 0.0000
# 5 0.0000 0.0000 0.0000 0.0000 34.1280 0.0000
# 6 0.0000 0.0000 0.0000 0.0000 0.0000 26.7141
#
#
#
# Elastic Compliance Matrix: (Units=1/GPa)
#
#
# Indices 1 2 3 4 5 6 
#
# 1 0.012862 -0.003223 0.003505 0.000000 0.000000 0.000000
# 2 -0.003223 0.010650 -0.005464 0.000000 0.000000 0.000000
# 3 0.003505 -0.005464 0.015693 0.000000 0.000000 0.000000
# 4 0.000000 0.000000 0.000000 0.080351 0.000000 0.000000
# 5 0.000000 0.000000 0.000000 0.000000 0.029301 0.000000
# 6 0.000000 0.000000 0.000000 0.000000 0.000000 0.037433
#
#
# Mechanical properties :
#
#
# Convention : Reuss Voigt Hill
#
# Bulk Modulus (GPa) = 34.67302 41.42953 38.05127
# Shear Modulus (GPa) = 24.24038 30.65258 27.44648
#
# Velocity S-wave (km/s) = 3.33986 3.75572 3.55388
# Velocity P-wave (km/s) = 5.55233 6.15401 5.86090
#
# Compressibility (1/GPa) = 0.02884087
#
# Stress axis : x y z
#
# Youngs Moduli (GPa) = 77.75101 93.89802 63.72184
#
# Poissons Ratio (x) = 0.30262 -0.22334
# Poissons Ratio (y) = 0.25058 0.34817
# Poissons Ratio (z) = -0.27251 0.51304
#
# Static dielectric constant tensor:
#      x y z
#    x 1.752980 0.000000 0.000000 
#    y 0.000000 1.874110 0.000000 
#    z 0.000000 0.000000 1.757340 
# 
# From -- ./inp_files/17322.got.cif
#   From: 2010.05.17/outbox.cif.g08.bks.cpg/sg39_9_cif.got.tgz:17322.got - 2010.06.03 18:22:40.
