data_PCOD9361700
_publ_section_title
;
Structure prediction by ZEFSAII (Michael W. Deem and Ramdas Pophale) SiO2 
 PCOD9361700
Probable space group: A B M 2
;
_chemical_formula_sum "Si O2"
_cell_formula_units_Z 64
_cell_length_a 11.978422
_cell_length_b 14.971074
_cell_length_c 16.927534
_cell_angle_alpha 90.000000
_cell_angle_beta 90.000000
_cell_angle_gamma 90.000000
_cell_volume 3035.612000
_symmetry_space_group_name_H-M "A B M 2"
_symmetry_group_IT_number 39
_symmetry_cell_setting 'orthorhombic'
loop_
_space_group_symop_operation_xyz
x,y,z
-x,-y,z
-x,1/2+y,z
x,1/2-y,z
x,1/2+y,1/2+z
-x,1/2-y,1/2+z
-x,y,1/2+z
x,-y,1/2+z
loop_
_atom_site_type_symbol
_atom_site_label
_atom_site_fract_x
_atom_site_fract_y
_atom_site_fract_z
Si Si1 0.265808 0.355143 0.302480
Si Si2 0.040386 0.400408 0.224173
Si Si3 0.642719 0.142556 0.141767
Si Si4 0.118562 0.024356 0.921603
Si Si5 0.610039 0.140807 0.648291
Si Si6 0.801641 0.646775 0.786328
Si Si7 0.834073 0.853182 0.065115
Si Si8 0.241783 0.646561 0.975068
O O1 0.247160 0.250000 0.288347
O O2 0.144509 0.396982 0.285135
O O3 0.349780 0.386503 0.235533
O O4 0.308757 0.362266 0.392004
O O5 0.091986 0.360167 0.144138
O O6 0.000000 0.500000 0.206000
O O7 0.929381 0.352024 0.254863
O O8 0.636739 0.250000 0.150922
O O9 0.515948 0.108938 0.137893
O O10 0.720284 0.114308 0.215415
O O11 0.697477 0.127338 0.056708
O O12 0.196417 0.076387 0.858537
O O13 0.155241 0.931648 0.960826
O O14 0.111893 0.092017 0.994808
O O15 0.000000 0.000000 0.884265
O O16 0.609170 0.250000 0.644234
O O17 0.709133 0.112596 0.588723
O O18 0.772631 0.750000 0.808463
O O19 0.824476 0.750000 0.042141
O O20 0.200886 0.750000 0.977560
#
# Coordination Sequence:
#
# PCOD9361700 Si02
#       8
#     8   8   8   8   8   8   8   8
#     4   9  17  34  62  90 119 160 211 259 312 382
#     4  11  21  35  59  90 128 166 210 261 315 379
#     4   9  20  39  65  94 125 166 211 263 324 380
#     4  12  26  42  60  94 131 174 216 269 324 385
#     4   8  16  37  65  93 121 163 214 260 320 384
#     4  11  23  40  63  93 133 172 212 260 320 389
#     4  10  22  40  65  92 126 169 216 265 320 387
#     4  10  22  41  64  94 127 163 212 266 320 377
#
# _framework density 21.083064
#
# number of rings (size 3 to 8) (size 9 to 14) (size 15 to 20)
#    0.000    2.000    0.000    4.500    3.500    2.000 
#    2.250    0.625    0.000    0.000    0.000    0.000 
#    0.000    0.000    0.000    0.000    0.000    0.000 
#
# Total GULP energy -178532.822169 kJ/mol
# GULP energy per Si atom -5579.150693 kJ/mol
# Density = 2.103508 g / cm^3
# Si number density = 21.083064 Si / 1000 Ang^3
#
#
#
# Elastic Constant Matrix: (Units=GPa)
#
#
# Indices 1 2 3 4 5 6 
#
# 1 92.0721 29.0752 35.7465 0.0000 0.0000 0.0000
# 2 29.0752 91.0725 34.9213 0.0000 0.0000 0.0000
# 3 35.7465 34.9213 104.7280 0.0000 0.0000 0.0000
# 4 0.0000 0.0000 0.0000 29.4247 0.0000 0.0000
# 5 0.0000 0.0000 0.0000 0.0000 18.9403 0.0000
# 6 0.0000 0.0000 0.0000 0.0000 0.0000 4.0496
#
#
#
# Elastic Compliance Matrix: (Units=1/GPa)
#
#
# Indices 1 2 3 4 5 6 
#
# 1 0.013129 -0.002836 -0.003536 0.000000 0.000000 0.000000
# 2 -0.002836 0.013203 -0.003434 0.000000 0.000000 0.000000
# 3 -0.003536 -0.003434 0.011901 0.000000 0.000000 0.000000
# 4 0.000000 0.000000 0.000000 0.033985 0.000000 0.000000
# 5 0.000000 0.000000 0.000000 0.000000 0.052797 0.000000
# 6 0.000000 0.000000 0.000000 0.000000 0.000000 0.246939
#
#
# Mechanical properties :
#
#
# Convention : Reuss Voigt Hill
#
# Bulk Modulus (GPa) = 53.70449 54.15096 53.92772
# Shear Modulus (GPa) = 12.56999 23.02488 17.79743
#
# Velocity S-wave (km/s) = 2.44440 3.30828 2.90859
# Velocity P-wave (km/s) = 5.78748 6.35085 6.07570
#
# Compressibility (1/GPa) = 0.01862042
#
# Stress axis : x y z
#
# Youngs Moduli (GPa) = 76.16541 75.74317 84.02930
#
# Poissons Ratio (x) = 0.21479 0.29711
# Poissons Ratio (y) = 0.21599 0.28859
# Poissons Ratio (z) = 0.26931 0.26013
#
# Static dielectric constant tensor:
#      x y z
#    x 1.761160 0.000000 0.000000 
#    y 0.000000 1.806260 0.000000 
#    z 0.000000 0.000000 1.782820 
# 
# From -- ./inp_files/12340.got.cif
#   From: 2010.05.17/outbox.cif.g08.bks.cpg/sg39_7_cif.got.tgz:12340.got - 2010.06.03 18:22:40.
