data_PCOD9361317
_publ_section_title
;
Structure prediction by ZEFSAII (Michael W. Deem and Ramdas Pophale) SiO2 
 PCOD9361317
Probable space group: A B M 2
;
_chemical_formula_sum "Si O2"
_cell_formula_units_Z 60
_cell_length_a 16.673124
_cell_length_b 17.304060
_cell_length_c 8.700694
_cell_angle_alpha 90.000000
_cell_angle_beta 90.000000
_cell_angle_gamma 90.000000
_cell_volume 2510.261049
_symmetry_space_group_name_H-M "A B M 2"
_symmetry_group_IT_number 39
_symmetry_cell_setting 'orthorhombic'
loop_
_space_group_symop_operation_xyz
x,y,z
-x,-y,z
-x,1/2+y,z
x,1/2-y,z
x,1/2+y,1/2+z
-x,1/2-y,1/2+z
-x,y,1/2+z
x,-y,1/2+z
loop_
_atom_site_type_symbol
_atom_site_label
_atom_site_fract_x
_atom_site_fract_y
_atom_site_fract_z
Si Si1 0.177965 0.399900 0.675960
Si Si2 0.293538 0.163525 0.458759
Si Si3 0.930612 0.750000 0.671193
Si Si4 0.444116 0.905566 0.866891
Si Si5 0.899641 0.487646 0.889210
Si Si6 0.752334 0.159427 0.615371
Si Si7 0.602255 0.068568 0.513968
Si Si8 0.935811 0.381851 0.601382
O O1 0.264983 0.383342 0.606295
O O2 0.133466 0.319692 0.714220
O O3 0.171837 0.463741 0.806673
O O4 0.131231 0.436887 0.530052
O O5 0.261666 0.250000 0.479457
O O6 0.387278 0.161699 0.427292
O O7 0.256584 0.136162 0.295729
O O8 0.997825 0.683306 0.620092
O O9 0.430471 0.921988 0.687732
O O10 0.536332 0.890889 0.905584
O O11 0.407992 0.980513 0.957034
O O12 0.932175 0.434267 0.753339
O O13 0.949734 0.558860 0.962619
O O14 0.729296 0.250000 0.602400
O O15 0.690306 0.106635 0.520065
O O16 0.846158 0.151231 0.579591
#
# Coordination Sequence:
#
# PCOD9361317 Si02
#       8
#     8   8   4   8   8   8   8   8
#     4  11  24  45  66 100 126 180 212 283 321 398
#     4  10  21  40  66  95 128 172 222 261 330 396
#     4  12  28  44  76  90 142 168 222 268 344 388
#     4  10  21  37  63  95 128 168 213 265 323 385
#     4  10  26  43  68  94 135 162 232 262 343 380
#     4  10  21  40  66  95 128 172 222 261 330 396
#     4  10  21  37  63  95 128 168 213 265 323 385
#     4  11  24  45  66 100 126 180 212 283 321 398
#
# _framework density 23.901897999999999
#
# number of rings (size 3 to 8) (size 9 to 14) (size 15 to 20)
#    0.000    1.600    2.667    1.600    3.733    6.933 
#    2.400    0.000    0.000    0.000    0.000    0.000 
#    0.000    0.000    0.000    0.000    0.000    0.000 
#
# Total GULP energy -167216.120533 kJ/mol
# GULP energy per Si atom -5573.870684 kJ/mol
# Density = 2.384750 g / cm^3
# Si number density = 23.901898 Si / 1000 Ang^3
#
#
#
# Elastic Constant Matrix: (Units=GPa)
#
#
# Indices 1 2 3 4 5 6 
#
# 1 87.8764 8.7346 -0.1747 0.0000 0.0000 0.0000
# 2 8.7346 115.5949 30.2104 0.0000 0.0000 0.0000
# 3 -0.1747 30.2104 84.0763 0.0000 0.0000 0.0000
# 4 0.0000 0.0000 0.0000 12.1519 0.0000 0.0000
# 5 0.0000 0.0000 0.0000 0.0000 26.7744 0.0000
# 6 0.0000 0.0000 0.0000 0.0000 0.0000 42.2516
#
#
#
# Elastic Compliance Matrix: (Units=1/GPa)
#
#
# Indices 1 2 3 4 5 6 
#
# 1 0.011476 -0.000964 0.000370 0.000000 0.000000 0.000000
# 2 -0.000964 0.009628 -0.003462 0.000000 0.000000 0.000000
# 3 0.000370 -0.003462 0.013139 0.000000 0.000000 0.000000
# 4 0.000000 0.000000 0.000000 0.082292 0.000000 0.000000
# 5 0.000000 0.000000 0.000000 0.000000 0.037349 0.000000
# 6 0.000000 0.000000 0.000000 0.000000 0.000000 0.023668
#
#
# Mechanical properties :
#
#
# Convention : Reuss Voigt Hill
#
# Bulk Modulus (GPa) = 38.26671 40.56535 39.41603
# Shear Modulus (GPa) = 25.72369 32.82073 29.27221
#
# Velocity S-wave (km/s) = 3.28414 3.70961 3.50334
# Velocity P-wave (km/s) = 5.51592 5.94616 5.73508
#
# Compressibility (1/GPa) = 0.02613237
#
# Stress axis : x y z
#
# Youngs Moduli (GPa) = 87.13708 103.85897 76.11165
#
# Poissons Ratio (x) = 0.10011 -0.02818
# Poissons Ratio (y) = 0.08399 0.26348
# Poissons Ratio (z) = -0.03226 0.35953
#
# Static dielectric constant tensor:
#      x y z
#    x 1.975010 0.000000 0.000000 
#    y 0.000000 1.918490 0.000000 
#    z 0.000000 0.000000 1.901340 
# 
# From -- ./inp_files/3793.got.cif
#   From: 2010.05.17/outbox.cif.g08.bks.cpg/sg39_2_cif.got.tgz:3793.got - 2010.06.03 18:22:40.
