data_PCOD9361732
_publ_section_title
;
Structure prediction by ZEFSAII (Michael W. Deem and Ramdas Pophale) SiO2 
 PCOD9361732
Probable space group: A B M 2
;
_chemical_formula_sum "Si O2"
_cell_formula_units_Z 52
_cell_length_a 11.859722
_cell_length_b 21.776884
_cell_length_c 8.651997
_cell_angle_alpha 90.000000
_cell_angle_beta 90.000000
_cell_angle_gamma 90.000000
_cell_volume 2234.532147
_symmetry_space_group_name_H-M "A B M 2"
_symmetry_group_IT_number 39
_symmetry_cell_setting 'orthorhombic'
loop_
_space_group_symop_operation_xyz
x,y,z
-x,-y,z
-x,1/2+y,z
x,1/2-y,z
x,1/2+y,1/2+z
-x,1/2-y,1/2+z
-x,y,1/2+z
x,-y,1/2+z
loop_
_atom_site_type_symbol
_atom_site_label
_atom_site_fract_x
_atom_site_fract_y
_atom_site_fract_z
Si Si1 0.238173 0.558261 0.903700
Si Si2 0.845286 0.374796 0.396526
Si Si3 0.964015 0.434226 0.687515
Si Si4 0.535780 0.843961 0.651726
Si Si5 0.659811 0.818026 0.345919
Si Si6 0.331275 0.043460 0.737175
Si Si7 0.714674 0.250000 0.318785
O O1 0.121154 0.544282 0.823145
O O2 0.250339 0.630916 0.882393
O O3 0.336723 0.524160 0.807021
O O4 0.257824 0.541889 0.080492
O O5 0.900016 0.393255 0.560209
O O6 0.739511 0.419846 0.365932
O O7 0.800432 0.305590 0.377744
O O8 0.936816 0.394308 0.265488
O O9 0.000000 0.500000 0.618254
O O10 0.563631 0.829951 0.474339
O O11 0.407984 0.825807 0.687791
O O12 0.562856 0.914708 0.691472
O O13 0.626698 0.802846 0.744613
O O14 0.705301 0.750000 0.361889
#
# Coordination Sequence:
#
# PCOD9361732 Si02
#       7
#     8   8   8   8   8   8   4
#     4  11  24  41  66  95 133 169 222 273 330 391
#     4  11  24  41  66  92 131 168 219 266 329 390
#     4  12  24  42  66  96 126 172 218 272 327 396
#     4  10  22  42  69  93 131 171 222 268 333 396
#     4  11  22  42  66  99 129 175 218 271 328 402
#     4  10  22  41  64  97 130 171 215 277 327 393
#     4  10  22  44  64  94 128 174 208 272 324 386
#
# _framework density 23.271090999999998
#
# number of rings (size 3 to 8) (size 9 to 14) (size 15 to 20)
#    0.000    1.231    3.077    2.308    0.000    4.923 
#    5.538    3.077    0.000    0.000    0.000    0.000 
#    0.000    0.000    0.000    0.000    0.000    0.000 
#
# Total GULP energy -144864.149538 kJ/mol
# GULP energy per Si atom -5571.698059 kJ/mol
# Density = 2.321813 g / cm^3
# Si number density = 23.271091 Si / 1000 Ang^3
#
#
#
# Elastic Constant Matrix: (Units=GPa)
#
#
# Indices 1 2 3 4 5 6 
#
# 1 17.7771 3.2237 21.1562 0.0000 0.0000 0.0000
# 2 3.2237 94.3000 22.7604 0.0000 0.0000 0.0000
# 3 21.1562 22.7604 68.8970 0.0000 0.0000 0.0000
# 4 0.0000 0.0000 0.0000 12.8045 0.0000 0.0000
# 5 0.0000 0.0000 0.0000 0.0000 22.9044 0.0000
# 6 0.0000 0.0000 0.0000 0.0000 0.0000 25.2300
#
#
#
# Elastic Compliance Matrix: (Units=1/GPa)
#
#
# Indices 1 2 3 4 5 6 
#
# 1 0.089950 0.003903 -0.028910 0.000000 0.000000 0.000000
# 2 0.003903 0.011693 -0.005061 0.000000 0.000000 0.000000
# 3 -0.028910 -0.005061 0.025064 0.000000 0.000000 0.000000
# 4 0.000000 0.000000 0.000000 0.078098 0.000000 0.000000
# 5 0.000000 0.000000 0.000000 0.000000 0.043660 0.000000
# 6 0.000000 0.000000 0.000000 0.000000 0.000000 0.039635
#
#
# Mechanical properties :
#
#
# Convention : Reuss Voigt Hill
#
# Bulk Modulus (GPa) = 15.02193 30.58386 22.80289
# Shear Modulus (GPa) = 13.49795 21.11002 17.30399
#
# Velocity S-wave (km/s) = 2.41100 3.01514 2.72983
# Velocity P-wave (km/s) = 3.77091 5.02915 4.44478
#
# Compressibility (1/GPa) = 0.06656934
#
# Stress axis : x y z
#
# Youngs Moduli (GPa) = 11.11726 85.52423 39.89804
#
# Poissons Ratio (x) = -0.33378 1.15347
# Poissons Ratio (y) = -0.04339 0.20193
# Poissons Ratio (z) = 0.32140 0.43285
#
# Static dielectric constant tensor:
#      x y z
#    x 1.883850 0.000000 0.000000 
#    y 0.000000 1.884780 0.000000 
#    z 0.000000 0.000000 1.901490 
# 
# From -- ./inp_files/3334.got.cif
#   From: 2010.05.17/outbox.cif.g08.bks.cpg/sg39_2_cif.got.tgz:3334.got - 2010.06.03 18:22:40.
