data_PCOD9361347
_publ_section_title
;
Structure prediction by ZEFSAII (Michael W. Deem and Ramdas Pophale) SiO2 
 PCOD9361347
Probable space group: A B M 2
;
_chemical_formula_sum "Si O2"
_cell_formula_units_Z 32
_cell_length_a 5.832325
_cell_length_b 21.894487
_cell_length_c 8.183859
_cell_angle_alpha 90.000000
_cell_angle_beta 90.000000
_cell_angle_gamma 90.000000
_cell_volume 1045.044127
_symmetry_space_group_name_H-M "A B M 2"
_symmetry_group_IT_number 39
_symmetry_cell_setting 'orthorhombic'
loop_
_space_group_symop_operation_xyz
x,y,z
-x,-y,z
-x,1/2+y,z
x,1/2-y,z
x,1/2+y,1/2+z
-x,1/2-y,1/2+z
-x,y,1/2+z
x,-y,1/2+z
loop_
_atom_site_type_symbol
_atom_site_label
_atom_site_fract_x
_atom_site_fract_y
_atom_site_fract_z
Si Si1 0.749974 0.495824 0.708940
Si Si2 0.725321 0.129417 0.915479
Si Si3 0.785003 0.881471 0.920418
Si Si4 0.779192 0.750000 0.815640
Si Si5 0.324605 0.750000 0.694558
O O1 0.500000 0.500000 0.622076
O O2 0.736844 0.430982 0.801090
O O3 0.761240 0.553975 0.829547
O O4 0.000000 0.500000 0.623405
O O5 0.470720 0.128607 0.996464
O O6 0.725068 0.191593 0.808331
O O7 0.967813 0.122412 0.009164
O O8 0.816813 0.822850 0.804161
O O9 0.593123 0.750000 0.669219
O O10 0.788200 0.750000 0.018210
#
# Coordination Sequence:
#
# PCOD9361347 Si02
#       5
#     8   8   8   4   4
#     4   8  14  26  50  76 108 146 186 230 280 338
#     4   9  17  32  54  81 112 150 191 234 285 342
#     4   9  17  32  54  81 112 150 191 234 285 342
#     4  10  21  38  61  88 120 156 196 242 292 348
#     4  10  21  38  61  88 120 156 196 242 292 348
#
# _framework density 30.620716000000002
#
# number of rings (size 3 to 8) (size 9 to 14) (size 15 to 20)
#    0.000    3.000    0.000    0.750    0.000    0.000 
#    0.000   20.000    0.000   51.000    0.000    0.000 
#    0.000    0.000    0.000    0.000    0.000    0.000 
#
# Total GULP energy -89116.804825 kJ/mol
# GULP energy per Si atom -5569.800302 kJ/mol
# Density = 3.055102 g / cm^3
# Si number density = 30.620716 Si / 1000 Ang^3
#
#
#
# Elastic Constant Matrix: (Units=GPa)
#
#
# Indices 1 2 3 4 5 6 
#
# 1 344.1119 2.7569 60.8203 0.0000 0.0000 0.0000
# 2 2.7569 339.3493 97.2661 0.0000 0.0000 0.0000
# 3 60.8203 97.2661 94.3137 0.0000 0.0000 0.0000
# 4 0.0000 0.0000 0.0000 65.7998 0.0000 0.0000
# 5 0.0000 0.0000 0.0000 0.0000 5.7090 0.0000
# 6 0.0000 0.0000 0.0000 0.0000 0.0000 -42.6601
#
#
#
# Elastic Compliance Matrix: (Units=1/GPa)
#
#
# Indices 1 2 3 4 5 6 
#
# 1 0.003450 0.000866 -0.003117 0.000000 0.000000 0.000000
# 2 0.000866 0.004401 -0.005096 0.000000 0.000000 0.000000
# 3 -0.003117 -0.005096 0.017869 0.000000 0.000000 0.000000
# 4 0.000000 0.000000 0.000000 0.015198 0.000000 0.000000
# 5 0.000000 0.000000 0.000000 0.000000 0.175163 0.000000
# 6 0.000000 0.000000 0.000000 0.000000 0.000000 -0.023441
#
#
# Mechanical properties :
#
#
# Convention : Reuss Voigt Hill
#
# Bulk Modulus (GPa) = 90.71861 122.16240 106.44050
# Shear Modulus (GPa) = 23.69548 46.89850 35.29699
#
# Velocity S-wave (km/s) = 2.78481 3.91780 3.39885
# Velocity P-wave (km/s) = 6.32701 7.77480 7.08797
#
# Compressibility (1/GPa) = 0.01102310
#
# Stress axis : x y z
#
# Youngs Moduli (GPa) = 289.84646 227.24351 55.96179
#
# Poissons Ratio (x) = -0.19669 0.17446
# Poissons Ratio (y) = -0.25087 0.28521
# Poissons Ratio (z) = 0.90360 1.15814
#
# Static dielectric constant tensor:
#      x y z
#    x 2.609850 0.000000 0.000000 
#    y 0.000000 2.311830 0.000000 
#    z 0.000000 0.000000 2.234710 
# 
# From -- ./inp_files/4383.got.cif
#   From: 2010.05.17/outbox.cif.g08.bks.cpg/sg39_3_cif.got.tgz:4383.got - 2010.06.03 18:22:40.
