data_PCOD9361553
_publ_section_title
;
Structure prediction by ZEFSAII (Michael W. Deem and Ramdas Pophale) SiO2 
 PCOD9361553
Probable space group: A B M 2
;
_chemical_formula_sum "Si O2"
_cell_formula_units_Z 48
_cell_length_a 11.036327
_cell_length_b 24.740914
_cell_length_c 7.827653
_cell_angle_alpha 90.000000
_cell_angle_beta 90.000000
_cell_angle_gamma 90.000000
_cell_volume 2137.331393
_symmetry_space_group_name_H-M "A B M 2"
_symmetry_group_IT_number 39
_symmetry_cell_setting 'orthorhombic'
loop_
_space_group_symop_operation_xyz
x,y,z
-x,-y,z
-x,1/2+y,z
x,1/2-y,z
x,1/2+y,1/2+z
-x,1/2-y,1/2+z
-x,y,1/2+z
x,-y,1/2+z
loop_
_atom_site_type_symbol
_atom_site_label
_atom_site_fract_x
_atom_site_fract_y
_atom_site_fract_z
Si Si1 0.853006 0.187557 0.136170
Si Si2 0.860768 0.016820 0.861418
Si Si3 0.699385 0.904278 0.150622
Si Si4 0.129305 0.311444 0.226676
Si Si5 0.252570 0.575367 0.184975
Si Si6 0.525788 0.562310 0.452921
O O1 0.827842 0.250000 0.189192
O O2 0.769466 0.139010 0.201763
O O3 0.990105 0.173395 0.191847
O O4 0.848898 0.186158 0.930031
O O5 0.801753 0.051885 0.707487
O O6 0.788898 0.960538 0.844246
O O7 0.833351 0.052354 0.029504
O O8 0.000000 0.000000 0.846624
O O9 0.774730 0.849761 0.137500
O O10 0.609014 0.907559 0.315434
O O11 0.601190 0.911243 0.001625
O O12 0.142472 0.250000 0.167179
O O13 0.386742 0.561799 0.119809
O O14 0.500000 0.500000 0.408607
#
# Coordination Sequence:
#
# PCOD9361553 Si02
#       6
#     8   8   8   8   8   8
#     4  10  21  42  67  90 124 165 208 262 324 380
#     4  11  22  37  57  88 129 155 202 262 319 374
#     4  11  23  41  58  89 122 169 209 256 311 377
#     4  10  21  42  67  92 124 160 208 268 325 379
#     4  11  23  38  59  93 121 168 206 253 316 377
#     4  11  22  39  59  83 123 169 210 248 310 376
#
# _framework density 22.457913000000001
#
# number of rings (size 3 to 8) (size 9 to 14) (size 15 to 20)
#    0.000    1.333    5.000    2.000    2.333    0.000 
#    3.000    1.667    0.000    0.000    0.000    0.000 
#    0.000    0.000    0.000    0.000    0.000    0.000 
#
# Total GULP energy -134245.148401 kJ/mol
# GULP energy per Si atom -5593.547850 kJ/mol
# Density = 2.240680 g / cm^3
# Si number density = 22.457913 Si / 1000 Ang^3
#
#
#
# Elastic Constant Matrix: (Units=GPa)
#
#
# Indices 1 2 3 4 5 6 
#
# 1 147.3874 56.9189 6.9484 0.0000 0.0000 0.0000
# 2 56.9189 109.8368 9.5365 0.0000 0.0000 0.0000
# 3 6.9484 9.5365 63.1106 0.0000 0.0000 0.0000
# 4 0.0000 0.0000 0.0000 21.7644 0.0000 0.0000
# 5 0.0000 0.0000 0.0000 0.0000 24.6614 0.0000
# 6 0.0000 0.0000 0.0000 0.0000 0.0000 35.8687
#
#
#
# Elastic Compliance Matrix: (Units=1/GPa)
#
#
# Indices 1 2 3 4 5 6 
#
# 1 0.008487 -0.004374 -0.000273 0.000000 0.000000 0.000000
# 2 -0.004374 0.011480 -0.001253 0.000000 0.000000 0.000000
# 3 -0.000273 -0.001253 0.016065 0.000000 0.000000 0.000000
# 4 0.000000 0.000000 0.000000 0.045947 0.000000 0.000000
# 5 0.000000 0.000000 0.000000 0.000000 0.040549 0.000000
# 6 0.000000 0.000000 0.000000 0.000000 0.000000 0.027879
#
#
# Mechanical properties :
#
#
# Convention : Reuss Voigt Hill
#
# Bulk Modulus (GPa) = 41.27115 51.90470 46.58792
# Shear Modulus (GPa) = 29.36244 32.92095 31.14169
#
# Velocity S-wave (km/s) = 3.61978 3.83285 3.72784
# Velocity P-wave (km/s) = 5.99061 6.53834 6.27046
#
# Compressibility (1/GPa) = 0.02423000
#
# Stress axis : x y z
#
# Youngs Moduli (GPa) = 117.82657 87.10743 62.24844
#
# Poissons Ratio (x) = 0.38104 0.01702
# Poissons Ratio (y) = 0.51542 0.07800
# Poissons Ratio (z) = 0.03222 0.10916
#
# Static dielectric constant tensor:
#      x y z
#    x 1.791440 0.000000 0.000000 
#    y 0.000000 1.832690 0.000000 
#    z 0.000000 0.000000 1.980170 
# 
# From -- ./inp_files/2703.got.cif
#   From: 2010.05.17/outbox.cif.g08.bks.cpg/sg39_2_cif.got.tgz:2703.got - 2010.06.03 18:22:40.
