data_PCOD9361743
_publ_section_title
;
Structure prediction by ZEFSAII (Michael W. Deem and Ramdas Pophale) SiO2 
 PCOD9361743
Probable space group: A B M 2
;
_chemical_formula_sum "Si O2"
_cell_formula_units_Z 52
_cell_length_a 5.378329
_cell_length_b 20.282649
_cell_length_c 20.255130
_cell_angle_alpha 90.000000
_cell_angle_beta 90.000000
_cell_angle_gamma 90.000000
_cell_volume 2209.566491
_symmetry_space_group_name_H-M "A B M 2"
_symmetry_group_IT_number 39
_symmetry_cell_setting 'orthorhombic'
loop_
_space_group_symop_operation_xyz
x,y,z
-x,-y,z
-x,1/2+y,z
x,1/2-y,z
x,1/2+y,1/2+z
-x,1/2-y,1/2+z
-x,y,1/2+z
x,-y,1/2+z
loop_
_atom_site_type_symbol
_atom_site_label
_atom_site_fract_x
_atom_site_fract_y
_atom_site_fract_z
Si Si1 0.000668 0.138214 0.681100
Si Si2 0.495618 0.073518 0.379236
Si Si3 0.107845 0.673605 0.444718
Si Si4 0.000000 0.500000 0.617608
Si Si5 0.211389 0.321982 0.312739
Si Si6 0.492195 0.676537 0.607711
Si Si7 0.736362 0.912917 0.515292
O O1 0.946254 0.061934 0.664134
O O2 0.984136 0.157943 0.757225
O O3 0.766303 0.173284 0.646115
O O4 0.269701 0.156922 0.652386
O O5 0.407535 0.120286 0.320252
O O6 0.311950 0.061976 0.442010
O O7 0.708489 0.117994 0.414304
O O8 0.500000 0.000000 0.351122
O O9 0.198647 0.750000 0.456699
O O10 0.910023 0.681260 0.384985
O O11 0.958414 0.640850 0.505937
O O12 0.201004 0.470967 0.565967
O O13 0.318553 0.250000 0.297100
O O14 0.535327 0.750000 0.583545
O O15 0.507202 0.626846 0.546402
#
# Coordination Sequence:
#
# PCOD9361743 Si02
#       7
#     8   8   8   4   8   8   8
#     4  11  26  44  71  98 138 184 228 288 342 420
#     4  11  24  39  67  97 134 176 223 281 351 412
#     4  10  22  41  67  98 131 177 226 283 345 407
#     4  10  24  46  66  98 138 182 228 280 356 416
#     4  10  23  45  67  97 133 175 228 287 340 408
#     4  11  24  42  67 102 133 179 233 283 341 405
#     4  10  23  40  64  94 133 176 221 288 338 417
#
# _framework density 23.534027999999999
#
# number of rings (size 3 to 8) (size 9 to 14) (size 15 to 20)
#    0.000    1.538    0.000    3.231    8.615    6.769 
#    2.769    0.000    0.000    0.000    0.000    0.000 
#    0.000    0.000    0.000    0.000    0.000    0.000 
#
# Total GULP energy -145147.593158 kJ/mol
# GULP energy per Si atom -5582.599737 kJ/mol
# Density = 2.348046 g / cm^3
# Si number density = 23.534028 Si / 1000 Ang^3
#
#
#
# Elastic Constant Matrix: (Units=GPa)
#
#
# Indices 1 2 3 4 5 6 
#
# 1 66.1823 15.7115 0.7107 0.0000 0.0000 0.0000
# 2 15.7115 191.5655 6.0142 0.0000 0.0000 0.0000
# 3 0.7107 6.0142 60.0124 0.0000 0.0000 0.0000
# 4 0.0000 0.0000 0.0000 4.9365 0.0000 0.0000
# 5 0.0000 0.0000 0.0000 0.0000 27.7316 0.0000
# 6 0.0000 0.0000 0.0000 0.0000 0.0000 18.1557
#
#
#
# Elastic Compliance Matrix: (Units=1/GPa)
#
#
# Indices 1 2 3 4 5 6 
#
# 1 0.015410 -0.001262 -0.000056 0.000000 0.000000 0.000000
# 2 -0.001262 0.005340 -0.000520 0.000000 0.000000 0.000000
# 3 -0.000056 -0.000520 0.016716 0.000000 0.000000 0.000000
# 4 0.000000 0.000000 0.000000 0.202572 0.000000 0.000000
# 5 0.000000 0.000000 0.000000 0.000000 0.036060 0.000000
# 6 0.000000 0.000000 0.000000 0.000000 0.000000 0.055079
#
#
# Mechanical properties :
#
#
# Convention : Reuss Voigt Hill
#
# Bulk Modulus (GPa) = 29.59510 40.29253 34.94382
# Shear Modulus (GPa) = 14.44598 29.85301 22.14949
#
# Velocity S-wave (km/s) = 2.48025 3.56547 3.07118
# Velocity P-wave (km/s) = 4.56125 5.84023 5.23990
#
# Compressibility (1/GPa) = 0.03378938
#
# Stress axis : x y z
#
# Youngs Moduli (GPa) = 64.89288 187.26620 59.82285
#
# Poissons Ratio (x) = 0.23635 0.00335
# Poissons Ratio (y) = 0.08190 0.03112
# Poissons Ratio (z) = 0.00363 0.09742
#
# Static dielectric constant tensor:
#      x y z
#    x 1.980380 0.000000 0.000000 
#    y 0.000000 2.057850 0.000000 
#    z 0.000000 0.000000 1.882570 
# 
# From -- ./inp_files/13548.got.cif
#   From: 2010.05.17/outbox.cif.g08.bks.cpg/sg39_7_cif.got.tgz:13548.got - 2010.06.03 18:22:40.
