data_PCOD9361405
_publ_section_title
;
Structure prediction by ZEFSAII (Michael W. Deem and Ramdas Pophale) SiO2 
 PCOD9361405
Probable space group: A B M 2
;
_chemical_formula_sum "Si O2"
_cell_formula_units_Z 64
_cell_length_a 6.898132
_cell_length_b 17.892129
_cell_length_c 27.396293
_cell_angle_alpha 90.000000
_cell_angle_beta 90.000000
_cell_angle_gamma 90.000000
_cell_volume 3381.312606
_symmetry_space_group_name_H-M "A B M 2"
_symmetry_group_IT_number 39
_symmetry_cell_setting 'orthorhombic'
loop_
_space_group_symop_operation_xyz
x,y,z
-x,-y,z
-x,1/2+y,z
x,1/2-y,z
x,1/2+y,1/2+z
-x,1/2-y,1/2+z
-x,y,1/2+z
x,-y,1/2+z
loop_
_atom_site_type_symbol
_atom_site_label
_atom_site_fract_x
_atom_site_fract_y
_atom_site_fract_z
Si Si1 0.906722 0.582500 0.674900
Si Si2 0.366009 0.665358 0.835540
Si Si3 0.694272 0.163362 0.663455
Si Si4 0.328726 0.166910 0.923691
Si Si5 0.937734 0.585996 0.400805
Si Si6 0.327645 0.659550 0.983170
Si Si7 0.355086 0.837733 0.097130
Si Si8 0.558427 0.915108 0.745143
O O1 0.762681 0.605161 0.631030
O O2 0.778259 0.589901 0.724477
O O3 0.000000 0.500000 0.672043
O O4 0.085223 0.638907 0.668455
O O5 0.295949 0.750000 0.825491
O O6 0.513225 0.669075 0.880836
O O7 0.491383 0.633868 0.790937
O O8 0.190702 0.612916 0.854466
O O9 0.674153 0.250000 0.677083
O O10 0.582657 0.154151 0.611710
O O11 0.574578 0.113125 0.700886
O O12 0.267799 0.250000 0.937910
O O13 0.141665 0.126975 0.904328
O O14 0.453825 0.135322 0.968399
O O15 0.000000 0.500000 0.399606
O O16 0.817170 0.612927 0.448771
O O17 0.309235 0.750000 0.972707
O O18 0.306308 0.649695 0.040759
O O19 0.306544 0.750000 0.108670
O O20 0.500000 0.000000 0.756124
#
# Coordination Sequence:
#
# PCOD9361405 Si02
#       8
#     8   8   8   8   8   8   8   8
#     4  11  22  39  59  89 124 161 202 252 314 366
#     4  10  23  41  61  86 118 159 206 253 306 371
#     4  10  21  39  61  87 121 159 204 256 304 370
#     4   9  19  38  61  83 114 156 197 246 305 356
#     4  11  23  37  59  89 125 159 199 252 307 362
#     4   9  19  38  61  87 121 160 205 249 294 361
#     4   9  20  37  61  90 120 161 207 249 300 363
#     4  11  23  40  63  86 119 157 202 254 318 373
#
# _framework density 18.927562000000002
#
# number of rings (size 3 to 8) (size 9 to 14) (size 15 to 20)
#    0.000    2.000    1.250    2.625    1.750    5.500 
#    0.000    5.000    0.000    0.000    0.000    0.000 
#    0.000    0.000    0.000    0.000    0.000    0.000 
#
# Total GULP energy -178315.759541 kJ/mol
# GULP energy per Si atom -5572.367486 kJ/mol
# Density = 1.888448 g / cm^3
# Si number density = 18.927562 Si / 1000 Ang^3
#
#
#
# Elastic Constant Matrix: (Units=GPa)
#
#
# Indices 1 2 3 4 5 6 
#
# 1 111.7330 41.7344 25.5867 0.0000 0.0000 0.0000
# 2 41.7344 77.4476 39.9084 0.0000 0.0000 0.0000
# 3 25.5867 39.9084 93.2930 0.0000 0.0000 0.0000
# 4 0.0000 0.0000 0.0000 19.9949 0.0000 0.0000
# 5 0.0000 0.0000 0.0000 0.0000 22.1162 0.0000
# 6 0.0000 0.0000 0.0000 0.0000 0.0000 -49.1944
#
#
#
# Elastic Compliance Matrix: (Units=1/GPa)
#
#
# Indices 1 2 3 4 5 6 
#
# 1 0.011234 -0.005729 -0.000630 0.000000 0.000000 0.000000
# 2 -0.005729 0.019484 -0.006764 0.000000 0.000000 0.000000
# 3 -0.000630 -0.006764 0.013785 0.000000 0.000000 0.000000
# 4 0.000000 0.000000 0.000000 0.050013 0.000000 0.000000
# 5 0.000000 0.000000 0.000000 0.000000 0.045216 0.000000
# 6 0.000000 0.000000 0.000000 0.000000 0.000000 -0.020327
#
#
# Mechanical properties :
#
#
# Convention : Reuss Voigt Hill
#
# Bulk Modulus (GPa) = 54.77164 55.21474 54.99319
# Shear Modulus (GPa) = 32.95182 10.26626 21.60904
#
# Velocity S-wave (km/s) = 4.17699 2.33147 3.38253
# Velocity P-wave (km/s) = 7.22934 6.04008 6.66130
#
# Compressibility (1/GPa) = 0.01825762
#
# Stress axis : x y z
#
# Youngs Moduli (GPa) = 89.01438 51.32306 72.54181
#
# Poissons Ratio (x) = 0.29403 0.04573
# Poissons Ratio (y) = 0.50996 0.49065
# Poissons Ratio (z) = 0.05612 0.34713
#
# Static dielectric constant tensor:
#      x y z
#    x 1.673530 0.000000 0.000000 
#    y 0.000000 1.619200 0.000000 
#    z 0.000000 0.000000 1.666440 
# 
# From -- ./inp_files/17371.got.cif
#   From: 2010.05.17/outbox.cif.g08.bks.cpg/sg39_9_cif.got.tgz:17371.got - 2010.06.03 18:22:40.
