data_PCOD9361306
_publ_section_title
;
Structure prediction by ZEFSAII (Michael W. Deem and Ramdas Pophale) SiO2 
 PCOD9361306
Probable space group: A B M 2
;
_chemical_formula_sum "Si O2"
_cell_formula_units_Z 40
_cell_length_a 11.382002
_cell_length_b 14.637128
_cell_length_c 11.417139
_cell_angle_alpha 90.000000
_cell_angle_beta 90.000000
_cell_angle_gamma 90.000000
_cell_volume 1902.093304
_symmetry_space_group_name_H-M "A B M 2"
_symmetry_group_IT_number 39
_symmetry_cell_setting 'orthorhombic'
loop_
_space_group_symop_operation_xyz
x,y,z
-x,-y,z
-x,1/2+y,z
x,1/2-y,z
x,1/2+y,1/2+z
-x,1/2-y,1/2+z
-x,y,1/2+z
x,-y,1/2+z
loop_
_atom_site_type_symbol
_atom_site_label
_atom_site_fract_x
_atom_site_fract_y
_atom_site_fract_z
Si Si1 0.948316 0.853635 0.349800
Si Si2 0.829723 0.465828 0.295375
Si Si3 0.468710 0.394076 0.590867
Si Si4 0.799887 0.849916 0.581098
Si Si5 0.396405 0.352409 0.850236
O O1 0.958600 0.750000 0.300558
O O2 0.885448 0.845474 0.473427
O O3 0.071739 0.906357 0.362588
O O4 0.861938 0.927893 0.289883
O O5 0.841944 0.428297 0.165343
O O6 0.701909 0.432117 0.338287
O O7 0.500000 0.500000 0.599607
O O8 0.334930 0.372490 0.553455
O O9 0.473385 0.359724 0.728213
O O10 0.542366 0.360226 0.477568
O O11 0.801257 0.750000 0.638487
O O12 0.344784 0.250000 0.847796
#
# Coordination Sequence:
#
# PCOD9361306 Si02
#       5
#     8   8   8   8   8
#     4  10  21  37  60  88 117 153 200 246 294 360
#     4  10  21  38  62  88 119 158 199 246 304 360
#     4  11  22  38  61  89 123 165 207 252 307 367
#     4  10  21  40  61  84 121 162 195 243 312 363
#     4  11  22  40  64  91 124 163 207 254 308 368
#
# _framework density 21.029463
#
# number of rings (size 3 to 8) (size 9 to 14) (size 15 to 20)
#    0.000    1.600    0.000    6.600    0.000    4.800 
#    0.000    2.000    0.000   24.000    0.000    0.000 
#    0.000    0.000    0.000    0.000    0.000    0.000 
#
# Total GULP energy -111336.386740 kJ/mol
# GULP energy per Si atom -5566.819337 kJ/mol
# Density = 2.098160 g / cm^3
# Si number density = 21.029463 Si / 1000 Ang^3
#
#
#
# Elastic Constant Matrix: (Units=GPa)
#
#
# Indices 1 2 3 4 5 6 
#
# 1 55.6523 37.9696 43.3111 0.0000 0.0000 0.0000
# 2 37.9696 130.5931 57.8703 0.0000 0.0000 0.0000
# 3 43.3111 57.8703 76.0818 0.0000 0.0000 0.0000
# 4 0.0000 0.0000 0.0000 34.7980 0.0000 0.0000
# 5 0.0000 0.0000 0.0000 0.0000 64.6964 0.0000
# 6 0.0000 0.0000 0.0000 0.0000 0.0000 -30.2454
#
#
#
# Elastic Compliance Matrix: (Units=1/GPa)
#
#
# Indices 1 2 3 4 5 6 
#
# 1 0.032568 -0.001891 -0.017102 0.000000 0.000000 0.000000
# 2 -0.001891 0.011660 -0.007793 0.000000 0.000000 0.000000
# 3 -0.017102 -0.007793 0.028807 0.000000 0.000000 0.000000
# 4 0.000000 0.000000 0.000000 0.028737 0.000000 0.000000
# 5 0.000000 0.000000 0.000000 0.000000 0.015457 0.000000
# 6 0.000000 0.000000 0.000000 0.000000 0.000000 -0.033063
#
#
# Mechanical properties :
#
#
# Convention : Reuss Voigt Hill
#
# Bulk Modulus (GPa) = 51.37609 60.06991 55.72300
# Shear Modulus (GPa) = 34.66779 22.06156 28.36468
#
# Velocity S-wave (km/s) = 4.06462 3.24246 3.67659
# Velocity P-wave (km/s) = 6.81995 6.53029 6.67669
#
# Compressibility (1/GPa) = 0.01946431
#
# Stress axis : x y z
#
# Youngs Moduli (GPa) = 30.70485 85.76019 34.71377
#
# Poissons Ratio (x) = 0.16214 0.59367
# Poissons Ratio (y) = 0.05805 0.27052
# Poissons Ratio (z) = 0.52511 0.66833
#
# Static dielectric constant tensor:
#      x y z
#    x 1.747410 0.000000 0.000000 
#    y 0.000000 1.749370 0.000000 
#    z 0.000000 0.000000 1.793160 
# 
# From -- ./inp_files/5653.got.cif
#   From: 2010.05.17/outbox.cif.g08.bks.cpg/sg39_3_cif.got.tgz:5653.got - 2010.06.03 18:22:40.
