data_PCOD9361079
_publ_section_title
;
Structure prediction by ZEFSAII (Michael W. Deem and Ramdas Pophale) SiO2 
 PCOD9361079
Probable space group: A B M 2
;
_chemical_formula_sum "Si O2"
_cell_formula_units_Z 40
_cell_length_a 9.352798
_cell_length_b 22.276552
_cell_length_c 8.891283
_cell_angle_alpha 90.000000
_cell_angle_beta 90.000000
_cell_angle_gamma 90.000000
_cell_volume 1852.481840
_symmetry_space_group_name_H-M "A B M 2"
_symmetry_group_IT_number 39
_symmetry_cell_setting 'orthorhombic'
loop_
_space_group_symop_operation_xyz
x,y,z
-x,-y,z
-x,1/2+y,z
x,1/2-y,z
x,1/2+y,1/2+z
-x,1/2-y,1/2+z
-x,y,1/2+z
x,-y,1/2+z
loop_
_atom_site_type_symbol
_atom_site_label
_atom_site_fract_x
_atom_site_fract_y
_atom_site_fract_z
Si Si1 0.278474 0.250000 0.035610
Si Si2 0.608321 0.945019 0.654626
Si Si3 0.140171 0.375723 0.114428
Si Si4 0.395485 0.880618 0.844261
Si Si5 0.907353 0.440127 0.301643
Si Si6 0.460314 0.250000 0.337991
O O1 0.180216 0.308390 0.061399
O O2 0.403456 0.250000 0.165051
O O3 0.371887 0.250000 0.882406
O O4 0.542135 0.891633 0.754952
O O5 0.612087 0.925071 0.482893
O O6 0.765648 0.957237 0.711836
O O7 0.500000 0.000000 0.673599
O O8 0.269159 0.391695 0.226879
O O9 0.996790 0.389842 0.208981
O O10 0.133062 0.415732 0.965470
O O11 0.395005 0.812030 0.899969
O O12 0.000000 0.500000 0.316463
#
# Coordination Sequence:
#
# PCOD9361079 Si02
#       6
#     4   8   8   8   8   4
#     4  10  22  42  68 100 134 172 220 272 330 392
#     4  12  25  42  67  96 130 171 220 274 326 390
#     4  11  25  44  67  96 133 174 219 271 332 398
#     4  11  23  42  67  99 130 168 218 270 328 388
#     4  12  26  45  66  92 131 177 220 271 333 397
#     4  10  20  38  66  96 130 166 208 264 318 382
#
# _framework density 21.592655000000001
#
# number of rings (size 3 to 8) (size 9 to 14) (size 15 to 20)
#    0.000    0.800    0.000    8.400    0.000    5.600 
#    0.000    6.000    0.000    0.000    0.000    0.000 
#    0.000    0.000    0.000    0.000    0.000    0.000 
#
# Total GULP energy -111931.141413 kJ/mol
# GULP energy per Si atom -5596.557071 kJ/mol
# Density = 2.154351 g / cm^3
# Si number density = 21.592655 Si / 1000 Ang^3
#
#
#
# Elastic Constant Matrix: (Units=GPa)
#
#
# Indices 1 2 3 4 5 6 
#
# 1 142.4178 85.0651 56.3841 0.0000 0.0000 0.0000
# 2 85.0651 116.8734 60.4536 0.0000 0.0000 0.0000
# 3 56.3841 60.4536 123.3009 0.0000 0.0000 0.0000
# 4 0.0000 0.0000 0.0000 40.0607 0.0000 0.0000
# 5 0.0000 0.0000 0.0000 0.0000 40.7667 0.0000
# 6 0.0000 0.0000 0.0000 0.0000 0.0000 14.1698
#
#
#
# Elastic Compliance Matrix: (Units=1/GPa)
#
#
# Indices 1 2 3 4 5 6 
#
# 1 0.012684 -0.008349 -0.001707 0.000000 0.000000 0.000000
# 2 -0.008349 0.016959 -0.004497 0.000000 0.000000 0.000000
# 3 -0.001707 -0.004497 0.011096 0.000000 0.000000 0.000000
# 4 0.000000 0.000000 0.000000 0.024962 0.000000 0.000000
# 5 0.000000 0.000000 0.000000 0.000000 0.024530 0.000000
# 6 0.000000 0.000000 0.000000 0.000000 0.000000 0.070573
#
#
# Mechanical properties :
#
#
# Convention : Reuss Voigt Hill
#
# Bulk Modulus (GPa) = 85.96204 87.37753 86.66978
# Shear Modulus (GPa) = 25.80143 31.04539 28.42341
#
# Velocity S-wave (km/s) = 3.46051 3.79591 3.63208
# Velocity P-wave (km/s) = 7.47422 7.73086 7.60362
#
# Compressibility (1/GPa) = 0.01163304
#
# Stress axis : x y z
#
# Youngs Moduli (GPa) = 78.83784 58.96472 90.12596
#
# Poissons Ratio (x) = 0.49231 0.15383
# Poissons Ratio (y) = 0.65824 0.40530
# Poissons Ratio (z) = 0.13456 0.26516
#
# Static dielectric constant tensor:
#      x y z
#    x 1.771400 0.000000 0.000000 
#    y 0.000000 1.794590 0.000000 
#    z 0.000000 0.000000 1.759360 
# 
# From -- ./inp_files/2129.got.cif
#   From: 2010.05.17/outbox.cif.g08.bks.cpg/sg39_2_cif.got.tgz:2129.got - 2010.06.03 18:22:40.
