data_PCOD9361168
_publ_section_title
;
Structure prediction by ZEFSAII (Michael W. Deem and Ramdas Pophale) SiO2 
 PCOD9361168
Probable space group: A B M 2
;
_chemical_formula_sum "Si O2"
_cell_formula_units_Z 60
_cell_length_a 15.563407
_cell_length_b 13.409019
_cell_length_c 13.864600
_cell_angle_alpha 90.000000
_cell_angle_beta 90.000000
_cell_angle_gamma 90.000000
_cell_volume 2893.403654
_symmetry_space_group_name_H-M "A B M 2"
_symmetry_group_IT_number 39
_symmetry_cell_setting 'orthorhombic'
loop_
_space_group_symop_operation_xyz
x,y,z
-x,-y,z
-x,1/2+y,z
x,1/2-y,z
x,1/2+y,1/2+z
-x,1/2-y,1/2+z
-x,y,1/2+z
x,-y,1/2+z
loop_
_atom_site_type_symbol
_atom_site_label
_atom_site_fract_x
_atom_site_fract_y
_atom_site_fract_z
Si Si1 0.868862 0.871105 0.745580
Si Si2 0.695415 0.867344 0.027972
Si Si3 0.428356 0.919555 0.699396
Si Si4 0.127308 0.628669 0.626489
Si Si5 0.056515 0.628531 0.042229
Si Si6 0.945095 0.128696 0.828748
Si Si7 0.555220 0.750000 0.769672
Si Si8 0.683770 0.068526 0.316907
O O1 0.862523 0.750000 0.749393
O O2 0.885487 0.899866 0.633699
O O3 0.782307 0.914960 0.788131
O O4 0.955935 0.896981 0.803856
O O5 0.703214 0.750000 0.000243
O O6 0.620504 0.877821 0.106201
O O7 0.784335 0.900979 0.076987
O O8 0.676869 0.929787 0.932453
O O9 0.480747 0.836055 0.755517
O O10 0.500000 0.000000 0.667885
O O11 0.358418 0.972500 0.767564
O O12 0.128737 0.750000 0.627346
O O13 0.112289 0.597920 0.737446
O O14 0.041890 0.600633 0.567262
O O15 0.057887 0.750000 0.041258
O O16 0.080992 0.594498 0.935225
O O17 0.942467 0.250000 0.829873
O O18 0.628830 0.662613 0.780162
#
# Coordination Sequence:
#
# PCOD9361168 Si02
#       8
#     8   8   8   8   8   8   4   8
#     4   9  15  26  48  83 123 162 208 255 299 358
#     4  11  20  38  65  92 120 165 213 249 306 377
#     4  10  24  41  63  91 128 155 198 267 320 373
#     4   8  15  25  46  80 116 156 210 255 285 353
#     4   8  13  22  41  73 117 166 207 249 299 351
#     4   8  13  23  41  74 121 167 206 250 298 354
#     4  10  20  42  62  90 122 158 196 252 328 380
#     4  11  21  37  64  95 123 162 205 260 307 373
#
# _framework density 20.736823999999999
#
# number of rings (size 3 to 8) (size 9 to 14) (size 15 to 20)
#    0.000    2.667    2.000    2.400    0.000    3.733 
#    0.000    1.333    0.000    3.200    0.000    9.333 
#    0.000    0.000    0.000    2.400    0.000    0.000 
#
# Total GULP energy -167189.257097 kJ/mol
# GULP energy per Si atom -5572.975237 kJ/mol
# Density = 2.068963 g / cm^3
# Si number density = 20.736824 Si / 1000 Ang^3
#
#
#
# Elastic Constant Matrix: (Units=GPa)
#
#
# Indices 1 2 3 4 5 6 
#
# 1 85.2387 21.0010 16.8498 0.0000 0.0000 0.0000
# 2 21.0010 73.6233 12.7100 0.0000 0.0000 0.0000
# 3 16.8498 12.7100 111.0941 0.0000 0.0000 0.0000
# 4 0.0000 0.0000 0.0000 20.2408 0.0000 0.0000
# 5 0.0000 0.0000 0.0000 0.0000 4.2955 0.0000
# 6 0.0000 0.0000 0.0000 0.0000 0.0000 20.7143
#
#
#
# Elastic Compliance Matrix: (Units=1/GPa)
#
#
# Indices 1 2 3 4 5 6 
#
# 1 0.012880 -0.003404 -0.001564 0.000000 0.000000 0.000000
# 2 -0.003404 0.014756 -0.001172 0.000000 0.000000 0.000000
# 3 -0.001564 -0.001172 0.009373 0.000000 0.000000 0.000000
# 4 0.000000 0.000000 0.000000 0.049405 0.000000 0.000000
# 5 0.000000 0.000000 0.000000 0.000000 0.232803 0.000000
# 6 0.000000 0.000000 0.000000 0.000000 0.000000 0.048276
#
#
# Mechanical properties :
#
#
# Convention : Reuss Voigt Hill
#
# Bulk Modulus (GPa) = 40.43917 41.23087 40.83502
# Shear Modulus (GPa) = 12.88611 23.67648 18.28129
#
# Velocity S-wave (km/s) = 2.49552 3.38266 2.97237
# Velocity P-wave (km/s) = 5.27702 5.93149 5.61380
#
# Compressibility (1/GPa) = 0.02472850
#
# Stress axis : x y z
#
# Youngs Moduli (GPa) = 77.64228 67.76940 106.69313
#
# Poissons Ratio (x) = 0.23068 0.16687
# Poissons Ratio (y) = 0.26429 0.12504
# Poissons Ratio (z) = 0.12144 0.07942
#
# Static dielectric constant tensor:
#      x y z
#    x 1.680740 0.000000 0.000000 
#    y 0.000000 1.823580 0.000000 
#    z 0.000000 0.000000 1.728030 
# 
# From -- ./inp_files/9879.got.cif
#   From: 2010.05.17/outbox.cif.g08.bks.cpg/sg39_5_cif.got.tgz:9879.got - 2010.06.03 18:22:40.
