data_PCOD9361577
_publ_section_title
;
Structure prediction by ZEFSAII (Michael W. Deem and Ramdas Pophale) SiO2 
 PCOD9361577
Probable space group: A B M 2
;
_chemical_formula_sum "Si O2"
_cell_formula_units_Z 64
_cell_length_a 17.927576
_cell_length_b 14.992679
_cell_length_c 11.105065
_cell_angle_alpha 90.000000
_cell_angle_beta 90.000000
_cell_angle_gamma 90.000000
_cell_volume 2984.845936
_symmetry_space_group_name_H-M "A B M 2"
_symmetry_group_IT_number 39
_symmetry_cell_setting 'orthorhombic'
loop_
_space_group_symop_operation_xyz
x,y,z
-x,-y,z
-x,1/2+y,z
x,1/2-y,z
x,1/2+y,1/2+z
-x,1/2-y,1/2+z
-x,y,1/2+z
x,-y,1/2+z
loop_
_atom_site_type_symbol
_atom_site_label
_atom_site_fract_x
_atom_site_fract_y
_atom_site_fract_z
Si Si1 0.296409 0.355071 0.278550
Si Si2 0.820824 0.648147 0.479777
Si Si3 0.542131 0.351696 0.088688
Si Si4 0.170027 0.145114 0.826401
Si Si5 0.304929 0.852428 0.186455
Si Si6 0.541317 0.590952 0.318264
Si Si7 0.822958 0.148137 0.609889
Si Si8 0.914056 0.524650 0.644468
O O1 0.314449 0.250000 0.298191
O O2 0.223887 0.375032 0.359487
O O3 0.369265 0.408752 0.313647
O O4 0.263765 0.367009 0.144824
O O5 0.850310 0.750000 0.471575
O O6 0.753692 0.648992 0.577154
O O7 0.880991 0.577956 0.528378
O O8 0.562662 0.250000 0.060881
O O9 0.618641 0.395114 0.140464
O O10 0.484904 0.352785 0.200653
O O11 0.518676 0.385970 0.956667
O O12 0.166084 0.250000 0.788243
O O13 0.252577 0.108706 0.790801
O O14 0.108406 0.089287 0.755002
O O15 0.163280 0.143395 0.968178
O O16 0.322902 0.750000 0.223804
O O17 0.500000 0.500000 0.292615
O O18 0.840610 0.250000 0.650302
O O19 0.871508 0.068374 0.661401
O O20 0.000000 0.500000 0.633862
#
# Coordination Sequence:
#
# PCOD9361577 Si02
#       8
#     8   8   8   8   8   8   8   8
#     4  10  21  44  71  92 129 182 232 279 340 417
#     4   9  18  38  69  98 122 171 234 280 329 402
#     4  11  22  41  64  91 128 175 224 275 343 417
#     4   9  20  42  66  95 132 175 225 279 340 406
#     4   8  15  32  62  88 113 158 217 266 314 392
#     4  12  26  42  62  97 139 175 221 288 352 410
#     4  10  24  43  65  98 137 176 223 282 344 403
#     4  11  24  40  67  99 140 174 223 273 344 414
#
# _framework density 21.441642999999999
#
# number of rings (size 3 to 8) (size 9 to 14) (size 15 to 20)
#    0.000    2.000    1.250    2.625    1.750    4.500 
#    2.250    2.500    0.000    0.000    0.000    0.000 
#    0.000    0.000    0.000    0.000    0.000    0.000 
#
# Total GULP energy -178408.058379 kJ/mol
# GULP energy per Si atom -5575.251824 kJ/mol
# Density = 2.139284 g / cm^3
# Si number density = 21.441643 Si / 1000 Ang^3
#
#
#
# Elastic Constant Matrix: (Units=GPa)
#
#
# Indices 1 2 3 4 5 6 
#
# 1 102.2437 46.0303 53.0818 0.0000 0.0000 0.0000
# 2 46.0303 88.9580 42.2961 0.0000 0.0000 0.0000
# 3 53.0818 42.2961 68.7310 0.0000 0.0000 0.0000
# 4 0.0000 0.0000 0.0000 22.4703 0.0000 0.0000
# 5 0.0000 0.0000 0.0000 0.0000 10.6230 0.0000
# 6 0.0000 0.0000 0.0000 0.0000 0.0000 23.0195
#
#
#
# Elastic Compliance Matrix: (Units=1/GPa)
#
#
# Indices 1 2 3 4 5 6 
#
# 1 0.017120 -0.003636 -0.010985 0.000000 0.000000 0.000000
# 2 -0.003636 0.016663 -0.007446 0.000000 0.000000 0.000000
# 3 -0.010985 -0.007446 0.027615 0.000000 0.000000 0.000000
# 4 0.000000 0.000000 0.000000 0.044503 0.000000 0.000000
# 5 0.000000 0.000000 0.000000 0.000000 0.094136 0.000000
# 6 0.000000 0.000000 0.000000 0.000000 0.000000 0.043441
#
#
# Mechanical properties :
#
#
# Convention : Reuss Voigt Hill
#
# Bulk Modulus (GPa) = 57.92020 60.30546 59.11283
# Shear Modulus (GPa) = 17.04345 19.12418 18.08382
#
# Velocity S-wave (km/s) = 2.82241 2.98974 2.90728
# Velocity P-wave (km/s) = 6.13946 6.33281 6.23688
#
# Compressibility (1/GPa) = 0.01726513
#
# Stress axis : x y z
#
# Youngs Moduli (GPa) = 58.40970 60.01338 36.21161
#
# Poissons Ratio (x) = 0.21820 0.39778
# Poissons Ratio (y) = 0.21237 0.26964
# Poissons Ratio (z) = 0.64162 0.44687
#
# Static dielectric constant tensor:
#      x y z
#    x 1.756230 0.000000 0.000000 
#    y 0.000000 1.820770 0.000000 
#    z 0.000000 0.000000 1.872500 
# 
# From -- ./inp_files/6870.got.cif
#   From: 2010.05.17/outbox.cif.g08.bks.cpg/sg39_4_cif.got.tgz:6870.got - 2010.06.03 18:22:40.
