data_PCOD9361820
_publ_section_title
;
Structure prediction by ZEFSAII (Michael W. Deem and Ramdas Pophale) SiO2 
 PCOD9361820
Probable space group: A B M 2
;
_chemical_formula_sum "Si O2"
_cell_formula_units_Z 40
_cell_length_a 24.712857
_cell_length_b 13.314291
_cell_length_c 5.265531
_cell_angle_alpha 90.000000
_cell_angle_beta 90.000000
_cell_angle_gamma 90.000000
_cell_volume 1732.539620
_symmetry_space_group_name_H-M "A B M 2"
_symmetry_group_IT_number 39
_symmetry_cell_setting 'orthorhombic'
loop_
_space_group_symop_operation_xyz
x,y,z
-x,-y,z
-x,1/2+y,z
x,1/2-y,z
x,1/2+y,1/2+z
-x,1/2-y,1/2+z
-x,y,1/2+z
x,-y,1/2+z
loop_
_atom_site_type_symbol
_atom_site_label
_atom_site_fract_x
_atom_site_fract_y
_atom_site_fract_z
Si Si1 0.208872 0.750000 0.814301
Si Si2 0.534011 0.250000 0.933475
Si Si3 0.876140 0.070855 0.764835
Si Si4 0.582380 0.047038 0.751071
Si Si5 0.721340 0.250000 0.315545
Si Si6 0.702659 0.031303 0.243335
Si Si7 0.963253 0.750000 0.267736
O O1 0.173592 0.849942 0.770692
O O2 0.255907 0.750000 0.600969
O O3 0.231821 0.750000 0.101324
O O4 0.486353 0.250000 0.721823
O O5 0.568702 0.152897 0.867696
O O6 0.926693 0.148871 0.766889
O O7 0.876221 0.001137 0.512998
O O8 0.561416 0.030697 0.465905
O O9 0.646912 0.030975 0.733421
O O10 0.689482 0.147867 0.266435
O O11 0.733646 0.994212 0.488922
O O12 0.999691 0.750000 0.518754
#
# Coordination Sequence:
#
# PCOD9361820 Si02
#       7
#     4   4   8   8   4   8   4
#     4  11  26  42  63  95 130 167 216 272 317 385
#     4  12  26  42  66  96 125 164 209 252 306 374
#     4  11  24  43  66  92 131 179 218 265 335 386
#     4  10  23  42  65  91 126 162 199 252 307 366
#     4  12  24  41  65  95 126 161 212 267 319 378
#     4  10  23  40  63  93 124 161 204 251 313 377
#     4  11  24  41  64 100 135 168 225 279 320 389
#
# _framework density 23.087496999999999
#
# number of rings (size 3 to 8) (size 9 to 14) (size 15 to 20)
#    0.000    1.200    0.000    4.800    0.000   19.200 
#    0.000    0.000    0.000    0.000    0.000    0.000 
#    0.000    0.000    0.000    0.000    0.000    0.000 
#
# Total GULP energy -111914.674229 kJ/mol
# GULP energy per Si atom -5595.733711 kJ/mol
# Density = 2.303495 g / cm^3
# Si number density = 23.087497 Si / 1000 Ang^3
#
#
#
# Elastic Constant Matrix: (Units=GPa)
#
#
# Indices 1 2 3 4 5 6 
#
# 1 72.5282 37.7648 7.1068 0.0000 0.0000 0.0000
# 2 37.7648 177.9873 38.1962 0.0000 0.0000 0.0000
# 3 7.1068 38.1962 175.3111 0.0000 0.0000 0.0000
# 4 0.0000 0.0000 0.0000 43.0157 0.0000 0.0000
# 5 0.0000 0.0000 0.0000 0.0000 25.8703 0.0000
# 6 0.0000 0.0000 0.0000 0.0000 0.0000 62.5599
#
#
#
# Elastic Compliance Matrix: (Units=1/GPa)
#
#
# Indices 1 2 3 4 5 6 
#
# 1 0.015502 -0.003309 0.000093 0.000000 0.000000 0.000000
# 2 -0.003309 0.006600 -0.001304 0.000000 0.000000 0.000000
# 3 0.000093 -0.001304 0.005984 0.000000 0.000000 0.000000
# 4 0.000000 0.000000 0.000000 0.023247 0.000000 0.000000
# 5 0.000000 0.000000 0.000000 0.000000 0.038654 0.000000
# 6 0.000000 0.000000 0.000000 0.000000 0.000000 0.015985
#
#
# Mechanical properties :
#
#
# Convention : Reuss Voigt Hill
#
# Bulk Modulus (GPa) = 52.50517 65.77357 59.13937
# Shear Modulus (GPa) = 41.19910 49.13979 45.16944
#
# Velocity S-wave (km/s) = 4.22889 4.61848 4.42797
# Velocity P-wave (km/s) = 6.82905 7.54925 7.19816
#
# Compressibility (1/GPa) = 0.01904574
#
# Stress axis : x y z
#
# Youngs Moduli (GPa) = 64.50945 151.50875 167.09876
#
# Poissons Ratio (x) = 0.50133 -0.01546
# Poissons Ratio (y) = 0.21346 0.21788
# Poissons Ratio (z) = -0.00597 0.19755
#
# Static dielectric constant tensor:
#      x y z
#    x 1.872510 0.000000 0.000000 
#    y 0.000000 1.843840 0.000000 
#    z 0.000000 0.000000 2.004750 
# 
# From -- ./inp_files/1354.got.cif
#   From: 2010.05.17/outbox.cif.g08.bks.cpg/sg39_1_cif.got.tgz:1354.got - 2010.06.03 18:22:40.
