data_PCOD9361413
_publ_section_title
;
Structure prediction by ZEFSAII (Michael W. Deem and Ramdas Pophale) SiO2 
 PCOD9361413
Probable space group: A B M 2
;
_chemical_formula_sum "Si O2"
_cell_formula_units_Z 48
_cell_length_a 16.824823
_cell_length_b 15.138813
_cell_length_c 8.394072
_cell_angle_alpha 90.000000
_cell_angle_beta 90.000000
_cell_angle_gamma 90.000000
_cell_volume 2138.036025
_symmetry_space_group_name_H-M "A B M 2"
_symmetry_group_IT_number 39
_symmetry_cell_setting 'orthorhombic'
loop_
_space_group_symop_operation_xyz
x,y,z
-x,-y,z
-x,1/2+y,z
x,1/2-y,z
x,1/2+y,1/2+z
-x,1/2-y,1/2+z
-x,y,1/2+z
x,-y,1/2+z
loop_
_atom_site_type_symbol
_atom_site_label
_atom_site_fract_x
_atom_site_fract_y
_atom_site_fract_z
Si Si1 0.958942 0.750000 0.855600
Si Si2 0.173979 0.567120 0.620655
Si Si3 0.546349 0.250000 0.907032
Si Si4 0.921267 0.441246 0.313958
Si Si5 0.331493 0.074440 0.913178
Si Si6 0.879725 0.750000 0.209374
Si Si7 0.423171 0.934835 0.728498
Si Si8 0.379387 0.250000 0.762783
O O1 0.933322 0.839739 0.767609
O O2 0.054087 0.750000 0.845721
O O3 0.922892 0.750000 0.034115
O O4 0.099423 0.562129 0.499965
O O5 0.154956 0.485466 0.732904
O O6 0.252399 0.566426 0.516061
O O7 0.169756 0.659913 0.713316
O O8 0.582019 0.250000 0.085909
O O9 0.569481 0.159041 0.816721
O O10 0.451458 0.250000 0.889589
O O11 0.000000 0.500000 0.290250
O O12 0.401935 0.080035 0.044541
O O13 0.331506 0.161018 0.801824
O O14 0.351910 0.989454 0.808886
O O15 0.500000 0.000000 0.739380
#
# Coordination Sequence:
#
# PCOD9361413 Si02
#       8
#     4   8   4   8   8   4   8   4
#     4  10  22  36  62  91 124 163 220 272 318 384
#     4  11  24  41  65  96 135 172 217 272 338 395
#     4  12  26  45  72 105 130 175 234 282 334 402
#     4  11  22  40  64  95 127 175 223 274 328 398
#     4  12  25  44  68 102 140 180 224 281 348 404
#     4  10  21  39  61  91 126 168 212 268 327 379
#     4  12  25  44  71 100 133 181 228 281 334 410
#     4  12  25  44  71  99 138 174 224 286 337 403
#
# _framework density 22.450512
#
# number of rings (size 3 to 8) (size 9 to 14) (size 15 to 20)
#    0.000    0.667    3.333    5.000    2.333    0.000 
#    0.000    0.833    0.000    0.000    0.000    0.000 
#    0.000    0.000    0.000    0.000    0.000    0.000 
#
# Total GULP energy -134191.584175 kJ/mol
# GULP energy per Si atom -5591.316007 kJ/mol
# Density = 2.239941 g / cm^3
# Si number density = 22.450512 Si / 1000 Ang^3
#
#
#
# Elastic Constant Matrix: (Units=GPa)
#
#
# Indices 1 2 3 4 5 6 
#
# 1 53.9775 28.1548 4.7095 0.0000 0.0000 0.0000
# 2 28.1548 185.0605 41.6304 0.0000 0.0000 0.0000
# 3 4.7095 41.6304 76.3047 0.0000 0.0000 0.0000
# 4 0.0000 0.0000 0.0000 -5.5264 0.0000 0.0000
# 5 0.0000 0.0000 0.0000 0.0000 31.6930 0.0000
# 6 0.0000 0.0000 0.0000 0.0000 0.0000 13.6713
#
#
#
# Elastic Compliance Matrix: (Units=1/GPa)
#
#
# Indices 1 2 3 4 5 6 
#
# 1 0.020139 -0.003174 0.000489 0.000000 0.000000 0.000000
# 2 -0.003174 0.006660 -0.003438 0.000000 0.000000 0.000000
# 3 0.000489 -0.003438 0.014951 0.000000 0.000000 0.000000
# 4 0.000000 0.000000 0.000000 -0.180950 0.000000 0.000000
# 5 0.000000 0.000000 0.000000 0.000000 0.031553 0.000000
# 6 0.000000 0.000000 0.000000 0.000000 0.000000 0.073146
#
#
# Mechanical properties :
#
#
# Convention : Reuss Voigt Hill
#
# Bulk Modulus (GPa) = 33.89380 51.59246 42.74313
# Shear Modulus (GPa) = -402.53375 24.02412 -189.25482
#
# Velocity S-wave (km/s) = -13.40476 3.27478 -9.19139
# Velocity P-wave (km/s) = 14.98177 6.10977 9.67275
#
# Compressibility (1/GPa) = 0.02950392
#
# Stress axis : x y z
#
# Youngs Moduli (GPa) = 49.65473 150.15474 66.88668
#
# Poissons Ratio (x) = 0.47657 -0.03268
# Poissons Ratio (y) = 0.15760 0.22993
# Poissons Ratio (z) = -0.02426 0.51617
#
# Static dielectric constant tensor:
#      x y z
#    x 1.860850 0.000000 0.000000 
#    y 0.000000 1.883940 0.000000 
#    z 0.000000 0.000000 1.826990 
# 
# From -- ./inp_files/3745.got.cif
#   From: 2010.05.17/outbox.cif.g08.bks.cpg/sg39_2_cif.got.tgz:3745.got - 2010.06.03 18:22:40.
