data_PCOD9361431
_publ_section_title
;
Structure prediction by ZEFSAII (Michael W. Deem and Ramdas Pophale) SiO2 
 PCOD9361431
Probable space group: A B M 2
;
_chemical_formula_sum "Si O2"
_cell_formula_units_Z 36
_cell_length_a 7.654561
_cell_length_b 16.553469
_cell_length_c 14.551864
_cell_angle_alpha 90.000000
_cell_angle_beta 90.000000
_cell_angle_gamma 90.000000
_cell_volume 1843.859968
_symmetry_space_group_name_H-M "A B M 2"
_symmetry_group_IT_number 39
_symmetry_cell_setting 'orthorhombic'
loop_
_space_group_symop_operation_xyz
x,y,z
-x,-y,z
-x,1/2+y,z
x,1/2-y,z
x,1/2+y,1/2+z
-x,1/2-y,1/2+z
-x,y,1/2+z
x,-y,1/2+z
loop_
_atom_site_type_symbol
_atom_site_label
_atom_site_fract_x
_atom_site_fract_y
_atom_site_fract_z
Si Si1 0.757050 0.340718 0.158810
Si Si2 0.000000 0.500000 0.394846
Si Si3 0.094563 0.344015 0.271377
Si Si4 0.341508 0.447141 0.487428
Si Si5 0.532757 0.595143 0.290045
O O1 0.712617 0.250000 0.133514
O O2 0.957893 0.345800 0.188699
O O3 0.723443 0.394240 0.070708
O O4 0.364162 0.636625 0.246227
O O5 0.025508 0.416557 0.337678
O O6 0.820076 0.498820 0.451526
O O7 0.095002 0.250000 0.306684
O O8 0.291011 0.369758 0.244856
O O9 0.500000 0.500000 0.523203
O O10 0.421157 0.399229 0.398961
O O11 0.500000 0.500000 0.274720
#
# Coordination Sequence:
#
# PCOD9361431 Si02
#       5
#     8   4   8   8   8
#     4  11  23  37  58  89 123 160 202 249 302 362
#     4  10  22  40  62  86 118 162 204 250 308 362
#     4  10  21  39  63  90 120 159 206 253 304 362
#     4  10  22  38  58  87 117 154 203 251 302 363
#     4  10  21  40  64  85 117 161 204 253 309 361
#
# _framework density 19.524259000000001
#
# number of rings (size 3 to 8) (size 9 to 14) (size 15 to 20)
#    0.000    1.778    0.000    5.333    0.000    8.889 
#    0.000    1.111    0.000    2.667    0.000    0.000 
#    0.000    0.000    0.000    0.000    0.000    0.000 
#
# Total GULP energy -100335.171958 kJ/mol
# GULP energy per Si atom -5574.176220 kJ/mol
# Density = 1.947982 g / cm^3
# Si number density = 19.524259 Si / 1000 Ang^3
#
#
#
# Elastic Constant Matrix: (Units=GPa)
#
#
# Indices 1 2 3 4 5 6 
#
# 1 95.7576 42.5054 22.0785 0.0000 0.0000 0.0000
# 2 42.5054 124.7170 32.5914 0.0000 0.0000 0.0000
# 3 22.0785 32.5914 36.5445 0.0000 0.0000 0.0000
# 4 0.0000 0.0000 0.0000 16.7756 0.0000 0.0000
# 5 0.0000 0.0000 0.0000 0.0000 12.4474 0.0000
# 6 0.0000 0.0000 0.0000 0.0000 0.0000 29.9541
#
#
#
# Elastic Compliance Matrix: (Units=1/GPa)
#
#
# Indices 1 2 3 4 5 6 
#
# 1 0.012991 -0.003099 -0.005085 0.000000 0.000000 0.000000
# 2 -0.003099 0.011194 -0.008111 0.000000 0.000000 0.000000
# 3 -0.005085 -0.008111 0.037670 0.000000 0.000000 0.000000
# 4 0.000000 0.000000 0.000000 0.059610 0.000000 0.000000
# 5 0.000000 0.000000 0.000000 0.000000 0.080338 0.000000
# 6 0.000000 0.000000 0.000000 0.000000 0.000000 0.033384
#
#
# Mechanical properties :
#
#
# Convention : Reuss Voigt Hill
#
# Bulk Modulus (GPa) = 34.17034 50.15216 42.16125
# Shear Modulus (GPa) = 18.01597 22.49166 20.25381
#
# Velocity S-wave (km/s) = 3.04097 3.39777 3.22431
# Velocity P-wave (km/s) = 5.46530 6.41374 5.95842
#
# Compressibility (1/GPa) = 0.02926514
#
# Stress axis : x y z
#
# Youngs Moduli (GPa) = 76.97682 89.33541 26.54665
#
# Poissons Ratio (x) = 0.27682 0.13499
# Poissons Ratio (y) = 0.23853 0.21532
# Poissons Ratio (z) = 0.39143 0.72459
#
# Static dielectric constant tensor:
#      x y z
#    x 1.685110 0.000000 0.000000 
#    y 0.000000 1.674520 0.000000 
#    z 0.000000 0.000000 1.684950 
# 
# From -- ./inp_files/8000.got.cif
#   From: 2010.05.17/outbox.cif.g08.bks.cpg/sg39_4_cif.got.tgz:8000.got - 2010.06.03 18:22:40.
