data_PCOD9361524
_publ_section_title
;
Structure prediction by ZEFSAII (Michael W. Deem and Ramdas Pophale) SiO2 
 PCOD9361524
Probable space group: A B M 2
;
_chemical_formula_sum "Si O2"
_cell_formula_units_Z 44
_cell_length_a 5.513866
_cell_length_b 24.071546
_cell_length_c 15.783974
_cell_angle_alpha 90.000000
_cell_angle_beta 90.000000
_cell_angle_gamma 90.000000
_cell_volume 2094.963922
_symmetry_space_group_name_H-M "A B M 2"
_symmetry_group_IT_number 39
_symmetry_cell_setting 'orthorhombic'
loop_
_space_group_symop_operation_xyz
x,y,z
-x,-y,z
-x,1/2+y,z
x,1/2-y,z
x,1/2+y,1/2+z
-x,1/2-y,1/2+z
-x,y,1/2+z
x,-y,1/2+z
loop_
_atom_site_type_symbol
_atom_site_label
_atom_site_fract_x
_atom_site_fract_y
_atom_site_fract_z
Si Si1 0.247782 0.600330 0.699410
Si Si2 0.130779 0.918224 0.341044
Si Si3 0.406325 0.686960 0.985798
Si Si4 0.500000 0.000000 0.755647
Si Si5 0.086190 0.375809 0.022029
Si Si6 0.537872 0.813650 0.793641
O O1 0.436422 0.550638 0.693223
O O2 0.087426 0.600354 0.616252
O O3 0.374528 0.659037 0.720264
O O4 0.106122 0.582139 0.783698
O O5 0.077810 0.916095 0.440712
O O6 0.255609 0.859349 0.313290
O O7 0.302387 0.969326 0.315332
O O8 0.431219 0.750000 0.015348
O O9 0.651654 0.654716 0.011823
O O10 0.395742 0.687235 0.883058
O O11 0.152565 0.662039 0.015865
O O12 0.615699 0.750000 0.776171
#
# Coordination Sequence:
#
# PCOD9361524 Si02
#       6
#     8   8   8   4   8   8
#     4  11  23  42  65  96 131 169 226 274 332 398
#     4  10  22  44  64  94 130 173 224 273 333 396
#     4  10  21  41  63  95 137 179 221 265 321 393
#     4  10  24  44  68  90 128 172 222 286 336 392
#     4  11  24  40  68  96 134 175 220 274 333 394
#     4   9  20  38  64  93 133 176 214 266 326 390
#
# _framework density 21.002748
#
# number of rings (size 3 to 8) (size 9 to 14) (size 15 to 20)
#    0.000    1.818    1.818    1.091    5.091    3.636 
#    0.000    3.636    0.000    0.000    0.000    0.000 
#    0.000    0.000    0.000    0.000    0.000    0.000 
#
# Total GULP energy -122684.933420 kJ/mol
# GULP energy per Si atom -5576.587883 kJ/mol
# Density = 2.095494 g / cm^3
# Si number density = 21.002748 Si / 1000 Ang^3
#
#
#
# Elastic Constant Matrix: (Units=GPa)
#
#
# Indices 1 2 3 4 5 6 
#
# 1 53.7102 13.0747 2.7523 0.0000 0.0000 0.0000
# 2 13.0747 111.8259 13.3927 0.0000 0.0000 0.0000
# 3 2.7523 13.3927 57.3450 0.0000 0.0000 0.0000
# 4 0.0000 0.0000 0.0000 5.2655 0.0000 0.0000
# 5 0.0000 0.0000 0.0000 0.0000 7.8634 0.0000
# 6 0.0000 0.0000 0.0000 0.0000 0.0000 13.1363
#
#
#
# Elastic Compliance Matrix: (Units=1/GPa)
#
#
# Indices 1 2 3 4 5 6 
#
# 1 0.019173 -0.002193 -0.000408 0.000000 0.000000 0.000000
# 2 -0.002193 0.009451 -0.002102 0.000000 0.000000 0.000000
# 3 -0.000408 -0.002102 0.017949 0.000000 0.000000 0.000000
# 4 0.000000 0.000000 0.000000 0.189915 0.000000 0.000000
# 5 0.000000 0.000000 0.000000 0.000000 0.127171 0.000000
# 6 0.000000 0.000000 0.000000 0.000000 0.000000 0.076125
#
#
# Mechanical properties :
#
#
# Convention : Reuss Voigt Hill
#
# Bulk Modulus (GPa) = 26.90571 31.25784 29.08177
# Shear Modulus (GPa) = 10.83240 18.16381 14.49811
#
# Velocity S-wave (km/s) = 2.27350 2.94399 2.63020
# Velocity P-wave (km/s) = 4.44186 5.14501 4.80631
#
# Compressibility (1/GPa) = 0.03716683
#
# Stress axis : x y z
#
# Youngs Moduli (GPa) = 52.15626 105.81343 55.71406
#
# Poissons Ratio (x) = 0.23203 0.02274
# Poissons Ratio (y) = 0.11437 0.11711
# Poissons Ratio (z) = 0.02128 0.22241
#
# Static dielectric constant tensor:
#      x y z
#    x 1.810930 0.000000 0.000000 
#    y 0.000000 1.777280 0.000000 
#    z 0.000000 0.000000 1.785350 
# 
# From -- ./inp_files/7494.got.cif
#   From: 2010.05.17/outbox.cif.g08.bks.cpg/sg39_4_cif.got.tgz:7494.got - 2010.06.03 18:22:40.
