data_PCOD9361892
_publ_section_title
;
Structure prediction by ZEFSAII (Michael W. Deem and Ramdas Pophale) SiO2 
 PCOD9361892
Probable space group: A B M 2
;
_chemical_formula_sum "Si O2"
_cell_formula_units_Z 44
_cell_length_a 5.276188
_cell_length_b 15.827252
_cell_length_c 24.642238
_cell_angle_alpha 90.000000
_cell_angle_beta 90.000000
_cell_angle_gamma 90.000000
_cell_volume 2057.813096
_symmetry_space_group_name_H-M "A B M 2"
_symmetry_group_IT_number 39
_symmetry_cell_setting 'orthorhombic'
loop_
_space_group_symop_operation_xyz
x,y,z
-x,-y,z
-x,1/2+y,z
x,1/2-y,z
x,1/2+y,1/2+z
-x,1/2-y,1/2+z
-x,y,1/2+z
x,-y,1/2+z
loop_
_atom_site_type_symbol
_atom_site_label
_atom_site_fract_x
_atom_site_fract_y
_atom_site_fract_z
Si Si1 0.027342 0.154367 0.317160
Si Si2 0.335622 0.250000 0.147710
Si Si3 0.586276 0.412398 0.572620
Si Si4 0.725843 0.656515 0.472014
Si Si5 0.846846 0.750000 0.717014
Si Si6 0.525629 0.904415 0.872068
Si Si7 0.000000 0.000000 0.994754
O O1 0.047957 0.250000 0.339999
O O2 0.926622 0.171194 0.255903
O O3 0.799035 0.108628 0.346660
O O4 0.301738 0.114789 0.328340
O O5 0.358877 0.164248 0.112700
O O6 0.560691 0.250000 0.193664
O O7 0.051099 0.250000 0.169831
O O8 0.500000 0.500000 0.601156
O O9 0.387869 0.372384 0.529706
O O10 0.806741 0.449909 0.534125
O O11 0.838000 0.750000 0.476376
O O12 0.519602 0.654057 0.424361
O O13 0.902582 0.577184 0.458383
O O14 0.500000 0.000000 0.890750
#
# Coordination Sequence:
#
# PCOD9361892 Si02
#       7
#     8   4   8   8   4   8   4
#     4  10  23  46  69  94 131 180 232 288 346 406
#     4  12  24  46  78  99 133 186 234 284 372 406
#     4  10  24  42  66 103 145 178 233 284 338 418
#     4  11  24  41  66 103 144 190 228 273 346 418
#     4  10  26  46  74  97 131 174 238 302 348 414
#     4  12  24  41  69 105 143 185 227 280 349 419
#     4  10  24  42  62  98 154 176 232 290 328 414
#
# _framework density 21.381920000000001
#
# number of rings (size 3 to 8) (size 9 to 14) (size 15 to 20)
#    0.545    0.727    0.909    4.909   11.455    0.000 
#    0.000    5.455    0.000    0.000    0.000    0.000 
#    0.000    0.000    0.000    0.000    0.000    0.000 
#
# Total GULP energy -122675.009867 kJ/mol
# GULP energy per Si atom -5576.136812 kJ/mol
# Density = 2.133325 g / cm^3
# Si number density = 21.381920 Si / 1000 Ang^3
#
#
#
# Elastic Constant Matrix: (Units=GPa)
#
#
# Indices 1 2 3 4 5 6 
#
# 1 65.4830 19.7716 -10.9844 0.0000 0.0000 0.0000
# 2 19.7716 167.0798 27.4954 0.0000 0.0000 0.0000
# 3 -10.9844 27.4954 40.4058 0.0000 0.0000 0.0000
# 4 0.0000 0.0000 0.0000 38.2838 0.0000 0.0000
# 5 0.0000 0.0000 0.0000 0.0000 32.0285 0.0000
# 6 0.0000 0.0000 0.0000 0.0000 0.0000 37.7426
#
#
#
# Elastic Compliance Matrix: (Units=1/GPa)
#
#
# Indices 1 2 3 4 5 6 
#
# 1 0.017393 -0.003194 0.006902 0.000000 0.000000 0.000000
# 2 -0.003194 0.007326 -0.005854 0.000000 0.000000 0.000000
# 3 0.006902 -0.005854 0.030609 0.000000 0.000000 0.000000
# 4 0.000000 0.000000 0.000000 0.026121 0.000000 0.000000
# 5 0.000000 0.000000 0.000000 0.000000 0.031222 0.000000
# 6 0.000000 0.000000 0.000000 0.000000 0.000000 0.026495
#
#
# Mechanical properties :
#
#
# Convention : Reuss Voigt Hill
#
# Bulk Modulus (GPa) = 19.59382 38.39263 28.99323
# Shear Modulus (GPa) = 31.15831 37.39004 34.27418
#
# Velocity S-wave (km/s) = 3.82151 4.18625 4.00803
# Velocity P-wave (km/s) = 5.35308 6.43125 5.91677
#
# Compressibility (1/GPa) = 0.05103649
#
# Stress axis : x y z
#
# Youngs Moduli (GPa) = 57.49338 136.49136 32.67045
#
# Poissons Ratio (x) = 0.43596 -0.22549
# Poissons Ratio (y) = 0.18364 0.19125
# Poissons Ratio (z) = -0.39682 0.79900
#
# Static dielectric constant tensor:
#      x y z
#    x 1.896690 0.000000 0.000000 
#    y 0.000000 1.705430 0.000000 
#    z 0.000000 0.000000 1.773600 
# 
# From -- ./inp_files/16486.got.cif
#   From: 2010.05.17/outbox.cif.g08.bks.cpg/sg39_9_cif.got.tgz:16486.got - 2010.06.03 18:22:40.
