data_PCOD9361585
_publ_section_title
;
Structure prediction by ZEFSAII (Michael W. Deem and Ramdas Pophale) SiO2 
 PCOD9361585
Probable space group: A B M 2
;
_chemical_formula_sum "Si O2"
_cell_formula_units_Z 52
_cell_length_a 16.841831
_cell_length_b 17.976759
_cell_length_c 9.124581
_cell_angle_alpha 90.000000
_cell_angle_beta 90.000000
_cell_angle_gamma 90.000000
_cell_volume 2762.572168
_symmetry_space_group_name_H-M "A B M 2"
_symmetry_group_IT_number 39
_symmetry_cell_setting 'orthorhombic'
loop_
_space_group_symop_operation_xyz
x,y,z
-x,-y,z
-x,1/2+y,z
x,1/2-y,z
x,1/2+y,1/2+z
-x,1/2-y,1/2+z
-x,y,1/2+z
x,-y,1/2+z
loop_
_atom_site_type_symbol
_atom_site_label
_atom_site_fract_x
_atom_site_fract_y
_atom_site_fract_z
Si Si1 0.595511 0.386700 0.811180
Si Si2 0.352945 0.953003 0.249670
Si Si3 0.891995 0.059315 0.919871
Si Si4 0.246584 0.547682 0.523193
Si Si5 0.527548 0.836438 0.604707
Si Si6 0.227572 0.162763 0.279525
Si Si7 0.000000 0.500000 0.161899
O O1 0.597720 0.475625 0.807067
O O2 0.560098 0.357800 0.658916
O O3 0.684286 0.357318 0.837921
O O4 0.538771 0.354250 0.934691
O O5 0.300144 0.927391 0.386566
O O6 0.409666 0.890264 0.185396
O O7 0.296358 0.989104 0.123879
O O8 0.839138 0.131787 0.889800
O O9 0.938441 0.039741 0.770859
O O10 0.829073 0.994410 0.957116
O O11 0.953979 0.056783 0.053942
O O12 0.222673 0.614488 0.630528
O O13 0.542829 0.750000 0.633244
O O14 0.220694 0.250000 0.255780
#
# Coordination Sequence:
#
# PCOD9361585 Si02
#       7
#     8   8   8   8   8   8   4
#     4  11  25  42  61  84 122 171 217 259 318 377
#     4  11  22  39  63  88 115 167 210 266 301 379
#     4  11  19  40  64  96 122 162 202 247 297 377
#     4  11  20  39  66  91 120 160 214 248 304 373
#     4  12  25  40  58  87 123 160 211 274 327 365
#     4  11  23  40  65  94 129 163 206 265 319 364
#     4  10  22  34  70  98 120 160 208 242 294 378
#
# _framework density 18.823039000000001
#
# number of rings (size 3 to 8) (size 9 to 14) (size 15 to 20)
#    0.000    0.923    6.154    1.846    4.308    1.846 
#    0.000    0.769    0.000    2.769    0.000    0.000 
#    0.000    0.000    0.000    0.000    0.000    0.000 
#
# Total GULP energy -145285.530676 kJ/mol
# GULP energy per Si atom -5587.905026 kJ/mol
# Density = 1.878020 g / cm^3
# Si number density = 18.823039 Si / 1000 Ang^3
#
#
#
# Elastic Constant Matrix: (Units=GPa)
#
#
# Indices 1 2 3 4 5 6 
#
# 1 85.6119 26.3159 30.7964 0.0000 0.0000 0.0000
# 2 26.3159 119.0563 9.0481 0.0000 0.0000 0.0000
# 3 30.7964 9.0481 74.5321 0.0000 0.0000 0.0000
# 4 0.0000 0.0000 0.0000 16.3984 0.0000 0.0000
# 5 0.0000 0.0000 0.0000 0.0000 46.9859 0.0000
# 6 0.0000 0.0000 0.0000 0.0000 0.0000 13.7869
#
#
#
# Elastic Compliance Matrix: (Units=1/GPa)
#
#
# Indices 1 2 3 4 5 6 
#
# 1 0.014585 -0.002791 -0.005687 0.000000 0.000000 0.000000
# 2 -0.002791 0.009012 0.000059 0.000000 0.000000 0.000000
# 3 -0.005687 0.000059 0.015760 0.000000 0.000000 0.000000
# 4 0.000000 0.000000 0.000000 0.060982 0.000000 0.000000
# 5 0.000000 0.000000 0.000000 0.000000 0.021283 0.000000
# 6 0.000000 0.000000 0.000000 0.000000 0.000000 0.072533
#
#
# Mechanical properties :
#
#
# Convention : Reuss Voigt Hill
#
# Bulk Modulus (GPa) = 44.41029 45.72457 45.06743
# Shear Modulus (GPa) = 22.88346 29.63689 26.26017
#
# Velocity S-wave (km/s) = 3.49049 3.97230 3.73917
# Velocity P-wave (km/s) = 6.31582 6.73672 6.52966
#
# Compressibility (1/GPa) = 0.02251730
#
# Stress axis : x y z
#
# Youngs Moduli (GPa) = 68.56567 110.96441 63.45244
#
# Poissons Ratio (x) = 0.30976 0.36088
# Poissons Ratio (y) = 0.19140 -0.00377
# Poissons Ratio (z) = 0.38996 -0.00659
#
# Static dielectric constant tensor:
#      x y z
#    x 1.686270 0.000000 0.000000 
#    y 0.000000 1.612490 0.000000 
#    z 0.000000 0.000000 1.680240 
# 
# From -- ./inp_files/3777.got.cif
#   From: 2010.05.17/outbox.cif.g08.bks.cpg/sg39_2_cif.got.tgz:3777.got - 2010.06.03 18:22:40.
