data_PCOD9361961
_publ_section_title
;
Structure prediction by ZEFSAII (Michael W. Deem and Ramdas Pophale) SiO2 
 PCOD9361961
Probable space group: A B M 2
;
_chemical_formula_sum "Si O2"
_cell_formula_units_Z 28
_cell_length_a 4.582254
_cell_length_b 9.143088
_cell_length_c 25.011450
_cell_angle_alpha 90.000000
_cell_angle_beta 90.000000
_cell_angle_gamma 90.000000
_cell_volume 1047.878498
_symmetry_space_group_name_H-M "A B M 2"
_symmetry_group_IT_number 39
_symmetry_cell_setting 'orthorhombic'
loop_
_space_group_symop_operation_xyz
x,y,z
-x,-y,z
-x,1/2+y,z
x,1/2-y,z
x,1/2+y,1/2+z
-x,1/2-y,1/2+z
-x,y,1/2+z
x,-y,1/2+z
loop_
_atom_site_type_symbol
_atom_site_label
_atom_site_fract_x
_atom_site_fract_y
_atom_site_fract_z
Si Si1 0.000000 0.000000 0.831650
Si Si2 0.500000 0.500000 0.043822
Si Si3 0.713052 0.750000 0.401001
Si Si4 0.670046 0.750000 0.766969
Si Si5 0.000000 0.500000 0.618343
Si Si6 0.158331 0.250000 0.192237
Si Si7 0.215880 0.250000 0.974093
O O1 0.788834 0.894158 0.796912
O O2 0.192004 0.892222 0.868279
O O3 0.247393 0.570986 0.080672
O O4 0.323218 0.388563 0.006864
O O5 0.375684 0.750000 0.416225
O O6 0.879970 0.750000 0.457811
O O7 0.334595 0.750000 0.748265
O O8 0.821383 0.750000 0.709438
O O9 0.816836 0.391066 0.655636
#
# Coordination Sequence:
#
# PCOD9361961 Si02
#       7
#     4   4   4   4   4   4   4
#     4  10  25  45  70 100 140 184 234 293 355 418
#     4  12  24  42  68 100 138 182 232 288 352 418
#     4  11  24  43  68 100 138 182 231 288 351 418
#     4  11  26  45  70 101 138 183 237 292 351 420
#     4  12  25  45  70 100 140 184 234 293 353 418
#     4  12  26  46  70 101 138 183 238 292 352 420
#     4  12  24  42  68 100 138 180 232 286 346 420
#
# _framework density 26.720654
#
# number of rings (size 3 to 8) (size 9 to 14) (size 15 to 20)
#    0.000    0.571    0.000    7.714    0.000   10.286 
#    0.000    1.429    0.000    0.000    0.000    0.000 
#    0.000    0.000    0.000    0.000    0.000    0.000 
#
# Total GULP energy -78582.557712 kJ/mol
# GULP energy per Si atom -5613.039837 kJ/mol
# Density = 2.665984 g / cm^3
# Si number density = 26.720654 Si / 1000 Ang^3
#
#
#
# Elastic Constant Matrix: (Units=GPa)
#
#
# Indices 1 2 3 4 5 6 
#
# 1 110.8130 22.9595 34.1945 0.0000 0.0000 0.0000
# 2 22.9595 169.7208 63.0626 0.0000 0.0000 0.0000
# 3 34.1945 63.0626 123.3991 0.0000 0.0000 0.0000
# 4 0.0000 0.0000 0.0000 47.8603 0.0000 0.0000
# 5 0.0000 0.0000 0.0000 0.0000 69.1742 0.0000
# 6 0.0000 0.0000 0.0000 0.0000 0.0000 24.4367
#
#
#
# Elastic Compliance Matrix: (Units=1/GPa)
#
#
# Indices 1 2 3 4 5 6 
#
# 1 0.009889 -0.000394 -0.002539 0.000000 0.000000 0.000000
# 2 -0.000394 0.007289 -0.003616 0.000000 0.000000 0.000000
# 3 -0.002539 -0.003616 0.010655 0.000000 0.000000 0.000000
# 4 0.000000 0.000000 0.000000 0.020894 0.000000 0.000000
# 5 0.000000 0.000000 0.000000 0.000000 0.014456 0.000000
# 6 0.000000 0.000000 0.000000 0.000000 0.000000 0.040922
#
#
# Mechanical properties :
#
#
# Convention : Reuss Voigt Hill
#
# Bulk Modulus (GPa) = 67.86351 71.59623 69.72987
# Shear Modulus (GPa) = 40.94489 47.20866 44.07677
#
# Velocity S-wave (km/s) = 3.91875 4.20783 4.06586
# Velocity P-wave (km/s) = 6.77702 7.10354 6.94220
#
# Compressibility (1/GPa) = 0.01473546
#
# Stress axis : x y z
#
# Youngs Moduli (GPa) = 101.11881 137.19610 93.85230
#
# Poissons Ratio (x) = 0.05412 0.23827
# Poissons Ratio (y) = 0.03989 0.33933
# Poissons Ratio (z) = 0.25672 0.49605
#
# Static dielectric constant tensor:
#      x y z
#    x 1.995860 0.000000 0.000000 
#    y 0.000000 2.033540 0.000000 
#    z 0.000000 0.000000 2.034210 
# 
# From -- ./inp_files/15103.got.cif
#   From: 2010.05.17/outbox.cif.g08.bks.cpg/sg39_8_cif.got.tgz:15103.got - 2010.06.03 18:22:40.
