data_PCOD9361473
_publ_section_title
;
Structure prediction by ZEFSAII (Michael W. Deem and Ramdas Pophale) SiO2 
 PCOD9361473
Probable space group: A B M 2
;
_chemical_formula_sum "Si O2"
_cell_formula_units_Z 32
_cell_length_a 8.116093
_cell_length_b 12.957841
_cell_length_c 12.678276
_cell_angle_alpha 90.000000
_cell_angle_beta 90.000000
_cell_angle_gamma 90.000000
_cell_volume 1333.336793
_symmetry_space_group_name_H-M "A B M 2"
_symmetry_group_IT_number 39
_symmetry_cell_setting 'orthorhombic'
loop_
_space_group_symop_operation_xyz
x,y,z
-x,-y,z
-x,1/2+y,z
x,1/2-y,z
x,1/2+y,1/2+z
-x,1/2-y,1/2+z
-x,y,1/2+z
x,-y,1/2+z
loop_
_atom_site_type_symbol
_atom_site_label
_atom_site_fract_x
_atom_site_fract_y
_atom_site_fract_z
Si Si1 0.353169 0.570406 0.467500
Si Si2 0.137539 0.072490 0.150714
Si Si3 0.769072 0.750000 0.307828
Si Si4 0.563526 0.250000 0.004943
Si Si5 0.911342 0.750000 0.605643
Si Si6 0.142356 0.250000 0.855462
O O1 0.500000 0.500000 0.418035
O O2 0.245490 0.517055 0.560074
O O3 0.457897 0.652373 0.534287
O O4 0.240228 0.646184 0.394667
O O5 0.225003 0.145971 0.236596
O O6 0.027558 0.153251 0.085074
O O7 0.000000 0.000000 0.203635
O O8 0.607895 0.750000 0.380236
O O9 0.133729 0.750000 0.229515
O O10 0.738608 0.250000 0.053853
O O11 0.942712 0.750000 0.374192
#
# Coordination Sequence:
#
# PCOD9361473 Si02
#       6
#     8   8   4   4   4   4
#     4  11  23  37  59  92 126 158 193 246 308 361
#     4  10  21  40  63  88 118 160 207 246 292 355
#     4  10  22  40  65  89 117 160 205 251 294 353
#     4  11  22  38  60  89 124 161 198 249 308 354
#     4  10  21  40  64  83 117 166 208 251 290 349
#     4   9  21  40  59  87 120 159 207 245 292 358
#
# _framework density 23.999936999999999
#
# number of rings (size 3 to 8) (size 9 to 14) (size 15 to 20)
#    0.000    2.000    0.000    6.000    0.000    8.000 
#    0.000    5.000    0.000    0.000    0.000    0.000 
#    0.000    0.000    0.000    0.000    0.000    0.000 
#
# Total GULP energy -89149.635659 kJ/mol
# GULP energy per Si atom -5571.852229 kJ/mol
# Density = 2.394531 g / cm^3
# Si number density = 23.999937 Si / 1000 Ang^3
#
#
#
# Elastic Constant Matrix: (Units=GPa)
#
#
# Indices 1 2 3 4 5 6 
#
# 1 93.4646 5.7708 32.8930 0.0000 0.0000 0.0000
# 2 5.7708 66.4085 -4.1641 0.0000 0.0000 0.0000
# 3 32.8930 -4.1641 70.5115 0.0000 0.0000 0.0000
# 4 0.0000 0.0000 0.0000 3.3069 0.0000 0.0000
# 5 0.0000 0.0000 0.0000 0.0000 42.5334 0.0000
# 6 0.0000 0.0000 0.0000 0.0000 0.0000 39.0292
#
#
#
# Elastic Compliance Matrix: (Units=1/GPa)
#
#
# Indices 1 2 3 4 5 6 
#
# 1 0.012950 -0.001510 -0.006130 0.000000 0.000000 0.000000
# 2 -0.001510 0.015290 0.001607 0.000000 0.000000 0.000000
# 3 -0.006130 0.001607 0.017137 0.000000 0.000000 0.000000
# 4 0.000000 0.000000 0.000000 0.302399 0.000000 0.000000
# 5 0.000000 0.000000 0.000000 0.000000 0.023511 0.000000
# 6 0.000000 0.000000 0.000000 0.000000 0.000000 0.025622
#
#
# Mechanical properties :
#
#
# Convention : Reuss Voigt Hill
#
# Bulk Modulus (GPa) = 30.01959 33.26488 31.64224
# Shear Modulus (GPa) = 11.90257 30.03289 20.96773
#
# Velocity S-wave (km/s) = 2.22939 3.54131 2.95898
# Velocity P-wave (km/s) = 4.37747 5.53278 4.98869
#
# Compressibility (1/GPa) = 0.03331158
#
# Stress axis : x y z
#
# Youngs Moduli (GPa) = 77.22114 65.40099 58.35448
#
# Poissons Ratio (x) = 0.09874 0.35772
# Poissons Ratio (y) = 0.11658 -0.09379
# Poissons Ratio (z) = 0.47338 -0.10512
#
# Static dielectric constant tensor:
#      x y z
#    x 1.924350 0.000000 0.000000 
#    y 0.000000 2.102120 0.000000 
#    z 0.000000 0.000000 2.021500 
# 
# From -- ./inp_files/7871.got.cif
#   From: 2010.05.17/outbox.cif.g08.bks.cpg/sg39_4_cif.got.tgz:7871.got - 2010.06.03 18:22:40.
