data_PCOD9361642
_publ_section_title
;
Structure prediction by ZEFSAII (Michael W. Deem and Ramdas Pophale) SiO2 
 PCOD9361642
Probable space group: A B M 2
;
_chemical_formula_sum "Si O2"
_cell_formula_units_Z 56
_cell_length_a 14.505641
_cell_length_b 8.551672
_cell_length_c 21.998526
_cell_angle_alpha 90.000000
_cell_angle_beta 90.000000
_cell_angle_gamma 90.000000
_cell_volume 2728.861802
_symmetry_space_group_name_H-M "A B M 2"
_symmetry_group_IT_number 39
_symmetry_cell_setting 'orthorhombic'
loop_
_space_group_symop_operation_xyz
x,y,z
-x,-y,z
-x,1/2+y,z
x,1/2-y,z
x,1/2+y,1/2+z
-x,1/2-y,1/2+z
-x,y,1/2+z
x,-y,1/2+z
loop_
_atom_site_type_symbol
_atom_site_label
_atom_site_fract_x
_atom_site_fract_y
_atom_site_fract_z
Si Si1 0.787623 0.939227 0.818480
Si Si2 0.396152 0.064819 0.999075
Si Si3 0.895703 0.060916 0.197863
Si Si4 0.602973 0.062189 0.262273
Si Si5 0.895492 0.560715 0.563464
Si Si6 0.395335 0.062499 0.627082
Si Si7 0.218136 0.936846 0.945667
O O1 0.790121 0.750000 0.820696
O O2 0.842040 0.990925 0.758119
O O3 0.681256 0.989386 0.808650
O O4 0.822971 0.005295 0.882001
O O5 0.400982 0.250000 0.996500
O O6 0.500000 0.000000 0.991347
O O7 0.322000 0.000439 0.952057
O O8 0.358607 0.011330 0.065410
O O9 0.895005 0.250000 0.198673
O O10 0.858675 0.013971 0.130732
O O11 0.000000 0.000000 0.201102
O O12 0.597057 0.250000 0.263801
O O13 0.639519 0.021663 0.194207
O O14 0.500000 0.000000 0.271698
O O15 0.895906 0.750000 0.562342
O O16 0.838611 0.506772 0.504764
O O17 0.000000 0.500000 0.559331
O O18 0.392409 0.250000 0.620430
O O19 0.500000 0.000000 0.628977
O O20 0.220066 0.750000 0.946789
#
# Coordination Sequence:
#
# PCOD9361642 Si02
#       7
#     8   8   8   8   8   8   8
#     4  10  22  39  58  83 117 159 198 237 293 351
#     4  11  22  37  57  83 116 156 200 246 295 348
#     4   9  19  38  64  89 115 149 190 239 294 352
#     4   9  19  34  55  80 112 154 195 238 287 342
#     4   9  20  39  65  91 117 151 193 241 297 354
#     4   9  16  29  51  78 108 142 186 237 288 341
#     4  11  24  40  59  86 120 159 200 244 295 352
#
# _framework density 20.521376
#
# number of rings (size 3 to 8) (size 9 to 14) (size 15 to 20)
#    0.000    2.286    0.000    3.000    2.000    4.000 
#    0.000    4.286    0.000    0.000    0.000    0.000 
#    0.000    0.000    0.000    0.000    0.000    0.000 
#
# Total GULP energy -156241.644670 kJ/mol
# GULP energy per Si atom -5580.058738 kJ/mol
# Density = 2.047467 g / cm^3
# Si number density = 20.521376 Si / 1000 Ang^3
#
#
#
# Elastic Constant Matrix: (Units=GPa)
#
#
# Indices 1 2 3 4 5 6 
#
# 1 74.7877 13.7762 71.0245 0.0000 0.0000 0.0000
# 2 13.7762 38.1816 35.3758 0.0000 0.0000 0.0000
# 3 71.0245 35.3758 183.5279 0.0000 0.0000 0.0000
# 4 0.0000 0.0000 0.0000 28.4611 0.0000 0.0000
# 5 0.0000 0.0000 0.0000 0.0000 25.2608 0.0000
# 6 0.0000 0.0000 0.0000 0.0000 0.0000 20.1656
#
#
#
# Elastic Compliance Matrix: (Units=1/GPa)
#
#
# Indices 1 2 3 4 5 6 
#
# 1 0.021141 -0.000058 -0.008170 0.000000 0.000000 0.000000
# 2 -0.000058 0.031885 -0.006124 0.000000 0.000000 0.000000
# 3 -0.008170 -0.006124 0.009791 0.000000 0.000000 0.000000
# 4 0.000000 0.000000 0.000000 0.035136 0.000000 0.000000
# 5 0.000000 0.000000 0.000000 0.000000 0.039587 0.000000
# 6 0.000000 0.000000 0.000000 0.000000 0.000000 0.049589
#
#
# Mechanical properties :
#
#
# Convention : Reuss Voigt Hill
#
# Bulk Modulus (GPa) = 29.31392 59.65002 44.48197
# Shear Modulus (GPa) = 22.00666 26.53222 24.26944
#
# Velocity S-wave (km/s) = 3.27827 3.59960 3.44269
# Velocity P-wave (km/s) = 5.35210 6.81223 6.12583
#
# Compressibility (1/GPa) = 0.03411349
#
# Stress axis : x y z
#
# Youngs Moduli (GPa) = 47.30130 31.36262 102.13463
#
# Poissons Ratio (x) = 0.00182 0.83447
# Poissons Ratio (y) = 0.00274 0.62543
# Poissons Ratio (z) = 0.38647 0.19205
#
# Static dielectric constant tensor:
#      x y z
#    x 1.716970 0.000000 0.000000 
#    y 0.000000 1.701310 0.000000 
#    z 0.000000 0.000000 1.791670 
# 
# From -- ./inp_files/14804.got.cif
#   From: 2010.05.17/outbox.cif.g08.bks.cpg/sg39_8_cif.got.tgz:14804.got - 2010.06.03 18:22:40.
