data_PCOD9361218
_publ_section_title
;
Structure prediction by ZEFSAII (Michael W. Deem and Ramdas Pophale) SiO2 
 PCOD9361218
Probable space group: A B M 2
;
_chemical_formula_sum "Si O2"
_cell_formula_units_Z 48
_cell_length_a 12.228876
_cell_length_b 15.376165
_cell_length_c 12.132705
_cell_angle_alpha 90.000000
_cell_angle_beta 90.000000
_cell_angle_gamma 90.000000
_cell_volume 2281.351530
_symmetry_space_group_name_H-M "A B M 2"
_symmetry_group_IT_number 39
_symmetry_cell_setting 'orthorhombic'
loop_
_space_group_symop_operation_xyz
x,y,z
-x,-y,z
-x,1/2+y,z
x,1/2-y,z
x,1/2+y,1/2+z
-x,1/2-y,1/2+z
-x,y,1/2+z
x,-y,1/2+z
loop_
_atom_site_type_symbol
_atom_site_label
_atom_site_fract_x
_atom_site_fract_y
_atom_site_fract_z
Si Si1 0.796723 0.651254 0.542580
Si Si2 0.281518 0.148760 0.905395
Si Si3 0.593522 0.617159 0.681742
Si Si4 0.918037 0.356608 0.256870
Si Si5 0.833382 0.644550 0.298865
Si Si6 0.354927 0.583676 0.636559
O O1 0.839032 0.750000 0.530060
O O2 0.674551 0.655742 0.590130
O O3 0.868487 0.610710 0.640911
O O4 0.802853 0.612334 0.421500
O O5 0.270841 0.250000 0.939971
O O6 0.364710 0.144529 0.802178
O O7 0.165482 0.118510 0.854301
O O8 0.322996 0.094663 0.009058
O O9 0.466684 0.635937 0.661527
O O10 0.616186 0.514708 0.667874
O O11 0.913334 0.250000 0.254935
O O12 0.042541 0.382712 0.273462
O O13 0.830055 0.750000 0.296288
O O14 0.746157 0.612646 0.210752
#
# Coordination Sequence:
#
# PCOD9361218 Si02
#       6
#     8   8   8   8   8   8
#     4   9  19  37  61  84 115 157 198 247 301 359
#     4  10  22  41  65  90 121 161 205 253 304 362
#     4  10  24  42  60  84 125 164 198 248 315 361
#     4   8  17  36  60  87 119 157 196 246 312 361
#     4  10  21  35  61  93 118 152 205 254 296 365
#     4  11  25  38  63  89 121 162 205 249 302 365
#
# _framework density 21.040158000000002
#
# number of rings (size 3 to 8) (size 9 to 14) (size 15 to 20)
#    0.000    2.333    0.000    2.000    7.000    4.000 
#    0.000    3.333    0.000    0.000    0.000    0.000 
#    0.000    0.000    0.000    0.000    0.000    0.000 
#
# Total GULP energy -134023.710709 kJ/mol
# GULP energy per Si atom -5584.321280 kJ/mol
# Density = 2.099227 g / cm^3
# Si number density = 21.040158 Si / 1000 Ang^3
#
#
#
# Elastic Constant Matrix: (Units=GPa)
#
#
# Indices 1 2 3 4 5 6 
#
# 1 182.5366 8.2914 81.6011 0.0000 0.0000 0.0000
# 2 8.2914 39.7954 2.9892 0.0000 0.0000 0.0000
# 3 81.6011 2.9892 115.8391 0.0000 0.0000 0.0000
# 4 0.0000 0.0000 0.0000 29.6584 0.0000 0.0000
# 5 0.0000 0.0000 0.0000 0.0000 11.9284 0.0000
# 6 0.0000 0.0000 0.0000 0.0000 0.0000 22.8870
#
#
#
# Elastic Compliance Matrix: (Units=1/GPa)
#
#
# Indices 1 2 3 4 5 6 
#
# 1 0.008059 -0.001255 -0.005644 0.000000 0.000000 0.000000
# 2 -0.001255 0.025373 0.000229 0.000000 0.000000 0.000000
# 3 -0.005644 0.000229 0.012603 0.000000 0.000000 0.000000
# 4 0.000000 0.000000 0.000000 0.033717 0.000000 0.000000
# 5 0.000000 0.000000 0.000000 0.000000 0.083833 0.000000
# 6 0.000000 0.000000 0.000000 0.000000 0.000000 0.043693
#
#
# Mechanical properties :
#
#
# Convention : Reuss Voigt Hill
#
# Bulk Modulus (GPa) = 30.58654 58.21493 44.40074
# Shear Modulus (GPa) = 21.59677 29.24739 25.42208
#
# Velocity S-wave (km/s) = 3.20731 3.73242 3.47978
# Velocity P-wave (km/s) = 5.31832 6.80464 6.10687
#
# Compressibility (1/GPa) = 0.03269412
#
# Stress axis : x y z
#
# Youngs Moduli (GPa) = 124.09064 39.41229 79.34715
#
# Poissons Ratio (x) = 0.04946 0.44787
# Poissons Ratio (y) = 0.15574 -0.01820
# Poissons Ratio (z) = 0.70042 -0.00904
#
# Static dielectric constant tensor:
#      x y z
#    x 1.736910 0.000000 0.000000 
#    y 0.000000 1.810630 0.000000 
#    z 0.000000 0.000000 1.717850 
# 
# From -- ./inp_files/5799.got.cif
#   From: 2010.05.17/outbox.cif.g08.bks.cpg/sg39_3_cif.got.tgz:5799.got - 2010.06.03 18:22:40.
