data_PCOD9361802
_publ_section_title
;
Structure prediction by ZEFSAII (Michael W. Deem and Ramdas Pophale) SiO2 
 PCOD9361802
Probable space group: A B M 2
;
_chemical_formula_sum "Si O2"
_cell_formula_units_Z 36
_cell_length_a 11.376100
_cell_length_b 10.521065
_cell_length_c 15.261814
_cell_angle_alpha 90.000000
_cell_angle_beta 90.000000
_cell_angle_gamma 90.000000
_cell_volume 1826.666487
_symmetry_space_group_name_H-M "A B M 2"
_symmetry_group_IT_number 39
_symmetry_cell_setting 'orthorhombic'
loop_
_space_group_symop_operation_xyz
x,y,z
-x,-y,z
-x,1/2+y,z
x,1/2-y,z
x,1/2+y,1/2+z
-x,1/2-y,1/2+z
-x,y,1/2+z
x,-y,1/2+z
loop_
_atom_site_type_symbol
_atom_site_label
_atom_site_fract_x
_atom_site_fract_y
_atom_site_fract_z
Si Si1 0.292677 0.750000 0.750000
Si Si2 0.348349 0.750000 0.949905
Si Si3 0.417140 0.750000 0.566871
Si Si4 0.255715 0.512319 0.522828
Si Si5 0.142172 0.001270 0.708103
Si Si6 0.909387 0.386530 0.378079
O O1 0.357041 0.750000 0.843985
O O2 0.389951 0.750000 0.671773
O O3 0.204891 0.870164 0.737834
O O4 0.459253 0.750000 0.016436
O O5 0.285608 0.616686 0.972152
O O6 0.358003 0.615760 0.538184
O O7 0.200814 0.470585 0.615290
O O8 0.165205 0.592473 0.464474
O O9 0.163673 0.097835 0.788292
O O10 0.000000 0.000000 0.695112
O O11 0.968885 0.250000 0.378985
O O12 0.000000 0.500000 0.375811
#
# Coordination Sequence:
#
# PCOD9361802 Si02
#       6
#     4   4   4   8   8   8
#     4  10  22  45  66  95 135 170 217 282 328 393
#     4  12  24  43  69  98 121 171 232 278 328 386
#     4  10  24  48  63  89 130 177 215 280 338 379
#     4  11  23  43  65  93 133 166 221 276 322 394
#     4  10  23  39  64  94 135 173 207 261 337 402
#     4  11  24  40  63  96 135 174 212 260 327 404
#
# _framework density 19.708030999999998
#
# number of rings (size 3 to 8) (size 9 to 14) (size 15 to 20)
#    0.000    1.333    3.333    1.333    9.333    0.000 
#    4.000    2.222    0.000    0.000    0.000    0.000 
#    0.000    0.000    0.000    0.000    0.000    0.000 
#
# Total GULP energy -100289.547685 kJ/mol
# GULP energy per Si atom -5571.641538 kJ/mol
# Density = 1.966317 g / cm^3
# Si number density = 19.708031 Si / 1000 Ang^3
#
#
#
# Elastic Constant Matrix: (Units=GPa)
#
#
# Indices 1 2 3 4 5 6 
#
# 1 41.2021 11.9602 16.2322 0.0000 0.0000 0.0000
# 2 11.9602 131.8641 34.0463 0.0000 0.0000 0.0000
# 3 16.2322 34.0463 114.1791 0.0000 0.0000 0.0000
# 4 0.0000 0.0000 0.0000 26.9963 0.0000 0.0000
# 5 0.0000 0.0000 0.0000 0.0000 25.4413 0.0000
# 6 0.0000 0.0000 0.0000 0.0000 0.0000 15.9287
#
#
#
# Elastic Compliance Matrix: (Units=1/GPa)
#
#
# Indices 1 2 3 4 5 6 
#
# 1 0.025989 -0.001520 -0.003241 0.000000 0.000000 0.000000
# 2 -0.001520 0.008305 -0.002260 0.000000 0.000000 0.000000
# 3 -0.003241 -0.002260 0.009893 0.000000 0.000000 0.000000
# 4 0.000000 0.000000 0.000000 0.037042 0.000000 0.000000
# 5 0.000000 0.000000 0.000000 0.000000 0.039306 0.000000
# 6 0.000000 0.000000 0.000000 0.000000 0.000000 0.062780
#
#
# Mechanical properties :
#
#
# Convention : Reuss Voigt Hill
#
# Bulk Modulus (GPa) = 33.17522 45.74695 39.46109
# Shear Modulus (GPa) = 24.10727 28.67372 26.39049
#
# Velocity S-wave (km/s) = 3.50125 3.81849 3.66330
# Velocity P-wave (km/s) = 5.76324 6.53482 6.16112
#
# Compressibility (1/GPa) = 0.03014298
#
# Stress axis : x y z
#
# Youngs Moduli (GPa) = 38.47794 120.40863 101.08200
#
# Poissons Ratio (x) = 0.18306 0.32764
# Poissons Ratio (y) = 0.05850 0.22847
# Poissons Ratio (z) = 0.12472 0.27216
#
# Static dielectric constant tensor:
#      x y z
#    x 1.713500 0.000000 0.000000 
#    y 0.000000 1.665530 0.000000 
#    z 0.000000 0.000000 1.725560 
# 
# From -- ./inp_files/9018.got.cif
#   From: 2010.05.17/outbox.cif.g08.bks.cpg/sg39_5_cif.got.tgz:9018.got - 2010.06.03 18:22:40.
