data_PCOD9361111
_publ_section_title
;
Structure prediction by ZEFSAII (Michael W. Deem and Ramdas Pophale) SiO2 
 PCOD9361111
Probable space group: A B M 2
;
_chemical_formula_sum "Si O2"
_cell_formula_units_Z 64
_cell_length_a 17.464961
_cell_length_b 11.569032
_cell_length_c 14.538679
_cell_angle_alpha 90.000000
_cell_angle_beta 90.000000
_cell_angle_gamma 90.000000
_cell_volume 2937.579240
_symmetry_space_group_name_H-M "A B M 2"
_symmetry_group_IT_number 39
_symmetry_cell_setting 'orthorhombic'
loop_
_space_group_symop_operation_xyz
x,y,z
-x,-y,z
-x,1/2+y,z
x,1/2-y,z
x,1/2+y,1/2+z
-x,1/2-y,1/2+z
-x,y,1/2+z
x,-y,1/2+z
loop_
_atom_site_type_symbol
_atom_site_label
_atom_site_fract_x
_atom_site_fract_y
_atom_site_fract_z
Si Si1 0.814938 0.018090 0.550990
Si Si2 0.810345 0.624538 0.721027
Si Si3 0.033413 0.375439 0.057002
Si Si4 0.967592 0.374458 0.778232
Si Si5 0.335049 0.540576 0.130315
Si Si6 0.635203 0.621808 0.285963
Si Si7 0.194087 0.568390 0.854973
Si Si8 0.450876 0.382503 0.479322
O O1 0.876290 0.116118 0.532544
O O2 0.727404 0.044337 0.580119
O O3 0.847964 0.952032 0.640960
O O4 0.808961 0.932561 0.464502
O O5 0.843227 0.750000 0.721254
O O6 0.722447 0.622987 0.686517
O O7 0.812479 0.562995 0.818254
O O8 0.001861 0.250000 0.024944
O O9 0.026690 0.373855 0.167720
O O10 0.000000 0.500000 0.024040
O O11 0.000885 0.250000 0.810351
O O12 0.879294 0.373515 0.810159
O O13 0.000000 0.500000 0.809233
O O14 0.381210 0.469684 0.206264
O O15 0.384976 0.605585 0.056087
O O16 0.621529 0.750000 0.249704
O O17 0.724821 0.611233 0.315594
O O18 0.586506 0.606824 0.378258
O O19 0.500000 0.500000 0.492518
O O20 0.483854 0.250000 0.485854
#
# Coordination Sequence:
#
# PCOD9361111 Si02
#       8
#     8   8   8   8   8   8   8   8
#     4  10  21  36  61  92 121 157 213 266 315 374
#     4   9  19  35  56  87 121 155 201 253 311 369
#     4  10  21  40  59  86 122 166 211 266 324 382
#     4  10  21  38  59  84 117 161 207 258 316 377
#     4   9  20  38  65  93 124 164 217 259 315 371
#     4  10  20  39  67  94 127 171 219 266 317 380
#     4  11  20  36  61  92 120 160 212 262 318 376
#     4  11  24  44  68  98 135 173 214 262 317 387
#
# _framework density 21.786646000000001
#
# number of rings (size 3 to 8) (size 9 to 14) (size 15 to 20)
#    0.750    1.250    2.500    0.750    0.000    5.500 
#    0.000    5.625    0.000    0.000    0.000    0.000 
#    0.000    0.000    0.000    0.000    0.000    0.000 
#
# Total GULP energy -178271.436858 kJ/mol
# GULP energy per Si atom -5570.982402 kJ/mol
# Density = 2.173706 g / cm^3
# Si number density = 21.786646 Si / 1000 Ang^3
#
#
#
# Elastic Constant Matrix: (Units=GPa)
#
#
# Indices 1 2 3 4 5 6 
#
# 1 48.8302 30.2349 0.8178 0.0000 0.0000 0.0000
# 2 30.2349 154.7336 15.5280 0.0000 0.0000 0.0000
# 3 0.8178 15.5280 73.6662 0.0000 0.0000 0.0000
# 4 0.0000 0.0000 0.0000 -3.1901 0.0000 0.0000
# 5 0.0000 0.0000 0.0000 0.0000 20.0141 0.0000
# 6 0.0000 0.0000 0.0000 0.0000 0.0000 6.6922
#
#
#
# Elastic Compliance Matrix: (Units=1/GPa)
#
#
# Indices 1 2 3 4 5 6 
#
# 1 0.023335 -0.004632 0.000717 0.000000 0.000000 0.000000
# 2 -0.004632 0.007522 -0.001534 0.000000 0.000000 0.000000
# 3 0.000717 -0.001534 0.013890 0.000000 0.000000 0.000000
# 4 0.000000 0.000000 0.000000 -0.313466 0.000000 0.000000
# 5 0.000000 0.000000 0.000000 0.000000 0.049965 0.000000
# 6 0.000000 0.000000 0.000000 0.000000 0.000000 0.149428
#
#
# Mechanical properties :
#
#
# Convention : Reuss Voigt Hill
#
# Bulk Modulus (GPa) = 29.54219 41.15458 35.34838
# Shear Modulus (GPa) = -106.05134 20.07987 -42.98574
#
# Velocity S-wave (km/s) = -6.98448 3.03918 -4.44670
# Velocity P-wave (km/s) = 7.17319 5.58984 3.17871
#
# Compressibility (1/GPa) = 0.03384989
#
# Stress axis : x y z
#
# Youngs Moduli (GPa) = 42.85422 132.94893 71.99347
#
# Poissons Ratio (x) = 0.61577 -0.05164
# Poissons Ratio (y) = 0.19848 0.11044
# Poissons Ratio (z) = -0.03074 0.20395
#
# Static dielectric constant tensor:
#      x y z
#    x 1.846390 0.000000 0.000000 
#    y 0.000000 1.849760 0.000000 
#    z 0.000000 0.000000 1.752340 
# 
# From -- ./inp_files/10208.got.cif
#   From: 2010.05.17/outbox.cif.g08.bks.cpg/sg39_6_cif.got.tgz:10208.got - 2010.06.03 18:22:40.
