data_PCOD9361015
_publ_section_title
;
Structure prediction by ZEFSAII (Michael W. Deem and Ramdas Pophale) SiO2 
 PCOD9361015
Probable space group: A B M 2
;
_chemical_formula_sum "Si O2"
_cell_formula_units_Z 52
_cell_length_a 16.664347
_cell_length_b 9.319565
_cell_length_c 14.283280
_cell_angle_alpha 90.000000
_cell_angle_beta 90.000000
_cell_angle_gamma 90.000000
_cell_volume 2218.257160
_symmetry_space_group_name_H-M "A B M 2"
_symmetry_group_IT_number 39
_symmetry_cell_setting 'orthorhombic'
loop_
_space_group_symop_operation_xyz
x,y,z
-x,-y,z
-x,1/2+y,z
x,1/2-y,z
x,1/2+y,1/2+z
-x,1/2-y,1/2+z
-x,y,1/2+z
x,-y,1/2+z
loop_
_atom_site_type_symbol
_atom_site_label
_atom_site_fract_x
_atom_site_fract_y
_atom_site_fract_z
Si Si1 0.599486 0.501471 0.446620
Si Si2 0.258117 0.924445 0.675816
Si Si3 0.770000 0.416817 0.979451
Si Si4 0.580132 0.083203 0.237430
Si Si5 0.524372 0.250000 0.509399
Si Si6 0.920380 0.086645 0.698744
Si Si7 0.921717 0.414059 0.469454
O O1 0.686378 0.566595 0.426380
O O2 0.574966 0.419529 0.350566
O O3 0.592776 0.375905 0.522227
O O4 0.542635 0.626731 0.482661
O O5 0.264009 0.750000 0.674520
O O6 0.171003 0.958788 0.723638
O O7 0.247497 0.999340 0.575346
O O8 0.338025 0.000683 0.714820
O O9 0.788825 0.250000 0.994850
O O10 0.844483 0.499318 0.936178
O O11 0.578382 0.250000 0.204044
O O12 0.500000 0.000000 0.204200
O O13 0.930143 0.250000 0.730601
O O14 0.920575 0.086502 0.583931
O O15 0.000000 0.000000 0.726610
O O16 0.921263 0.250000 0.438388
O O17 0.000000 0.500000 0.441121
#
# Coordination Sequence:
#
# PCOD9361015 Si02
#       7
#     8   8   8   8   4   8   8
#     4  11  21  38  61  83 106 142 189 234 274 330
#     4  10  23  38  55  82 119 147 183 231 281 329
#     4  11  22  36  55  85 117 147 185 232 280 328
#     4  12  23  40  60  82 108 147 188 231 277 335
#     4  10  20  38  58  82 106 138 190 236 270 328
#     4   8  15  29  50  76 103 141 177 216 264 319
#     4   9  17  30  51  77 110 146 183 223 275 331
#
# _framework density 23.441828000000001
#
# number of rings (size 3 to 8) (size 9 to 14) (size 15 to 20)
#    0.000    1.846    3.077    2.769    3.231    4.308 
#    2.769    0.000    0.000    0.923    0.000    2.154 
#    0.000    0.000    0.000    0.000    0.000    0.000 
#
# Total GULP energy -144739.161052 kJ/mol
# GULP energy per Si atom -5566.890810 kJ/mol
# Density = 2.338847 g / cm^3
# Si number density = 23.441828 Si / 1000 Ang^3
#
#
#
# Elastic Constant Matrix: (Units=GPa)
#
#
# Indices 1 2 3 4 5 6 
#
# 1 225.7071 111.9029 12.1429 0.0000 0.0000 0.0000
# 2 111.9029 226.0698 14.2613 0.0000 0.0000 0.0000
# 3 12.1429 14.2613 65.6760 0.0000 0.0000 0.0000
# 4 0.0000 0.0000 0.0000 -25.3226 0.0000 0.0000
# 5 0.0000 0.0000 0.0000 0.0000 -661.9869 0.0000
# 6 0.0000 0.0000 0.0000 0.0000 0.0000 58.9114
#
#
#
# Elastic Compliance Matrix: (Units=1/GPa)
#
#
# Indices 1 2 3 4 5 6 
#
# 1 0.005885 -0.002884 -0.000462 0.000000 0.000000 0.000000
# 2 -0.002884 0.005898 -0.000748 0.000000 0.000000 0.000000
# 3 -0.000462 -0.000748 0.015474 0.000000 0.000000 0.000000
# 4 0.000000 0.000000 0.000000 -0.039490 0.000000 0.000000
# 5 0.000000 0.000000 0.000000 0.000000 -0.001511 0.000000
# 6 0.000000 0.000000 0.000000 0.000000 0.000000 0.016975
#
#
# Mechanical properties :
#
#
# Convention : Reuss Voigt Hill
#
# Bulk Modulus (GPa) = 52.43693 88.22967 70.33330
# Shear Modulus (GPa) = 281.29848 -100.40324 90.44762
#
# Velocity S-wave (km/s) = 10.96627 -6.55162 6.21833
# Velocity P-wave (km/s) = 13.51898 4.41727 9.03467
#
# Compressibility (1/GPa) = 0.01907053
#
# Stress axis : x y z
#
# Youngs Moduli (GPa) = 169.91696 169.54517 64.62457
#
# Poissons Ratio (x) = 0.48897 0.02985
# Poissons Ratio (y) = 0.49004 0.04831
# Poissons Ratio (z) = 0.07848 0.12674
#
# Static dielectric constant tensor:
#      x y z
#    x 2.899740 0.000000 0.000000 
#    y 0.000000 1.971050 0.000000 
#    z 0.000000 0.000000 2.035500 
# 
# From -- ./inp_files/16002.got.cif
#   From: 2010.05.17/outbox.cif.g08.bks.cpg/sg39_9_cif.got.tgz:16002.got - 2010.06.03 18:22:40.
