data_PCOD9361560
_publ_section_title
;
Structure prediction by ZEFSAII (Michael W. Deem and Ramdas Pophale) SiO2 
 PCOD9361560
Probable space group: A B M 2
;
_chemical_formula_sum "Si O2"
_cell_formula_units_Z 60
_cell_length_a 15.504351
_cell_length_b 14.584982
_cell_length_c 13.063870
_cell_angle_alpha 90.000000
_cell_angle_beta 90.000000
_cell_angle_gamma 90.000000
_cell_volume 2954.141810
_symmetry_space_group_name_H-M "A B M 2"
_symmetry_group_IT_number 39
_symmetry_cell_setting 'orthorhombic'
loop_
_space_group_symop_operation_xyz
x,y,z
-x,-y,z
-x,1/2+y,z
x,1/2-y,z
x,1/2+y,1/2+z
-x,1/2-y,1/2+z
-x,y,1/2+z
x,-y,1/2+z
loop_
_atom_site_type_symbol
_atom_site_label
_atom_site_fract_x
_atom_site_fract_y
_atom_site_fract_z
Si Si1 0.504565 0.750000 0.955660
Si Si2 0.369834 0.391364 0.427212
Si Si3 0.410492 0.444168 0.210769
Si Si4 0.174935 0.143359 0.045816
Si Si5 0.904386 0.486843 0.389951
Si Si6 0.632937 0.896806 0.987345
Si Si7 0.779470 0.515988 0.699513
Si Si8 0.183464 0.145286 0.511091
O O1 0.435086 0.829771 0.989718
O O2 0.574143 0.830015 0.923372
O O3 0.399339 0.379890 0.309638
O O4 0.376053 0.497967 0.455422
O O5 0.272806 0.360604 0.447624
O O6 0.500000 0.500000 0.213983
O O7 0.400640 0.389481 0.104796
O O8 0.323580 0.506777 0.214913
O O9 0.158846 0.250000 0.067839
O O10 0.267592 0.132301 0.989347
O O11 0.188122 0.078354 0.144902
O O12 0.105453 0.095832 0.971487
O O13 0.833115 0.472775 0.302507
O O14 0.881408 0.579095 0.451756
O O15 0.000000 0.500000 0.347050
O O16 0.797787 0.597234 0.619783
O O17 0.155855 0.250000 0.520588
#
# Coordination Sequence:
#
# PCOD9361560 Si02
#       8
#     4   8   8   8   8   8   8   8
#     4  12  24  34  60  92 130 170 222 272 310 374
#     4  12  22  40  61  90 128 174 219 270 323 380
#     4  11  21  36  63  89 128 175 224 260 316 385
#     4  10  21  42  69  96 129 174 216 264 334 397
#     4  11  24  45  72  98 130 170 215 279 345 404
#     4  11  22  41  61  88 132 175 218 270 318 379
#     4  10  22  42  66  98 135 175 216 277 327 396
#     4  11  23  43  69  98 133 175 217 271 340 397
#
# _framework density 20.310466999999999
#
# number of rings (size 3 to 8) (size 9 to 14) (size 15 to 20)
#    0.000    1.067    6.667    2.000    0.000    4.267 
#    1.200    1.333    1.467    0.000    0.000    0.000 
#    0.000    0.000    0.000    0.000    0.000    0.000 
#
# Total GULP energy -167047.558558 kJ/mol
# GULP energy per Si atom -5568.251952 kJ/mol
# Density = 2.026424 g / cm^3
# Si number density = 20.310467 Si / 1000 Ang^3
#
#
#
# Elastic Constant Matrix: (Units=GPa)
#
#
# Indices 1 2 3 4 5 6 
#
# 1 77.8098 -1.0576 19.4746 0.0000 0.0000 0.0000
# 2 -1.0576 131.4284 17.2872 0.0000 0.0000 0.0000
# 3 19.4746 17.2872 75.4068 0.0000 0.0000 0.0000
# 4 0.0000 0.0000 0.0000 -3.8098 0.0000 0.0000
# 5 0.0000 0.0000 0.0000 0.0000 18.7633 0.0000
# 6 0.0000 0.0000 0.0000 0.0000 0.0000 13.1804
#
#
#
# Elastic Compliance Matrix: (Units=1/GPa)
#
#
# Indices 1 2 3 4 5 6 
#
# 1 0.013785 0.000597 -0.003697 0.000000 0.000000 0.000000
# 2 0.000597 0.007871 -0.001959 0.000000 0.000000 0.000000
# 3 -0.003697 -0.001959 0.014665 0.000000 0.000000 0.000000
# 4 0.000000 0.000000 0.000000 -0.262481 0.000000 0.000000
# 5 0.000000 0.000000 0.000000 0.000000 0.053295 0.000000
# 6 0.000000 0.000000 0.000000 0.000000 0.000000 0.075870
#
#
# Mechanical properties :
#
#
# Convention : Reuss Voigt Hill
#
# Bulk Modulus (GPa) = 38.16141 39.56150 38.86145
# Shear Modulus (GPa) = -63.98638 22.22284 -20.88177
#
# Velocity S-wave (km/s) = -5.61894 3.31139 -3.20992
# Velocity P-wave (km/s) = 4.82358 5.84304 2.33176
#
# Compressibility (1/GPa) = 0.02620448
#
# Stress axis : x y z
#
# Youngs Moduli (GPa) = 72.54106 127.04630 68.18836
#
# Poissons Ratio (x) = -0.07587 0.25210
# Poissons Ratio (y) = -0.04332 0.13356
# Poissons Ratio (z) = 0.26819 0.24885
#
# Static dielectric constant tensor:
#      x y z
#    x 1.740540 0.000000 0.000000 
#    y 0.000000 1.713830 0.000000 
#    z 0.000000 0.000000 1.767800 
# 
# From -- ./inp_files/9888.got.cif
#   From: 2010.05.17/outbox.cif.g08.bks.cpg/sg39_5_cif.got.tgz:9888.got - 2010.06.03 18:22:40.
