data_PCOD9361844
_publ_section_title
;
Structure prediction by ZEFSAII (Michael W. Deem and Ramdas Pophale) SiO2 
 PCOD9361844
Probable space group: A B M 2
;
_chemical_formula_sum "Si O2"
_cell_formula_units_Z 64
_cell_length_a 14.897136
_cell_length_b 8.589754
_cell_length_c 25.666051
_cell_angle_alpha 90.000000
_cell_angle_beta 90.000000
_cell_angle_gamma 90.000000
_cell_volume 3284.298045
_symmetry_space_group_name_H-M "A B M 2"
_symmetry_group_IT_number 39
_symmetry_cell_setting 'orthorhombic'
loop_
_space_group_symop_operation_xyz
x,y,z
-x,-y,z
-x,1/2+y,z
x,1/2-y,z
x,1/2+y,1/2+z
-x,1/2-y,1/2+z
-x,y,1/2+z
x,-y,1/2+z
loop_
_atom_site_type_symbol
_atom_site_label
_atom_site_fract_x
_atom_site_fract_y
_atom_site_fract_z
Si Si1 0.224258 0.436549 0.785030
Si Si2 0.594906 0.933376 0.514592
Si Si3 0.364369 0.570528 0.625496
Si Si4 0.091628 0.437238 0.201304
Si Si5 0.898290 0.061892 0.382796
Si Si6 0.787618 0.439081 0.485335
Si Si7 0.596499 0.936721 0.244057
Si Si8 0.155625 0.570706 0.595454
O O1 0.226353 0.250000 0.784447
O O2 0.173946 0.500838 0.734371
O O3 0.163908 0.487372 0.834153
O O4 0.324772 0.500178 0.780795
O O5 0.596745 0.750000 0.507601
O O6 0.500000 0.000000 0.495037
O O7 0.600552 0.974055 0.576375
O O8 0.684456 0.005218 0.488472
O O9 0.396278 0.750000 0.620298
O O10 0.387424 0.513116 0.683396
O O11 0.257071 0.573784 0.617727
O O12 0.093143 0.250000 0.200739
O O13 0.099369 0.500937 0.142255
O O14 0.000000 0.500000 0.225474
O O15 0.903014 0.250000 0.382218
O O16 0.844748 0.014761 0.435085
O O17 0.000000 0.000000 0.380533
O O18 0.784847 0.250000 0.487809
O O19 0.836758 0.498590 0.538011
O O20 0.598842 0.750000 0.244129
O O21 0.500000 0.000000 0.260165
O O22 0.125459 0.750000 0.589191
#
# Coordination Sequence:
#
# PCOD9361844 Si02
#       8
#     8   8   8   8   8   8   8   8
#     4  11  23  40  60  86 117 153 196 247 296 349
#     4  11  21  33  53  85 120 158 199 239 285 343
#     4   9  17  33  54  79 114 157 198 236 282 338
#     4  11  21  35  54  83 116 153 192 235 291 356
#     4  10  23  42  66  90 114 148 196 246 299 352
#     4   9  19  39  61  83 114 152 192 244 294 344
#     4  11  22  37  58  86 119 158 198 241 291 350
#     4   8  15  31  54  78 111 150 186 227 284 342
#
# _framework density 19.486660000000001
#
# number of rings (size 3 to 8) (size 9 to 14) (size 15 to 20)
#    0.000    2.000    1.250    3.750    0.000    5.000 
#    0.000    1.250    0.000    0.000    0.000    0.000 
#    0.000    0.000    0.000    0.000    0.000    0.000 
#
# Total GULP energy -178568.870864 kJ/mol
# GULP energy per Si atom -5580.277214 kJ/mol
# Density = 1.944231 g / cm^3
# Si number density = 19.486660 Si / 1000 Ang^3
#
#
#
# Elastic Constant Matrix: (Units=GPa)
#
#
# Indices 1 2 3 4 5 6 
#
# 1 145.7445 31.9648 73.0579 0.0000 0.0000 0.0000
# 2 31.9648 45.7351 26.7379 0.0000 0.0000 0.0000
# 3 73.0579 26.7379 120.0947 0.0000 0.0000 0.0000
# 4 0.0000 0.0000 0.0000 18.5846 0.0000 0.0000
# 5 0.0000 0.0000 0.0000 0.0000 20.3768 0.0000
# 6 0.0000 0.0000 0.0000 0.0000 0.0000 29.1961
#
#
#
# Elastic Compliance Matrix: (Units=1/GPa)
#
#
# Indices 1 2 3 4 5 6 
#
# 1 0.010515 -0.004149 -0.005473 0.000000 0.000000 0.000000
# 2 -0.004149 0.026774 -0.003437 0.000000 0.000000 0.000000
# 3 -0.005473 -0.003437 0.012421 0.000000 0.000000 0.000000
# 4 0.000000 0.000000 0.000000 0.053808 0.000000 0.000000
# 5 0.000000 0.000000 0.000000 0.000000 0.049075 0.000000
# 6 0.000000 0.000000 0.000000 0.000000 0.000000 0.034251
#
#
# Mechanical properties :
#
#
# Convention : Reuss Voigt Hill
#
# Bulk Modulus (GPa) = 42.38640 63.89951 53.14295
# Shear Modulus (GPa) = 22.64221 25.61909 24.13065
#
# Velocity S-wave (km/s) = 3.41241 3.62981 3.52279
# Velocity P-wave (km/s) = 6.10940 7.10141 6.62400
#
# Compressibility (1/GPa) = 0.02359248
#
# Stress axis : x y z
#
# Youngs Moduli (GPa) = 95.10550 37.34914 80.50800
#
# Poissons Ratio (x) = 0.15498 0.44059
# Poissons Ratio (y) = 0.39463 0.27669
# Poissons Ratio (z) = 0.52048 0.12836
#
# Static dielectric constant tensor:
#      x y z
#    x 1.635680 0.000000 0.000000 
#    y 0.000000 1.667830 0.000000 
#    z 0.000000 0.000000 1.699400 
# 
# From -- ./inp_files/16279.got.cif
#   From: 2010.05.17/outbox.cif.g08.bks.cpg/sg39_9_cif.got.tgz:16279.got - 2010.06.03 18:22:40.
