data_PCOD9361006
_publ_section_title
;
Structure prediction by ZEFSAII (Michael W. Deem and Ramdas Pophale) SiO2 
 PCOD9361006
Probable space group: A B M 2
;
_chemical_formula_sum "Si O2"
_cell_formula_units_Z 60
_cell_length_a 11.321540
_cell_length_b 27.160187
_cell_length_c 8.390008
_cell_angle_alpha 90.000000
_cell_angle_beta 90.000000
_cell_angle_gamma 90.000000
_cell_volume 2579.886714
_symmetry_space_group_name_H-M "A B M 2"
_symmetry_group_IT_number 39
_symmetry_cell_setting 'orthorhombic'
loop_
_space_group_symop_operation_xyz
x,y,z
-x,-y,z
-x,1/2+y,z
x,1/2-y,z
x,1/2+y,1/2+z
-x,1/2-y,1/2+z
-x,y,1/2+z
x,-y,1/2+z
loop_
_atom_site_type_symbol
_atom_site_label
_atom_site_fract_x
_atom_site_fract_y
_atom_site_fract_z
Si Si1 0.777591 0.989698 0.239090
Si Si2 0.581574 0.856469 0.446111
Si Si3 0.153554 0.076033 0.970017
Si Si4 0.823947 0.691411 0.531868
Si Si5 0.182048 0.250000 0.034702
Si Si6 0.656240 0.343525 0.584392
Si Si7 0.031140 0.666711 0.347287
Si Si8 0.604945 0.464756 0.990207
O O1 0.827264 0.037662 0.326585
O O2 0.861655 0.957816 0.126466
O O3 0.716466 0.957080 0.373712
O O4 0.666133 0.007556 0.135338
O O5 0.694738 0.832078 0.530462
O O6 0.456925 0.830774 0.475550
O O7 0.611362 0.858368 0.259555
O O8 0.559404 0.910536 0.520048
O O9 0.265683 0.111990 0.007055
O O10 0.051294 0.113006 0.920561
O O11 0.815264 0.750000 0.552515
O O12 0.905525 0.670853 0.676014
O O13 0.893714 0.679793 0.367339
O O14 0.269424 0.206136 0.096212
O O15 0.096186 0.207461 0.953692
O O16 0.500000 0.500000 0.930762
#
# Coordination Sequence:
#
# PCOD9361006 Si02
#       8
#     8   8   8   8   4   8   8   8
#     4  10  20  37  64  96 134 179 239 289 358 422
#     4  12  28  43  67 107 146 189 250 294 375 443
#     4  10  22  44  69 106 141 194 241 305 363 438
#     4  12  27  46  77 110 144 190 252 301 375 441
#     4  10  24  46  72  96 146 188 246 294 368 444
#     4  11  27  42  68 100 151 196 238 305 372 436
#     4  11  25  47  78 106 145 189 246 309 372 435
#     4  11  22  35  61  93 135 180 236 293 348 431
#
# _framework density 23.256834999999999
#
# number of rings (size 3 to 8) (size 9 to 14) (size 15 to 20)
#    0.000    1.067    2.667    2.800   13.067    0.000 
#    0.000    0.000    0.000   13.600    0.000    0.000 
#    0.000    0.000    0.000    0.000    0.000    0.000 
#
# Total GULP energy -167280.916329 kJ/mol
# GULP energy per Si atom -5576.030544 kJ/mol
# Density = 2.320390 g / cm^3
# Si number density = 23.256835 Si / 1000 Ang^3
#
#
#
# Elastic Constant Matrix: (Units=GPa)
#
#
# Indices 1 2 3 4 5 6 
#
# 1 78.0529 45.3521 31.9665 0.0000 0.0000 0.0000
# 2 45.3521 150.3045 44.5198 0.0000 0.0000 0.0000
# 3 31.9665 44.5198 41.4329 0.0000 0.0000 0.0000
# 4 0.0000 0.0000 0.0000 7.8229 0.0000 0.0000
# 5 0.0000 0.0000 0.0000 0.0000 24.9678 0.0000
# 6 0.0000 0.0000 0.0000 0.0000 0.0000 25.3166
#
#
#
# Elastic Compliance Matrix: (Units=1/GPa)
#
#
# Indices 1 2 3 4 5 6 
#
# 1 0.019154 -0.002057 -0.012568 0.000000 0.000000 0.000000
# 2 -0.002057 0.009980 -0.009137 0.000000 0.000000 0.000000
# 3 -0.012568 -0.009137 0.043649 0.000000 0.000000 0.000000
# 4 0.000000 0.000000 0.000000 0.127829 0.000000 0.000000
# 5 0.000000 0.000000 0.000000 0.000000 0.040052 0.000000
# 6 0.000000 0.000000 0.000000 0.000000 0.000000 0.039500
#
#
# Mechanical properties :
#
#
# Convention : Reuss Voigt Hill
#
# Bulk Modulus (GPa) = 39.58716 57.05191 48.31953
# Shear Modulus (GPa) = 14.87623 21.48492 18.18058
#
# Velocity S-wave (km/s) = 2.53187 3.04272 2.79898
# Velocity P-wave (km/s) = 5.06022 6.07690 5.59172
#
# Compressibility (1/GPa) = 0.02526072
#
# Stress axis : x y z
#
# Youngs Moduli (GPa) = 52.20823 100.19974 22.90998
#
# Poissons Ratio (x) = 0.20610 0.28792
# Poissons Ratio (y) = 0.10739 0.20932
# Poissons Ratio (z) = 0.65614 0.91549
#
# Static dielectric constant tensor:
#      x y z
#    x 1.887810 0.000000 0.000000 
#    y 0.000000 1.881670 0.000000 
#    z 0.000000 0.000000 1.950680 
# 
# From -- ./inp_files/2831.got.cif
#   From: 2010.05.17/outbox.cif.g08.bks.cpg/sg39_2_cif.got.tgz:2831.got - 2010.06.03 18:22:40.
