data_PCOD9361298
_publ_section_title
;
Structure prediction by ZEFSAII (Michael W. Deem and Ramdas Pophale) SiO2 
 PCOD9361298
Probable space group: A B M 2
;
_chemical_formula_sum "Si O2"
_cell_formula_units_Z 56
_cell_length_a 19.817160
_cell_length_b 8.691952
_cell_length_c 16.097216
_cell_angle_alpha 90.000000
_cell_angle_beta 90.000000
_cell_angle_gamma 90.000000
_cell_volume 2772.742293
_symmetry_space_group_name_H-M "A B M 2"
_symmetry_group_IT_number 39
_symmetry_cell_setting 'orthorhombic'
loop_
_space_group_symop_operation_xyz
x,y,z
-x,-y,z
-x,1/2+y,z
x,1/2-y,z
x,1/2+y,1/2+z
-x,1/2-y,1/2+z
-x,y,1/2+z
x,-y,1/2+z
loop_
_atom_site_type_symbol
_atom_site_label
_atom_site_fract_x
_atom_site_fract_y
_atom_site_fract_z
Si Si1 0.575375 0.065939 0.718170
Si Si2 0.783369 0.067396 0.622551
Si Si3 0.213775 0.433709 0.798760
Si Si4 0.349044 0.432105 0.557388
Si Si5 0.647777 0.932539 0.881601
Si Si6 0.929969 0.434744 0.371530
Si Si7 0.930199 0.434661 0.565503
O O1 0.575077 0.250000 0.721021
O O2 0.500000 0.000000 0.715859
O O3 0.613283 0.010921 0.634766
O O4 0.611358 0.000895 0.800759
O O5 0.778593 0.250000 0.606471
O O6 0.860502 0.016532 0.607576
O O7 0.766654 0.027475 0.717287
O O8 0.729286 0.980296 0.566631
O O9 0.212659 0.250000 0.779716
O O10 0.271895 0.456061 0.866822
O O11 0.139380 0.482055 0.827978
O O12 0.356526 0.250000 0.564202
O O13 0.373648 0.490679 0.467872
O O14 0.635542 0.750000 0.885303
O O15 0.932919 0.250000 0.368760
O O16 0.926067 0.481311 0.468501
O O17 0.000000 0.500000 0.336520
O O18 0.933538 0.250000 0.569186
O O19 0.000000 0.500000 0.600731
#
# Coordination Sequence:
#
# PCOD9361298 Si02
#       7
#     8   8   8   8   8   8   8
#     4  12  26  47  73 104 139 175 215 264 320 385
#     4  11  22  37  59  87 122 163 213 269 325 386
#     4  10  21  37  59  85 121 162 208 263 324 384
#     4  12  25  43  68 100 135 176 222 270 326 387
#     4  11  23  43  70 100 134 175 220 271 326 385
#     4   9  18  34  53  76 109 153 203 259 319 381
#     4   9  19  35  54  78 110 154 205 263 325 388
#
# _framework density 20.196612999999999
#
# number of rings (size 3 to 8) (size 9 to 14) (size 15 to 20)
#    0.000    1.429    1.429    4.286    0.000    5.714 
#    0.000    8.571    0.000    0.000    0.000    0.000 
#    0.000    0.000    0.000    0.000    0.000    0.000 
#
# Total GULP energy -156514.341804 kJ/mol
# GULP energy per Si atom -5589.797922 kJ/mol
# Density = 2.015064 g / cm^3
# Si number density = 20.196613 Si / 1000 Ang^3
#
#
#
# Elastic Constant Matrix: (Units=GPa)
#
#
# Indices 1 2 3 4 5 6 
#
# 1 115.5377 39.0785 39.7522 0.0000 0.0000 0.0000
# 2 39.0785 82.8210 39.5309 0.0000 0.0000 0.0000
# 3 39.7522 39.5309 111.1210 0.0000 0.0000 0.0000
# 4 0.0000 0.0000 0.0000 28.4333 0.0000 0.0000
# 5 0.0000 0.0000 0.0000 0.0000 15.9258 0.0000
# 6 0.0000 0.0000 0.0000 0.0000 0.0000 34.3242
#
#
#
# Elastic Compliance Matrix: (Units=1/GPa)
#
#
# Indices 1 2 3 4 5 6 
#
# 1 0.010837 -0.003930 -0.002479 0.000000 0.000000 0.000000
# 2 -0.003930 0.015969 -0.004275 0.000000 0.000000 0.000000
# 3 -0.002479 -0.004275 0.011407 0.000000 0.000000 0.000000
# 4 0.000000 0.000000 0.000000 0.035170 0.000000 0.000000
# 5 0.000000 0.000000 0.000000 0.000000 0.062791 0.000000
# 6 0.000000 0.000000 0.000000 0.000000 0.000000 0.029134
#
#
# Mechanical properties :
#
#
# Convention : Reuss Voigt Hill
#
# Bulk Modulus (GPa) = 59.36413 60.68920 60.02667
# Shear Modulus (GPa) = 26.00212 28.47785 27.23999
#
# Velocity S-wave (km/s) = 3.59200 3.75911 3.67650
# Velocity P-wave (km/s) = 6.83083 6.99683 6.91433
#
# Compressibility (1/GPa) = 0.01684519
#
# Stress axis : x y z
#
# Youngs Moduli (GPa) = 92.27288 62.62035 87.66758
#
# Poissons Ratio (x) = 0.24613 0.21730
# Poissons Ratio (y) = 0.36267 0.37477
# Poissons Ratio (z) = 0.22872 0.26770
#
# Static dielectric constant tensor:
#      x y z
#    x 1.730370 0.000000 0.000000 
#    y 0.000000 1.678390 0.000000 
#    z 0.000000 0.000000 1.708770 
# 
# From -- ./inp_files/10380.got.cif
#   From: 2010.05.17/outbox.cif.g08.bks.cpg/sg39_6_cif.got.tgz:10380.got - 2010.06.03 18:22:40.
