data_PCOD9361213
_publ_section_title
;
Structure prediction by ZEFSAII (Michael W. Deem and Ramdas Pophale) SiO2 
 PCOD9361213
Probable space group: A B M 2
;
_chemical_formula_sum "Si O2"
_cell_formula_units_Z 48
_cell_length_a 7.532642
_cell_length_b 10.211673
_cell_length_c 32.134407
_cell_angle_alpha 90.000000
_cell_angle_beta 90.000000
_cell_angle_gamma 90.000000
_cell_volume 2471.806766
_symmetry_space_group_name_H-M "A B M 2"
_symmetry_group_IT_number 39
_symmetry_cell_setting 'orthorhombic'
loop_
_space_group_symop_operation_xyz
x,y,z
-x,-y,z
-x,1/2+y,z
x,1/2-y,z
x,1/2+y,1/2+z
-x,1/2-y,1/2+z
-x,y,1/2+z
x,-y,1/2+z
loop_
_atom_site_type_symbol
_atom_site_label
_atom_site_fract_x
_atom_site_fract_y
_atom_site_fract_z
Si Si1 0.666265 0.598602 0.067480
Si Si2 0.210067 0.513082 0.748416
Si Si3 0.500000 0.500000 0.426731
Si Si4 0.443881 0.250000 0.368902
Si Si5 0.272975 0.250000 0.792583
Si Si6 0.837682 0.594573 0.979485
Si Si7 0.663232 0.097602 0.658500
Si Si8 0.157551 0.750000 0.805704
O O1 0.500000 0.500000 0.063771
O O2 0.600924 0.750000 0.065467
O O3 0.755197 0.583517 0.113225
O O4 0.795649 0.580722 0.028672
O O5 0.298718 0.379080 0.764064
O O6 0.247784 0.556030 0.701477
O O7 0.241283 0.626804 0.781537
O O8 0.000000 0.500000 0.750318
O O9 0.463241 0.377317 0.397134
O O10 0.334905 0.542649 0.455271
O O11 0.594890 0.250000 0.332152
O O12 0.245502 0.250000 0.350401
O O13 0.059217 0.250000 0.804840
O O14 0.867225 0.750000 0.970863
O O15 0.000000 0.500000 0.968295
O O16 0.612174 0.250000 0.662386
O O17 0.500000 0.000000 0.655046
#
# Coordination Sequence:
#
# PCOD9361213 Si02
#       8
#     8   8   4   4   4   8   8   4
#     4   9  19  38  62  91 130 169 212 262 313 375
#     4  10  21  37  58  84 125 168 209 262 314 368
#     4  12  26  46  68 100 134 164 218 272 336 406
#     4  12  26  42  70  92 122 174 206 268 340 392
#     4  10  24  40  60  93 125 160 221 265 318 388
#     4  11  25  44  72 102 134 176 216 266 331 396
#     4  10  21  35  57  91 126 166 213 259 306 368
#     4  10  22  42  62  87 123 168 211 267 318 376
#
# _framework density 19.418994000000001
#
# number of rings (size 3 to 8) (size 9 to 14) (size 15 to 20)
#    0.000    1.667    2.500    1.000    4.667    2.667 
#    0.000    0.000    0.000    0.000    0.000    0.000 
#    0.000    0.000    0.000    0.000    0.000    0.000 
#
# Total GULP energy -133839.106096 kJ/mol
# GULP energy per Si atom -5576.629421 kJ/mol
# Density = 1.937480 g / cm^3
# Si number density = 19.418994 Si / 1000 Ang^3
#
#
#
# Elastic Constant Matrix: (Units=GPa)
#
#
# Indices 1 2 3 4 5 6 
#
# 1 69.0678 44.8396 34.5452 0.0000 0.0000 0.0000
# 2 44.8396 156.6327 59.2112 0.0000 0.0000 0.0000
# 3 34.5452 59.2112 112.1169 0.0000 0.0000 0.0000
# 4 0.0000 0.0000 0.0000 38.4774 0.0000 0.0000
# 5 0.0000 0.0000 0.0000 0.0000 71.8933 0.0000
# 6 0.0000 0.0000 0.0000 0.0000 0.0000 64.6101
#
#
#
# Elastic Compliance Matrix: (Units=1/GPa)
#
#
# Indices 1 2 3 4 5 6 
#
# 1 0.018946 -0.004019 -0.003715 0.000000 0.000000 0.000000
# 2 -0.004019 0.008830 -0.003425 0.000000 0.000000 0.000000
# 3 -0.003715 -0.003425 0.011873 0.000000 0.000000 0.000000
# 4 0.000000 0.000000 0.000000 0.025989 0.000000 0.000000
# 5 0.000000 0.000000 0.000000 0.000000 0.013909 0.000000
# 6 0.000000 0.000000 0.000000 0.000000 0.000000 0.015477
#
#
# Mechanical properties :
#
#
# Convention : Reuss Voigt Hill
#
# Bulk Modulus (GPa) = 57.70248 68.33439 63.01844
# Shear Modulus (GPa) = 40.61114 48.27760 44.44437
#
# Velocity S-wave (km/s) = 4.57805 4.99149 4.78923
# Velocity P-wave (km/s) = 7.59761 8.27562 7.94385
#
# Compressibility (1/GPa) = 0.01733028
#
# Stress axis : x y z
#
# Youngs Moduli (GPa) = 52.78159 113.25527 84.22825
#
# Poissons Ratio (x) = 0.45522 0.31290
# Poissons Ratio (y) = 0.21215 0.28845
# Poissons Ratio (z) = 0.19608 0.38786
#
# Static dielectric constant tensor:
#      x y z
#    x 1.667410 0.000000 0.000000 
#    y 0.000000 1.661640 0.000000 
#    z 0.000000 0.000000 1.726240 
# 
# From -- ./inp_files/17723.got.cif
#   From: 2010.05.17/outbox.cif.g08.bks.cpg/sg39_9_cif.got.tgz:17723.got - 2010.06.03 18:22:40.
