data_PCOD9361436
_publ_section_title
;
Structure prediction by ZEFSAII (Michael W. Deem and Ramdas Pophale) SiO2 
 PCOD9361436
Probable space group: A B M 2
;
_chemical_formula_sum "Si O2"
_cell_formula_units_Z 48
_cell_length_a 4.970741
_cell_length_b 16.860068
_cell_length_c 26.353413
_cell_angle_alpha 90.000000
_cell_angle_beta 90.000000
_cell_angle_gamma 90.000000
_cell_volume 2208.601307
_symmetry_space_group_name_H-M "A B M 2"
_symmetry_group_IT_number 39
_symmetry_cell_setting 'orthorhombic'
loop_
_space_group_symop_operation_xyz
x,y,z
-x,-y,z
-x,1/2+y,z
x,1/2-y,z
x,1/2+y,1/2+z
-x,1/2-y,1/2+z
-x,y,1/2+z
x,-y,1/2+z
loop_
_atom_site_type_symbol
_atom_site_label
_atom_site_fract_x
_atom_site_fract_y
_atom_site_fract_z
Si Si1 0.385525 0.088056 0.768040
Si Si2 0.888412 0.341476 0.715530
Si Si3 0.331986 0.656695 0.937669
Si Si4 0.155668 0.156951 0.870452
Si Si5 0.126420 0.841153 0.598253
Si Si6 0.625904 0.586824 0.546173
O O1 0.635730 0.143083 0.751959
O O2 0.265662 0.109110 0.822879
O O3 0.500000 0.000000 0.766001
O O4 0.861499 0.896507 0.730050
O O5 0.976399 0.250000 0.720721
O O6 0.806061 0.354945 0.657243
O O7 0.273971 0.750000 0.948190
O O8 0.632140 0.650527 0.916240
O O9 0.130505 0.631458 0.892756
O O10 0.298379 0.606860 0.988379
O O11 0.139077 0.250000 0.855579
O O12 0.033739 0.750000 0.592841
O O13 0.390108 0.854758 0.564754
O O14 0.888167 0.898009 0.579936
O O15 0.500000 0.500000 0.550853
#
# Coordination Sequence:
#
# PCOD9361436 Si02
#       6
#     8   8   8   8   8   8
#     4  12  25  41  64  97 134 168 210 270 334 387
#     4  11  24  43  67  93 126 173 223 267 317 386
#     4  10  21  39  64  90 119 161 209 255 307 374
#     4  10  21  39  64  90 119 161 209 255 307 374
#     4  11  24  43  67  93 126 173 223 267 317 386
#     4  12  25  41  64  97 134 168 210 270 334 387
#
# _framework density 21.733214
#
# number of rings (size 3 to 8) (size 9 to 14) (size 15 to 20)
#    0.000    1.000    0.000    7.000    0.000   10.000 
#    0.000    1.667    0.000    0.000    0.000    0.000 
#    0.000    0.000    0.000    0.000    0.000    0.000 
#
# Total GULP energy -134391.428422 kJ/mol
# GULP energy per Si atom -5599.642851 kJ/mol
# Density = 2.168375 g / cm^3
# Si number density = 21.733214 Si / 1000 Ang^3
#
#
#
# Elastic Constant Matrix: (Units=GPa)
#
#
# Indices 1 2 3 4 5 6 
#
# 1 83.5760 3.3204 0.9589 0.0000 0.0000 0.0000
# 2 3.3204 55.1279 28.5294 0.0000 0.0000 0.0000
# 3 0.9589 28.5294 74.5130 0.0000 0.0000 0.0000
# 4 0.0000 0.0000 0.0000 17.7444 0.0000 0.0000
# 5 0.0000 0.0000 0.0000 0.0000 37.2356 0.0000
# 6 0.0000 0.0000 0.0000 0.0000 0.0000 32.3097
#
#
#
# Elastic Compliance Matrix: (Units=1/GPa)
#
#
# Indices 1 2 3 4 5 6 
#
# 1 0.011995 -0.000801 0.000152 0.000000 0.000000 0.000000
# 2 -0.000801 0.022676 -0.008672 0.000000 0.000000 0.000000
# 3 0.000152 -0.008672 0.016739 0.000000 0.000000 0.000000
# 4 0.000000 0.000000 0.000000 0.056356 0.000000 0.000000
# 5 0.000000 0.000000 0.000000 0.000000 0.026856 0.000000
# 6 0.000000 0.000000 0.000000 0.000000 0.000000 0.030950
#
#
# Mechanical properties :
#
#
# Convention : Reuss Voigt Hill
#
# Bulk Modulus (GPa) = 30.51723 30.98159 30.74941
# Shear Modulus (GPa) = 25.62316 29.48515 27.55415
#
# Velocity S-wave (km/s) = 3.43736 3.68732 3.56453
# Velocity P-wave (km/s) = 5.46133 5.69340 5.57857
#
# Compressibility (1/GPa) = 0.03276837
#
# Stress axis : x y z
#
# Youngs Moduli (GPa) = 83.36632 44.10020 59.74172
#
# Poissons Ratio (x) = 0.03534 -0.00911
# Poissons Ratio (y) = 0.06681 0.51806
# Poissons Ratio (z) = -0.01271 0.38242
#
# Static dielectric constant tensor:
#      x y z
#    x 1.753040 0.000000 0.000000 
#    y 0.000000 1.791590 0.000000 
#    z 0.000000 0.000000 1.762030 
# 
# From -- ./inp_files/16504.got.cif
#   From: 2010.05.17/outbox.cif.g08.bks.cpg/sg39_9_cif.got.tgz:16504.got - 2010.06.03 18:22:40.
