data_PCOD9361523
_publ_section_title
;
Structure prediction by ZEFSAII (Michael W. Deem and Ramdas Pophale) SiO2 
 PCOD9361523
Probable space group: A B M 2
;
_chemical_formula_sum "Si O2"
_cell_formula_units_Z 48
_cell_length_a 10.794184
_cell_length_b 17.860364
_cell_length_c 12.716468
_cell_angle_alpha 90.000000
_cell_angle_beta 90.000000
_cell_angle_gamma 90.000000
_cell_volume 2451.583136
_symmetry_space_group_name_H-M "A B M 2"
_symmetry_group_IT_number 39
_symmetry_cell_setting 'orthorhombic'
loop_
_space_group_symop_operation_xyz
x,y,z
-x,-y,z
-x,1/2+y,z
x,1/2-y,z
x,1/2+y,1/2+z
-x,1/2-y,1/2+z
-x,y,1/2+z
x,-y,1/2+z
loop_
_atom_site_type_symbol
_atom_site_label
_atom_site_fract_x
_atom_site_fract_y
_atom_site_fract_z
Si Si1 0.364670 0.835352 0.043620
Si Si2 0.000000 0.500000 0.526820
Si Si3 0.830973 0.092268 0.386847
Si Si4 0.915456 0.250000 0.427250
Si Si5 0.761513 0.536998 0.665867
Si Si6 0.240639 0.750000 0.641455
Si Si7 0.204292 0.750000 0.888582
Si Si8 0.630161 0.400379 0.566247
O O1 0.393466 0.750000 0.078893
O O2 0.289319 0.883012 0.127987
O O3 0.490800 0.882104 0.031098
O O4 0.281527 0.820049 0.939067
O O5 0.950227 0.435441 0.451295
O O6 0.884045 0.521070 0.598209
O O7 0.861385 0.178391 0.366828
O O8 0.802123 0.043104 0.285884
O O9 0.713441 0.087755 0.463265
O O10 0.862231 0.250000 0.547590
O O11 0.063842 0.250000 0.429257
O O12 0.661475 0.472080 0.639085
O O13 0.198745 0.750000 0.762579
O O14 0.318907 0.674605 0.622198
#
# Coordination Sequence:
#
# PCOD9361523 Si02
#       8
#     8   4   8   4   8   4   4   8
#     4  10  23  42  63  94 132 160 219 275 316 387
#     4  10  22  42  62  92 136 158 216 280 316 390
#     4  10  23  39  66  92 128 172 215 266 333 393
#     4  10  22  38  60  96 132 166 222 278 326 398
#     4  11  23  40  68  95 126 177 213 265 339 392
#     4  10  21  41  63  90 127 172 216 266 337 392
#     4  10  23  37  65  94 125 178 216 270 331 398
#     4  10  22  44  63  92 131 168 215 277 322 389
#
# _framework density 19.579184999999999
#
# number of rings (size 3 to 8) (size 9 to 14) (size 15 to 20)
#    0.500    1.333    0.833    2.000    1.167   10.667 
#    0.000    3.333    0.000    0.000    0.000    0.000 
#    0.000    0.000    0.000    0.000    0.000    0.000 
#
# Total GULP energy -133824.348995 kJ/mol
# GULP energy per Si atom -5576.014541 kJ/mol
# Density = 1.953462 g / cm^3
# Si number density = 19.579185 Si / 1000 Ang^3
#
#
#
# Elastic Constant Matrix: (Units=GPa)
#
#
# Indices 1 2 3 4 5 6 
#
# 1 96.7050 15.2644 25.7067 0.0000 0.0000 0.0000
# 2 15.2644 92.7617 32.2317 0.0000 0.0000 0.0000
# 3 25.7067 32.2317 73.4562 0.0000 0.0000 0.0000
# 4 0.0000 0.0000 0.0000 15.9260 0.0000 0.0000
# 5 0.0000 0.0000 0.0000 0.0000 6.7104 0.0000
# 6 0.0000 0.0000 0.0000 0.0000 0.0000 33.4392
#
#
#
# Elastic Compliance Matrix: (Units=1/GPa)
#
#
# Indices 1 2 3 4 5 6 
#
# 1 0.011428 -0.000579 -0.003745 0.000000 0.000000 0.000000
# 2 -0.000579 0.012749 -0.005391 0.000000 0.000000 0.000000
# 3 -0.003745 -0.005391 0.017290 0.000000 0.000000 0.000000
# 4 0.000000 0.000000 0.000000 0.062791 0.000000 0.000000
# 5 0.000000 0.000000 0.000000 0.000000 0.149023 0.000000
# 6 0.000000 0.000000 0.000000 0.000000 0.000000 0.029905
#
#
# Mechanical properties :
#
#
# Convention : Reuss Voigt Hill
#
# Bulk Modulus (GPa) = 45.38200 45.48094 45.43147
# Shear Modulus (GPa) = 16.13103 23.86311 19.99707
#
# Velocity S-wave (km/s) = 2.87346 3.49492 3.19931
# Velocity P-wave (km/s) = 5.85133 6.29012 6.07469
#
# Compressibility (1/GPa) = 0.02203517
#
# Stress axis : x y z
#
# Youngs Moduli (GPa) = 87.50673 78.43776 57.83732
#
# Poissons Ratio (x) = 0.04543 0.21661
# Poissons Ratio (y) = 0.05068 0.31182
# Poissons Ratio (z) = 0.32772 0.42289
#
# Static dielectric constant tensor:
#      x y z
#    x 1.688690 0.000000 0.000000 
#    y 0.000000 1.719590 0.000000 
#    z 0.000000 0.000000 1.652660 
# 
# From -- ./inp_files/5884.got.cif
#   From: 2010.05.17/outbox.cif.g08.bks.cpg/sg39_3_cif.got.tgz:5884.got - 2010.06.03 18:22:40.
