data_PCOD9361150
_publ_section_title
;
Structure prediction by ZEFSAII (Michael W. Deem and Ramdas Pophale) SiO2 
 PCOD9361150
Probable space group: A B M 2
;
_chemical_formula_sum "Si O2"
_cell_formula_units_Z 56
_cell_length_a 11.751496
_cell_length_b 14.260725
_cell_length_c 14.823625
_cell_angle_alpha 90.000000
_cell_angle_beta 90.000000
_cell_angle_gamma 90.000000
_cell_volume 2484.215014
_symmetry_space_group_name_H-M "A B M 2"
_symmetry_group_IT_number 39
_symmetry_cell_setting 'orthorhombic'
loop_
_space_group_symop_operation_xyz
x,y,z
-x,-y,z
-x,1/2+y,z
x,1/2-y,z
x,1/2+y,1/2+z
-x,1/2-y,1/2+z
-x,y,1/2+z
x,-y,1/2+z
loop_
_atom_site_type_symbol
_atom_site_label
_atom_site_fract_x
_atom_site_fract_y
_atom_site_fract_z
Si Si1 0.347614 0.556490 0.095060
Si Si2 0.653374 0.649417 0.096365
Si Si3 0.110884 0.931534 0.884641
Si Si4 0.474279 0.644832 0.254947
Si Si5 0.638158 0.861001 0.413018
Si Si6 0.887668 0.144253 0.071703
Si Si7 0.896747 0.358034 0.686847
O O1 0.376050 0.452887 0.059210
O O2 0.393814 0.577574 0.195474
O O3 0.213152 0.574208 0.095975
O O4 0.390358 0.629286 0.019147
O O5 0.638411 0.750000 0.047723
O O6 0.581658 0.654017 0.188171
O O7 0.783264 0.640434 0.127972
O O8 0.252570 0.930163 0.896589
O O9 0.105710 0.913303 0.779023
O O10 0.088849 0.858088 0.965126
O O11 0.000000 0.000000 0.900791
O O12 0.423093 0.750000 0.264271
O O13 0.530766 0.615942 0.349431
O O14 0.667517 0.750000 0.394436
O O15 0.853251 0.250000 0.097200
O O16 0.998724 0.115682 0.124651
O O17 0.913169 0.250000 0.715135
#
# Coordination Sequence:
#
# PCOD9361150 Si02
#       7
#     8   8   8   8   8   8   8
#     4  11  22  38  69  98 132 169 229 280 331 408
#     4  10  22  39  62  90 125 175 221 271 334 398
#     4  11  22  34  62  95 128 173 223 270 320 404
#     4  10  20  40  69  97 127 170 221 274 333 405
#     4  10  21  41  69  99 136 180 226 276 347 417
#     4  10  23  39  63  97 134 172 220 278 339 399
#     4  10  21  39  62  87 127 176 217 265 335 400
#
# _framework density 22.542331999999998
#
# number of rings (size 3 to 8) (size 9 to 14) (size 15 to 20)
#    0.000    1.714    1.429    3.857    6.000    0.000 
#    0.000    2.857    3.143    2.571    0.000    0.000 
#    0.000    0.000    0.000    0.000    0.000    0.000 
#
# Total GULP energy -155935.180256 kJ/mol
# GULP energy per Si atom -5569.113581 kJ/mol
# Density = 2.249102 g / cm^3
# Si number density = 22.542332 Si / 1000 Ang^3
#
#
#
# Elastic Constant Matrix: (Units=GPa)
#
#
# Indices 1 2 3 4 5 6 
#
# 1 73.4773 25.4454 0.4055 0.0000 0.0000 0.0000
# 2 25.4454 114.4630 -2.9564 0.0000 0.0000 0.0000
# 3 0.4055 -2.9564 61.6398 0.0000 0.0000 0.0000
# 4 0.0000 0.0000 0.0000 12.9300 0.0000 0.0000
# 5 0.0000 0.0000 0.0000 0.0000 30.1269 0.0000
# 6 0.0000 0.0000 0.0000 0.0000 0.0000 -303.3044
#
#
#
# Elastic Compliance Matrix: (Units=1/GPa)
#
#
# Indices 1 2 3 4 5 6 
#
# 1 0.014749 -0.003285 -0.000255 0.000000 0.000000 0.000000
# 2 -0.003285 0.009479 0.000476 0.000000 0.000000 0.000000
# 3 -0.000255 0.000476 0.016248 0.000000 0.000000 0.000000
# 4 0.000000 0.000000 0.000000 0.077340 0.000000 0.000000
# 5 0.000000 0.000000 0.000000 0.000000 0.033193 0.000000
# 6 0.000000 0.000000 0.000000 0.000000 0.000000 -0.003297
#
#
# Mechanical properties :
#
#
# Convention : Reuss Voigt Hill
#
# Bulk Modulus (GPa) = 29.11343 32.81879 30.96611
# Shear Modulus (GPa) = 30.25026 -36.93713 -3.34344
#
# Velocity S-wave (km/s) = 3.66721 -4.05231 -1.21918
# Velocity P-wave (km/s) = 5.55646 2.70271 3.43290
#
# Compressibility (1/GPa) = 0.03434841
#
# Stress axis : x y z
#
# Youngs Moduli (GPa) = 67.80242 105.49558 61.54682
#
# Poissons Ratio (x) = 0.34658 0.01567
# Poissons Ratio (y) = 0.22275 -0.02931
# Poissons Ratio (z) = 0.01726 -0.05024
#
# Static dielectric constant tensor:
#      x y z
#    x 1.879250 0.000000 0.000000 
#    y 0.000000 1.936430 0.000000 
#    z 0.000000 0.000000 1.816650 
# 
# From -- ./inp_files/9284.got.cif
#   From: 2010.05.17/outbox.cif.g08.bks.cpg/sg39_5_cif.got.tgz:9284.got - 2010.06.03 18:22:40.
