data_PCOD9361346
_publ_section_title
;
Structure prediction by ZEFSAII (Michael W. Deem and Ramdas Pophale) SiO2 
 PCOD9361346
Probable space group: A B M 2
;
_chemical_formula_sum "Si O2"
_cell_formula_units_Z 44
_cell_length_a 6.907461
_cell_length_b 20.302658
_cell_length_c 17.429677
_cell_angle_alpha 90.000000
_cell_angle_beta 90.000000
_cell_angle_gamma 90.000000
_cell_volume 2444.334736
_symmetry_space_group_name_H-M "A B M 2"
_symmetry_group_IT_number 39
_symmetry_cell_setting 'orthorhombic'
loop_
_space_group_symop_operation_xyz
x,y,z
-x,-y,z
-x,1/2+y,z
x,1/2-y,z
x,1/2+y,1/2+z
-x,1/2-y,1/2+z
-x,y,1/2+z
x,-y,1/2+z
loop_
_atom_site_type_symbol
_atom_site_label
_atom_site_fract_x
_atom_site_fract_y
_atom_site_fract_z
Si Si1 0.853817 0.116542 0.672550
Si Si2 0.358668 0.062574 0.867391
Si Si3 0.253652 0.325682 0.609360
Si Si4 0.000000 0.500000 0.780432
Si Si5 0.520165 0.822282 0.261215
Si Si6 0.554003 0.923269 0.040701
O O1 0.734528 0.165101 0.728170
O O2 0.709129 0.095919 0.604855
O O3 0.044205 0.147797 0.634666
O O4 0.903281 0.053486 0.724465
O O5 0.155505 0.038383 0.832616
O O6 0.450067 0.120784 0.817342
O O7 0.500000 0.000000 0.862161
O O8 0.356185 0.083575 0.956122
O O9 0.243937 0.250000 0.580611
O O10 0.380440 0.324666 0.687205
O O11 0.367250 0.376057 0.553379
O O12 0.506606 0.750000 0.296827
O O13 0.500000 0.000000 0.051203
#
# Coordination Sequence:
#
# PCOD9361346 Si02
#       6
#     8   8   8   4   8   8
#     4  11  21  37  63  90 120 159 209 256 308 368
#     4  11  23  41  60  90 125 162 204 255 312 373
#     4  10  21  39  62  90 120 159 205 254 305 370
#     4  12  22  34  66  92 122 160 212 260 308 362
#     4  10  21  38  61  88 119 158 206 252 304 367
#     4  10  24  39  61  88 126 161 202 251 314 372
#
# _framework density 18.000806999999998
#
# number of rings (size 3 to 8) (size 9 to 14) (size 15 to 20)
#    0.000    1.455    3.636    1.636    2.545    5.091 
#    0.000    0.000    0.000    0.000    0.000    0.000 
#    0.000    0.000    0.000    0.000    0.000    0.000 
#
# Total GULP energy -122804.229358 kJ/mol
# GULP energy per Si atom -5582.010425 kJ/mol
# Density = 1.795984 g / cm^3
# Si number density = 18.000807 Si / 1000 Ang^3
#
#
#
# Elastic Constant Matrix: (Units=GPa)
#
#
# Indices 1 2 3 4 5 6 
#
# 1 122.8714 47.8534 48.3162 0.0000 0.0000 0.0000
# 2 47.8534 128.7073 59.6918 0.0000 0.0000 0.0000
# 3 48.3162 59.6918 96.7176 0.0000 0.0000 0.0000
# 4 0.0000 0.0000 0.0000 -428.9723 0.0000 0.0000
# 5 0.0000 0.0000 0.0000 0.0000 14.8807 0.0000
# 6 0.0000 0.0000 0.0000 0.0000 0.0000 20.5758
#
#
#
# Elastic Compliance Matrix: (Units=1/GPa)
#
#
# Indices 1 2 3 4 5 6 
#
# 1 0.010505 -0.002062 -0.003975 0.000000 0.000000 0.000000
# 2 -0.002062 0.011290 -0.005938 0.000000 0.000000 0.000000
# 3 -0.003975 -0.005938 0.015990 0.000000 0.000000 0.000000
# 4 0.000000 0.000000 0.000000 -0.002331 0.000000 0.000000
# 5 0.000000 0.000000 0.000000 0.000000 0.067201 0.000000
# 6 0.000000 0.000000 0.000000 0.000000 0.000000 0.048601
#
#
# Mechanical properties :
#
#
# Convention : Reuss Voigt Hill
#
# Bulk Modulus (GPa) = 72.28204 73.33545 72.80875
# Shear Modulus (GPa) = 27.80602 -65.87417 -19.03407
#
# Velocity S-wave (km/s) = 3.93454 -6.05595 -3.25530
# Velocity P-wave (km/s) = 7.80275 2.84093 5.13868
#
# Compressibility (1/GPa) = 0.01383469
#
# Stress axis : x y z
#
# Youngs Moduli (GPa) = 95.19448 88.57311 62.53966
#
# Poissons Ratio (x) = 0.18265 0.24860
# Poissons Ratio (y) = 0.19630 0.37135
# Poissons Ratio (z) = 0.37841 0.52593
#
# Static dielectric constant tensor:
#      x y z
#    x 1.614750 0.000000 0.000000 
#    y 0.000000 1.646740 0.000000 
#    z 0.000000 0.000000 1.584410 
# 
# From -- ./inp_files/13471.got.cif
#   From: 2010.05.17/outbox.cif.g08.bks.cpg/sg39_7_cif.got.tgz:13471.got - 2010.06.03 18:22:40.
