data_PCOD9361224
_publ_section_title
;
Structure prediction by ZEFSAII (Michael W. Deem and Ramdas Pophale) SiO2 
 PCOD9361224
Probable space group: A B M 2
;
_chemical_formula_sum "Si O2"
_cell_formula_units_Z 48
_cell_length_a 11.052426
_cell_length_b 14.534159
_cell_length_c 14.527331
_cell_angle_alpha 90.000000
_cell_angle_beta 90.000000
_cell_angle_gamma 90.000000
_cell_volume 2333.637283
_symmetry_space_group_name_H-M "A B M 2"
_symmetry_group_IT_number 39
_symmetry_cell_setting 'orthorhombic'
loop_
_space_group_symop_operation_xyz
x,y,z
-x,-y,z
-x,1/2+y,z
x,1/2-y,z
x,1/2+y,1/2+z
-x,1/2-y,1/2+z
-x,y,1/2+z
x,-y,1/2+z
loop_
_atom_site_type_symbol
_atom_site_label
_atom_site_fract_x
_atom_site_fract_y
_atom_site_fract_z
Si Si1 0.153597 0.357938 0.977200
Si Si2 0.880737 0.446131 0.290965
Si Si3 0.342496 0.640261 0.082182
Si Si4 0.368821 0.493328 0.241043
Si Si5 0.080092 0.638678 0.088855
Si Si6 0.395830 0.360581 0.070435
O O1 0.155824 0.250000 0.997300
O O2 0.139835 0.371114 0.869108
O O3 0.283342 0.394714 0.010311
O O4 0.038489 0.394567 0.034575
O O5 0.759673 0.508753 0.291154
O O6 0.909236 0.404712 0.190297
O O7 0.000000 0.500000 0.319242
O O8 0.342411 0.750000 0.098328
O O9 0.354431 0.584929 0.177704
O O10 0.210423 0.617562 0.041584
O O11 0.469420 0.617455 0.032738
O O12 0.500000 0.500000 0.289713
O O13 0.379437 0.409679 0.168744
O O14 0.072610 0.750000 0.097037
O O15 0.390331 0.250000 0.079715
#
# Coordination Sequence:
#
# PCOD9361224 Si02
#       6
#     8   8   8   8   8   8
#     4  10  21  36  54  77 106 141 180 222 268 317
#     4  11  22  34  52  78 108 139 177 221 267 319
#     4   8  15  29  53  81 105 134 173 217 267 320
#     4   9  18  34  54  79 107 139 178 219 265 316
#     4   9  18  35  57  77 102 138 177 219 267 318
#     4   9  17  32  55  80 105 137 178 220 264 316
#
# _framework density 20.568750000000001
#
# number of rings (size 3 to 8) (size 9 to 14) (size 15 to 20)
#    0.000    2.667    0.000    1.500    0.000    4.000 
#    0.000    5.000    0.000    0.000    0.000   12.833 
#    0.000    0.000    0.000    0.000    0.000    0.000 
#
# Total GULP energy -133644.928785 kJ/mol
# GULP energy per Si atom -5568.538699 kJ/mol
# Density = 2.052193 g / cm^3
# Si number density = 20.568750 Si / 1000 Ang^3
#
#
#
# Elastic Constant Matrix: (Units=GPa)
#
#
# Indices 1 2 3 4 5 6 
#
# 1 187.3632 -7.7619 30.7145 0.0000 0.0000 0.0000
# 2 -7.7619 11.9875 -10.5167 0.0000 0.0000 0.0000
# 3 30.7145 -10.5167 48.4959 0.0000 0.0000 0.0000
# 4 0.0000 0.0000 0.0000 39.8344 0.0000 0.0000
# 5 0.0000 0.0000 0.0000 0.0000 -16.3743 0.0000
# 6 0.0000 0.0000 0.0000 0.0000 0.0000 9.3906
#
#
#
# Elastic Compliance Matrix: (Units=1/GPa)
#
#
# Indices 1 2 3 4 5 6 
#
# 1 0.005960 0.000676 -0.003628 0.000000 0.000000 0.000000
# 2 0.000676 0.103096 0.021929 0.000000 0.000000 0.000000
# 3 -0.003628 0.021929 0.027674 0.000000 0.000000 0.000000
# 4 0.000000 0.000000 0.000000 0.025104 0.000000 0.000000
# 5 0.000000 0.000000 0.000000 0.000000 -0.061071 0.000000
# 6 0.000000 0.000000 0.000000 0.000000 0.000000 0.106490
#
#
# Mechanical properties :
#
#
# Convention : Reuss Voigt Hill
#
# Bulk Modulus (GPa) = 5.72462 30.30202 18.01332
# Shear Modulus (GPa) = 21.97547 22.26417 22.11982
#
# Velocity S-wave (km/s) = 3.27217 3.29360 3.28290
# Velocity P-wave (km/s) = 4.13102 5.40627 4.81109
#
# Compressibility (1/GPa) = 0.17468416
#
# Stress axis : x y z
#
# Youngs Moduli (GPa) = 167.78547 9.69965 36.13554
#
# Poissons Ratio (x) = -0.00656 0.13110
# Poissons Ratio (y) = -0.11345 -0.79241
# Poissons Ratio (z) = 0.60874 -0.21270
#
# Static dielectric constant tensor:
#      x y z
#    x 1.840790 0.000000 0.000000 
#    y 0.000000 1.287020 0.000000 
#    z 0.000000 0.000000 1.674050 
# 
# From -- ./inp_files/9209.got.cif
#   From: 2010.05.17/outbox.cif.g08.bks.cpg/sg39_5_cif.got.tgz:9209.got - 2010.06.03 18:22:40.
