data_PCOD9361023
_publ_section_title
;
Structure prediction by ZEFSAII (Michael W. Deem and Ramdas Pophale) SiO2 
 PCOD9361023
Probable space group: A B M 2
;
_chemical_formula_sum "Si O2"
_cell_formula_units_Z 40
_cell_length_a 5.230175
_cell_length_b 26.023797
_cell_length_c 15.530546
_cell_angle_alpha 90.000000
_cell_angle_beta 90.000000
_cell_angle_gamma 90.000000
_cell_volume 2113.847279
_symmetry_space_group_name_H-M "A B M 2"
_symmetry_group_IT_number 39
_symmetry_cell_setting 'orthorhombic'
loop_
_space_group_symop_operation_xyz
x,y,z
-x,-y,z
-x,1/2+y,z
x,1/2-y,z
x,1/2+y,1/2+z
-x,1/2-y,1/2+z
-x,y,1/2+z
x,-y,1/2+z
loop_
_atom_site_type_symbol
_atom_site_label
_atom_site_fract_x
_atom_site_fract_y
_atom_site_fract_z
Si Si1 0.961475 0.058219 0.107750
Si Si2 0.070477 0.600193 0.289542
Si Si3 0.460351 0.121851 0.065817
Si Si4 0.630514 0.809576 0.722271
Si Si5 0.435139 0.369846 0.372525
O O1 0.980546 0.061783 0.211812
O O2 0.683740 0.080082 0.083290
O O3 0.185936 0.094732 0.072230
O O4 0.000000 0.000000 0.078786
O O5 0.119671 0.655430 0.241932
O O6 0.338643 0.592560 0.338389
O O7 0.837992 0.605129 0.354835
O O8 0.495783 0.164343 0.140107
O O9 0.510780 0.143220 0.970701
O O10 0.680528 0.750000 0.710361
O O11 0.464975 0.821572 0.807957
#
# Coordination Sequence:
#
# PCOD9361023 Si02
#       5
#     8   8   8   8   8
#     4  11  21  40  63  87 118 161 198 245 304 360
#     4   9  19  39  58  84 117 159 188 252 284 348
#     4  11  22  39  63  87 125 153 198 251 298 353
#     4   9  21  38  61  88 120 159 197 237 297 354
#     4  10  20  38  60  82 122 154 194 243 296 337
#
# _framework density 18.922841999999999
#
# number of rings (size 3 to 8) (size 9 to 14) (size 15 to 20)
#    1.200    0.800    2.000    1.800    0.000    1.600 
#    0.000    6.000    0.000    0.000    0.000    0.000 
#    0.000    0.000    0.000    0.000    0.000    0.000 
#
# Total GULP energy -111393.583104 kJ/mol
# GULP energy per Si atom -5569.679155 kJ/mol
# Density = 1.887977 g / cm^3
# Si number density = 18.922842 Si / 1000 Ang^3
#
#
#
# Elastic Constant Matrix: (Units=GPa)
#
#
# Indices 1 2 3 4 5 6 
#
# 1 78.0337 -9.1706 -9.4892 0.0000 0.0000 0.0000
# 2 -9.1706 59.1409 7.8173 0.0000 0.0000 0.0000
# 3 -9.4892 7.8173 116.5706 0.0000 0.0000 0.0000
# 4 0.0000 0.0000 0.0000 2.7737 0.0000 0.0000
# 5 0.0000 0.0000 0.0000 0.0000 28.4255 0.0000
# 6 0.0000 0.0000 0.0000 0.0000 0.0000 11.8968
#
#
#
# Elastic Compliance Matrix: (Units=1/GPa)
#
#
# Indices 1 2 3 4 5 6 
#
# 1 0.013155 0.001915 0.000942 0.000000 0.000000 0.000000
# 2 0.001915 0.017339 -0.001007 0.000000 0.000000 0.000000
# 3 0.000942 -0.001007 0.008723 0.000000 0.000000 0.000000
# 4 0.000000 0.000000 0.000000 0.360527 0.000000 0.000000
# 5 0.000000 0.000000 0.000000 0.000000 0.035180 0.000000
# 6 0.000000 0.000000 0.000000 0.000000 0.000000 0.084056
#
#
# Mechanical properties :
#
#
# Convention : Reuss Voigt Hill
#
# Bulk Modulus (GPa) = 23.30038 25.78448 24.54243
# Shear Modulus (GPa) = 9.44139 26.25839 17.84989
#
# Velocity S-wave (km/s) = 2.23612 3.72917 3.07465
# Velocity P-wave (km/s) = 4.35971 5.67432 5.05989
#
# Compressibility (1/GPa) = 0.04291776
#
# Stress axis : x y z
#
# Youngs Moduli (GPa) = 76.01876 57.67402 114.64303
#
# Poissons Ratio (x) = -0.11046 -0.10804
# Poissons Ratio (y) = -0.14559 0.11543
# Poissons Ratio (z) = -0.07164 0.05807
#
# Static dielectric constant tensor:
#      x y z
#    x 1.668700 0.000000 0.000000 
#    y 0.000000 1.628470 0.000000 
#    z 0.000000 0.000000 1.668330 
# 
# From -- ./inp_files/7399.got.cif
#   From: 2010.05.17/outbox.cif.g08.bks.cpg/sg39_4_cif.got.tgz:7399.got - 2010.06.03 18:22:40.
