data_PCOD9361872
_publ_section_title
;
Structure prediction by ZEFSAII (Michael W. Deem and Ramdas Pophale) SiO2 
 PCOD9361872
Probable space group: A B M 2
;
_chemical_formula_sum "Si O2"
_cell_formula_units_Z 48
_cell_length_a 8.704349
_cell_length_b 10.213971
_cell_length_c 28.297461
_cell_angle_alpha 90.000000
_cell_angle_beta 90.000000
_cell_angle_gamma 90.000000
_cell_volume 2515.813170
_symmetry_space_group_name_H-M "A B M 2"
_symmetry_group_IT_number 39
_symmetry_cell_setting 'orthorhombic'
loop_
_space_group_symop_operation_xyz
x,y,z
-x,-y,z
-x,1/2+y,z
x,1/2-y,z
x,1/2+y,1/2+z
-x,1/2-y,1/2+z
-x,y,1/2+z
x,-y,1/2+z
loop_
_atom_site_type_symbol
_atom_site_label
_atom_site_fract_x
_atom_site_fract_y
_atom_site_fract_z
Si Si1 0.192363 0.750000 0.035370
Si Si2 0.356740 0.097608 0.373401
Si Si3 0.830912 0.250000 0.516404
Si Si4 0.199191 0.750000 0.628036
Si Si5 0.316208 0.488081 0.476280
Si Si6 0.317012 0.988080 0.687941
Si Si7 0.835139 0.750000 0.647113
Si Si8 0.857830 0.098378 0.781973
O O1 0.208513 0.750000 0.091723
O O2 0.014944 0.750000 0.019233
O O3 0.267579 0.622034 0.013177
O O4 0.407479 0.250000 0.377033
O O5 0.241166 0.086806 0.329716
O O6 0.500000 0.000000 0.366256
O O7 0.278757 0.057688 0.423005
O O8 0.785345 0.250000 0.571658
O O9 0.765011 0.377412 0.490488
O O10 0.276658 0.878590 0.649298
O O11 0.020963 0.750000 0.645207
O O12 0.500000 0.500000 0.477653
O O13 0.247300 0.939380 0.737408
O O14 0.500000 0.000000 0.691527
O O15 0.234308 0.122345 0.672352
O O16 0.907631 0.250000 0.776939
O O17 0.000000 0.000000 0.783177
#
# Coordination Sequence:
#
# PCOD9361872 Si02
#       8
#     4   8   4   4   8   8   4   8
#     4  11  23  43  62  95 132 171 221 270 320 387
#     4  10  23  44  68  96 131 169 215 268 322 385
#     4  11  25  39  66  93 130 177 217 268 326 379
#     4  11  23  45  62  93 132 171 223 268 320 387
#     4  11  23  41  65  96 130 173 215 267 325 379
#     4  12  25  42  66  98 129 170 215 270 324 383
#     4  11  25  41  68  91 130 177 217 266 328 379
#     4  11  25  45  68  98 132 169 215 265 322 392
#
# _framework density 19.079319000000002
#
# number of rings (size 3 to 8) (size 9 to 14) (size 15 to 20)
#    0.000    1.000    1.667    4.500    4.667    8.667 
#    0.000    0.000    0.000    0.000    0.000    0.000 
#    0.000    0.000    0.000    0.000    0.000    0.000 
#
# Total GULP energy -134253.496501 kJ/mol
# GULP energy per Si atom -5593.895688 kJ/mol
# Density = 1.903589 g / cm^3
# Si number density = 19.079319 Si / 1000 Ang^3
#
#
#
# Elastic Constant Matrix: (Units=GPa)
#
#
# Indices 1 2 3 4 5 6 
#
# 1 79.9697 61.8620 55.8711 0.0000 0.0000 0.0000
# 2 61.8620 183.5463 65.1270 0.0000 0.0000 0.0000
# 3 55.8711 65.1270 119.4299 0.0000 0.0000 0.0000
# 4 0.0000 0.0000 0.0000 38.7499 0.0000 0.0000
# 5 0.0000 0.0000 0.0000 0.0000 28.7678 0.0000
# 6 0.0000 0.0000 0.0000 0.0000 0.0000 13.6943
#
#
#
# Elastic Compliance Matrix: (Units=1/GPa)
#
#
# Indices 1 2 3 4 5 6 
#
# 1 0.021198 -0.004496 -0.007465 0.000000 0.000000 0.000000
# 2 -0.004496 0.007709 -0.002101 0.000000 0.000000 0.000000
# 3 -0.007465 -0.002101 0.013011 0.000000 0.000000 0.000000
# 4 0.000000 0.000000 0.000000 0.025807 0.000000 0.000000
# 5 0.000000 0.000000 0.000000 0.000000 0.034761 0.000000
# 6 0.000000 0.000000 0.000000 0.000000 0.000000 0.073023
#
#
# Mechanical properties :
#
#
# Convention : Reuss Voigt Hill
#
# Bulk Modulus (GPa) = 72.49094 83.18514 77.83804
# Shear Modulus (GPa) = 24.01194 29.58144 26.79669
#
# Velocity S-wave (km/s) = 3.55143 3.94184 3.75172
# Velocity P-wave (km/s) = 7.40904 8.02569 7.72352
#
# Compressibility (1/GPa) = 0.01379483
#
# Stress axis : x y z
#
# Youngs Moduli (GPa) = 47.17420 129.72237 76.85860
#
# Poissons Ratio (x) = 0.58319 0.57376
# Poissons Ratio (y) = 0.21208 0.16145
# Poissons Ratio (z) = 0.35216 0.27249
#
# Static dielectric constant tensor:
#      x y z
#    x 1.633870 0.000000 0.000000 
#    y 0.000000 1.654380 0.000000 
#    z 0.000000 0.000000 1.645660 
# 
# From -- ./inp_files/16840.got.cif
#   From: 2010.05.17/outbox.cif.g08.bks.cpg/sg39_9_cif.got.tgz:16840.got - 2010.06.03 18:22:40.
