data_PCOD9361267
_publ_section_title
;
Structure prediction by ZEFSAII (Michael W. Deem and Ramdas Pophale) SiO2 
 PCOD9361267
Probable space group: A B M 2
;
_chemical_formula_sum "Si O2"
_cell_formula_units_Z 60
_cell_length_a 17.182102
_cell_length_b 7.534228
_cell_length_c 19.994863
_cell_angle_alpha 90.000000
_cell_angle_beta 90.000000
_cell_angle_gamma 90.000000
_cell_volume 2588.412475
_symmetry_space_group_name_H-M "A B M 2"
_symmetry_group_IT_number 39
_symmetry_cell_setting 'orthorhombic'
loop_
_space_group_symop_operation_xyz
x,y,z
-x,-y,z
-x,1/2+y,z
x,1/2-y,z
x,1/2+y,1/2+z
-x,1/2-y,1/2+z
-x,y,1/2+z
x,-y,1/2+z
loop_
_atom_site_type_symbol
_atom_site_label
_atom_site_fract_x
_atom_site_fract_y
_atom_site_fract_z
Si Si1 0.099247 0.250000 0.650050
Si Si2 0.170219 0.967177 0.543211
Si Si3 0.340741 0.547091 0.509466
Si Si4 0.408734 0.036761 0.872100
Si Si5 0.880924 0.442549 0.753708
Si Si6 0.299326 0.033542 0.750336
Si Si7 0.415928 0.539860 0.138201
Si Si8 0.087459 0.041353 0.904879
O O1 0.124343 0.409241 0.595369
O O2 0.085800 0.403579 0.707992
O O3 0.161487 0.750000 0.555335
O O4 0.261388 0.022065 0.542552
O O5 0.141974 0.005349 0.467292
O O6 0.320228 0.750000 0.492758
O O7 0.374719 0.465412 0.442015
O O8 0.406639 0.542954 0.565625
O O9 0.403541 0.250000 0.873031
O O10 0.351926 0.977464 0.812920
O O11 0.500000 0.000000 0.862821
O O12 0.904628 0.250000 0.728284
O O13 0.787287 0.462435 0.750067
O O14 0.900074 0.455908 0.832490
O O15 0.293430 0.250000 0.750015
O O16 0.347007 0.976237 0.685397
O O17 0.500000 0.500000 0.168510
O O18 0.408655 0.750000 0.130973
O O19 0.097906 0.250000 0.893546
O O20 0.000000 0.000000 0.927071
#
# Coordination Sequence:
#
# PCOD9361267 Si02
#       8
#     4   8   8   8   8   8   8   8
#     4  12  24  44  70 106 146 182 228 304 340 418
#     4  10  24  44  73 106 143 188 239 294 362 428
#     4  10  21  38  60  88 123 165 221 279 339 411
#     4  10  21  37  56  82 123 167 216 282 352 414
#     4  12  25  43  73 108 143 190 243 292 361 429
#     4  10  21  40  62  88 125 171 225 287 348 408
#     4  11  23  36  56  84 120 170 220 274 339 410
#     4  11  24  48  79 111 150 191 242 292 351 438
#
# _framework density 23.180230000000002
#
# number of rings (size 3 to 8) (size 9 to 14) (size 15 to 20)
#    0.000    1.333    1.333    3.600    4.667    6.400 
#    0.000    0.667    0.000    0.000    0.000    0.000 
#    0.000    0.000    0.000    0.000    0.000    0.000 
#
# Total GULP energy -167271.232943 kJ/mol
# GULP energy per Si atom -5575.707765 kJ/mol
# Density = 2.312747 g / cm^3
# Si number density = 23.180230 Si / 1000 Ang^3
#
#
#
# Elastic Constant Matrix: (Units=GPa)
#
#
# Indices 1 2 3 4 5 6 
#
# 1 62.7070 -3.5831 15.7235 0.0000 0.0000 0.0000
# 2 -3.5831 134.7232 37.8035 0.0000 0.0000 0.0000
# 3 15.7235 37.8035 92.5873 0.0000 0.0000 0.0000
# 4 0.0000 0.0000 0.0000 26.0370 0.0000 0.0000
# 5 0.0000 0.0000 0.0000 0.0000 39.6060 0.0000
# 6 0.0000 0.0000 0.0000 0.0000 0.0000 18.7908
#
#
#
# Elastic Compliance Matrix: (Units=1/GPa)
#
#
# Indices 1 2 3 4 5 6 
#
# 1 0.016892 0.001417 -0.003447 0.000000 0.000000 0.000000
# 2 0.001417 0.008502 -0.003712 0.000000 0.000000 0.000000
# 3 -0.003447 -0.003712 0.012902 0.000000 0.000000 0.000000
# 4 0.000000 0.000000 0.000000 0.038407 0.000000 0.000000
# 5 0.000000 0.000000 0.000000 0.000000 0.025249 0.000000
# 6 0.000000 0.000000 0.000000 0.000000 0.000000 0.053218
#
#
# Mechanical properties :
#
#
# Convention : Reuss Voigt Hill
#
# Bulk Modulus (GPa) = 37.29810 43.32280 40.31045
# Shear Modulus (GPa) = 28.47524 32.89165 30.68345
#
# Velocity S-wave (km/s) = 3.50870 3.77099 3.64220
# Velocity P-wave (km/s) = 5.70439 6.13926 5.92582
#
# Compressibility (1/GPa) = 0.02681102
#
# Stress axis : x y z
#
# Youngs Moduli (GPa) = 59.19793 117.62132 77.50986
#
# Poissons Ratio (x) = -0.16661 0.26719
# Poissons Ratio (y) = -0.08386 0.28771
# Poissons Ratio (z) = 0.20406 0.43660
#
# Static dielectric constant tensor:
#      x y z
#    x 1.803140 0.000000 0.000000 
#    y 0.000000 1.897880 0.000000 
#    z 0.000000 0.000000 1.835330 
# 
# From -- ./inp_files/12988.got.cif
#   From: 2010.05.17/outbox.cif.g08.bks.cpg/sg39_7_cif.got.tgz:12988.got - 2010.06.03 18:22:40.
