data_PCOD9361296
_publ_section_title
;
Structure prediction by ZEFSAII (Michael W. Deem and Ramdas Pophale) SiO2 
 PCOD9361296
Probable space group: A B M 2
;
_chemical_formula_sum "Si O2"
_cell_formula_units_Z 48
_cell_length_a 4.998284
_cell_length_b 16.974856
_cell_length_c 27.979059
_cell_angle_alpha 90.000000
_cell_angle_beta 90.000000
_cell_angle_gamma 90.000000
_cell_volume 2373.887490
_symmetry_space_group_name_H-M "A B M 2"
_symmetry_group_IT_number 39
_symmetry_cell_setting 'orthorhombic'
loop_
_space_group_symop_operation_xyz
x,y,z
-x,-y,z
-x,1/2+y,z
x,1/2-y,z
x,1/2+y,1/2+z
-x,1/2-y,1/2+z
-x,y,1/2+z
x,-y,1/2+z
loop_
_atom_site_type_symbol
_atom_site_label
_atom_site_fract_x
_atom_site_fract_y
_atom_site_fract_z
Si Si1 0.254675 0.056324 0.818810
Si Si2 0.982971 0.338582 0.128617
Si Si3 0.085073 0.659119 0.407083
Si Si4 0.466441 0.659458 0.562929
Si Si5 0.572567 0.590914 0.460339
Si Si6 0.746133 0.944595 0.711891
O O1 0.165601 0.122743 0.855911
O O2 0.323651 0.086500 0.765205
O O3 0.500000 0.000000 0.834808
O O4 0.000000 0.000000 0.816303
O O5 0.064761 0.250000 0.143217
O O6 0.740851 0.335075 0.091605
O O7 0.854054 0.382441 0.173714
O O8 0.236415 0.372473 0.098980
O O9 0.004623 0.750000 0.403388
O O10 0.355555 0.647859 0.436588
O O11 0.855982 0.611646 0.436016
O O12 0.385168 0.750000 0.549446
O O13 0.535669 0.608722 0.516463
O O14 0.500000 0.500000 0.451239
O O15 0.500000 0.000000 0.695521
O O16 0.000000 0.000000 0.718247
#
# Coordination Sequence:
#
# PCOD9361296 Si02
#       6
#     8   8   8   8   8   8
#     4  10  21  39  61  86 120 158 198 247 303 360
#     4  10  21  37  59  84 116 154 193 241 297 352
#     4  12  24  40  63  90 120 158 201 252 309 372
#     4  10  21  38  58  84 117 154 194 243 298 354
#     4  12  25  41  62  89 120 158 203 253 309 373
#     4  10  21  37  59  87 119 156 196 244 297 353
#
# _framework density 20.219999999999999
#
# number of rings (size 3 to 8) (size 9 to 14) (size 15 to 20)
#    0.000    1.333    0.000    6.500    0.000    4.000 
#    0.000    0.000    0.000   10.000    0.000    0.000 
#    0.000    0.000    0.000    0.000    0.000    0.000 
#
# Total GULP energy -133906.822162 kJ/mol
# GULP energy per Si atom -5579.450923 kJ/mol
# Density = 2.017398 g / cm^3
# Si number density = 20.220000 Si / 1000 Ang^3
#
#
#
# Elastic Constant Matrix: (Units=GPa)
#
#
# Indices 1 2 3 4 5 6 
#
# 1 109.3643 3.4871 10.3517 0.0000 0.0000 0.0000
# 2 3.4871 73.2727 48.1726 0.0000 0.0000 0.0000
# 3 10.3517 48.1726 118.3779 0.0000 0.0000 0.0000
# 4 0.0000 0.0000 0.0000 35.5248 0.0000 0.0000
# 5 0.0000 0.0000 0.0000 0.0000 33.3935 0.0000
# 6 0.0000 0.0000 0.0000 0.0000 0.0000 24.0135
#
#
#
# Elastic Compliance Matrix: (Units=1/GPa)
#
#
# Indices 1 2 3 4 5 6 
#
# 1 0.009221 0.000125 -0.000857 0.000000 0.000000 0.000000
# 2 0.000125 0.018634 -0.007594 0.000000 0.000000 0.000000
# 3 -0.000857 -0.007594 0.011613 0.000000 0.000000 0.000000
# 4 0.000000 0.000000 0.000000 0.028149 0.000000 0.000000
# 5 0.000000 0.000000 0.000000 0.000000 0.029946 0.000000
# 6 0.000000 0.000000 0.000000 0.000000 0.000000 0.041643
#
#
# Mechanical properties :
#
#
# Convention : Reuss Voigt Hill
#
# Bulk Modulus (GPa) = 43.83033 47.22639 45.52836
# Shear Modulus (GPa) = 30.58773 34.51993 32.55383
#
# Velocity S-wave (km/s) = 3.89362 4.13633 4.01681
# Velocity P-wave (km/s) = 6.47592 6.79848 6.63916
#
# Compressibility (1/GPa) = 0.02281525
#
# Stress axis : x y z
#
# Youngs Moduli (GPa) = 108.44931 53.66458 86.11246
#
# Poissons Ratio (x) = -0.00669 0.07380
# Poissons Ratio (y) = -0.01352 0.65393
# Poissons Ratio (z) = 0.09295 0.40752
#
# Static dielectric constant tensor:
#      x y z
#    x 1.651890 0.000000 0.000000 
#    y 0.000000 1.729480 0.000000 
#    z 0.000000 0.000000 1.804850 
# 
# From -- ./inp_files/16500.got.cif
#   From: 2010.05.17/outbox.cif.g08.bks.cpg/sg39_9_cif.got.tgz:16500.got - 2010.06.03 18:22:40.
