data_PCOD9361372
_publ_section_title
;
Structure prediction by ZEFSAII (Michael W. Deem and Ramdas Pophale) SiO2 
 PCOD9361372
Probable space group: A B M 2
;
_chemical_formula_sum "Si O2"
_cell_formula_units_Z 64
_cell_length_a 12.334784
_cell_length_b 18.183939
_cell_length_c 14.234344
_cell_angle_alpha 90.000000
_cell_angle_beta 90.000000
_cell_angle_gamma 90.000000
_cell_volume 3192.691616
_symmetry_space_group_name_H-M "A B M 2"
_symmetry_group_IT_number 39
_symmetry_cell_setting 'orthorhombic'
loop_
_space_group_symop_operation_xyz
x,y,z
-x,-y,z
-x,1/2+y,z
x,1/2-y,z
x,1/2+y,1/2+z
-x,1/2-y,1/2+z
-x,y,1/2+z
x,-y,1/2+z
loop_
_atom_site_type_symbol
_atom_site_label
_atom_site_fract_x
_atom_site_fract_y
_atom_site_fract_z
Si Si1 0.898114 0.039633 0.768380
Si Si2 0.785161 0.436895 0.392921
Si Si3 0.457511 0.583794 0.455011
Si Si4 0.168364 0.832837 0.983234
Si Si5 0.636325 0.664373 0.334386
Si Si6 0.408778 0.943550 0.662768
Si Si7 0.019878 0.665218 0.340499
Si Si8 0.194181 0.016526 0.584034
O O1 0.938674 0.122799 0.769249
O O2 0.796203 0.008309 0.825791
O O3 0.884907 0.006617 0.666353
O O4 0.000000 0.000000 0.818865
O O5 0.661973 0.412412 0.409218
O O6 0.825988 0.466819 0.492893
O O7 0.864473 0.374535 0.352067
O O8 0.500000 0.500000 0.444866
O O9 0.539891 0.636873 0.402135
O O10 0.451059 0.596596 0.567591
O O11 0.180410 0.750000 0.021523
O O12 0.254998 0.840617 0.897959
O O13 0.049276 0.840019 0.937115
O O14 0.187534 0.898726 0.055132
O O15 0.623536 0.750000 0.308578
O O16 0.630812 0.613522 0.241485
O O17 0.500000 0.000000 0.699737
O O18 0.311901 0.994019 0.622925
O O19 0.032629 0.750000 0.315662
#
# Coordination Sequence:
#
# PCOD9361372 Si02
#       8
#     8   8   8   8   8   8   8   8
#     4  10  22  36  60  93 123 165 212 258 306 379
#     4  10  22  40  62  91 123 166 216 262 314 382
#     4  10  22  40  64  91 122 164 216 267 314 376
#     4  10  21  38  63  93 123 163 211 263 323 378
#     4  11  23  39  63  92 128 166 206 267 327 381
#     4  10  22  37  61  93 119 161 216 261 310 384
#     4  10  21  40  64  91 129 165 203 262 324 379
#     4  11  22  37  65  90 122 165 213 261 313 377
#
# _framework density 20.045781999999999
#
# number of rings (size 3 to 8) (size 9 to 14) (size 15 to 20)
#    0.000    1.750    1.250    3.375    5.250    1.000 
#    0.000    5.625    0.000    0.000    0.000    0.000 
#    0.000    0.000    0.000    0.000    0.000    0.000 
#
# Total GULP energy -178583.927059 kJ/mol
# GULP energy per Si atom -5580.747721 kJ/mol
# Density = 2.000016 g / cm^3
# Si number density = 20.045782 Si / 1000 Ang^3
#
#
#
# Elastic Constant Matrix: (Units=GPa)
#
#
# Indices 1 2 3 4 5 6 
#
# 1 82.2547 41.0927 24.6113 0.0000 0.0000 0.0000
# 2 41.0927 164.5335 48.6658 0.0000 0.0000 0.0000
# 3 24.6113 48.6658 78.1952 0.0000 0.0000 0.0000
# 4 0.0000 0.0000 0.0000 33.3513 0.0000 0.0000
# 5 0.0000 0.0000 0.0000 0.0000 25.2864 0.0000
# 6 0.0000 0.0000 0.0000 0.0000 0.0000 23.6774
#
#
#
# Elastic Compliance Matrix: (Units=1/GPa)
#
#
# Indices 1 2 3 4 5 6 
#
# 1 0.014376 -0.002760 -0.002807 0.000000 0.000000 0.000000
# 2 -0.002760 0.007979 -0.004097 0.000000 0.000000 0.000000
# 3 -0.002807 -0.004097 0.016222 0.000000 0.000000 0.000000
# 4 0.000000 0.000000 0.000000 0.029984 0.000000 0.000000
# 5 0.000000 0.000000 0.000000 0.000000 0.039547 0.000000
# 6 0.000000 0.000000 0.000000 0.000000 0.000000 0.042234
#
#
# Mechanical properties :
#
#
# Convention : Reuss Voigt Hill
#
# Bulk Modulus (GPa) = 51.95199 61.52478 56.73839
# Shear Modulus (GPa) = 28.39509 30.50393 29.44951
#
# Velocity S-wave (km/s) = 3.76774 3.90515 3.83706
# Velocity P-wave (km/s) = 6.70080 7.14789 6.92795
#
# Compressibility (1/GPa) = 0.01924854
#
# Stress axis : x y z
#
# Youngs Moduli (GPa) = 69.55955 125.32895 61.64535
#
# Poissons Ratio (x) = 0.34594 0.17303
# Poissons Ratio (y) = 0.19200 0.25256
# Poissons Ratio (z) = 0.19525 0.51348
#
# Static dielectric constant tensor:
#      x y z
#    x 1.762040 0.000000 0.000000 
#    y 0.000000 1.722940 0.000000 
#    z 0.000000 0.000000 1.755150 
# 
# From -- ./inp_files/9439.got.cif
#   From: 2010.05.17/outbox.cif.g08.bks.cpg/sg39_5_cif.got.tgz:9439.got - 2010.06.03 18:22:40.
