data_PCOD9361989
_publ_section_title
;
Structure prediction by ZEFSAII (Michael W. Deem and Ramdas Pophale) SiO2 
 PCOD9361989
Probable space group: A B M 2
;
_chemical_formula_sum "Si O2"
_cell_formula_units_Z 44
_cell_length_a 12.874751
_cell_length_b 7.659866
_cell_length_c 19.733803
_cell_angle_alpha 90.000000
_cell_angle_beta 90.000000
_cell_angle_gamma 90.000000
_cell_volume 1946.125302
_symmetry_space_group_name_H-M "A B M 2"
_symmetry_group_IT_number 39
_symmetry_cell_setting 'orthorhombic'
loop_
_space_group_symop_operation_xyz
x,y,z
-x,-y,z
-x,1/2+y,z
x,1/2-y,z
x,1/2+y,1/2+z
-x,1/2-y,1/2+z
-x,y,1/2+z
x,-y,1/2+z
loop_
_atom_site_type_symbol
_atom_site_label
_atom_site_fract_x
_atom_site_fract_y
_atom_site_fract_z
Si Si1 0.609451 0.954908 0.080990
Si Si2 0.286831 0.063456 0.272664
Si Si3 0.618855 0.250000 0.202523
Si Si4 0.114426 0.957865 0.168049
Si Si5 0.824971 0.458882 0.019112
Si Si6 0.882693 0.445941 0.371543
O O1 0.611313 0.750000 0.102444
O O2 0.500000 0.000000 0.046802
O O3 0.614687 0.093718 0.143039
O O4 0.705931 0.989826 0.032025
O O5 0.341180 0.250000 0.270616
O O6 0.362184 0.903461 0.259895
O O7 0.201504 0.049706 0.212122
O O8 0.211817 0.049808 0.337915
O O9 0.137077 0.750000 0.171908
O O10 0.121196 0.012200 0.089735
O O11 0.000000 0.000000 0.193552
O O12 0.834721 0.250000 0.012454
O O13 0.871505 0.543206 0.952380
O O14 0.869033 0.250000 0.345959
O O15 0.000000 0.500000 0.354047
#
# Coordination Sequence:
#
# PCOD9361989 Si02
#       6
#     8   8   4   8   8   8
#     4  12  23  42  71 106 133 170 217 280 343 402
#     4  12  23  41  64  90 130 177 218 268 328 396
#     4  12  22  44  66  98 134 160 224 272 332 406
#     4  11  21  35  55  87 126 163 212 267 322 391
#     4  11  22  41  62  94 129 170 220 277 332 392
#     4  12  25  42  61  94 136 184 234 273 327 400
#
# _framework density 22.609026
#
# number of rings (size 3 to 8) (size 9 to 14) (size 15 to 20)
#    0.000    0.364    5.455    4.364    0.000    3.636 
#    0.000    0.000    0.000    1.091    4.727    0.000 
#    0.000    0.000    0.000    0.000    0.000    0.000 
#
# Total GULP energy -122584.439625 kJ/mol
# GULP energy per Si atom -5572.019983 kJ/mol
# Density = 2.255757 g / cm^3
# Si number density = 22.609026 Si / 1000 Ang^3
#
#
#
# Elastic Constant Matrix: (Units=GPa)
#
#
# Indices 1 2 3 4 5 6 
#
# 1 59.6297 -9.0452 -9.8729 0.0000 0.0000 0.0000
# 2 -9.0452 167.9647 -2.6952 0.0000 0.0000 0.0000
# 3 -9.8729 -2.6952 89.0023 0.0000 0.0000 0.0000
# 4 0.0000 0.0000 0.0000 27.6857 0.0000 0.0000
# 5 0.0000 0.0000 0.0000 0.0000 -443.5614 0.0000
# 6 0.0000 0.0000 0.0000 0.0000 0.0000 26.5023
#
#
#
# Elastic Compliance Matrix: (Units=1/GPa)
#
#
# Indices 1 2 3 4 5 6 
#
# 1 0.017237 0.000959 0.001941 0.000000 0.000000 0.000000
# 2 0.000959 0.006010 0.000288 0.000000 0.000000 0.000000
# 3 0.001941 0.000288 0.011460 0.000000 0.000000 0.000000
# 4 0.000000 0.000000 0.000000 0.036120 0.000000 0.000000
# 5 0.000000 0.000000 0.000000 0.000000 -0.002254 0.000000
# 6 0.000000 0.000000 0.000000 0.000000 0.000000 0.037733
#
#
# Mechanical properties :
#
#
# Convention : Reuss Voigt Hill
#
# Bulk Modulus (GPa) = 24.33998 30.37446 27.35722
# Shear Modulus (GPa) = 44.00575 -55.32735 -5.66080
#
# Velocity S-wave (km/s) = 4.41657 -4.95222 -1.58405
# Velocity P-wave (km/s) = 6.06606 4.38583 2.96324
#
# Compressibility (1/GPa) = 0.04108466
#
# Stress axis : x y z
#
# Youngs Moduli (GPa) = 58.01441 166.39147 87.26208
#
# Poissons Ratio (x) = -0.15963 -0.16939
# Poissons Ratio (y) = -0.05566 -0.02517
# Poissons Ratio (z) = -0.11261 -0.04799
#
# Static dielectric constant tensor:
#      x y z
#    x 1.974280 0.000000 0.000000 
#    y 0.000000 1.853080 0.000000 
#    z 0.000000 0.000000 1.837300 
# 
# From -- ./inp_files/12557.got.cif
#   From: 2010.05.17/outbox.cif.g08.bks.cpg/sg39_7_cif.got.tgz:12557.got - 2010.06.03 18:22:40.
