data_PCOD9361182
_publ_section_title
;
Structure prediction by ZEFSAII (Michael W. Deem and Ramdas Pophale) SiO2 
 PCOD9361182
Probable space group: A B M 2
;
_chemical_formula_sum "Si O2"
_cell_formula_units_Z 48
_cell_length_a 7.946738
_cell_length_b 26.224909
_cell_length_c 8.781238
_cell_angle_alpha 90.000000
_cell_angle_beta 90.000000
_cell_angle_gamma 90.000000
_cell_volume 1830.031785
_symmetry_space_group_name_H-M "A B M 2"
_symmetry_group_IT_number 39
_symmetry_cell_setting 'orthorhombic'
loop_
_space_group_symop_operation_xyz
x,y,z
-x,-y,z
-x,1/2+y,z
x,1/2-y,z
x,1/2+y,1/2+z
-x,1/2-y,1/2+z
-x,y,1/2+z
x,-y,1/2+z
loop_
_atom_site_type_symbol
_atom_site_label
_atom_site_fract_x
_atom_site_fract_y
_atom_site_fract_z
Si Si1 0.927274 0.638975 0.274350
Si Si2 0.123202 0.042429 0.485468
Si Si3 0.675385 0.855989 0.751684
Si Si4 0.102691 0.250000 0.229390
Si Si5 0.669694 0.504545 0.728116
Si Si6 0.248820 0.750000 0.378358
Si Si7 0.372773 0.102104 0.065700
O O1 0.920167 0.596327 0.407107
O O2 0.858999 0.696012 0.311744
O O3 0.801076 0.622794 0.139736
O O4 0.122580 0.641976 0.222911
O O5 0.264720 0.048115 0.615223
O O6 0.188497 0.009314 0.345635
O O7 0.000000 0.000000 0.558779
O O8 0.652135 0.801487 0.839282
O O9 0.530559 0.864784 0.626910
O O10 0.636240 0.896256 0.885230
O O11 0.900968 0.250000 0.252225
O O12 0.172026 0.250000 0.053185
O O13 0.500000 0.500000 0.823596
O O14 0.629752 0.455532 0.622398
#
# Coordination Sequence:
#
# PCOD9361182 Si02
#       7
#     8   8   8   4   8   4   8
#     4  10  24  45  77 101 152 196 252 319 382 466
#     4  11  24  45  69 105 138 195 248 308 379 456
#     4  11  25  46  72 109 149 195 256 310 390 459
#     4  10  20  47  73 109 150 201 256 319 402 449
#     4  11  26  43  68  99 146 184 239 307 377 451
#     4  10  22  45  73 107 154 199 260 325 376 477
#     4  11  26  45  72 106 146 199 247 314 387 462
#
# _framework density 26.229051999999999
#
# number of rings (size 3 to 8) (size 9 to 14) (size 15 to 20)
#    0.000    1.333    1.667    2.000    9.333    4.000 
#    3.000    0.000    0.000    0.000    0.000    0.000 
#    0.000    0.000    0.000    0.000    0.000    0.000 
#
# Total GULP energy -134055.786415 kJ/mol
# GULP energy per Si atom -5585.657767 kJ/mol
# Density = 2.616935 g / cm^3
# Si number density = 26.229052 Si / 1000 Ang^3
#
#
#
# Elastic Constant Matrix: (Units=GPa)
#
#
# Indices 1 2 3 4 5 6 
#
# 1 142.0272 31.1140 62.7372 0.0000 0.0000 0.0000
# 2 31.1140 82.6978 6.0954 0.0000 0.0000 0.0000
# 3 62.7372 6.0954 122.5926 0.0000 0.0000 0.0000
# 4 0.0000 0.0000 0.0000 26.4274 0.0000 0.0000
# 5 0.0000 0.0000 0.0000 0.0000 52.2592 0.0000
# 6 0.0000 0.0000 0.0000 0.0000 0.0000 29.4783
#
#
#
# Elastic Compliance Matrix: (Units=1/GPa)
#
#
# Indices 1 2 3 4 5 6 
#
# 1 0.009959 -0.003384 -0.004928 0.000000 0.000000 0.000000
# 2 -0.003384 0.013286 0.001071 0.000000 0.000000 0.000000
# 3 -0.004928 0.001071 0.010626 0.000000 0.000000 0.000000
# 4 0.000000 0.000000 0.000000 0.037840 0.000000 0.000000
# 5 0.000000 0.000000 0.000000 0.000000 0.019135 0.000000
# 6 0.000000 0.000000 0.000000 0.000000 0.000000 0.033923
#
#
# Mechanical properties :
#
#
# Convention : Reuss Voigt Hill
#
# Bulk Modulus (GPa) = 51.57486 60.80121 56.18803
# Shear Modulus (GPa) = 34.31351 38.12436 36.21894
#
# Velocity S-wave (km/s) = 3.62086 3.81664 3.72004
# Velocity P-wave (km/s) = 6.09810 6.53096 6.31824
#
# Compressibility (1/GPa) = 0.01938929
#
# Stress axis : x y z
#
# Youngs Moduli (GPa) = 100.40965 75.26502 94.10897
#
# Poissons Ratio (x) = 0.25468 0.46381
# Poissons Ratio (y) = 0.33976 -0.10080
# Poissons Ratio (z) = 0.49486 -0.08061
#
# Static dielectric constant tensor:
#      x y z
#    x 2.204630 0.000000 0.000000 
#    y 0.000000 2.298700 0.000000 
#    z 0.000000 0.000000 1.957520 
# 
# From -- ./inp_files/2350.got.cif
#   From: 2010.05.17/outbox.cif.g08.bks.cpg/sg39_2_cif.got.tgz:2350.got - 2010.06.03 18:22:40.
