data_PCOD9361017
_publ_section_title
;
Structure prediction by ZEFSAII (Michael W. Deem and Ramdas Pophale) SiO2 
 PCOD9361017
Probable space group: A B M 2
;
_chemical_formula_sum "Si O2"
_cell_formula_units_Z 52
_cell_length_a 5.036329
_cell_length_b 20.450414
_cell_length_c 25.357271
_cell_angle_alpha 90.000000
_cell_angle_beta 90.000000
_cell_angle_gamma 90.000000
_cell_volume 2611.672459
_symmetry_space_group_name_H-M "A B M 2"
_symmetry_group_IT_number 39
_symmetry_cell_setting 'orthorhombic'
loop_
_space_group_symop_operation_xyz
x,y,z
-x,-y,z
-x,1/2+y,z
x,1/2-y,z
x,1/2+y,1/2+z
-x,1/2-y,1/2+z
-x,y,1/2+z
x,-y,1/2+z
loop_
_atom_site_type_symbol
_atom_site_label
_atom_site_fract_x
_atom_site_fract_y
_atom_site_fract_z
Si Si1 0.303349 0.673862 0.500000
Si Si2 0.201173 0.675832 0.071583
Si Si3 0.000000 0.500000 0.219959
Si Si4 0.754541 0.952062 0.925509
Si Si5 0.568919 0.323839 0.235551
Si Si6 0.916704 0.369619 0.673936
Si Si7 0.338784 0.065594 0.809420
O O1 0.364698 0.750000 0.482483
O O2 0.515726 0.658004 0.546556
O O3 0.300658 0.613441 0.459389
O O4 0.009422 0.675921 0.524140
O O5 0.224911 0.750000 0.092501
O O6 0.058975 0.635762 0.117688
O O7 0.143431 0.445901 0.185273
O O8 0.168236 0.543006 0.259787
O O9 0.802595 0.925355 0.865440
O O10 0.500000 0.000000 0.929025
O O11 0.000000 0.000000 0.940308
O O12 0.551428 0.250000 0.253946
O O13 0.359330 0.334791 0.188017
O O14 0.509019 0.372638 0.284618
O O15 0.862489 0.338023 0.212877
O O16 0.500000 0.000000 0.819672
#
# Coordination Sequence:
#
# PCOD9361017 Si02
#       7
#     8   8   4   8   8   8   8
#     4  10  22  41  63  88 120 159 206 258 312 369
#     4  10  20  38  61  86 119 160 200 251 313 367
#     4  10  20  38  58  86 120 164 194 248 296 374
#     4  11  23  40  65  90 121 165 209 259 315 376
#     4  11  22  35  58  90 122 155 203 256 296 361
#     4  11  22  37  60  87 123 159 205 243 307 368
#     4  10  20  38  60  83 121 161 201 240 310 370
#
# _framework density 19.910613999999999
#
# number of rings (size 3 to 8) (size 9 to 14) (size 15 to 20)
#    0.000    1.538    2.308    3.231    0.000    1.846 
#    4.154    0.000    0.000    4.615    0.000    0.000 
#    0.000    0.000    0.000    0.000    0.000    0.000 
#
# Total GULP energy -144742.490206 kJ/mol
# GULP energy per Si atom -5567.018854 kJ/mol
# Density = 1.986530 g / cm^3
# Si number density = 19.910614 Si / 1000 Ang^3
#
#
#
# Elastic Constant Matrix: (Units=GPa)
#
#
# Indices 1 2 3 4 5 6 
#
# 1 75.5161 14.1212 -11.0162 0.0000 0.0000 0.0000
# 2 14.1212 140.1787 58.9045 0.0000 0.0000 0.0000
# 3 -11.0162 58.9045 63.4522 0.0000 0.0000 0.0000
# 4 0.0000 0.0000 0.0000 12.1617 0.0000 0.0000
# 5 0.0000 0.0000 0.0000 0.0000 21.6804 0.0000
# 6 0.0000 0.0000 0.0000 0.0000 0.0000 21.6902
#
#
#
# Elastic Compliance Matrix: (Units=1/GPa)
#
#
# Indices 1 2 3 4 5 6 
#
# 1 0.014999 -0.004272 0.006570 0.000000 0.000000 0.000000
# 2 -0.004272 0.012913 -0.012729 0.000000 0.000000 0.000000
# 3 0.006570 -0.012729 0.028717 0.000000 0.000000 0.000000
# 4 0.000000 0.000000 0.000000 0.082225 0.000000 0.000000
# 5 0.000000 0.000000 0.000000 0.000000 0.046125 0.000000
# 6 0.000000 0.000000 0.000000 0.000000 0.000000 0.046104
#
#
# Mechanical properties :
#
#
# Convention : Reuss Voigt Hill
#
# Bulk Modulus (GPa) = 27.95854 44.79623 36.37739
# Shear Modulus (GPa) = 18.94888 25.58229 22.26559
#
# Velocity S-wave (km/s) = 3.08831 3.58838 3.34769
# Velocity P-wave (km/s) = 5.17584 6.30207 5.76652
#
# Compressibility (1/GPa) = 0.03576725
#
# Stress axis : x y z
#
# Youngs Moduli (GPa) = 66.66965 77.44170 34.82234
#
# Poissons Ratio (x) = 0.33080 -0.22877
# Poissons Ratio (y) = 0.28478 0.44326
# Poissons Ratio (z) = -0.43799 0.98576
#
# Static dielectric constant tensor:
#      x y z
#    x 1.721450 0.000000 0.000000 
#    y 0.000000 1.844530 0.000000 
#    z 0.000000 0.000000 1.830580 
# 
# From -- ./inp_files/16565.got.cif
#   From: 2010.05.17/outbox.cif.g08.bks.cpg/sg39_9_cif.got.tgz:16565.got - 2010.06.03 18:22:40.
