data_PCOD9361113
_publ_section_title
;
Structure prediction by ZEFSAII (Michael W. Deem and Ramdas Pophale) SiO2 
 PCOD9361113
Probable space group: A B M 2
;
_chemical_formula_sum "Si O2"
_cell_formula_units_Z 60
_cell_length_a 20.164205
_cell_length_b 22.544029
_cell_length_c 5.511300
_cell_angle_alpha 90.000000
_cell_angle_beta 90.000000
_cell_angle_gamma 90.000000
_cell_volume 2505.340104
_symmetry_space_group_name_H-M "A B M 2"
_symmetry_group_IT_number 39
_symmetry_cell_setting 'orthorhombic'
loop_
_space_group_symop_operation_xyz
x,y,z
-x,-y,z
-x,1/2+y,z
x,1/2-y,z
x,1/2+y,1/2+z
-x,1/2-y,1/2+z
-x,y,1/2+z
x,-y,1/2+z
loop_
_atom_site_type_symbol
_atom_site_label
_atom_site_fract_x
_atom_site_fract_y
_atom_site_fract_z
Si Si1 0.040972 0.750000 0.821740
Si Si2 0.763699 0.914040 0.660156
Si Si3 0.641402 0.376898 0.881983
Si Si4 0.423411 0.479125 0.106173
Si Si5 0.869008 0.482837 0.675769
Si Si6 0.537493 0.179701 0.189033
Si Si7 0.276330 0.814110 0.518058
Si Si8 0.849929 0.349620 0.799451
O O1 0.086640 0.691296 0.819048
O O2 0.999570 0.750000 0.572524
O O3 0.706473 0.914853 0.454698
O O4 0.801099 0.976547 0.699843
O O5 0.821274 0.870546 0.558383
O O6 0.730336 0.875694 0.871626
O O7 0.591027 0.416744 0.728892
O O8 0.604938 0.352936 0.119270
O O9 0.665628 0.323331 0.713640
O O10 0.500000 0.500000 0.078225
O O11 0.395873 0.518967 0.331757
O O12 0.903431 0.504632 0.432070
O O13 0.858606 0.412581 0.662815
O O14 0.547995 0.250000 0.185148
O O15 0.491999 0.165609 0.952362
O O16 0.283690 0.750000 0.389804
O O17 0.207840 0.813963 0.666418
#
# Coordination Sequence:
#
# PCOD9361113 Si02
#       8
#     4   8   8   8   8   8   8   8
#     4  12  30  48  82 120 160 202 258 298 346 422
#     4  10  24  40  69 109 143 197 240 311 371 441
#     4  11  26  41  67  96 140 174 251 305 383 449
#     4  10  25  44  66  91 126 178 231 299 377 454
#     4  10  20  39  68 102 141 190 243 285 361 425
#     4  10  24  43  66  88 122 180 237 295 374 455
#     4  11  23  41  69 105 146 190 243 305 378 437
#     4  10  23  44  72 105 152 198 244 296 366 422
#
# _framework density 23.948841999999999
#
# number of rings (size 3 to 8) (size 9 to 14) (size 15 to 20)
#    0.000    1.600    2.000    0.400   10.267    4.267 
#    0.000    0.000    0.000    9.600    0.000    0.000 
#    0.000    0.000    0.000    0.000    0.000    0.000 
#
# Total GULP energy -167544.127556 kJ/mol
# GULP energy per Si atom -5584.804252 kJ/mol
# Density = 2.389433 g / cm^3
# Si number density = 23.948842 Si / 1000 Ang^3
#
#
#
# Elastic Constant Matrix: (Units=GPa)
#
#
# Indices 1 2 3 4 5 6 
#
# 1 98.3728 58.4049 33.3055 0.0000 0.0000 0.0000
# 2 58.4049 138.3834 33.4094 0.0000 0.0000 0.0000
# 3 33.3055 33.4094 125.7822 0.0000 0.0000 0.0000
# 4 0.0000 0.0000 0.0000 32.0189 0.0000 0.0000
# 5 0.0000 0.0000 0.0000 0.0000 23.6872 0.0000
# 6 0.0000 0.0000 0.0000 0.0000 0.0000 39.3550
#
#
#
# Elastic Compliance Matrix: (Units=1/GPa)
#
#
# Indices 1 2 3 4 5 6 
#
# 1 0.014166 -0.005421 -0.002311 0.000000 0.000000 0.000000
# 2 -0.005421 0.009796 -0.001167 0.000000 0.000000 0.000000
# 3 -0.002311 -0.001167 0.008872 0.000000 0.000000 0.000000
# 4 0.000000 0.000000 0.000000 0.031232 0.000000 0.000000
# 5 0.000000 0.000000 0.000000 0.000000 0.042217 0.000000
# 6 0.000000 0.000000 0.000000 0.000000 0.000000 0.025410
#
#
# Mechanical properties :
#
#
# Convention : Reuss Voigt Hill
#
# Bulk Modulus (GPa) = 66.50275 68.08645 67.29460
# Shear Modulus (GPa) = 32.36202 34.84012 33.60107
#
# Velocity S-wave (km/s) = 3.67999 3.81829 3.74977
# Velocity P-wave (km/s) = 6.77387 6.92320 6.84895
#
# Compressibility (1/GPa) = 0.01503697
#
# Stress axis : x y z
#
# Youngs Moduli (GPa) = 70.58964 102.08406 112.71333
#
# Poissons Ratio (x) = 0.55339 0.26050
# Poissons Ratio (y) = 0.38266 0.13148
# Poissons Ratio (z) = 0.16315 0.11908
#
# Static dielectric constant tensor:
#      x y z
#    x 1.927740 0.000000 0.000000 
#    y 0.000000 1.929340 0.000000 
#    z 0.000000 0.000000 1.999640 
# 
# From -- ./inp_files/1129.got.cif
#   From: 2010.05.17/outbox.cif.g08.bks.cpg/sg39_1_cif.got.tgz:1129.got - 2010.06.03 18:22:40.
