data_PCOD9361907
_publ_section_title
;
Structure prediction by ZEFSAII (Michael W. Deem and Ramdas Pophale) SiO2 
 PCOD9361907
Probable space group: A B M 2
;
_chemical_formula_sum "Si O2"
_cell_formula_units_Z 40
_cell_length_a 13.247528
_cell_length_b 16.304438
_cell_length_c 8.033998
_cell_angle_alpha 90.000000
_cell_angle_beta 90.000000
_cell_angle_gamma 90.000000
_cell_volume 1735.291338
_symmetry_space_group_name_H-M "A B M 2"
_symmetry_group_IT_number 39
_symmetry_cell_setting 'orthorhombic'
loop_
_space_group_symop_operation_xyz
x,y,z
-x,-y,z
-x,1/2+y,z
x,1/2-y,z
x,1/2+y,1/2+z
-x,1/2-y,1/2+z
-x,y,1/2+z
x,-y,1/2+z
loop_
_atom_site_type_symbol
_atom_site_label
_atom_site_fract_x
_atom_site_fract_y
_atom_site_fract_z
Si Si1 0.189267 0.842831 0.212930
Si Si2 0.483548 0.344419 0.589567
Si Si3 0.166350 0.250000 0.224521
Si Si4 0.294610 0.886560 0.885859
Si Si5 0.644272 0.926565 0.883418
Si Si6 0.035703 0.250000 0.883268
O O1 0.229898 0.750000 0.187001
O O2 0.250344 0.880347 0.365634
O O3 0.075804 0.827559 0.273929
O O4 0.218711 0.890220 0.046621
O O5 0.512110 0.250000 0.620324
O O6 0.398323 0.344088 0.444958
O O7 0.578489 0.400855 0.541587
O O8 0.423734 0.388345 0.737036
O O9 0.235845 0.330172 0.253613
O O10 0.084064 0.250000 0.377154
O O11 0.099000 0.250000 0.055510
O O12 0.329583 0.979241 0.854514
#
# Coordination Sequence:
#
# PCOD9361907 Si02
#       6
#     8   8   4   8   8   4
#     4   9  20  45  65  98 134 185 226 288 348 417
#     4  11  23  44  65  96 140 195 233 279 345 417
#     4  12  22  46  69 108 129 190 227 296 372 426
#     4  11  22  40  68  94 143 182 238 286 353 413
#     4  11  24  39  68 101 141 186 233 294 341 410
#     4  10  24  40  79  98 137 172 243 290 356 454
#
# _framework density 23.050885999999998
#
# number of rings (size 3 to 8) (size 9 to 14) (size 15 to 20)
#    0.600    0.800    2.000    4.800    0.000   11.200 
#    0.000    1.000    0.000    7.200    0.000    0.000 
#    0.000    0.000    0.000    0.000    0.000    0.000 
#
# Total GULP energy -111704.454349 kJ/mol
# GULP energy per Si atom -5585.222717 kJ/mol
# Density = 2.299842 g / cm^3
# Si number density = 23.050886 Si / 1000 Ang^3
#
#
#
# Elastic Constant Matrix: (Units=GPa)
#
#
# Indices 1 2 3 4 5 6 
#
# 1 109.8409 61.2355 26.3706 0.0000 0.0000 0.0000
# 2 61.2355 161.0433 44.1452 0.0000 0.0000 0.0000
# 3 26.3706 44.1452 79.8097 0.0000 0.0000 0.0000
# 4 0.0000 0.0000 0.0000 29.1714 0.0000 0.0000
# 5 0.0000 0.0000 0.0000 0.0000 46.1033 0.0000
# 6 0.0000 0.0000 0.0000 0.0000 0.0000 6.4286
#
#
#
# Elastic Compliance Matrix: (Units=1/GPa)
#
#
# Indices 1 2 3 4 5 6 
#
# 1 0.011737 -0.004008 -0.001661 0.000000 0.000000 0.000000
# 2 -0.004008 0.008688 -0.003481 0.000000 0.000000 0.000000
# 3 -0.001661 -0.003481 0.015004 0.000000 0.000000 0.000000
# 4 0.000000 0.000000 0.000000 0.034280 0.000000 0.000000
# 5 0.000000 0.000000 0.000000 0.000000 0.021690 0.000000
# 6 0.000000 0.000000 0.000000 0.000000 0.000000 0.155554
#
#
# Mechanical properties :
#
#
# Convention : Reuss Voigt Hill
#
# Bulk Modulus (GPa) = 58.38172 68.24407 63.31290
# Shear Modulus (GPa) = 18.45267 30.93685 24.69476
#
# Velocity S-wave (km/s) = 2.83241 3.66746 3.27665
# Velocity P-wave (km/s) = 6.00659 6.89955 6.46849
#
# Compressibility (1/GPa) = 0.01712865
#
# Stress axis : x y z
#
# Youngs Moduli (GPa) = 85.19976 115.10642 66.64727
#
# Poissons Ratio (x) = 0.46129 0.11073
# Poissons Ratio (y) = 0.34144 0.23201
# Poissons Ratio (z) = 0.14156 0.40071
#
# Static dielectric constant tensor:
#      x y z
#    x 1.846100 0.000000 0.000000 
#    y 0.000000 1.834110 0.000000 
#    z 0.000000 0.000000 2.079830 
# 
# From -- ./inp_files/3156.got.cif
#   From: 2010.05.17/outbox.cif.g08.bks.cpg/sg39_2_cif.got.tgz:3156.got - 2010.06.03 18:22:40.
