data_PCOD9361477
_publ_section_title
;
Structure prediction by ZEFSAII (Michael W. Deem and Ramdas Pophale) SiO2 
 PCOD9361477
Probable space group: A B M 2
;
_chemical_formula_sum "Si O2"
_cell_formula_units_Z 56
_cell_length_a 5.246382
_cell_length_b 30.505683
_cell_length_c 15.029636
_cell_angle_alpha 90.000000
_cell_angle_beta 90.000000
_cell_angle_gamma 90.000000
_cell_volume 2405.410071
_symmetry_space_group_name_H-M "A B M 2"
_symmetry_group_IT_number 39
_symmetry_cell_setting 'orthorhombic'
loop_
_space_group_symop_operation_xyz
x,y,z
-x,-y,z
-x,1/2+y,z
x,1/2-y,z
x,1/2+y,1/2+z
-x,1/2-y,1/2+z
-x,y,1/2+z
x,-y,1/2+z
loop_
_atom_site_type_symbol
_atom_site_label
_atom_site_fract_x
_atom_site_fract_y
_atom_site_fract_z
Si Si1 0.969478 0.704049 0.746370
Si Si2 0.645475 0.798548 0.392409
Si Si3 0.058436 0.169965 0.556503
Si Si4 0.629996 0.626634 0.805492
Si Si5 0.748584 0.025333 0.564656
Si Si6 0.750374 0.026319 0.349604
Si Si7 0.564175 0.121310 0.609965
O O1 0.845240 0.750000 0.776965
O O2 0.929212 0.701683 0.641459
O O3 0.859307 0.658635 0.780447
O O4 0.244608 0.705692 0.792149
O O5 0.537897 0.750000 0.416992
O O6 0.868065 0.807552 0.464180
O O7 0.496869 0.844854 0.384412
O O8 0.278243 0.132542 0.574315
O O9 0.769516 0.153521 0.565443
O O10 0.722388 0.577558 0.825906
O O11 0.457522 0.624761 0.716744
O O12 0.757380 0.024622 0.457148
O O13 0.691250 0.074675 0.591248
O O14 0.500000 0.000000 0.595760
O O15 0.000000 0.000000 0.596665
O O16 0.500000 0.000000 0.319865
O O17 0.000000 0.000000 0.317560
#
# Coordination Sequence:
#
# PCOD9361477 Si02
#       7
#     8   8   8   8   8   8   8
#     4  10  23  44  66 100 142 182 233 292 353 424
#     4  11  24  42  70 103 138 190 244 296 362 430
#     4  11  24  43  67  99 138 186 234 288 351 420
#     4  11  24  43  69  99 145 184 240 295 362 427
#     4  10  21  40  63  93 128 170 222 286 344 413
#     4  10  24  41  68 101 135 176 229 287 349 420
#     4  11  24  43  67  97 134 186 231 289 353 427
#
# _framework density 23.280853
#
# number of rings (size 3 to 8) (size 9 to 14) (size 15 to 20)
#    0.000    1.429    1.429    2.571    6.000    1.714 
#    0.000    2.857    0.000    0.000    0.000    0.000 
#    0.000    0.000    0.000    0.000    0.000    0.000 
#
# Total GULP energy -156171.254037 kJ/mol
# GULP energy per Si atom -5577.544787 kJ/mol
# Density = 2.322786 g / cm^3
# Si number density = 23.280853 Si / 1000 Ang^3
#
#
#
# Elastic Constant Matrix: (Units=GPa)
#
#
# Indices 1 2 3 4 5 6 
#
# 1 119.5831 54.2820 27.3989 0.0000 0.0000 0.0000
# 2 54.2820 188.1534 20.6080 0.0000 0.0000 0.0000
# 3 27.3989 20.6080 77.4246 0.0000 0.0000 0.0000
# 4 0.0000 0.0000 0.0000 29.5007 0.0000 0.0000
# 5 0.0000 0.0000 0.0000 0.0000 29.2061 0.0000
# 6 0.0000 0.0000 0.0000 0.0000 0.0000 17.8533
#
#
#
# Elastic Compliance Matrix: (Units=1/GPa)
#
#
# Indices 1 2 3 4 5 6 
#
# 1 0.010225 -0.002630 -0.002918 0.000000 0.000000 0.000000
# 2 -0.002630 0.006151 -0.000706 0.000000 0.000000 0.000000
# 3 -0.002918 -0.000706 0.014137 0.000000 0.000000 0.000000
# 4 0.000000 0.000000 0.000000 0.033898 0.000000 0.000000
# 5 0.000000 0.000000 0.000000 0.000000 0.034239 0.000000
# 6 0.000000 0.000000 0.000000 0.000000 0.000000 0.056012
#
#
# Mechanical properties :
#
#
# Convention : Reuss Voigt Hill
#
# Bulk Modulus (GPa) = 55.54763 65.52655 60.53709
# Shear Modulus (GPa) = 28.87297 34.17015 31.52156
#
# Velocity S-wave (km/s) = 3.52547 3.83526 3.68362
# Velocity P-wave (km/s) = 6.36267 6.91517 6.64466
#
# Compressibility (1/GPa) = 0.01800257
#
# Stress axis : x y z
#
# Youngs Moduli (GPa) = 97.79973 162.57492 70.73864
#
# Poissons Ratio (x) = 0.42761 0.20644
# Poissons Ratio (y) = 0.25724 0.04997
# Poissons Ratio (z) = 0.28541 0.11485
#
# Static dielectric constant tensor:
#      x y z
#    x 1.925500 0.000000 0.000000 
#    y 0.000000 1.760440 0.000000 
#    z 0.000000 0.000000 1.894630 
# 
# From -- ./inp_files/7671.got.cif
#   From: 2010.05.17/outbox.cif.g08.bks.cpg/sg39_4_cif.got.tgz:7671.got - 2010.06.03 18:22:40.
