data_PCOD9361902
_publ_section_title
;
Structure prediction by ZEFSAII (Michael W. Deem and Ramdas Pophale) SiO2 
 PCOD9361902
Probable space group: A B M 2
;
_chemical_formula_sum "Si O2"
_cell_formula_units_Z 48
_cell_length_a 10.643281
_cell_length_b 16.351366
_cell_length_c 14.367036
_cell_angle_alpha 90.000000
_cell_angle_beta 90.000000
_cell_angle_gamma 90.000000
_cell_volume 2500.326639
_symmetry_space_group_name_H-M "A B M 2"
_symmetry_group_IT_number 39
_symmetry_cell_setting 'orthorhombic'
loop_
_space_group_symop_operation_xyz
x,y,z
-x,-y,z
-x,1/2+y,z
x,1/2-y,z
x,1/2+y,1/2+z
-x,1/2-y,1/2+z
-x,y,1/2+z
x,-y,1/2+z
loop_
_atom_site_type_symbol
_atom_site_label
_atom_site_fract_x
_atom_site_fract_y
_atom_site_fract_z
Si Si1 0.792788 0.000000 0.791060
Si Si2 0.873321 0.250000 0.154773
Si Si3 0.575001 0.250000 0.194635
Si Si4 0.873322 0.750000 0.427350
Si Si5 0.604273 0.429452 0.142420
Si Si6 0.000001 0.122337 0.791061
Si Si7 0.395727 0.929452 0.939700
Si Si8 0.575003 0.750000 0.387484
O O1 0.704194 0.951302 0.720665
O O2 0.888265 0.933281 0.832434
O O3 0.888267 0.066719 0.749688
O O4 0.704193 0.048699 0.861454
O O5 0.727556 0.250000 0.188105
O O6 0.941819 0.325441 0.206519
O O7 0.878147 0.250000 0.041061
O O8 0.544725 0.339170 0.152168
O O9 0.499998 0.250000 0.291059
O O10 0.941820 0.674559 0.375603
O O11 0.727557 0.750000 0.394018
O O12 0.500000 0.500000 0.147466
O O13 0.666279 0.432383 0.041060
O O14 0.455276 0.839170 0.929952
O O15 0.500000 0.000000 0.934653
#
# Coordination Sequence:
#
# PCOD9361902 Si02
#       8
#     8   4   4   4   8   8   8   4
#     4  11  21  40  62  94 129 167 212 268 318 385
#     4  11  23  44  66  94 129 168 218 266 323 390
#     4  12  23  40  69  92 124 171 214 271 332 391
#     4  11  23  44  66  94 129 168 218 266 323 390
#     4  11  24  41  65  96 129 171 217 270 333 390
#     4  10  24  38  66  94 124 174 214 262 322 381
#     4  11  24  41  65  96 129 171 217 270 333 390
#     4  12  23  40  69  92 124 171 214 271 332 391
#
# _framework density 19.197492
#
# number of rings (size 3 to 8) (size 9 to 14) (size 15 to 20)
#    0.000    1.000    3.333    4.000    0.000    1.333 
#    0.000    3.333    0.000    0.000    0.000    0.000 
#    0.000    0.000    0.000    0.000    0.000    0.000 
#
# Total GULP energy -133718.595660 kJ/mol
# GULP energy per Si atom -5571.608152 kJ/mol
# Density = 1.915380 g / cm^3
# Si number density = 19.197492 Si / 1000 Ang^3
#
#
#
# Elastic Constant Matrix: (Units=GPa)
#
#
# Indices 1 2 3 4 5 6 
#
# 1 56.6471 36.0071 46.3903 0.0000 0.0000 0.0000
# 2 36.0071 156.8412 39.8927 0.0000 0.0000 0.0000
# 3 46.3903 39.8927 118.4509 0.0000 0.0000 0.0000
# 4 0.0000 0.0000 0.0000 40.6832 0.0000 0.0000
# 5 0.0000 0.0000 0.0000 0.0000 -11.8716 0.0000
# 6 0.0000 0.0000 0.0000 0.0000 0.0000 33.7570
#
#
#
# Elastic Compliance Matrix: (Units=1/GPa)
#
#
# Indices 1 2 3 4 5 6 
#
# 1 0.028105 -0.003995 -0.009662 0.000000 0.000000 0.000000
# 2 -0.003995 0.007541 -0.000975 0.000000 0.000000 0.000000
# 3 -0.009662 -0.000975 0.012555 0.000000 0.000000 0.000000
# 4 0.000000 0.000000 0.000000 0.024580 0.000000 0.000000
# 5 0.000000 0.000000 0.000000 0.000000 -0.084235 0.000000
# 6 0.000000 0.000000 0.000000 0.000000 0.000000 0.029623
#
#
# Mechanical properties :
#
#
# Convention : Reuss Voigt Hill
#
# Bulk Modulus (GPa) = 52.80606 64.05770 58.43188
# Shear Modulus (GPa) = 93.03320 26.49034 59.76177
#
# Velocity S-wave (km/s) = 6.96895 3.71871 5.58548
# Velocity P-wave (km/s) = 9.60841 7.20268 8.49118
#
# Compressibility (1/GPa) = 0.01893722
#
# Stress axis : x y z
#
# Youngs Moduli (GPa) = 35.58143 132.60806 79.65196
#
# Poissons Ratio (x) = 0.52973 0.76956
# Poissons Ratio (y) = 0.14214 0.07768
# Poissons Ratio (z) = 0.34377 0.12932
#
# Static dielectric constant tensor:
#      x y z
#    x 1.650230 0.000000 0.000000 
#    y 0.000000 1.745950 0.000000 
#    z 0.000000 0.000000 1.663050 
# 
# From -- ./inp_files/8396.got.cif
#   From: 2010.05.17/outbox.cif.g08.bks.cpg/sg39_5_cif.got.tgz:8396.got - 2010.06.03 18:22:40.
