data_PCOD9361295
_publ_section_title
;
Structure prediction by ZEFSAII (Michael W. Deem and Ramdas Pophale) SiO2 
 PCOD9361295
Probable space group: A B M 2
;
_chemical_formula_sum "Si O2"
_cell_formula_units_Z 40
_cell_length_a 20.998181
_cell_length_b 13.783745
_cell_length_c 5.472896
_cell_angle_alpha 90.000000
_cell_angle_beta 90.000000
_cell_angle_gamma 90.000000
_cell_volume 1584.039840
_symmetry_space_group_name_H-M "A B M 2"
_symmetry_group_IT_number 39
_symmetry_cell_setting 'orthorhombic'
loop_
_space_group_symop_operation_xyz
x,y,z
-x,-y,z
-x,1/2+y,z
x,1/2-y,z
x,1/2+y,1/2+z
-x,1/2-y,1/2+z
-x,y,1/2+z
x,-y,1/2+z
loop_
_atom_site_type_symbol
_atom_site_label
_atom_site_fract_x
_atom_site_fract_y
_atom_site_fract_z
Si Si1 0.709921 0.250000 0.386410
Si Si2 0.974685 0.859382 0.263353
Si Si3 0.718557 0.472174 0.413950
Si Si4 0.475910 0.888887 0.023380
Si Si5 0.633054 0.250000 0.887344
Si Si6 0.857246 0.451454 0.919865
O O1 0.739943 0.358837 0.412277
O O2 0.662011 0.250000 0.617152
O O3 0.682344 0.250000 0.112010
O O4 0.998341 0.750000 0.238510
O O5 0.900034 0.862914 0.330712
O O6 0.010957 0.901910 0.497560
O O7 0.683482 0.499825 0.664092
O O8 0.780750 0.542916 0.413110
O O9 0.520893 0.852685 0.802395
O O10 0.409704 0.846411 0.923878
O O11 0.500000 0.000000 0.049637
O O12 0.874200 0.526493 0.700303
#
# Coordination Sequence:
#
# PCOD9361295 Si02
#       6
#     4   8   8   8   4   8
#     4  12  26  47  72 106 140 181 228 306 346 392
#     4  10  21  37  58  92 132 165 211 271 333 405
#     4  10  23  48  68  99 137 177 234 290 349 415
#     4  10  21  41  65  98 142 184 223 271 324 403
#     4  12  24  43  70 108 138 181 236 274 346 404
#     4  10  21  39  61  93 120 171 218 264 334 412
#
# _framework density 25.251888999999998
#
# number of rings (size 3 to 8) (size 9 to 14) (size 15 to 20)
#    0.000    1.600    0.000    4.200    0.000    2.400 
#   36.000    0.000    0.000    0.000    0.000    0.000 
#    0.000    0.000    0.000    0.000    0.000    0.000 
#
# Total GULP energy -111340.948501 kJ/mol
# GULP energy per Si atom -5567.047425 kJ/mol
# Density = 2.519441 g / cm^3
# Si number density = 25.251889 Si / 1000 Ang^3
#
#
#
# Elastic Constant Matrix: (Units=GPa)
#
#
# Indices 1 2 3 4 5 6 
#
# 1 44.7413 20.3557 9.7359 0.0000 0.0000 0.0000
# 2 20.3557 146.3171 29.1465 0.0000 0.0000 0.0000
# 3 9.7359 29.1465 201.8795 0.0000 0.0000 0.0000
# 4 0.0000 0.0000 0.0000 14.2769 0.0000 0.0000
# 5 0.0000 0.0000 0.0000 0.0000 46.5167 0.0000
# 6 0.0000 0.0000 0.0000 0.0000 0.0000 11.5759
#
#
#
# Elastic Compliance Matrix: (Units=1/GPa)
#
#
# Indices 1 2 3 4 5 6 
#
# 1 0.023955 -0.003194 -0.000694 0.000000 0.000000 0.000000
# 2 -0.003194 0.007463 -0.000923 0.000000 0.000000 0.000000
# 3 -0.000694 -0.000923 0.005120 0.000000 0.000000 0.000000
# 4 0.000000 0.000000 0.000000 0.070043 0.000000 0.000000
# 5 0.000000 0.000000 0.000000 0.000000 0.021498 0.000000
# 6 0.000000 0.000000 0.000000 0.000000 0.000000 0.086387
#
#
# Mechanical properties :
#
#
# Convention : Reuss Voigt Hill
#
# Bulk Modulus (GPa) = 37.15482 56.82380 46.98931
# Shear Modulus (GPa) = 21.45365 36.72055 29.08710
#
# Velocity S-wave (km/s) = 2.91793 3.81750 3.39761
# Velocity P-wave (km/s) = 5.10862 6.47940 5.83441
#
# Compressibility (1/GPa) = 0.02691441
#
# Stress axis : x y z
#
# Youngs Moduli (GPa) = 41.74484 133.99761 195.30341
#
# Poissons Ratio (x) = 0.42804 0.13555
# Poissons Ratio (y) = 0.13335 0.18034
# Poissons Ratio (z) = 0.02897 0.12373
#
# Static dielectric constant tensor:
#      x y z
#    x 2.019790 0.000000 0.000000 
#    y 0.000000 2.002810 0.000000 
#    z 0.000000 0.000000 2.077350 
# 
# From -- ./inp_files/1226.got.cif
#   From: 2010.05.17/outbox.cif.g08.bks.cpg/sg39_1_cif.got.tgz:1226.got - 2010.06.03 18:22:40.
