data_PCOD9361288
_publ_section_title
;
Structure prediction by ZEFSAII (Michael W. Deem and Ramdas Pophale) SiO2 
 PCOD9361288
Probable space group: A B M 2
;
_chemical_formula_sum "Si O2"
_cell_formula_units_Z 64
_cell_length_a 7.767516
_cell_length_b 15.108856
_cell_length_c 25.168804
_cell_angle_alpha 90.000000
_cell_angle_beta 90.000000
_cell_angle_gamma 90.000000
_cell_volume 2953.767565
_symmetry_space_group_name_H-M "A B M 2"
_symmetry_group_IT_number 39
_symmetry_cell_setting 'orthorhombic'
loop_
_space_group_symop_operation_xyz
x,y,z
-x,-y,z
-x,1/2+y,z
x,1/2-y,z
x,1/2+y,1/2+z
-x,1/2-y,1/2+z
-x,y,1/2+z
x,-y,1/2+z
loop_
_atom_site_type_symbol
_atom_site_label
_atom_site_fract_x
_atom_site_fract_y
_atom_site_fract_z
Si Si1 0.950545 0.602560 0.066980
Si Si2 0.573834 0.142532 0.568407
Si Si3 0.266571 0.853552 0.995075
Si Si4 0.553003 0.857557 0.798430
Si Si5 0.955973 0.896860 0.798121
Si Si6 0.045936 0.896337 0.180764
Si Si7 0.551433 0.856995 0.680550
Si Si8 0.742377 0.145489 0.876280
O O1 0.758059 0.614426 0.047098
O O2 0.000000 0.500000 0.070971
O O3 0.962940 0.641185 0.126950
O O4 0.089625 0.642101 0.027324
O O5 0.567804 0.250000 0.569752
O O6 0.417475 0.108747 0.532241
O O7 0.551177 0.110643 0.629240
O O8 0.309169 0.750000 0.989074
O O9 0.251279 0.892469 0.935902
O O10 0.550732 0.750000 0.798601
O O11 0.495892 0.886996 0.739140
O O12 0.415124 0.891331 0.841048
O O13 0.752131 0.883620 0.807361
O O14 0.079440 0.861720 0.844134
O O15 0.998076 0.858542 0.739119
O O16 0.000000 0.000000 0.795916
O O17 0.250136 0.884311 0.173996
O O18 0.000000 0.000000 0.182885
O O19 0.545447 0.750000 0.680409
O O20 0.708721 0.250000 0.880892
#
# Coordination Sequence:
#
# PCOD9361288 Si02
#       8
#     8   8   8   8   8   8   8   8
#     4  11  23  38  58  87 120 156 196 235 292 348
#     4  10  21  37  60  86 111 151 196 241 295 343
#     4  10  22  42  61  84 118 152 195 247 290 340
#     4   9  19  36  57  85 116 149 193 246 291 336
#     4  10  21  37  58  85 121 157 194 234 290 349
#     4   9  19  36  54  84 123 157 188 231 293 348
#     4   9  17  33  58  85 115 148 193 248 290 335
#     4  10  22  39  62  86 114 154 197 241 291 347
#
# _framework density 21.667244
#
# number of rings (size 3 to 8) (size 9 to 14) (size 15 to 20)
#    0.000    2.250    1.250    0.750    1.750    3.500 
#    0.000    3.750    0.000    0.000    0.000    0.000 
#    0.000    0.000    0.000    0.000    0.000    0.000 
#
# Total GULP energy -178680.791624 kJ/mol
# GULP energy per Si atom -5583.774738 kJ/mol
# Density = 2.161793 g / cm^3
# Si number density = 21.667244 Si / 1000 Ang^3
#
#
#
# Elastic Constant Matrix: (Units=GPa)
#
#
# Indices 1 2 3 4 5 6 
#
# 1 142.9606 -7.0349 101.5046 0.0000 0.0000 0.0000
# 2 -7.0349 35.2933 8.3911 0.0000 0.0000 0.0000
# 3 101.5046 8.3911 182.4913 0.0000 0.0000 0.0000
# 4 0.0000 0.0000 0.0000 -160.1926 0.0000 0.0000
# 5 0.0000 0.0000 0.0000 0.0000 12.7340 0.0000
# 6 0.0000 0.0000 0.0000 0.0000 0.0000 -383.7629
#
#
#
# Elastic Compliance Matrix: (Units=1/GPa)
#
#
# Indices 1 2 3 4 5 6 
#
# 1 0.012110 0.004060 -0.006922 0.000000 0.000000 0.000000
# 2 0.004060 0.030008 -0.003638 0.000000 0.000000 0.000000
# 3 -0.006922 -0.003638 0.009497 0.000000 0.000000 0.000000
# 4 0.000000 0.000000 0.000000 -0.006242 0.000000 0.000000
# 5 0.000000 0.000000 0.000000 0.000000 0.078530 0.000000
# 6 0.000000 0.000000 0.000000 0.000000 0.000000 -0.002606
#
#
# Mechanical properties :
#
#
# Convention : Reuss Voigt Hill
#
# Bulk Modulus (GPa) = 25.89740 62.94077 44.41908
# Shear Modulus (GPa) = 33.97461 -89.05200 -27.53869
#
# Velocity S-wave (km/s) = 3.96412 -6.41787 -3.56895
# Velocity P-wave (km/s) = 5.73852 5.08005 1.88729
#
# Compressibility (1/GPa) = 0.03861392
#
# Stress axis : x y z
#
# Youngs Moduli (GPa) = 82.57919 33.32445 105.29391
#
# Poissons Ratio (x) = -0.13528 0.72887
# Poissons Ratio (y) = -0.33523 0.38303
# Poissons Ratio (z) = 0.57163 0.12123
#
# Static dielectric constant tensor:
#      x y z
#    x 1.743040 0.000000 0.000000 
#    y 0.000000 1.862050 0.000000 
#    z 0.000000 0.000000 1.834720 
# 
# From -- ./inp_files/16607.got.cif
#   From: 2010.05.17/outbox.cif.g08.bks.cpg/sg39_9_cif.got.tgz:16607.got - 2010.06.03 18:22:40.
