data_PCOD9361442
_publ_section_title
;
Structure prediction by ZEFSAII (Michael W. Deem and Ramdas Pophale) SiO2 
 PCOD9361442
Probable space group: A B M 2
;
_chemical_formula_sum "Si O2"
_cell_formula_units_Z 64
_cell_length_a 12.091709
_cell_length_b 18.251692
_cell_length_c 14.489129
_cell_angle_alpha 90.000000
_cell_angle_beta 90.000000
_cell_angle_gamma 90.000000
_cell_volume 3197.665986
_symmetry_space_group_name_H-M "A B M 2"
_symmetry_group_IT_number 39
_symmetry_cell_setting 'orthorhombic'
loop_
_space_group_symop_operation_xyz
x,y,z
-x,-y,z
-x,1/2+y,z
x,1/2-y,z
x,1/2+y,1/2+z
-x,1/2-y,1/2+z
-x,y,1/2+z
x,-y,1/2+z
loop_
_atom_site_type_symbol
_atom_site_label
_atom_site_fract_x
_atom_site_fract_y
_atom_site_fract_z
Si Si1 0.702304 0.930429 0.733580
Si Si2 0.341512 0.546384 0.885206
Si Si3 0.377938 0.982090 0.574580
Si Si4 0.683010 0.666798 0.165362
Si Si5 0.060756 0.578452 0.164409
Si Si6 0.099236 0.834709 0.779269
Si Si7 0.493316 0.333867 0.810098
Si Si8 0.086611 0.567109 0.947575
O O1 0.833208 0.916685 0.731976
O O2 0.623667 0.868866 0.778594
O O3 0.666181 0.002984 0.789344
O O4 0.686433 0.952975 0.626623
O O5 0.428507 0.613640 0.874154
O O6 0.214963 0.557535 0.918139
O O7 0.381543 0.492658 0.965845
O O8 0.326468 0.902875 0.598098
O O9 0.500000 0.000000 0.611682
O O10 0.705821 0.750000 0.129027
O O11 0.775671 0.650271 0.243487
O O12 0.565977 0.669563 0.216905
O O13 0.000000 0.500000 0.177970
O O14 0.975658 0.640088 0.194898
O O15 0.083967 0.586766 0.055562
O O16 0.094499 0.750000 0.796977
O O17 0.054913 0.874119 0.870392
O O18 0.482563 0.250000 0.845532
O O19 0.000000 0.500000 0.937145
#
# Coordination Sequence:
#
# PCOD9361442 Si02
#       8
#     8   8   8   8   8   8   8   8
#     4  12  22  42  65  97 137 172 222 286 342 400
#     4  12  23  40  66  98 131 180 223 276 336 405
#     4  12  21  37  63  96 127 167 223 269 330 404
#     4  10  21  39  65  91 125 171 219 275 339 406
#     4  11  24  42  68 100 135 175 224 284 341 405
#     4  11  23  42  66  92 130 177 221 275 340 408
#     4  11  23  42  66  96 133 176 223 279 347 408
#     4  11  23  40  66 101 132 171 228 283 335 402
#
# _framework density 20.014599
#
# number of rings (size 3 to 8) (size 9 to 14) (size 15 to 20)
#    0.000    0.750    5.000    3.750    1.750    1.000 
#    0.000    3.125    0.000    0.000    0.000    0.000 
#    0.000    0.000    0.000    0.000    0.000    0.000 
#
# Total GULP energy -178281.045157 kJ/mol
# GULP energy per Si atom -5571.282661 kJ/mol
# Density = 1.996904 g / cm^3
# Si number density = 20.014599 Si / 1000 Ang^3
#
#
#
# Elastic Constant Matrix: (Units=GPa)
#
#
# Indices 1 2 3 4 5 6 
#
# 1 113.6084 49.2483 39.9037 0.0000 0.0000 0.0000
# 2 49.2483 127.3381 57.8733 0.0000 0.0000 0.0000
# 3 39.9037 57.8733 89.2593 0.0000 0.0000 0.0000
# 4 0.0000 0.0000 0.0000 -16.0328 0.0000 0.0000
# 5 0.0000 0.0000 0.0000 0.0000 28.1226 0.0000
# 6 0.0000 0.0000 0.0000 0.0000 0.0000 18.2267
#
#
#
# Elastic Compliance Matrix: (Units=1/GPa)
#
#
# Indices 1 2 3 4 5 6 
#
# 1 0.011150 -0.002902 -0.003103 0.000000 0.000000 0.000000
# 2 -0.002902 0.011889 -0.006411 0.000000 0.000000 0.000000
# 3 -0.003103 -0.006411 0.016748 0.000000 0.000000 0.000000
# 4 0.000000 0.000000 0.000000 -0.062372 0.000000 0.000000
# 5 0.000000 0.000000 0.000000 0.000000 0.035559 0.000000
# 6 0.000000 0.000000 0.000000 0.000000 0.000000 0.054865
#
#
# Mechanical properties :
#
#
# Convention : Reuss Voigt Hill
#
# Bulk Modulus (GPa) = 66.87179 69.36183 68.11681
# Shear Modulus (GPa) = 51.20036 18.27534 34.73785
#
# Velocity S-wave (km/s) = 5.06330 3.02503 4.17060
# Velocity P-wave (km/s) = 8.22598 6.85069 7.56963
#
# Compressibility (1/GPa) = 0.01495399
#
# Stress axis : x y z
#
# Youngs Moduli (GPa) = 89.68536 84.10891 59.71031
#
# Poissons Ratio (x) = 0.24409 0.18529
# Poissons Ratio (y) = 0.26027 0.38283
# Poissons Ratio (z) = 0.27830 0.53925
#
# Static dielectric constant tensor:
#      x y z
#    x 1.905070 0.000000 0.000000 
#    y 0.000000 1.755280 0.000000 
#    z 0.000000 0.000000 1.692450 
# 
# From -- ./inp_files/9485.got.cif
#   From: 2010.05.17/outbox.cif.g08.bks.cpg/sg39_5_cif.got.tgz:9485.got - 2010.06.03 18:22:40.
