data_PCOD9361784
_publ_section_title
;
Structure prediction by ZEFSAII (Michael W. Deem and Ramdas Pophale) SiO2 
 PCOD9361784
Probable space group: A B M 2
;
_chemical_formula_sum "Si O2"
_cell_formula_units_Z 48
_cell_length_a 9.258154
_cell_length_b 22.360440
_cell_length_c 9.712969
_cell_angle_alpha 90.000000
_cell_angle_beta 90.000000
_cell_angle_gamma 90.000000
_cell_volume 2010.743847
_symmetry_space_group_name_H-M "A B M 2"
_symmetry_group_IT_number 39
_symmetry_cell_setting 'orthorhombic'
loop_
_space_group_symop_operation_xyz
x,y,z
-x,-y,z
-x,1/2+y,z
x,1/2-y,z
x,1/2+y,1/2+z
-x,1/2-y,1/2+z
-x,y,1/2+z
x,-y,1/2+z
loop_
_atom_site_type_symbol
_atom_site_label
_atom_site_fract_x
_atom_site_fract_y
_atom_site_fract_z
Si Si1 0.207125 0.316367 0.388660
Si Si2 0.556688 0.940254 0.018115
Si Si3 0.116818 0.449396 0.106793
Si Si4 0.972046 0.107364 0.339636
Si Si5 0.700305 0.117150 0.153101
Si Si6 0.475967 0.316570 0.847453
O O1 0.201642 0.250000 0.446889
O O2 0.056394 0.330755 0.316449
O O3 0.232544 0.365044 0.507481
O O4 0.355665 0.320606 0.302760
O O5 0.557633 0.876088 0.938206
O O6 0.500000 0.000000 0.940672
O O7 0.714616 0.955923 0.075862
O O8 0.432801 0.927697 0.132055
O O9 0.087795 0.436666 0.267229
O O10 0.000000 0.500000 0.068432
O O11 0.069760 0.398288 0.998280
O O12 0.827615 0.096445 0.252419
O O13 0.628790 0.175898 0.218877
O O14 0.457176 0.250000 0.910598
#
# Coordination Sequence:
#
# PCOD9361784 Si02
#       6
#     8   8   8   8   8   8
#     4  10  23  42  70 103 142 190 243 306 368 440
#     4  11  25  44  71 106 145 190 249 304 371 443
#     4  12  26  47  70 105 143 193 237 304 376 444
#     4  12  24  46  69 103 143 185 243 297 371 440
#     4  11  22  44  71 103 145 191 247 303 367 437
#     4  10  22  43  71 103 144 194 246 305 367 437
#
# _framework density 23.871763000000001
#
# number of rings (size 3 to 8) (size 9 to 14) (size 15 to 20)
#    0.000    1.000    3.333    3.000    2.333    2.667 
#    3.000    0.833    0.000    0.000    0.000    0.000 
#    0.000    0.000    0.000    0.000    0.000    0.000 
#
# Total GULP energy -133818.388393 kJ/mol
# GULP energy per Si atom -5575.766183 kJ/mol
# Density = 2.381743 g / cm^3
# Si number density = 23.871763 Si / 1000 Ang^3
#
#
#
# Elastic Constant Matrix: (Units=GPa)
#
#
# Indices 1 2 3 4 5 6 
#
# 1 173.5194 52.0906 20.4525 0.0000 0.0000 0.0000
# 2 52.0906 116.0040 13.6294 0.0000 0.0000 0.0000
# 3 20.4525 13.6294 60.0148 0.0000 0.0000 0.0000
# 4 0.0000 0.0000 0.0000 28.2411 0.0000 0.0000
# 5 0.0000 0.0000 0.0000 0.0000 30.1360 0.0000
# 6 0.0000 0.0000 0.0000 0.0000 0.0000 31.0173
#
#
#
# Elastic Compliance Matrix: (Units=1/GPa)
#
#
# Indices 1 2 3 4 5 6 
#
# 1 0.006821 -0.002866 -0.001674 0.000000 0.000000 0.000000
# 2 -0.002866 0.010061 -0.001308 0.000000 0.000000 0.000000
# 3 -0.001674 -0.001308 0.017530 0.000000 0.000000 0.000000
# 4 0.000000 0.000000 0.000000 0.035409 0.000000 0.000000
# 5 0.000000 0.000000 0.000000 0.000000 0.033183 0.000000
# 6 0.000000 0.000000 0.000000 0.000000 0.000000 0.032240
#
#
# Mechanical properties :
#
#
# Convention : Reuss Voigt Hill
#
# Bulk Modulus (GPa) = 44.02154 57.98704 51.00429
# Shear Modulus (GPa) = 32.35998 35.43660 33.89829
#
# Velocity S-wave (km/s) = 3.68581 3.85704 3.77240
# Velocity P-wave (km/s) = 6.04933 6.64677 6.35508
#
# Compressibility (1/GPa) = 0.02271615
#
# Stress axis : x y z
#
# Youngs Moduli (GPa) = 146.61201 99.39263 57.04516
#
# Poissons Ratio (x) = 0.28488 0.09547
# Poissons Ratio (y) = 0.42021 0.07462
# Poissons Ratio (z) = 0.24536 0.13002
#
# Static dielectric constant tensor:
#      x y z
#    x 1.957610 0.000000 0.000000 
#    y 0.000000 2.004970 0.000000 
#    z 0.000000 0.000000 1.956570 
# 
# From -- ./inp_files/5178.got.cif
#   From: 2010.05.17/outbox.cif.g08.bks.cpg/sg39_3_cif.got.tgz:5178.got - 2010.06.03 18:22:40.
