data_PCOD9361622
_publ_section_title
;
Structure prediction by ZEFSAII (Michael W. Deem and Ramdas Pophale) SiO2 
 PCOD9361622
Probable space group: A B M 2
;
_chemical_formula_sum "Si O2"
_cell_formula_units_Z 64
_cell_length_a 19.602458
_cell_length_b 18.144167
_cell_length_c 9.305164
_cell_angle_alpha 90.000000
_cell_angle_beta 90.000000
_cell_angle_gamma 90.000000
_cell_volume 3309.570207
_symmetry_space_group_name_H-M "A B M 2"
_symmetry_group_IT_number 39
_symmetry_cell_setting 'orthorhombic'
loop_
_space_group_symop_operation_xyz
x,y,z
-x,-y,z
-x,1/2+y,z
x,1/2-y,z
x,1/2+y,1/2+z
-x,1/2-y,1/2+z
-x,y,1/2+z
x,-y,1/2+z
loop_
_atom_site_type_symbol
_atom_site_label
_atom_site_fract_x
_atom_site_fract_y
_atom_site_fract_z
Si Si1 0.146152 0.581814 0.646700
Si Si2 0.704239 0.580690 0.600635
Si Si3 0.954627 0.577044 0.885703
Si Si4 0.430532 0.663911 0.745942
Si Si5 0.850167 0.909849 0.659255
Si Si6 0.083385 0.663331 0.899957
Si Si7 0.563927 0.336137 0.087168
Si Si8 0.291673 0.922712 0.750612
O O1 0.108589 0.570752 0.495141
O O2 0.150344 0.496780 0.696415
O O3 0.098265 0.634112 0.740374
O O4 0.223392 0.608951 0.673555
O O5 0.771976 0.615909 0.674379
O O6 0.634792 0.624748 0.623823
O O7 0.697388 0.501841 0.676881
O O8 0.715752 0.573147 0.426143
O O9 0.917259 0.611791 0.747561
O O10 0.000000 0.500000 0.867994
O O11 0.008105 0.636992 0.939712
O O12 0.423438 0.750000 0.707136
O O13 0.496249 0.633174 0.662839
O O14 0.359019 0.624384 0.719381
O O15 0.444631 0.659030 0.915850
O O16 0.867130 0.885463 0.498476
O O17 0.094406 0.750000 0.916343
O O18 0.569665 0.250000 0.126964
#
# Coordination Sequence:
#
# PCOD9361622 Si02
#       8
#     8   8   8   8   8   8   8   8
#     4  11  22  41  64  91 122 167 213 249 316 398
#     4  10  22  38  59  91 123 158 202 256 306 365
#     4  12  24  40  66  92 121 169 212 259 322 391
#     4   9  19  38  62  87 118 161 206 245 300 372
#     4  11  22  41  64  91 122 167 213 249 316 398
#     4  12  26  42  64  96 125 157 209 271 320 372
#     4   9  19  38  62  87 118 161 206 245 300 372
#     4  10  22  38  59  91 123 158 202 256 306 365
#
# _framework density 19.337857
#
# number of rings (size 3 to 8) (size 9 to 14) (size 15 to 20)
#    0.000    1.500    3.750    0.750    5.250    4.500 
#    0.000    2.500    0.000    0.000    0.000    0.000 
#    0.000    0.000    0.000    0.000    0.000    0.000 
#
# Total GULP energy -178160.558228 kJ/mol
# GULP energy per Si atom -5567.517445 kJ/mol
# Density = 1.929384 g / cm^3
# Si number density = 19.337857 Si / 1000 Ang^3
#
#
#
# Elastic Constant Matrix: (Units=GPa)
#
#
# Indices 1 2 3 4 5 6 
#
# 1 153.9745 45.3458 43.9542 0.0000 0.0000 0.0000
# 2 45.3458 44.9711 21.4140 0.0000 0.0000 0.0000
# 3 43.9542 21.4140 48.3303 0.0000 0.0000 0.0000
# 4 0.0000 0.0000 0.0000 18.4653 0.0000 0.0000
# 5 0.0000 0.0000 0.0000 0.0000 33.7092 0.0000
# 6 0.0000 0.0000 0.0000 0.0000 0.0000 -9.4112
#
#
#
# Elastic Compliance Matrix: (Units=1/GPa)
#
#
# Indices 1 2 3 4 5 6 
#
# 1 0.010511 -0.007664 -0.006164 0.000000 0.000000 0.000000
# 2 -0.007664 0.033770 -0.007993 0.000000 0.000000 0.000000
# 3 -0.006164 -0.007993 0.029838 0.000000 0.000000 0.000000
# 4 0.000000 0.000000 0.000000 0.054156 0.000000 0.000000
# 5 0.000000 0.000000 0.000000 0.000000 0.029665 0.000000
# 6 0.000000 0.000000 0.000000 0.000000 0.000000 -0.106256
#
#
# Mechanical properties :
#
#
# Convention : Reuss Voigt Hill
#
# Bulk Modulus (GPa) = 32.81003 52.07820 42.44412
# Shear Modulus (GPa) = 47.40050 17.65680 32.52865
#
# Velocity S-wave (km/s) = 4.95631 3.02498 4.10582
# Velocity P-wave (km/s) = 7.05386 6.26018 6.66884
#
# Compressibility (1/GPa) = 0.03047848
#
# Stress axis : x y z
#
# Youngs Moduli (GPa) = 95.13785 29.61213 33.51419
#
# Poissons Ratio (x) = 0.22694 0.20657
# Poissons Ratio (y) = 0.72910 0.26788
# Poissons Ratio (z) = 0.58641 0.23669
#
# Static dielectric constant tensor:
#      x y z
#    x 1.731840 0.000000 0.000000 
#    y 0.000000 1.666000 0.000000 
#    z 0.000000 0.000000 1.781120 
# 
# From -- ./inp_files/3854.got.cif
#   From: 2010.05.17/outbox.cif.g08.bks.cpg/sg39_2_cif.got.tgz:3854.got - 2010.06.03 18:22:40.
