data_PCOD9361292
_publ_section_title
;
Structure prediction by ZEFSAII (Michael W. Deem and Ramdas Pophale) SiO2 
 PCOD9361292
Probable space group: A B M 2
;
_chemical_formula_sum "Si O2"
_cell_formula_units_Z 40
_cell_length_a 21.947068
_cell_length_b 13.684909
_cell_length_c 5.465026
_cell_angle_alpha 90.000000
_cell_angle_beta 90.000000
_cell_angle_gamma 90.000000
_cell_volume 1641.385738
_symmetry_space_group_name_H-M "A B M 2"
_symmetry_group_IT_number 39
_symmetry_cell_setting 'orthorhombic'
loop_
_space_group_symop_operation_xyz
x,y,z
-x,-y,z
-x,1/2+y,z
x,1/2-y,z
x,1/2+y,1/2+z
-x,1/2-y,1/2+z
-x,y,1/2+z
x,-y,1/2+z
loop_
_atom_site_type_symbol
_atom_site_label
_atom_site_fract_x
_atom_site_fract_y
_atom_site_fract_z
Si Si1 0.569055 0.960786 0.527870
Si Si2 0.695644 0.750000 0.907714
Si Si3 0.270861 0.466774 0.831604
Si Si4 0.615194 0.250000 0.911358
Si Si5 0.025192 0.639637 0.635219
Si Si6 0.865445 0.043668 0.800568
O O1 0.576124 0.849836 0.431187
O O2 0.500000 0.000000 0.559213
O O3 0.593289 0.028854 0.306237
O O4 0.656096 0.750000 0.658104
O O5 0.733516 0.648393 0.892424
O O6 0.655458 0.750000 0.159586
O O7 0.299860 0.519236 0.065187
O O8 0.207119 0.527612 0.804062
O O9 0.003455 0.750000 0.613941
O O10 0.097151 0.634641 0.696156
O O11 0.991008 0.597521 0.871315
O O12 0.883617 0.031859 0.083395
#
# Coordination Sequence:
#
# PCOD9361292 Si02
#       6
#     8   4   8   4   8   8
#     4  10  23  42  67 100 143 189 222 276 324 388
#     4  12  26  44  71 100 136 177 222 294 342 388
#     4  10  23  45  66  96 131 171 224 280 340 402
#     4  12  26  42  69 108 134 179 236 270 340 404
#     4  10  21  37  58  89 126 160 202 258 321 391
#     4  10  21  39  58  91 117 164 207 258 318 398
#
# _framework density 24.369651000000001
#
# number of rings (size 3 to 8) (size 9 to 14) (size 15 to 20)
#    0.000    1.600    0.000    3.600    0.000   10.400 
#   14.400    0.000    0.000    0.000    0.000    0.000 
#    0.000    0.000    0.000    0.000    0.000    0.000 
#
# Total GULP energy -111412.135058 kJ/mol
# GULP energy per Si atom -5570.606753 kJ/mol
# Density = 2.431418 g / cm^3
# Si number density = 24.369651 Si / 1000 Ang^3
#
#
#
# Elastic Constant Matrix: (Units=GPa)
#
#
# Indices 1 2 3 4 5 6 
#
# 1 94.0886 15.6967 50.1557 0.0000 0.0000 0.0000
# 2 15.6967 134.6379 31.8829 0.0000 0.0000 0.0000
# 3 50.1557 31.8829 234.0422 0.0000 0.0000 0.0000
# 4 0.0000 0.0000 0.0000 35.7823 0.0000 0.0000
# 5 0.0000 0.0000 0.0000 0.0000 28.6787 0.0000
# 6 0.0000 0.0000 0.0000 0.0000 0.0000 -34.5253
#
#
#
# Elastic Compliance Matrix: (Units=1/GPa)
#
#
# Indices 1 2 3 4 5 6 
#
# 1 0.012086 -0.000822 -0.002478 0.000000 0.000000 0.000000
# 2 -0.000822 0.007731 -0.000877 0.000000 0.000000 0.000000
# 3 -0.002478 -0.000877 0.004923 0.000000 0.000000 0.000000
# 4 0.000000 0.000000 0.000000 0.027947 0.000000 0.000000
# 5 0.000000 0.000000 0.000000 0.000000 0.034869 0.000000
# 6 0.000000 0.000000 0.000000 0.000000 0.000000 -0.028964
#
#
# Mechanical properties :
#
#
# Convention : Reuss Voigt Hill
#
# Bulk Modulus (GPa) = 61.02801 73.13770 67.08285
# Shear Modulus (GPa) = 69.05233 30.32270 49.68752
#
# Velocity S-wave (km/s) = 5.32887 3.53126 4.52033
# Velocity P-wave (km/s) = 7.93470 6.83399 7.40483
#
# Compressibility (1/GPa) = 0.01638592
#
# Stress axis : x y z
#
# Youngs Moduli (GPa) = 82.73706 129.35176 203.11717
#
# Poissons Ratio (x) = 0.10636 0.50335
# Poissons Ratio (y) = 0.06803 0.17812
# Poissons Ratio (z) = 0.20503 0.11343
#
# Static dielectric constant tensor:
#      x y z
#    x 2.200620 0.000000 0.000000 
#    y 0.000000 1.906290 0.000000 
#    z 0.000000 0.000000 2.001960 
# 
# From -- ./inp_files/1228.got.cif
#   From: 2010.05.17/outbox.cif.g08.bks.cpg/sg39_1_cif.got.tgz:1228.got - 2010.06.03 18:22:40.
