data_PCOD9361035
_publ_section_title
;
Structure prediction by ZEFSAII (Michael W. Deem and Ramdas Pophale) SiO2 
 PCOD9361035
Probable space group: A B M 2
;
_chemical_formula_sum "Si O2"
_cell_formula_units_Z 48
_cell_length_a 19.325297
_cell_length_b 8.565608
_cell_length_c 15.345657
_cell_angle_alpha 90.000000
_cell_angle_beta 90.000000
_cell_angle_gamma 90.000000
_cell_volume 2540.211391
_symmetry_space_group_name_H-M "A B M 2"
_symmetry_group_IT_number 39
_symmetry_cell_setting 'orthorhombic'
loop_
_space_group_symop_operation_xyz
x,y,z
-x,-y,z
-x,1/2+y,z
x,1/2-y,z
x,1/2+y,1/2+z
-x,1/2-y,1/2+z
-x,y,1/2+z
x,-y,1/2+z
loop_
_atom_site_type_symbol
_atom_site_label
_atom_site_fract_x
_atom_site_fract_y
_atom_site_fract_z
Si Si1 0.321040 0.436710 0.626750
Si Si2 0.818302 0.439236 0.841365
Si Si3 0.923104 0.562403 0.490907
Si Si4 0.831547 0.437675 0.642400
Si Si5 0.576881 0.563804 0.978648
Si Si6 0.661308 0.561869 0.319981
O O1 0.320632 0.250000 0.627354
O O2 0.242924 0.497693 0.612121
O O3 0.371603 0.497619 0.551972
O O4 0.344068 0.500856 0.721317
O O5 0.818827 0.250000 0.843785
O O6 0.839670 0.485432 0.743553
O O7 0.738248 0.485811 0.853330
O O8 0.870821 0.494158 0.915025
O O9 0.923974 0.750000 0.490505
O O10 0.891326 0.502939 0.581420
O O11 0.000000 0.500000 0.477154
O O12 0.829987 0.250000 0.638562
O O13 0.500000 0.500000 0.993234
O O14 0.576832 0.750000 0.981961
O O15 0.605128 0.506541 0.885246
O O16 0.657805 0.750000 0.319604
#
# Coordination Sequence:
#
# PCOD9361035 Si02
#       6
#     8   8   8   8   8   8
#     4  11  22  39  62  90 120 155 196 242 292 349
#     4   8  18  36  59  82 110 145 186 232 282 335
#     4  11  22  37  55  81 115 153 191 235 290 350
#     4  10  20  38  61  86 113 148 192 241 290 343
#     4  12  25  41  60  87 120 158 198 242 295 352
#     4  10  20  39  64  90 117 151 195 246 294 347
#
# _framework density 18.896066999999999
#
# number of rings (size 3 to 8) (size 9 to 14) (size 15 to 20)
#    0.000    1.667    0.000    6.500    0.000    2.667 
#    0.000   14.167    0.000    0.000    0.000    0.000 
#    0.000    0.000    0.000    0.000    0.000    0.000 
#
# Total GULP energy -134149.647839 kJ/mol
# GULP energy per Si atom -5589.568660 kJ/mol
# Density = 1.885306 g / cm^3
# Si number density = 18.896067 Si / 1000 Ang^3
#
#
#
# Elastic Constant Matrix: (Units=GPa)
#
#
# Indices 1 2 3 4 5 6 
#
# 1 36.5791 15.5115 12.8523 0.0000 0.0000 0.0000
# 2 15.5115 104.6141 14.0490 0.0000 0.0000 0.0000
# 3 12.8523 14.0490 35.2974 0.0000 0.0000 0.0000
# 4 0.0000 0.0000 0.0000 30.8872 0.0000 0.0000
# 5 0.0000 0.0000 0.0000 0.0000 0.5352 0.0000
# 6 0.0000 0.0000 0.0000 0.0000 0.0000 31.8528
#
#
#
# Elastic Compliance Matrix: (Units=1/GPa)
#
#
# Indices 1 2 3 4 5 6 
#
# 1 0.032459 -0.003408 -0.010462 0.000000 0.000000 0.000000
# 2 -0.003408 0.010456 -0.002921 0.000000 0.000000 0.000000
# 3 -0.010462 -0.002921 0.033303 0.000000 0.000000 0.000000
# 4 0.000000 0.000000 0.000000 0.032376 0.000000 0.000000
# 5 0.000000 0.000000 0.000000 0.000000 1.868520 0.000000
# 6 0.000000 0.000000 0.000000 0.000000 0.000000 0.031394
#
#
# Mechanical properties :
#
#
# Convention : Reuss Voigt Hill
#
# Bulk Modulus (GPa) = 23.45442 29.03512 26.24477
# Shear Modulus (GPa) = 2.43155 21.59356 12.01255
#
# Velocity S-wave (km/s) = 1.13560 3.38413 2.52408
# Velocity P-wave (km/s) = 3.76281 5.53795 4.73432
#
# Compressibility (1/GPa) = 0.04263588
#
# Stress axis : x y z
#
# Youngs Moduli (GPa) = 30.80796 95.63431 30.02745
#
# Poissons Ratio (x) = 0.32590 0.31416
# Poissons Ratio (y) = 0.10499 0.08771
# Poissons Ratio (z) = 0.32233 0.27935
#
# Static dielectric constant tensor:
#      x y z
#    x 1.628290 0.000000 0.000000 
#    y 0.000000 1.633740 0.000000 
#    z 0.000000 0.000000 1.643610 
# 
# From -- ./inp_files/10031.got.cif
#   From: 2010.05.17/outbox.cif.g08.bks.cpg/sg39_6_cif.got.tgz:10031.got - 2010.06.03 18:22:40.
