data_PCOD9361987
_publ_section_title
;
Structure prediction by ZEFSAII (Michael W. Deem and Ramdas Pophale) SiO2 
 PCOD9361987
Probable space group: A B M 2
;
_chemical_formula_sum "Si O2"
_cell_formula_units_Z 56
_cell_length_a 15.654499
_cell_length_b 8.576850
_cell_length_c 20.943109
_cell_angle_alpha 90.000000
_cell_angle_beta 90.000000
_cell_angle_gamma 90.000000
_cell_volume 2811.953541
_symmetry_space_group_name_H-M "A B M 2"
_symmetry_group_IT_number 39
_symmetry_cell_setting 'orthorhombic'
loop_
_space_group_symop_operation_xyz
x,y,z
-x,-y,z
-x,1/2+y,z
x,1/2-y,z
x,1/2+y,1/2+z
-x,1/2-y,1/2+z
-x,y,1/2+z
x,-y,1/2+z
loop_
_atom_site_type_symbol
_atom_site_label
_atom_site_fract_x
_atom_site_fract_y
_atom_site_fract_z
Si Si1 0.271999 0.437813 0.835560
Si Si2 0.091313 0.563709 0.649790
Si Si3 0.671266 0.434229 0.469190
Si Si4 0.590972 0.062792 0.595793
Si Si5 0.870293 0.932365 0.002805
Si Si6 0.088937 0.568611 0.870611
Si Si7 0.271081 0.062975 0.694387
O O1 0.275991 0.250000 0.837944
O O2 0.323431 0.499852 0.897348
O O3 0.173125 0.484096 0.844707
O O4 0.299880 0.488005 0.765347
O O5 0.094391 0.750000 0.656859
O O6 0.100982 0.527492 0.573966
O O7 0.173681 0.490420 0.683435
O O8 0.000000 0.500000 0.672062
O O9 0.651839 0.250000 0.463350
O O10 0.609975 0.498917 0.523862
O O11 0.767670 0.445569 0.496869
O O12 0.590387 0.250000 0.594476
O O13 0.500000 0.000000 0.618173
O O14 0.667363 0.008689 0.641342
O O15 0.891673 0.750000 0.989730
O O16 0.907801 0.038669 0.947052
O O17 0.094245 0.750000 0.856306
O O18 0.000000 0.500000 0.846127
O O19 0.274772 0.250000 0.690479
#
# Coordination Sequence:
#
# PCOD9361987 Si02
#       7
#     8   8   8   8   8   8   8
#     4   9  20  39  60  81 112 156 199 240 298 357
#     4  11  22  36  55  82 119 163 208 254 303 357
#     4   8  15  34  61  85 111 147 188 235 293 351
#     4  11  22  40  66  95 123 155 195 244 302 365
#     4   9  17  33  54  78 110 151 194 244 302 351
#     4  11  21  32  50  78 111 151 199 251 298 350
#     4  11  23  40  62  89 123 162 203 251 302 361
#
# _framework density 19.914981000000001
#
# number of rings (size 3 to 8) (size 9 to 14) (size 15 to 20)
#    0.000    2.000    1.429    3.857    0.000    4.000 
#    0.000    1.429    0.000    1.714    0.000    0.000 
#    0.000    0.000    0.000    0.000    0.000    0.000 
#
# Total GULP energy -156336.521346 kJ/mol
# GULP energy per Si atom -5583.447191 kJ/mol
# Density = 1.986965 g / cm^3
# Si number density = 19.914981 Si / 1000 Ang^3
#
#
#
# Elastic Constant Matrix: (Units=GPa)
#
#
# Indices 1 2 3 4 5 6 
#
# 1 71.4820 15.4379 36.4829 0.0000 0.0000 0.0000
# 2 15.4379 22.7111 25.0472 0.0000 0.0000 0.0000
# 3 36.4829 25.0472 116.4362 0.0000 0.0000 0.0000
# 4 0.0000 0.0000 0.0000 19.2977 0.0000 0.0000
# 5 0.0000 0.0000 0.0000 0.0000 -3.9219 0.0000
# 6 0.0000 0.0000 0.0000 0.0000 0.0000 24.1516
#
#
#
# Elastic Compliance Matrix: (Units=1/GPa)
#
#
# Indices 1 2 3 4 5 6 
#
# 1 0.017629 -0.007724 -0.003862 0.000000 0.000000 0.000000
# 2 -0.007724 0.061111 -0.010726 0.000000 0.000000 0.000000
# 3 -0.003862 -0.010726 0.012106 0.000000 0.000000 0.000000
# 4 0.000000 0.000000 0.000000 0.051820 0.000000 0.000000
# 5 0.000000 0.000000 0.000000 0.000000 -0.254979 0.000000
# 6 0.000000 0.000000 0.000000 0.000000 0.000000 0.041405
#
#
# Mechanical properties :
#
#
# Convention : Reuss Voigt Hill
#
# Bulk Modulus (GPa) = 21.63476 40.50725 31.07100
# Shear Modulus (GPa) = -459.63317 16.81624 -221.40846
#
# Velocity S-wave (km/s) = -15.20851 2.90901 -10.55548
# Velocity P-wave (km/s) = 17.24851 5.62738 11.52918
#
# Compressibility (1/GPa) = 0.04622192
#
# Stress axis : x y z
#
# Youngs Moduli (GPa) = 56.72542 16.36375 82.60525
#
# Poissons Ratio (x) = 0.12639 0.31903
# Poissons Ratio (y) = 0.43814 0.88600
# Poissons Ratio (z) = 0.21908 0.17551
#
# Static dielectric constant tensor:
#      x y z
#    x 1.685980 0.000000 0.000000 
#    y 0.000000 1.674320 0.000000 
#    z 0.000000 0.000000 1.753440 
# 
# From -- ./inp_files/14760.got.cif
#   From: 2010.05.17/outbox.cif.g08.bks.cpg/sg39_8_cif.got.tgz:14760.got - 2010.06.03 18:22:40.
