data_PCOD9361917
_publ_section_title
;
Structure prediction by ZEFSAII (Michael W. Deem and Ramdas Pophale) SiO2 
 PCOD9361917
Probable space group: A B M 2
;
_chemical_formula_sum "Si O2"
_cell_formula_units_Z 32
_cell_length_a 8.793547
_cell_length_b 15.421298
_cell_length_c 9.768040
_cell_angle_alpha 90.000000
_cell_angle_beta 90.000000
_cell_angle_gamma 90.000000
_cell_volume 1324.623477
_symmetry_space_group_name_H-M "A B M 2"
_symmetry_group_IT_number 39
_symmetry_cell_setting 'orthorhombic'
loop_
_space_group_symop_operation_xyz
x,y,z
-x,-y,z
-x,1/2+y,z
x,1/2-y,z
x,1/2+y,1/2+z
-x,1/2-y,1/2+z
-x,y,1/2+z
x,-y,1/2+z
loop_
_atom_site_type_symbol
_atom_site_label
_atom_site_fract_x
_atom_site_fract_y
_atom_site_fract_z
Si Si1 0.500000 0.000000 0.189390
Si Si2 0.794418 0.750000 0.539852
Si Si3 0.208608 0.750000 0.731200
Si Si4 0.666163 0.086657 0.433694
Si Si5 0.035319 0.601333 0.589146
Si Si6 0.479868 0.750000 0.514738
O O1 0.626204 0.034587 0.297424
O O2 0.393855 0.048572 0.078332
O O3 0.738921 0.750000 0.384389
O O4 0.630356 0.750000 0.607738
O O5 0.888730 0.662050 0.560826
O O6 0.114570 0.661400 0.704665
O O7 0.340435 0.750000 0.621399
O O8 0.844490 0.103759 0.461261
O O9 0.554699 0.167850 0.422312
O O10 0.000000 0.500000 0.617270
#
# Coordination Sequence:
#
# PCOD9361917 Si02
#       6
#     4   4   4   8   8   4
#     4  10  24  42  70 102 132 180 240 282 340 418
#     4  11  25  45  68  98 139 179 230 286 356 407
#     4   9  23  47  64 100 137 177 231 291 333 427
#     4  10  24  44  69 100 139 179 235 287 344 417
#     4  10  24  44  68 100 138 176 229 286 356 412
#     4  10  24  42  68  96 134 184 229 287 337 412
#
# _framework density 24.157810000000001
#
# number of rings (size 3 to 8) (size 9 to 14) (size 15 to 20)
#    0.000    2.000    0.000    0.750   14.000    3.000 
#    4.500    0.000    0.000    0.000    0.000    0.000 
#    0.000    0.000    0.000    0.000    0.000    0.000 
#
# Total GULP energy -89220.781967 kJ/mol
# GULP energy per Si atom -5576.298873 kJ/mol
# Density = 2.410283 g / cm^3
# Si number density = 24.157810 Si / 1000 Ang^3
#
#
#
# Elastic Constant Matrix: (Units=GPa)
#
#
# Indices 1 2 3 4 5 6 
#
# 1 86.6518 56.3850 -25.1859 0.0000 0.0000 0.0000
# 2 56.3850 172.6779 34.4873 0.0000 0.0000 0.0000
# 3 -25.1859 34.4873 91.5670 0.0000 0.0000 0.0000
# 4 0.0000 0.0000 0.0000 -1.1693 0.0000 0.0000
# 5 0.0000 0.0000 0.0000 0.0000 1.0362 0.0000
# 6 0.0000 0.0000 0.0000 0.0000 0.0000 55.8477
#
#
#
# Elastic Compliance Matrix: (Units=1/GPa)
#
#
# Indices 1 2 3 4 5 6 
#
# 1 0.019028 -0.007849 0.008190 0.000000 0.000000 0.000000
# 2 -0.007849 0.009500 -0.005737 0.000000 0.000000 0.000000
# 3 0.008190 -0.005737 0.015334 0.000000 0.000000 0.000000
# 4 0.000000 0.000000 0.000000 -0.855238 0.000000 0.000000
# 5 0.000000 0.000000 0.000000 0.000000 0.965066 0.000000
# 6 0.000000 0.000000 0.000000 0.000000 0.000000 0.017906
#
#
# Mechanical properties :
#
#
# Convention : Reuss Voigt Hill
#
# Bulk Modulus (GPa) = 30.23813 53.58550 41.91182
# Shear Modulus (GPa) = 25.85149 30.15696 28.00422
#
# Velocity S-wave (km/s) = 3.27480 3.53701 3.40843
# Velocity P-wave (km/s) = 5.18104 6.23780 5.73382
#
# Compressibility (1/GPa) = 0.03307082
#
# Stress axis : x y z
#
# Youngs Moduli (GPa) = 52.55293 105.26419 65.21285
#
# Poissons Ratio (x) = 0.82623 -0.53410
# Poissons Ratio (y) = 0.41249 0.37412
# Poissons Ratio (z) = -0.43041 0.60389
#
# Static dielectric constant tensor:
#      x y z
#    x 2.059930 0.000000 0.000000 
#    y 0.000000 2.345290 0.000000 
#    z 0.000000 0.000000 1.909310 
# 
# From -- ./inp_files/4866.got.cif
#   From: 2010.05.17/outbox.cif.g08.bks.cpg/sg39_3_cif.got.tgz:4866.got - 2010.06.03 18:22:40.
