data_PCOD9361258
_publ_section_title
;
Structure prediction by ZEFSAII (Michael W. Deem and Ramdas Pophale) SiO2 
 PCOD9361258
Probable space group: A B M 2
;
_chemical_formula_sum "Si O2"
_cell_formula_units_Z 56
_cell_length_a 18.786588
_cell_length_b 16.937988
_cell_length_c 7.998254
_cell_angle_alpha 90.000000
_cell_angle_beta 90.000000
_cell_angle_gamma 90.000000
_cell_volume 2545.100427
_symmetry_space_group_name_H-M "A B M 2"
_symmetry_group_IT_number 39
_symmetry_cell_setting 'orthorhombic'
loop_
_space_group_symop_operation_xyz
x,y,z
-x,-y,z
-x,1/2+y,z
x,1/2-y,z
x,1/2+y,1/2+z
-x,1/2-y,1/2+z
-x,y,1/2+z
x,-y,1/2+z
loop_
_atom_site_type_symbol
_atom_site_label
_atom_site_fract_x
_atom_site_fract_y
_atom_site_fract_z
Si Si1 0.571666 0.841470 0.489360
Si Si2 0.143408 0.392502 0.302872
Si Si3 0.078812 0.996449 0.550690
Si Si4 0.280787 0.585823 0.968338
Si Si5 0.267982 0.405049 0.867266
Si Si6 0.419133 0.160046 0.890814
Si Si7 0.882179 0.164579 0.467374
O O1 0.575102 0.750000 0.428743
O O2 0.639023 0.889879 0.422071
O O3 0.578457 0.839369 0.689591
O O4 0.494060 0.876061 0.448245
O O5 0.099758 0.422657 0.461881
O O6 0.138828 0.471041 0.183901
O O7 0.220967 0.368192 0.363261
O O8 0.110305 0.333498 0.169734
O O9 0.078549 0.918369 0.428284
O O10 0.000000 0.000000 0.623560
O O11 0.263192 0.495460 0.924819
O O12 0.271437 0.600011 0.165849
O O13 0.344057 0.377044 0.938879
O O14 0.200741 0.353882 0.927328
O O15 0.419547 0.250000 0.953568
O O16 0.903034 0.250000 0.396908
#
# Coordination Sequence:
#
# PCOD9361258 Si02
#       7
#     8   8   8   8   8   8   8
#     4   9  20  36  55  78 114 156 209 261 315 374
#     4  10  21  36  65  89 121 157 206 242 301 378
#     4  10  21  40  68  90 122 168 200 241 308 378
#     4  11  21  37  57  91 117 164 209 257 309 371
#     4  11  21  35  60  84 126 160 209 260 311 375
#     4   9  19  36  54  78 111 160 205 256 323 375
#     4  10  23  40  62  94 126 156 204 259 305 364
#
# _framework density 22.003062
#
# number of rings (size 3 to 8) (size 9 to 14) (size 15 to 20)
#    0.857    1.143    1.429    2.571    0.000    4.000 
#    0.000    5.000    0.000    0.000    0.000    0.000 
#    0.000    0.000    0.000    0.000    0.000    0.000 
#
# Total GULP energy -155952.834079 kJ/mol
# GULP energy per Si atom -5569.744074 kJ/mol
# Density = 2.195298 g / cm^3
# Si number density = 22.003062 Si / 1000 Ang^3
#
#
#
# Elastic Constant Matrix: (Units=GPa)
#
#
# Indices 1 2 3 4 5 6 
#
# 1 109.3615 4.3291 7.5569 0.0000 0.0000 0.0000
# 2 4.3291 56.5204 -5.6150 0.0000 0.0000 0.0000
# 3 7.5569 -5.6150 37.1712 0.0000 0.0000 0.0000
# 4 0.0000 0.0000 0.0000 13.1419 0.0000 0.0000
# 5 0.0000 0.0000 0.0000 0.0000 32.8253 0.0000
# 6 0.0000 0.0000 0.0000 0.0000 0.0000 -3.3310
#
#
#
# Elastic Compliance Matrix: (Units=1/GPa)
#
#
# Indices 1 2 3 4 5 6 
#
# 1 0.009321 -0.000916 -0.002033 0.000000 0.000000 0.000000
# 2 -0.000916 0.018052 0.002913 0.000000 0.000000 0.000000
# 3 -0.002033 0.002913 0.027756 0.000000 0.000000 0.000000
# 4 0.000000 0.000000 0.000000 0.076093 0.000000 0.000000
# 5 0.000000 0.000000 0.000000 0.000000 0.030464 0.000000
# 6 0.000000 0.000000 0.000000 0.000000 0.000000 -0.300207
#
#
# Mechanical properties :
#
#
# Convention : Reuss Voigt Hill
#
# Bulk Modulus (GPa) = 18.16302 23.95502 21.05902
# Shear Modulus (GPa) = -41.63305 21.64602 -9.99351
#
# Velocity S-wave (km/s) = -4.35460 3.13992 -2.13348
# Velocity P-wave (km/s) = 4.12441 4.90471 1.87690
#
# Compressibility (1/GPa) = 0.05505694
#
# Stress axis : x y z
#
# Youngs Moduli (GPa) = 107.28761 55.39466 36.02826
#
# Poissons Ratio (x) = 0.05074 0.07325
# Poissons Ratio (y) = 0.09827 -0.10495
# Poissons Ratio (z) = 0.21814 -0.16137
#
# Static dielectric constant tensor:
#      x y z
#    x 1.830690 0.000000 0.000000 
#    y 0.000000 1.858050 0.000000 
#    z 0.000000 0.000000 1.844590 
# 
# From -- ./inp_files/3999.got.cif
#   From: 2010.05.17/outbox.cif.g08.bks.cpg/sg39_2_cif.got.tgz:3999.got - 2010.06.03 18:22:40.
