data_PCOD9361654
_publ_section_title
;
Structure prediction by ZEFSAII (Michael W. Deem and Ramdas Pophale) SiO2 
 PCOD9361654
Probable space group: A B M 2
;
_chemical_formula_sum "Si O2"
_cell_formula_units_Z 64
_cell_length_a 16.937078
_cell_length_b 14.647291
_cell_length_c 12.508262
_cell_angle_alpha 90.000000
_cell_angle_beta 90.000000
_cell_angle_gamma 90.000000
_cell_volume 3103.078533
_symmetry_space_group_name_H-M "A B M 2"
_symmetry_group_IT_number 39
_symmetry_cell_setting 'orthorhombic'
loop_
_space_group_symop_operation_xyz
x,y,z
-x,-y,z
-x,1/2+y,z
x,1/2-y,z
x,1/2+y,1/2+z
-x,1/2-y,1/2+z
-x,y,1/2+z
x,-y,1/2+z
loop_
_atom_site_type_symbol
_atom_site_label
_atom_site_fract_x
_atom_site_fract_y
_atom_site_fract_z
Si Si1 0.919298 0.444555 0.505600
Si Si2 0.208875 0.420135 0.424423
Si Si3 0.951872 0.143366 0.293420
Si Si4 0.876772 0.641832 0.220942
Si Si5 0.197103 0.355792 0.663785
Si Si6 0.371486 0.857337 0.171556
Si Si7 0.611557 0.968244 0.460235
Si Si8 0.470956 0.856871 0.386616
O O1 0.858005 0.504866 0.440062
O O2 0.941381 0.367256 0.419998
O O3 0.872286 0.408279 0.607875
O O4 0.000000 0.500000 0.531159
O O5 0.188559 0.373797 0.311912
O O6 0.196912 0.362750 0.534831
O O7 0.297268 0.458416 0.428788
O O8 0.955009 0.250000 0.266104
O O9 0.879889 0.103613 0.222067
O O10 0.038408 0.107676 0.265508
O O11 0.880264 0.750000 0.200977
O O12 0.197439 0.250000 0.694635
O O13 0.282708 0.390933 0.700650
O O14 0.365784 0.750000 0.136780
O O15 0.429088 0.860094 0.271640
O O16 0.398933 0.920981 0.075425
O O17 0.556298 0.905318 0.384744
O O18 0.580842 0.072205 0.457312
O O19 0.474267 0.750000 0.420584
#
# Coordination Sequence:
#
# PCOD9361654 Si02
#       8
#     8   8   8   8   8   8   8   8
#     4  12  25  39  61  89 128 169 217 264 321 379
#     4  11  24  39  66  93 128 166 214 266 320 381
#     4  10  22  39  62  88 124 170 217 266 318 376
#     4  11  25  43  62  90 129 167 214 271 326 379
#     4   9  19  37  63  91 123 167 218 260 315 385
#     4   9  19  38  65  95 129 170 214 263 320 393
#     4  10  23  41  66  99 131 168 214 265 323 389
#     4  10  22  41  67  95 128 167 211 263 321 388
#
# _framework density 20.624680999999999
#
# number of rings (size 3 to 8) (size 9 to 14) (size 15 to 20)
#    0.000    1.750    1.250    1.875    5.250    4.500 
#    0.000    0.625    0.000    0.750    0.000    0.000 
#    0.000    0.000    0.000    0.000    0.000    0.000 
#
# Total GULP energy -178518.459981 kJ/mol
# GULP energy per Si atom -5578.701874 kJ/mol
# Density = 2.057774 g / cm^3
# Si number density = 20.624681 Si / 1000 Ang^3
#
#
#
# Elastic Constant Matrix: (Units=GPa)
#
#
# Indices 1 2 3 4 5 6 
#
# 1 102.0261 31.7678 18.4862 0.0000 0.0000 0.0000
# 2 31.7678 96.7220 27.3016 0.0000 0.0000 0.0000
# 3 18.4862 27.3016 69.8447 0.0000 0.0000 0.0000
# 4 0.0000 0.0000 0.0000 30.7266 0.0000 0.0000
# 5 0.0000 0.0000 0.0000 0.0000 32.0673 0.0000
# 6 0.0000 0.0000 0.0000 0.0000 0.0000 17.3543
#
#
#
# Elastic Compliance Matrix: (Units=1/GPa)
#
#
# Indices 1 2 3 4 5 6 
#
# 1 0.011095 -0.003164 -0.001700 0.000000 0.000000 0.000000
# 2 -0.003164 0.012524 -0.004058 0.000000 0.000000 0.000000
# 3 -0.001700 -0.004058 0.016353 0.000000 0.000000 0.000000
# 4 0.000000 0.000000 0.000000 0.032545 0.000000 0.000000
# 5 0.000000 0.000000 0.000000 0.000000 0.031184 0.000000
# 6 0.000000 0.000000 0.000000 0.000000 0.000000 0.057623
#
#
# Mechanical properties :
#
#
# Convention : Reuss Voigt Hill
#
# Bulk Modulus (GPa) = 45.19096 47.07823 46.13459
# Shear Modulus (GPa) = 26.80343 28.76545 27.78444
#
# Velocity S-wave (km/s) = 3.60888 3.73863 3.67433
# Velocity P-wave (km/s) = 6.27089 6.44300 6.35752
#
# Compressibility (1/GPa) = 0.02212832
#
# Stress axis : x y z
#
# Youngs Moduli (GPa) = 90.13389 79.84934 61.14903
#
# Poissons Ratio (x) = 0.25266 0.10393
# Poissons Ratio (y) = 0.28520 0.24813
# Poissons Ratio (z) = 0.15319 0.32402
#
# Static dielectric constant tensor:
#      x y z
#    x 1.762400 0.000000 0.000000 
#    y 0.000000 1.777520 0.000000 
#    z 0.000000 0.000000 1.744510 
# 
# From -- ./inp_files/6873.got.cif
#   From: 2010.05.17/outbox.cif.g08.bks.cpg/sg39_4_cif.got.tgz:6873.got - 2010.06.03 18:22:40.
