data_PCOD9361880
_publ_section_title
;
Structure prediction by ZEFSAII (Michael W. Deem and Ramdas Pophale) SiO2 
 PCOD9361880
Probable space group: A B M 2
;
_chemical_formula_sum "Si O2"
_cell_formula_units_Z 40
_cell_length_a 9.894143
_cell_length_b 14.203909
_cell_length_c 11.450410
_cell_angle_alpha 90.000000
_cell_angle_beta 90.000000
_cell_angle_gamma 90.000000
_cell_volume 1609.189172
_symmetry_space_group_name_H-M "A B M 2"
_symmetry_group_IT_number 39
_symmetry_cell_setting 'orthorhombic'
loop_
_space_group_symop_operation_xyz
x,y,z
-x,-y,z
-x,1/2+y,z
x,1/2-y,z
x,1/2+y,1/2+z
-x,1/2-y,1/2+z
-x,y,1/2+z
x,-y,1/2+z
loop_
_atom_site_type_symbol
_atom_site_label
_atom_site_fract_x
_atom_site_fract_y
_atom_site_fract_z
Si Si1 0.327006 0.356201 0.275260
Si Si2 0.686378 0.990242 0.575033
Si Si3 0.037938 0.391705 0.360567
Si Si4 0.075608 0.350446 0.605833
Si Si5 0.538962 0.140833 0.470682
O O1 0.310339 0.250000 0.227880
O O2 0.327674 0.439914 0.184083
O O3 0.198845 0.372381 0.359663
O O4 0.464438 0.359382 0.347324
O O5 0.662118 0.066637 0.471555
O O6 0.827599 0.939434 0.592938
O O7 0.572544 0.909559 0.555701
O O8 0.987064 0.353413 0.486399
O O9 0.000000 0.500000 0.358750
O O10 0.992291 0.354420 0.233260
O O11 0.150657 0.250000 0.601648
O O12 0.566787 0.250000 0.498805
#
# Coordination Sequence:
#
# PCOD9361880 Si02
#       5
#     8   8   8   8   8
#     4  11  23  45  72 104 147 194 244 311 380 448
#     4  11  23  41  72 107 140 192 243 310 371 454
#     4  12  25  46  76 110 151 200 250 315 382 459
#     4  12  25  46  76 113 153 199 253 315 385 459
#     4  10  23  44  72 101 140 189 245 305 374 446
#
# _framework density 24.857240999999998
#
# number of rings (size 3 to 8) (size 9 to 14) (size 15 to 20)
#    0.000    0.800    4.000    3.600    0.000    3.200 
#    0.000    0.000    0.000    9.600    0.000    0.000 
#    0.000    0.000    0.000    0.000    0.000    0.000 
#
# Total GULP energy -111750.791470 kJ/mol
# GULP energy per Si atom -5587.539573 kJ/mol
# Density = 2.480066 g / cm^3
# Si number density = 24.857241 Si / 1000 Ang^3
#
#
#
# Elastic Constant Matrix: (Units=GPa)
#
#
# Indices 1 2 3 4 5 6 
#
# 1 61.9967 36.3601 23.0344 0.0000 0.0000 0.0000
# 2 36.3601 212.9018 68.5694 0.0000 0.0000 0.0000
# 3 23.0344 68.5694 161.4308 0.0000 0.0000 0.0000
# 4 0.0000 0.0000 0.0000-1691.3389 0.0000 0.0000
# 5 0.0000 0.0000 0.0000 0.0000 35.8717 0.0000
# 6 0.0000 0.0000 0.0000 0.0000 0.0000 21.5539
#
#
#
# Elastic Compliance Matrix: (Units=1/GPa)
#
#
# Indices 1 2 3 4 5 6 
#
# 1 0.018226 -0.002636 -0.001481 0.000000 0.000000 0.000000
# 2 -0.002636 0.005823 -0.002097 0.000000 0.000000 0.000000
# 3 -0.001481 -0.002097 0.007297 0.000000 0.000000 0.000000
# 4 0.000000 0.000000 0.000000 -0.000591 0.000000 0.000000
# 5 0.000000 0.000000 0.000000 0.000000 0.027877 0.000000
# 6 0.000000 0.000000 0.000000 0.000000 0.000000 0.046395
#
#
# Mechanical properties :
#
#
# Convention : Reuss Voigt Hill
#
# Bulk Modulus (GPa) = 52.86131 76.91748 64.88939
# Shear Modulus (GPa) = 40.40077 -306.22497 -132.91210
#
# Velocity S-wave (km/s) = 4.03589 -11.11130 -7.32026
# Velocity P-wave (km/s) = 6.55973 11.55871 6.72955
#
# Compressibility (1/GPa) = 0.01891743
#
# Stress axis : x y z
#
# Youngs Moduli (GPa) = 54.86681 171.74616 137.04806
#
# Poissons Ratio (x) = 0.45267 0.20298
# Poissons Ratio (y) = 0.14461 0.28740
# Poissons Ratio (z) = 0.08126 0.36017
#
# Static dielectric constant tensor:
#      x y z
#    x 2.005870 0.000000 0.000000 
#    y 0.000000 1.994050 0.000000 
#    z 0.000000 0.000000 2.091310 
# 
# From -- ./inp_files/5659.got.cif
#   From: 2010.05.17/outbox.cif.g08.bks.cpg/sg39_3_cif.got.tgz:5659.got - 2010.06.03 18:22:40.
