data_PCOD9361621
_publ_section_title
;
Structure prediction by ZEFSAII (Michael W. Deem and Ramdas Pophale) SiO2 
 PCOD9361621
Probable space group: A B M 2
;
_chemical_formula_sum "Si O2"
_cell_formula_units_Z 56
_cell_length_a 14.412218
_cell_length_b 19.384361
_cell_length_c 9.162055
_cell_angle_alpha 90.000000
_cell_angle_beta 90.000000
_cell_angle_gamma 90.000000
_cell_volume 2559.618299
_symmetry_space_group_name_H-M "A B M 2"
_symmetry_group_IT_number 39
_symmetry_cell_setting 'orthorhombic'
loop_
_space_group_symop_operation_xyz
x,y,z
-x,-y,z
-x,1/2+y,z
x,1/2-y,z
x,1/2+y,1/2+z
-x,1/2-y,1/2+z
-x,y,1/2+z
x,-y,1/2+z
loop_
_atom_site_type_symbol
_atom_site_label
_atom_site_fract_x
_atom_site_fract_y
_atom_site_fract_z
Si Si1 0.022783 0.833017 0.154020
Si Si2 0.056881 0.074509 0.925655
Si Si3 0.199204 0.906065 0.015817
Si Si4 0.779336 0.497699 0.282495
Si Si5 0.540129 0.629788 0.159391
Si Si6 0.622961 0.824427 0.458879
Si Si7 0.583087 0.952035 0.893326
O O1 0.008603 0.750000 0.149331
O O2 0.023824 0.865802 0.314310
O O3 0.120898 0.854745 0.075673
O O4 0.950914 0.884578 0.074990
O O5 0.159017 0.057261 0.870831
O O6 0.000000 0.000000 0.926829
O O7 0.199975 0.974257 0.118466
O O8 0.302655 0.876859 0.022305
O O9 0.187128 0.929947 0.848682
O O10 0.672244 0.489198 0.327592
O O11 0.599286 0.664338 0.288302
O O12 0.471513 0.671732 0.052492
O O13 0.604433 0.591762 0.039195
O O14 0.468105 0.585971 0.259070
O O15 0.666416 0.750000 0.476540
O O16 0.500000 0.000000 0.950381
#
# Coordination Sequence:
#
# PCOD9361621 Si02
#       7
#     8   8   8   8   8   8   8
#     4  11  24  44  69  98 132 172 215 273 336 399
#     4  11  23  44  69  99 130 173 219 271 329 395
#     4  11  24  40  63  94 128 169 212 267 325 396
#     4  11  24  39  65  95 132 167 211 269 331 383
#     4  10  22  38  59  87 121 163 215 264 318 381
#     4  11  22  41  61  85 122 169 217 260 319 391
#     4  11  22  37  59  93 129 163 206 263 323 378
#
# _framework density 21.878261999999999
#
# number of rings (size 3 to 8) (size 9 to 14) (size 15 to 20)
#    0.000    1.143    2.857    3.857    6.000    0.000 
#    0.000    0.000    0.000    0.000    0.000    0.000 
#    0.000    0.000    0.000    0.000    0.000    0.000 
#
# Total GULP energy -156062.751868 kJ/mol
# GULP energy per Si atom -5573.669710 kJ/mol
# Density = 2.182847 g / cm^3
# Si number density = 21.878262 Si / 1000 Ang^3
#
#
#
# Elastic Constant Matrix: (Units=GPa)
#
#
# Indices 1 2 3 4 5 6 
#
# 1 54.1133 -4.8559 -4.7938 0.0000 0.0000 0.0000
# 2 -4.8559 97.3107 22.5745 0.0000 0.0000 0.0000
# 3 -4.7938 22.5745 108.1454 0.0000 0.0000 0.0000
# 4 0.0000 0.0000 0.0000 15.5204 0.0000 0.0000
# 5 0.0000 0.0000 0.0000 0.0000 22.8252 0.0000
# 6 0.0000 0.0000 0.0000 0.0000 0.0000 16.3948
#
#
#
# Elastic Compliance Matrix: (Units=1/GPa)
#
#
# Indices 1 2 3 4 5 6 
#
# 1 0.018608 0.000775 0.000663 0.000000 0.000000 0.000000
# 2 0.000775 0.010832 -0.002227 0.000000 0.000000 0.000000
# 3 0.000663 -0.002227 0.009741 0.000000 0.000000 0.000000
# 4 0.000000 0.000000 0.000000 0.064431 0.000000 0.000000
# 5 0.000000 0.000000 0.000000 0.000000 0.043811 0.000000
# 6 0.000000 0.000000 0.000000 0.000000 0.000000 0.060995
#
#
# Mechanical properties :
#
#
# Convention : Reuss Voigt Hill
#
# Bulk Modulus (GPa) = 26.59365 31.71322 29.15344
# Shear Modulus (GPa) = 22.46889 27.39105 24.92997
#
# Velocity S-wave (km/s) = 3.20815 3.54217 3.37929
# Velocity P-wave (km/s) = 5.08966 5.59071 5.34606
#
# Compressibility (1/GPa) = 0.03760296
#
# Stress axis : x y z
#
# Youngs Moduli (GPa) = 53.74029 92.32268 102.65879
#
# Poissons Ratio (x) = -0.07153 -0.06807
# Poissons Ratio (y) = -0.04163 0.22859
# Poissons Ratio (z) = -0.03564 0.20557
#
# Static dielectric constant tensor:
#      x y z
#    x 1.839600 0.000000 0.000000 
#    y 0.000000 1.902000 0.000000 
#    z 0.000000 0.000000 1.821220 
# 
# From -- ./inp_files/3392.got.cif
#   From: 2010.05.17/outbox.cif.g08.bks.cpg/sg39_2_cif.got.tgz:3392.got - 2010.06.03 18:22:40.
