data_PCOD9361487
_publ_section_title
;
Structure prediction by ZEFSAII (Michael W. Deem and Ramdas Pophale) SiO2 
 PCOD9361487
Probable space group: A B M 2
;
_chemical_formula_sum "Si O2"
_cell_formula_units_Z 32
_cell_length_a 8.271660
_cell_length_b 20.156604
_cell_length_c 7.485627
_cell_angle_alpha 90.000000
_cell_angle_beta 90.000000
_cell_angle_gamma 90.000000
_cell_volume 1248.067923
_symmetry_space_group_name_H-M "A B M 2"
_symmetry_group_IT_number 39
_symmetry_cell_setting 'orthorhombic'
loop_
_space_group_symop_operation_xyz
x,y,z
-x,-y,z
-x,1/2+y,z
x,1/2-y,z
x,1/2+y,1/2+z
-x,1/2-y,1/2+z
-x,y,1/2+z
x,-y,1/2+z
loop_
_atom_site_type_symbol
_atom_site_label
_atom_site_fract_x
_atom_site_fract_y
_atom_site_fract_z
Si Si1 0.679236 0.478239 0.025170
Si Si2 0.222579 0.141248 0.321768
Si Si3 0.896444 0.933974 0.827715
Si Si4 0.805465 0.750000 0.607675
Si Si5 0.192333 0.250000 0.035462
O O1 0.500000 0.500000 0.060396
O O2 0.767574 0.433536 0.171631
O O3 0.686186 0.428323 0.854981
O O4 0.789967 0.543645 0.995158
O O5 0.259316 0.188462 0.491018
O O6 0.028444 0.123434 0.332785
O O7 0.745981 0.184838 0.644032
O O8 0.000000 0.000000 0.797609
O O9 0.773889 0.750000 0.821843
O O10 0.999542 0.750000 0.574768
#
# Coordination Sequence:
#
# PCOD9361487 Si02
#       5
#     8   8   8   4   4
#     4  11  23  41  64  99 146 190 237 291 366 442
#     4  10  22  40  67 105 143 181 234 301 352 427
#     4  10  21  40  64  98 137 182 235 290 361 426
#     4  11  21  38  65 109 140 176 240 301 362 414
#     4  11  21  36  65 105 138 176 236 303 362 408
#
# _framework density 25.63963
#
# number of rings (size 3 to 8) (size 9 to 14) (size 15 to 20)
#    0.000    1.500    2.500    4.500    0.000    2.000 
#    0.000    0.000    0.000    6.000    0.000   63.000 
#    0.000    0.000    0.000    0.000    0.000    0.000 
#
# Total GULP energy -89459.603408 kJ/mol
# GULP energy per Si atom -5591.225213 kJ/mol
# Density = 2.558127 g / cm^3
# Si number density = 25.639630 Si / 1000 Ang^3
#
#
#
# Elastic Constant Matrix: (Units=GPa)
#
#
# Indices 1 2 3 4 5 6 
#
# 1 105.8911 29.5128 34.9549 0.0000 0.0000 0.0000
# 2 29.5128 143.8689 49.6992 0.0000 0.0000 0.0000
# 3 34.9549 49.6992 213.0570 0.0000 0.0000 0.0000
# 4 0.0000 0.0000 0.0000 38.8031 0.0000 0.0000
# 5 0.0000 0.0000 0.0000 0.0000 -1.9503 0.0000
# 6 0.0000 0.0000 0.0000 0.0000 0.0000 14.4232
#
#
#
# Elastic Compliance Matrix: (Units=1/GPa)
#
#
# Indices 1 2 3 4 5 6 
#
# 1 0.010340 -0.001670 -0.001307 0.000000 0.000000 0.000000
# 2 -0.001670 0.007830 -0.001552 0.000000 0.000000 0.000000
# 3 -0.001307 -0.001552 0.005270 0.000000 0.000000 0.000000
# 4 0.000000 0.000000 0.000000 0.025771 0.000000 0.000000
# 5 0.000000 0.000000 0.000000 0.000000 -0.512751 0.000000
# 6 0.000000 0.000000 0.000000 0.000000 0.000000 0.069333
#
#
# Mechanical properties :
#
#
# Convention : Reuss Voigt Hill
#
# Bulk Modulus (GPa) = 69.53196 76.79455 73.16325
# Shear Modulus (GPa) = -13.14564 33.49854 10.17645
#
# Velocity S-wave (km/s) = -2.26676 3.61849 1.99440
# Velocity P-wave (km/s) = 4.50853 6.89018 5.82243
#
# Compressibility (1/GPa) = 0.01438188
#
# Stress axis : x y z
#
# Youngs Moduli (GPa) = 96.70743 127.72078 189.74805
#
# Poissons Ratio (x) = 0.21326 0.24800
# Poissons Ratio (y) = 0.16147 0.29457
# Poissons Ratio (z) = 0.12640 0.19828
#
# Static dielectric constant tensor:
#      x y z
#    x 2.054980 0.000000 0.000000 
#    y 0.000000 2.041710 0.000000 
#    z 0.000000 0.000000 2.226000 
# 
# From -- ./inp_files/1999.got.cif
#   From: 2010.05.17/outbox.cif.g08.bks.cpg/sg39_1_cif.got.tgz:1999.got - 2010.06.03 18:22:40.
