data_PCOD9361876
_publ_section_title
;
Structure prediction by ZEFSAII (Michael W. Deem and Ramdas Pophale) SiO2 
 PCOD9361876
Probable space group: A B M 2
;
_chemical_formula_sum "Si O2"
_cell_formula_units_Z 64
_cell_length_a 15.575370
_cell_length_b 16.393757
_cell_length_c 11.781580
_cell_angle_alpha 90.000000
_cell_angle_beta 90.000000
_cell_angle_gamma 90.000000
_cell_volume 3008.294864
_symmetry_space_group_name_H-M "A B M 2"
_symmetry_group_IT_number 39
_symmetry_cell_setting 'orthorhombic'
loop_
_space_group_symop_operation_xyz
x,y,z
-x,-y,z
-x,1/2+y,z
x,1/2-y,z
x,1/2+y,1/2+z
-x,1/2-y,1/2+z
-x,y,1/2+z
x,-y,1/2+z
loop_
_atom_site_type_symbol
_atom_site_label
_atom_site_fract_x
_atom_site_fract_y
_atom_site_fract_z
Si Si1 0.666726 0.424673 0.708740
Si Si2 0.584266 0.152033 0.904534
Si Si3 0.839703 0.343641 0.679945
Si Si4 0.273664 0.395122 0.785832
Si Si5 0.248002 0.843049 0.033364
Si Si6 0.395381 0.345731 0.986340
Si Si7 0.110742 0.413242 0.944294
Si Si8 0.078808 0.103007 0.407985
O O1 0.588026 0.395176 0.785852
O O2 0.745690 0.362569 0.728979
O O3 0.700701 0.512630 0.748354
O O4 0.642626 0.408513 0.578236
O O5 0.588440 0.250000 0.885436
O O6 0.496161 0.138429 0.970717
O O7 0.667875 0.119851 0.972737
O O8 0.846153 0.250000 0.643332
O O9 0.855027 0.401534 0.572005
O O10 0.902987 0.363187 0.782769
O O11 0.260367 0.350525 0.667136
O O12 0.347373 0.359671 0.867037
O O13 0.185919 0.387924 0.858453
O O14 0.250370 0.750000 0.998125
O O15 0.155291 0.872419 0.992648
O O16 0.382648 0.250000 0.020727
O O17 0.089587 0.505665 0.910105
O O18 0.017357 0.370879 0.940846
#
# Coordination Sequence:
#
# PCOD9361876 Si02
#       8
#     8   8   8   8   8   8   8   8
#     4  12  24  44  72  98 136 182 232 284 343 413
#     4  10  23  44  70  97 133 181 230 280 344 411
#     4  12  24  43  71  99 132 179 233 284 336 412
#     4  12  26  44  68 102 142 178 227 290 350 411
#     4  11  24  44  68  98 137 183 228 284 347 414
#     4  11  26  47  70 100 138 186 234 284 348 416
#     4  11  26  44  69  98 137 178 225 284 356 411
#     4  11  25  45  70  97 134 182 232 281 349 426
#
# _framework density 21.274509999999999
#
# number of rings (size 3 to 8) (size 9 to 14) (size 15 to 20)
#    0.000    0.750    3.750    2.625    5.250    3.000 
#    0.000    0.000    0.000    0.000    0.000    0.000 
#    0.000    0.000    0.000    0.000    0.000    0.000 
#
# Total GULP energy -178788.690027 kJ/mol
# GULP energy per Si atom -5587.146563 kJ/mol
# Density = 2.122609 g / cm^3
# Si number density = 21.274510 Si / 1000 Ang^3
#
#
#
# Elastic Constant Matrix: (Units=GPa)
#
#
# Indices 1 2 3 4 5 6 
#
# 1 123.1182 18.5589 29.9979 0.0000 0.0000 0.0000
# 2 18.5589 33.7607 -16.3467 0.0000 0.0000 0.0000
# 3 29.9979 -16.3467 69.1698 0.0000 0.0000 0.0000
# 4 0.0000 0.0000 0.0000 29.8558 0.0000 0.0000
# 5 0.0000 0.0000 0.0000 0.0000 27.5711 0.0000
# 6 0.0000 0.0000 0.0000 0.0000 0.0000 30.9687
#
#
#
# Elastic Compliance Matrix: (Units=1/GPa)
#
#
# Indices 1 2 3 4 5 6 
#
# 1 0.011350 -0.009737 -0.007223 0.000000 0.000000 0.000000
# 2 -0.009737 0.041801 0.014101 0.000000 0.000000 0.000000
# 3 -0.007223 0.014101 0.020922 0.000000 0.000000 0.000000
# 4 0.000000 0.000000 0.000000 0.033494 0.000000 0.000000
# 5 0.000000 0.000000 0.000000 0.000000 0.036270 0.000000
# 6 0.000000 0.000000 0.000000 0.000000 0.000000 0.032291
#
#
# Mechanical properties :
#
#
# Convention : Reuss Voigt Hill
#
# Bulk Modulus (GPa) = 14.62946 32.27432 23.45189
# Shear Modulus (GPa) = 24.43424 30.60168 27.51796
#
# Velocity S-wave (km/s) = 3.39266 3.79677 3.60039
# Velocity P-wave (km/s) = 4.71575 5.86719 5.32270
#
# Compressibility (1/GPa) = 0.06835520
#
# Stress axis : x y z
#
# Youngs Moduli (GPa) = 88.10557 23.92309 47.79561
#
# Poissons Ratio (x) = 0.23294 0.34525
# Poissons Ratio (y) = 0.85787 -0.67398
# Poissons Ratio (z) = 0.63642 -0.33735
#
# Static dielectric constant tensor:
#      x y z
#    x 1.868140 0.000000 0.000000 
#    y 0.000000 1.812980 0.000000 
#    z 0.000000 0.000000 1.751070 
# 
# From -- ./inp_files/6669.got.cif
#   From: 2010.05.17/outbox.cif.g08.bks.cpg/sg39_4_cif.got.tgz:6669.got - 2010.06.03 18:22:40.
