data_PCOD9361409
_publ_section_title
;
Structure prediction by ZEFSAII (Michael W. Deem and Ramdas Pophale) SiO2 
 PCOD9361409
Probable space group: A B M 2
;
_chemical_formula_sum "Si O2"
_cell_formula_units_Z 64
_cell_length_a 6.257510
_cell_length_b 18.299048
_cell_length_c 25.615808
_cell_angle_alpha 90.000000
_cell_angle_beta 90.000000
_cell_angle_gamma 90.000000
_cell_volume 2933.175900
_symmetry_space_group_name_H-M "A B M 2"
_symmetry_group_IT_number 39
_symmetry_cell_setting 'orthorhombic'
loop_
_space_group_symop_operation_xyz
x,y,z
-x,-y,z
-x,1/2+y,z
x,1/2-y,z
x,1/2+y,1/2+z
-x,1/2-y,1/2+z
-x,y,1/2+z
x,-y,1/2+z
loop_
_atom_site_type_symbol
_atom_site_label
_atom_site_fract_x
_atom_site_fract_y
_atom_site_fract_z
Si Si1 0.784519 0.167417 0.302830
Si Si2 0.948517 0.415514 0.882381
Si Si3 0.442635 0.827977 0.895550
Si Si4 0.407854 0.926739 0.558570
Si Si5 0.460800 0.666463 0.714791
Si Si6 0.250585 0.832295 0.111656
Si Si7 0.127842 0.427996 0.159666
Si Si8 0.195343 0.166119 0.975462
O O1 0.860399 0.250000 0.289631
O O2 0.966706 0.117554 0.327627
O O3 0.618857 0.173848 0.350591
O O4 0.640443 0.139180 0.255239
O O5 0.050607 0.371975 0.931501
O O6 0.000000 0.500000 0.886104
O O7 0.701215 0.397369 0.886519
O O8 0.320428 0.750000 0.892585
O O9 0.569646 0.831131 0.949291
O O10 0.612951 0.875526 0.568829
O O11 0.296204 0.948423 0.613681
O O12 0.229286 0.883718 0.525853
O O13 0.500000 0.000000 0.532773
O O14 0.399756 0.750000 0.730431
O O15 0.583231 0.671571 0.659852
O O16 0.259083 0.614399 0.704570
O O17 0.196955 0.750000 0.095263
O O18 0.043630 0.873687 0.133234
O O19 0.000000 0.500000 0.176929
O O20 0.129595 0.250000 0.985746
#
# Coordination Sequence:
#
# PCOD9361409 Si02
#       8
#     8   8   8   8   8   8   8   8
#     4   9  19  39  63  86 117 159 207 255 304 365
#     4  11  23  37  60  89 127 161 198 254 312 370
#     4   9  19  38  61  83 115 158 199 248 306 360
#     4  11  23  39  63  88 122 162 205 255 318 372
#     4   9  20  38  63  90 118 159 210 259 308 367
#     4  10  21  39  61  88 122 160 207 260 307 373
#     4  11  22  39  60  88 124 163 203 252 321 375
#     4  10  23  40  61  89 120 161 212 255 300 370
#
# _framework density 21.819354000000001
#
# number of rings (size 3 to 8) (size 9 to 14) (size 15 to 20)
#    0.000    2.000    1.250    2.625    1.750    5.500 
#    0.000    7.500    0.000    0.000    0.000    0.000 
#    0.000    0.000    0.000    0.000    0.000    0.000 
#
# Total GULP energy -178703.359998 kJ/mol
# GULP energy per Si atom -5584.480000 kJ/mol
# Density = 2.176969 g / cm^3
# Si number density = 21.819354 Si / 1000 Ang^3
#
#
#
# Elastic Constant Matrix: (Units=GPa)
#
#
# Indices 1 2 3 4 5 6 
#
# 1 44.7408 14.6439 -11.1694 0.0000 0.0000 0.0000
# 2 14.6439 94.1217 1.3181 0.0000 0.0000 0.0000
# 3 -11.1694 1.3181 58.6182 0.0000 0.0000 0.0000
# 4 0.0000 0.0000 0.0000 14.6048 0.0000 0.0000
# 5 0.0000 0.0000 0.0000 0.0000 22.8856 0.0000
# 6 0.0000 0.0000 0.0000 0.0000 0.0000 22.5214
#
#
#
# Elastic Compliance Matrix: (Units=1/GPa)
#
#
# Indices 1 2 3 4 5 6 
#
# 1 0.024842 -0.003933 0.004822 0.000000 0.000000 0.000000
# 2 -0.003933 0.011250 -0.001002 0.000000 0.000000 0.000000
# 3 0.004822 -0.001002 0.018001 0.000000 0.000000 0.000000
# 4 0.000000 0.000000 0.000000 0.068470 0.000000 0.000000
# 5 0.000000 0.000000 0.000000 0.000000 0.043696 0.000000
# 6 0.000000 0.000000 0.000000 0.000000 0.000000 0.044402
#
#
# Mechanical properties :
#
#
# Convention : Reuss Voigt Hill
#
# Bulk Modulus (GPa) = 18.56411 23.00731 20.78571
# Shear Modulus (GPa) = 21.84904 24.84826 23.34865
#
# Velocity S-wave (km/s) = 3.16786 3.37830 3.27477
# Velocity P-wave (km/s) = 4.68049 5.07785 4.88321
#
# Compressibility (1/GPa) = 0.05386737
#
# Stress axis : x y z
#
# Youngs Moduli (GPa) = 40.25455 88.88554 55.55288
#
# Poissons Ratio (x) = 0.34955 -0.26787
# Poissons Ratio (y) = 0.15830 0.05568
# Poissons Ratio (z) = -0.19410 0.08909
#
# Static dielectric constant tensor:
#      x y z
#    x 1.808360 0.000000 0.000000 
#    y 0.000000 1.827920 0.000000 
#    z 0.000000 0.000000 1.808150 
# 
# From -- ./inp_files/17359.got.cif
#   From: 2010.05.17/outbox.cif.g08.bks.cpg/sg39_9_cif.got.tgz:17359.got - 2010.06.03 18:22:40.
