data_PCOD9361261
_publ_section_title
;
Structure prediction by ZEFSAII (Michael W. Deem and Ramdas Pophale) SiO2 
 PCOD9361261
Probable space group: A B M 2
;
_chemical_formula_sum "Si O2"
_cell_formula_units_Z 64
_cell_length_a 19.121821
_cell_length_b 18.262126
_cell_length_c 8.361500
_cell_angle_alpha 90.000000
_cell_angle_beta 90.000000
_cell_angle_gamma 90.000000
_cell_volume 2919.878481
_symmetry_space_group_name_H-M "A B M 2"
_symmetry_group_IT_number 39
_symmetry_cell_setting 'orthorhombic'
loop_
_space_group_symop_operation_xyz
x,y,z
-x,-y,z
-x,1/2+y,z
x,1/2-y,z
x,1/2+y,1/2+z
-x,1/2-y,1/2+z
-x,y,1/2+z
x,-y,1/2+z
loop_
_atom_site_type_symbol
_atom_site_label
_atom_site_fract_x
_atom_site_fract_y
_atom_site_fract_z
Si Si1 0.341676 0.560628 0.487060
Si Si2 0.238083 0.664422 0.341440
Si Si3 0.517669 0.419560 0.652112
Si Si4 0.414170 0.165661 0.445452
Si Si5 0.972468 0.337753 0.850678
Si Si6 0.104555 0.839846 0.171182
Si Si7 0.713780 0.410012 0.844452
Si Si8 0.164192 0.164613 0.188115
O O1 0.308172 0.618596 0.364904
O O2 0.424820 0.567446 0.510719
O O3 0.314207 0.578435 0.664203
O O4 0.309372 0.482980 0.436485
O O5 0.253516 0.750000 0.316860
O O6 0.183389 0.636248 0.208951
O O7 0.195063 0.657869 0.509787
O O8 0.500000 0.500000 0.715351
O O9 0.448600 0.382120 0.584078
O O10 0.551904 0.367316 0.783864
O O11 0.431871 0.250000 0.465146
O O12 0.331453 0.153690 0.426872
O O13 0.979942 0.250000 0.870927
O O14 0.918185 0.349668 0.704868
O O15 0.049345 0.364566 0.806727
O O16 0.931576 0.363813 0.007033
O O17 0.107261 0.750000 0.172808
O O18 0.792732 0.385740 0.811403
O O19 0.174741 0.250000 0.235048
#
# Coordination Sequence:
#
# PCOD9361261 Si02
#       8
#     8   8   8   8   8   8   8   8
#     4  10  22  36  58  78 106 147 186 226 279 346
#     4   9  18  33  52  76 106 140 182 233 282 332
#     4  11  22  39  61  84 116 154 193 235 291 355
#     4  11  23  38  60  88 116 148 192 244 291 342
#     4   9  16  26  45  74 106 144 182 223 278 336
#     4   9  16  27  45  73 108 142 181 227 277 336
#     4  10  21  37  55  78 108 144 186 227 281 343
#     4   9  17  31  51  74 103 138 178 226 277 329
#
# _framework density 21.918721000000001
#
# number of rings (size 3 to 8) (size 9 to 14) (size 15 to 20)
#    0.000    2.250    1.250    1.875    1.750    7.500 
#    0.000    0.000    0.000    4.500    0.000    5.250 
#    0.000    0.000    0.000    0.000    0.000    0.000 
#
# Total GULP energy -178652.368041 kJ/mol
# GULP energy per Si atom -5582.886501 kJ/mol
# Density = 2.186883 g / cm^3
# Si number density = 21.918721 Si / 1000 Ang^3
#
#
#
# Elastic Constant Matrix: (Units=GPa)
#
#
# Indices 1 2 3 4 5 6 
#
# 1 57.7767 0.9045 -6.7594 0.0000 0.0000 0.0000
# 2 0.9045 66.7396 1.3028 0.0000 0.0000 0.0000
# 3 -6.7594 1.3028 41.9266 0.0000 0.0000 0.0000
# 4 0.0000 0.0000 0.0000 4.3535 0.0000 0.0000
# 5 0.0000 0.0000 0.0000 0.0000 26.6720 0.0000
# 6 0.0000 0.0000 0.0000 0.0000 0.0000 11.4565
#
#
#
# Elastic Compliance Matrix: (Units=1/GPa)
#
#
# Indices 1 2 3 4 5 6 
#
# 1 0.017647 -0.000295 0.002854 0.000000 0.000000 0.000000
# 2 -0.000295 0.014998 -0.000514 0.000000 0.000000 0.000000
# 3 0.002854 -0.000514 0.024327 0.000000 0.000000 0.000000
# 4 0.000000 0.000000 0.000000 0.229701 0.000000 0.000000
# 5 0.000000 0.000000 0.000000 0.000000 0.037493 0.000000
# 6 0.000000 0.000000 0.000000 0.000000 0.000000 0.087287
#
#
# Mechanical properties :
#
#
# Convention : Reuss Voigt Hill
#
# Bulk Modulus (GPa) = 16.37659 17.48210 16.92934
# Shear Modulus (GPa) = 11.69004 19.89606 15.79305
#
# Velocity S-wave (km/s) = 2.31191 3.01611 2.68718
# Velocity P-wave (km/s) = 3.82287 4.48580 4.16754
#
# Compressibility (1/GPa) = 0.06106279
#
# Stress axis : x y z
#
# Youngs Moduli (GPa) = 56.66836 66.67721 41.10612
#
# Poissons Ratio (x) = 0.01966 -0.11732
# Poissons Ratio (y) = 0.01671 0.02111
# Poissons Ratio (z) = -0.16174 0.03424
#
# Static dielectric constant tensor:
#      x y z
#    x 1.855370 0.000000 0.000000 
#    y 0.000000 1.764260 0.000000 
#    z 0.000000 0.000000 1.851100 
# 
# From -- ./inp_files/3859.got.cif
#   From: 2010.05.17/outbox.cif.g08.bks.cpg/sg39_2_cif.got.tgz:3859.got - 2010.06.03 18:22:40.
