data_PCOD9361899
_publ_section_title
;
Structure prediction by ZEFSAII (Michael W. Deem and Ramdas Pophale) SiO2 
 PCOD9361899
Probable space group: A B M 2
;
_chemical_formula_sum "Si O2"
_cell_formula_units_Z 40
_cell_length_a 5.430238
_cell_length_b 15.169420
_cell_length_c 20.007492
_cell_angle_alpha 90.000000
_cell_angle_beta 90.000000
_cell_angle_gamma 90.000000
_cell_volume 1648.088361
_symmetry_space_group_name_H-M "A B M 2"
_symmetry_group_IT_number 39
_symmetry_cell_setting 'orthorhombic'
loop_
_space_group_symop_operation_xyz
x,y,z
-x,-y,z
-x,1/2+y,z
x,1/2-y,z
x,1/2+y,1/2+z
-x,1/2-y,1/2+z
-x,y,1/2+z
x,-y,1/2+z
loop_
_atom_site_type_symbol
_atom_site_label
_atom_site_fract_x
_atom_site_fract_y
_atom_site_fract_z
Si Si1 0.500561 0.894914 0.213200
Si Si2 0.994415 0.105019 0.632907
Si Si3 0.500000 0.000000 0.473834
Si Si4 0.090357 0.089539 0.879583
Si Si5 0.784802 0.845589 0.503656
Si Si6 0.648662 0.750000 0.807007
O O1 0.238285 0.871913 0.176982
O O2 0.522969 0.829054 0.274985
O O3 0.737284 0.875539 0.167939
O O4 0.500000 0.000000 0.229065
O O5 0.014010 0.151830 0.561471
O O6 0.000000 0.000000 0.622487
O O7 0.309075 0.948204 0.426691
O O8 0.607208 0.925156 0.521266
O O9 0.174082 0.171369 0.836998
O O10 0.000000 0.000000 0.842680
O O11 0.890094 0.126012 0.932113
O O12 0.667354 0.750000 0.499008
#
# Coordination Sequence:
#
# PCOD9361899 Si02
#       6
#     8   8   4   8   8   4
#     4  10  26  47  73 108 146 203 256 311 383 451
#     4  10  23  47  73 105 152 195 245 316 381 458
#     4  10  24  44  68 110 142 200 234 314 390 470
#     4  10  24  48  72 109 148 194 253 316 398 458
#     4  11  24  42  75 111 151 190 250 314 392 472
#     4  12  26  48  74 104 148 202 264 320 376 468
#
# _framework density 24.270541000000001
#
# number of rings (size 3 to 8) (size 9 to 14) (size 15 to 20)
#    0.000    1.600    1.000    1.800   12.600    2.400 
#   10.800    0.000    0.000    0.000    0.000    0.000 
#    0.000    0.000    0.000    0.000    0.000    0.000 
#
# Total GULP energy -111372.030295 kJ/mol
# GULP energy per Si atom -5568.601515 kJ/mol
# Density = 2.421530 g / cm^3
# Si number density = 24.270541 Si / 1000 Ang^3
#
#
#
# Elastic Constant Matrix: (Units=GPa)
#
#
# Indices 1 2 3 4 5 6 
#
# 1 88.7847 58.1132 18.3317 0.0000 0.0000 0.0000
# 2 58.1132 211.9051 47.9222 0.0000 0.0000 0.0000
# 3 18.3317 47.9222 34.9639 0.0000 0.0000 0.0000
# 4 0.0000 0.0000 0.0000 16.8655 0.0000 0.0000
# 5 0.0000 0.0000 0.0000 0.0000 35.0360 0.0000
# 6 0.0000 0.0000 0.0000 0.0000 0.0000 25.1930
#
#
#
# Elastic Compliance Matrix: (Units=1/GPa)
#
#
# Indices 1 2 3 4 5 6 
#
# 1 0.013941 -0.003145 -0.002999 0.000000 0.000000 0.000000
# 2 -0.003145 0.007548 -0.008697 0.000000 0.000000 0.000000
# 3 -0.002999 -0.008697 0.042094 0.000000 0.000000 0.000000
# 4 0.000000 0.000000 0.000000 0.059293 0.000000 0.000000
# 5 0.000000 0.000000 0.000000 0.000000 0.028542 0.000000
# 6 0.000000 0.000000 0.000000 0.000000 0.000000 0.039694
#
#
# Mechanical properties :
#
#
# Convention : Reuss Voigt Hill
#
# Bulk Modulus (GPa) = 29.49727 64.93198 47.21463
# Shear Modulus (GPa) = 21.54308 29.50468 25.52388
#
# Velocity S-wave (km/s) = 2.98253 3.49041 3.24642
# Velocity P-wave (km/s) = 4.90312 6.56167 5.79206
#
# Compressibility (1/GPa) = 0.03390144
#
# Stress axis : x y z
#
# Youngs Moduli (GPa) = 71.73146 132.47772 23.75659
#
# Poissons Ratio (x) = 0.41665 0.07124
# Poissons Ratio (y) = 0.22560 0.20661
# Poissons Ratio (z) = 0.21509 1.15217
#
# Static dielectric constant tensor:
#      x y z
#    x 2.052740 0.000000 0.000000 
#    y 0.000000 1.912580 0.000000 
#    z 0.000000 0.000000 1.941340 
# 
# From -- ./inp_files/15218.got.cif
#   From: 2010.05.17/outbox.cif.g08.bks.cpg/sg39_8_cif.got.tgz:15218.got - 2010.06.03 18:22:40.
