data_PCOD9361864
_publ_section_title
;
Structure prediction by ZEFSAII (Michael W. Deem and Ramdas Pophale) SiO2 
 PCOD9361864
Probable space group: A B M 2
;
_chemical_formula_sum "Si O2"
_cell_formula_units_Z 48
_cell_length_a 9.127696
_cell_length_b 23.070099
_cell_length_c 10.582866
_cell_angle_alpha 90.000000
_cell_angle_beta 90.000000
_cell_angle_gamma 90.000000
_cell_volume 2228.506590
_symmetry_space_group_name_H-M "A B M 2"
_symmetry_group_IT_number 39
_symmetry_cell_setting 'orthorhombic'
loop_
_space_group_symop_operation_xyz
x,y,z
-x,-y,z
-x,1/2+y,z
x,1/2-y,z
x,1/2+y,1/2+z
-x,1/2-y,1/2+z
-x,y,1/2+z
x,-y,1/2+z
loop_
_atom_site_type_symbol
_atom_site_label
_atom_site_fract_x
_atom_site_fract_y
_atom_site_fract_z
Si Si1 0.842676 0.968831 0.858370
Si Si2 0.866127 0.750000 0.487973
Si Si3 0.158992 0.750000 0.247630
Si Si4 0.010591 0.649504 0.851043
Si Si5 0.665547 0.520382 0.118185
Si Si6 0.687652 0.750000 0.015066
Si Si7 0.309252 0.649706 0.708847
Si Si8 0.423336 0.750000 0.852944
O O1 0.895574 0.901907 0.867190
O O2 0.746653 0.986521 0.734711
O O3 0.758702 0.985003 0.988243
O O4 0.000000 0.000000 0.849245
O O5 0.769569 0.750000 0.612597
O O6 0.959971 0.808035 0.469850
O O7 0.751629 0.750000 0.374335
O O8 0.251007 0.750000 0.373654
O O9 0.058392 0.806151 0.251913
O O10 0.170859 0.633309 0.798568
O O11 0.500000 0.500000 0.098294
O O12 0.648068 0.587991 0.153853
O O13 0.516126 0.750000 0.979646
O O14 0.729819 0.806125 0.095661
O O15 0.434991 0.688170 0.780473
#
# Coordination Sequence:
#
# PCOD9361864 Si02
#       8
#     8   4   4   8   8   4   8   4
#     4  12  26  48  76 106 140 200 257 304 369 449
#     4   9  22  39  64 103 138 170 229 297 351 423
#     4  11  23  33  69 103 131 171 226 291 362 423
#     4  10  23  43  68  98 135 180 235 296 357 427
#     4  12  28  49  75 106 151 195 251 318 378 440
#     4  11  23  39  69 103 143 184 232 287 372 449
#     4  10  23  46  68  95 145 187 237 298 364 441
#     4   9  22  43  66  99 138 191 227 285 363 447
#
# _framework density 21.539088
#
# number of rings (size 3 to 8) (size 9 to 14) (size 15 to 20)
#    0.000    1.333    1.667    3.500    9.333    4.000 
#    0.000    0.000    0.000    0.000    0.000    0.000 
#    0.000    0.000    0.000    0.000    0.000    0.000 
#
# Total GULP energy -133778.821881 kJ/mol
# GULP energy per Si atom -5574.117578 kJ/mol
# Density = 2.149006 g / cm^3
# Si number density = 21.539088 Si / 1000 Ang^3
#
#
#
# Elastic Constant Matrix: (Units=GPa)
#
#
# Indices 1 2 3 4 5 6 
#
# 1 112.9970 26.1157 50.8755 0.0000 0.0000 0.0000
# 2 26.1157 98.6632 32.1788 0.0000 0.0000 0.0000
# 3 50.8755 32.1788 148.6913 0.0000 0.0000 0.0000
# 4 0.0000 0.0000 0.0000 58.4149 0.0000 0.0000
# 5 0.0000 0.0000 0.0000 0.0000 37.1727 0.0000
# 6 0.0000 0.0000 0.0000 0.0000 0.0000 20.8080
#
#
#
# Elastic Compliance Matrix: (Units=1/GPa)
#
#
# Indices 1 2 3 4 5 6 
#
# 1 0.010741 -0.001769 -0.003292 0.000000 0.000000 0.000000
# 2 -0.001769 0.011197 -0.001818 0.000000 0.000000 0.000000
# 3 -0.003292 -0.001818 0.008245 0.000000 0.000000 0.000000
# 4 0.000000 0.000000 0.000000 0.017119 0.000000 0.000000
# 5 0.000000 0.000000 0.000000 0.000000 0.026901 0.000000
# 6 0.000000 0.000000 0.000000 0.000000 0.000000 0.048058
#
#
# Mechanical properties :
#
#
# Convention : Reuss Voigt Hill
#
# Bulk Modulus (GPa) = 60.88531 64.29907 62.59219
# Shear Modulus (GPa) = 35.33695 40.02455 37.68075
#
# Velocity S-wave (km/s) = 4.05482 4.31539 4.18714
# Velocity P-wave (km/s) = 7.08878 7.39914 7.24562
#
# Compressibility (1/GPa) = 0.01642432
#
# Stress axis : x y z
#
# Youngs Moduli (GPa) = 93.10135 89.31223 121.28336
#
# Poissons Ratio (x) = 0.15802 0.39929
# Poissons Ratio (y) = 0.16473 0.22046
# Poissons Ratio (z) = 0.30651 0.16234
#
# Static dielectric constant tensor:
#      x y z
#    x 1.834400 0.000000 0.000000 
#    y 0.000000 1.816820 0.000000 
#    z 0.000000 0.000000 1.807210 
# 
# From -- ./inp_files/5235.got.cif
#   From: 2010.05.17/outbox.cif.g08.bks.cpg/sg39_3_cif.got.tgz:5235.got - 2010.06.03 18:22:40.
