data_PCOD9361620
_publ_section_title
;
Structure prediction by ZEFSAII (Michael W. Deem and Ramdas Pophale) SiO2 
 PCOD9361620
Probable space group: A B M 2
;
_chemical_formula_sum "Si O2"
_cell_formula_units_Z 48
_cell_length_a 8.250653
_cell_length_b 23.062944
_cell_length_c 9.682850
_cell_angle_alpha 90.000000
_cell_angle_beta 90.000000
_cell_angle_gamma 90.000000
_cell_volume 1842.494800
_symmetry_space_group_name_H-M "A B M 2"
_symmetry_group_IT_number 39
_symmetry_cell_setting 'orthorhombic'
loop_
_space_group_symop_operation_xyz
x,y,z
-x,-y,z
-x,1/2+y,z
x,1/2-y,z
x,1/2+y,1/2+z
-x,1/2-y,1/2+z
-x,y,1/2+z
x,-y,1/2+z
loop_
_atom_site_type_symbol
_atom_site_label
_atom_site_fract_x
_atom_site_fract_y
_atom_site_fract_z
Si Si1 0.806572 0.178468 0.408860
Si Si2 0.175892 0.971671 0.863360
Si Si3 0.972827 0.814804 0.648168
Si Si4 0.651866 0.035691 0.133462
Si Si5 0.485815 0.840931 0.074131
Si Si6 0.286287 0.163387 0.318061
O O1 0.801723 0.250000 0.413344
O O2 0.952224 0.157537 0.510687
O O3 0.641505 0.155256 0.472780
O O4 0.841828 0.159359 0.252756
O O5 0.235922 0.905965 0.819520
O O6 0.298267 0.013455 0.782406
O O7 0.201702 0.972728 0.027226
O O8 0.000000 0.000000 0.832223
O O9 0.921256 0.750000 0.612388
O O10 0.127118 0.810046 0.750686
O O11 0.500000 0.000000 0.078640
O O12 0.582875 0.099038 0.124631
O O13 0.345065 0.818581 0.970751
O O14 0.569337 0.817275 0.213243
#
# Coordination Sequence:
#
# PCOD9361620 Si02
#       6
#     8   8   8   8   8   8
#     4   9  19  38  62  89 122 156 195 242 297 360
#     4  11  24  41  60  88 118 156 204 254 304 359
#     4   9  19  38  61  87 122 157 192 241 297 353
#     4  11  22  40  63  83 118 157 200 249 305 358
#     4  10  22  38  59  87 116 154 199 242 297 351
#     4  10  22  40  57  89 117 156 197 246 293 356
#
# _framework density 26.051632999999999
#
# number of rings (size 3 to 8) (size 9 to 14) (size 15 to 20)
#    0.000    2.000    1.667    1.000    2.333    3.333 
#   12.000    0.000    0.000    0.000    0.000    0.000 
#    0.000    0.000    0.000    0.000    0.000    0.000 
#
# Total GULP energy -134073.385043 kJ/mol
# GULP energy per Si atom -5586.391043 kJ/mol
# Density = 2.599234 g / cm^3
# Si number density = 26.051633 Si / 1000 Ang^3
#
#
#
# Elastic Constant Matrix: (Units=GPa)
#
#
# Indices 1 2 3 4 5 6 
#
# 1 107.7151 64.9187 42.8340 0.0000 0.0000 0.0000
# 2 64.9187 87.6897 36.9878 0.0000 0.0000 0.0000
# 3 42.8340 36.9878 121.4526 0.0000 0.0000 0.0000
# 4 0.0000 0.0000 0.0000 4.6332 0.0000 0.0000
# 5 0.0000 0.0000 0.0000 0.0000 72.5934 0.0000
# 6 0.0000 0.0000 0.0000 0.0000 0.0000 13.6717
#
#
#
# Elastic Compliance Matrix: (Units=1/GPa)
#
#
# Indices 1 2 3 4 5 6 
#
# 1 0.017422 -0.011825 -0.002543 0.000000 0.000000 0.000000
# 2 -0.011825 0.021111 -0.002259 0.000000 0.000000 0.000000
# 3 -0.002543 -0.002259 0.009818 0.000000 0.000000 0.000000
# 4 0.000000 0.000000 0.000000 0.215832 0.000000 0.000000
# 5 0.000000 0.000000 0.000000 0.000000 0.013775 0.000000
# 6 0.000000 0.000000 0.000000 0.000000 0.000000 0.073144
#
#
# Mechanical properties :
#
#
# Convention : Reuss Voigt Hill
#
# Bulk Modulus (GPa) = 66.23651 67.37092 66.80372
# Shear Modulus (GPa) = 12.84061 29.65411 21.24736
#
# Velocity S-wave (km/s) = 2.22252 3.37750 2.85895
# Velocity P-wave (km/s) = 5.66272 6.41301 6.04951
#
# Compressibility (1/GPa) = 0.01509741
#
# Stress axis : x y z
#
# Youngs Moduli (GPa) = 57.39890 47.36852 101.84904
#
# Poissons Ratio (x) = 0.56014 0.25901
# Poissons Ratio (y) = 0.67875 0.23005
# Poissons Ratio (z) = 0.14597 0.10699
#
# Static dielectric constant tensor:
#      x y z
#    x 2.079700 0.000000 0.000000 
#    y 0.000000 2.011650 0.000000 
#    z 0.000000 0.000000 2.002030 
# 
# From -- ./inp_files/2325.got.cif
#   From: 2010.05.17/outbox.cif.g08.bks.cpg/sg39_2_cif.got.tgz:2325.got - 2010.06.03 18:22:40.
