data_PCOD9361357
_publ_section_title
;
Structure prediction by ZEFSAII (Michael W. Deem and Ramdas Pophale) SiO2 
 PCOD9361357
Probable space group: A B M 2
;
_chemical_formula_sum "Si O2"
_cell_formula_units_Z 40
_cell_length_a 11.543603
_cell_length_b 15.584387
_cell_length_c 11.016021
_cell_angle_alpha 90.000000
_cell_angle_beta 90.000000
_cell_angle_gamma 90.000000
_cell_volume 1981.781919
_symmetry_space_group_name_H-M "A B M 2"
_symmetry_group_IT_number 39
_symmetry_cell_setting 'orthorhombic'
loop_
_space_group_symop_operation_xyz
x,y,z
-x,-y,z
-x,1/2+y,z
x,1/2-y,z
x,1/2+y,1/2+z
-x,1/2-y,1/2+z
-x,y,1/2+z
x,-y,1/2+z
loop_
_atom_site_type_symbol
_atom_site_label
_atom_site_fract_x
_atom_site_fract_y
_atom_site_fract_z
Si Si1 0.561666 0.750000 0.962790
Si Si2 0.812269 0.654118 0.606757
Si Si3 0.215436 0.155849 0.953661
Si Si4 0.069745 0.153328 0.201697
Si Si5 0.393751 0.250000 0.690944
Si Si6 0.869684 0.022242 0.909303
O O1 0.535926 0.750000 0.817572
O O2 0.649494 0.829968 0.982433
O O3 0.465731 0.750000 0.066207
O O4 0.825290 0.750000 0.547597
O O5 0.695623 0.669342 0.684343
O O6 0.804665 0.578575 0.510045
O O7 0.933661 0.641241 0.675343
O O8 0.181795 0.250000 0.898029
O O9 0.140345 0.149227 0.076298
O O10 0.191462 0.067897 0.886208
O O11 0.085427 0.250000 0.251025
O O12 0.114094 0.081314 0.292221
O O13 0.000000 0.000000 0.953192
#
# Coordination Sequence:
#
# PCOD9361357 Si02
#       6
#     4   8   8   8   4   8
#     4  10  24  47  72  96 124 191 241 308 337 420
#     4   9  22  40  61  98 134 175 220 283 346 421
#     4   9  23  42  62  94 140 177 221 278 352 412
#     4  10  21  38  61  97 142 178 208 271 346 438
#     4  10  24  43  76  90 134 177 255 290 365 388
#     4  12  23  32  65 100 143 175 221 265 348 438
#
# _framework density 20.183855999999999
#
# number of rings (size 3 to 8) (size 9 to 14) (size 15 to 20)
#    1.200    0.800    2.000    0.600    5.600    2.400 
#    0.000    1.000    0.000    2.400    0.000    0.000 
#    0.000    0.000    0.000    0.000    0.000    0.000 
#
# Total GULP energy -111473.647555 kJ/mol
# GULP energy per Si atom -5573.682378 kJ/mol
# Density = 2.013792 g / cm^3
# Si number density = 20.183856 Si / 1000 Ang^3
#
#
#
# Elastic Constant Matrix: (Units=GPa)
#
#
# Indices 1 2 3 4 5 6 
#
# 1 73.4392 35.1478 55.6257 0.0000 0.0000 0.0000
# 2 35.1478 165.7569 60.3027 0.0000 0.0000 0.0000
# 3 55.6257 60.3027 111.5855 0.0000 0.0000 0.0000
# 4 0.0000 0.0000 0.0000 31.3983 0.0000 0.0000
# 5 0.0000 0.0000 0.0000 0.0000 37.3021 0.0000
# 6 0.0000 0.0000 0.0000 0.0000 0.0000 12.9683
#
#
#
# Elastic Compliance Matrix: (Units=1/GPa)
#
#
# Indices 1 2 3 4 5 6 
#
# 1 0.021971 -0.000839 -0.010499 0.000000 0.000000 0.000000
# 2 -0.000839 0.007541 -0.003657 0.000000 0.000000 0.000000
# 3 -0.010499 -0.003657 0.016172 0.000000 0.000000 0.000000
# 4 0.000000 0.000000 0.000000 0.031849 0.000000 0.000000
# 5 0.000000 0.000000 0.000000 0.000000 0.026808 0.000000
# 6 0.000000 0.000000 0.000000 0.000000 0.000000 0.077111
#
#
# Mechanical properties :
#
#
# Convention : Reuss Voigt Hill
#
# Bulk Modulus (GPa) = 63.72132 72.54824 68.13478
# Shear Modulus (GPa) = 23.07622 29.64746 26.36184
#
# Velocity S-wave (km/s) = 3.38494 3.83674 3.61790
# Velocity P-wave (km/s) = 6.84953 7.45984 7.16119
#
# Compressibility (1/GPa) = 0.01569333
#
# Stress axis : x y z
#
# Youngs Moduli (GPa) = 45.51535 132.60230 61.83596
#
# Poissons Ratio (x) = 0.11128 0.64921
# Poissons Ratio (y) = 0.03820 0.22614
# Poissons Ratio (z) = 0.47786 0.48494
#
# Static dielectric constant tensor:
#      x y z
#    x 1.704240 0.000000 0.000000 
#    y 0.000000 1.729000 0.000000 
#    z 0.000000 0.000000 1.766610 
# 
# From -- ./inp_files/5709.got.cif
#   From: 2010.05.17/outbox.cif.g08.bks.cpg/sg39_3_cif.got.tgz:5709.got - 2010.06.03 18:22:40.
