data_PCOD9361139
_publ_section_title
;
Structure prediction by ZEFSAII (Michael W. Deem and Ramdas Pophale) SiO2 
 PCOD9361139
Probable space group: A B M 2
;
_chemical_formula_sum "Si O2"
_cell_formula_units_Z 48
_cell_length_a 8.945183
_cell_length_b 18.624150
_cell_length_c 14.387126
_cell_angle_alpha 90.000000
_cell_angle_beta 90.000000
_cell_angle_gamma 90.000000
_cell_volume 2396.843829
_symmetry_space_group_name_H-M "A B M 2"
_symmetry_group_IT_number 39
_symmetry_cell_setting 'orthorhombic'
loop_
_space_group_symop_operation_xyz
x,y,z
-x,-y,z
-x,1/2+y,z
x,1/2-y,z
x,1/2+y,1/2+z
-x,1/2-y,1/2+z
-x,y,1/2+z
x,-y,1/2+z
loop_
_atom_site_type_symbol
_atom_site_label
_atom_site_fract_x
_atom_site_fract_y
_atom_site_fract_z
Si Si1 0.618575 0.168401 0.560150
Si Si2 0.111660 0.933323 0.899033
Si Si3 0.663313 0.410378 0.752190
Si Si4 0.625523 0.436724 0.040760
Si Si5 0.672596 0.082296 0.253031
Si Si6 0.862263 0.831650 0.899452
O O1 0.592426 0.250000 0.592758
O O2 0.671154 0.119141 0.647210
O O3 0.470895 0.133131 0.515710
O O4 0.740171 0.168623 0.480167
O O5 0.195278 0.891694 0.814842
O O6 0.003440 0.873413 0.940414
O O7 0.243259 0.956209 0.969829
O O8 0.000000 0.000000 0.875508
O O9 0.670832 0.496580 0.766508
O O10 0.493659 0.389852 0.779914
O O11 0.500000 0.500000 0.047750
O O12 0.689397 0.415637 0.141763
O O13 0.794390 0.123844 0.312668
O O14 0.895063 0.750000 0.872221
#
# Coordination Sequence:
#
# PCOD9361139 Si02
#       6
#     8   8   8   8   8   8
#     4  10  22  43  68  93 129 172 216 272 329 382
#     4  12  25  38  64  96 134 175 217 264 327 394
#     4  10  21  38  65  97 124 161 221 268 318 379
#     4  11  22  41  67  96 127 167 226 277 320 383
#     4  10  20  40  66  96 124 164 213 275 319 376
#     4  11  25  44  62  94 139 178 212 260 330 400
#
# _framework density 20.026337000000002
#
# number of rings (size 3 to 8) (size 9 to 14) (size 15 to 20)
#    0.000    1.333    5.000    2.000    2.333    5.333 
#    0.000    1.667    0.000    0.000    0.000    0.000 
#    0.000    0.000    0.000    0.000    0.000    0.000 
#
# Total GULP energy -133743.795101 kJ/mol
# GULP energy per Si atom -5572.658129 kJ/mol
# Density = 1.998076 g / cm^3
# Si number density = 20.026337 Si / 1000 Ang^3
#
#
#
# Elastic Constant Matrix: (Units=GPa)
#
#
# Indices 1 2 3 4 5 6 
#
# 1 74.1192 27.5891 32.4384 0.0000 0.0000 0.0000
# 2 27.5891 92.7675 23.4429 0.0000 0.0000 0.0000
# 3 32.4384 23.4429 77.6126 0.0000 0.0000 0.0000
# 4 0.0000 0.0000 0.0000 24.7585 0.0000 0.0000
# 5 0.0000 0.0000 0.0000 0.0000 -26.3819 0.0000
# 6 0.0000 0.0000 0.0000 0.0000 0.0000 18.6881
#
#
#
# Elastic Compliance Matrix: (Units=1/GPa)
#
#
# Indices 1 2 3 4 5 6 
#
# 1 0.017585 -0.003651 -0.006247 0.000000 0.000000 0.000000
# 2 -0.003651 0.012429 -0.002228 0.000000 0.000000 0.000000
# 3 -0.006247 -0.002228 0.016168 0.000000 0.000000 0.000000
# 4 0.000000 0.000000 0.000000 0.040390 0.000000 0.000000
# 5 0.000000 0.000000 0.000000 0.000000 -0.037905 0.000000
# 6 0.000000 0.000000 0.000000 0.000000 0.000000 0.053510
#
#
# Mechanical properties :
#
#
# Convention : Reuss Voigt Hill
#
# Bulk Modulus (GPa) = 45.60016 45.71556 45.65786
# Shear Modulus (GPa) = 37.38636 14.14821 25.76728
#
# Velocity S-wave (km/s) = 4.32540 2.66085 3.59091
# Velocity P-wave (km/s) = 6.91122 5.68484 6.32781
#
# Compressibility (1/GPa) = 0.02192975
#
# Stress axis : x y z
#
# Youngs Moduli (GPa) = 56.86753 80.46015 61.84934
#
# Poissons Ratio (x) = 0.29377 0.38636
# Poissons Ratio (y) = 0.20763 0.13780
# Poissons Ratio (z) = 0.35524 0.17927
#
# Static dielectric constant tensor:
#      x y z
#    x 1.758610 0.000000 0.000000 
#    y 0.000000 1.757600 0.000000 
#    z 0.000000 0.000000 1.746590 
# 
# From -- ./inp_files/8378.got.cif
#   From: 2010.05.17/outbox.cif.g08.bks.cpg/sg39_5_cif.got.tgz:8378.got - 2010.06.03 18:22:40.
