data_PCOD9361109
_publ_section_title
;
Structure prediction by ZEFSAII (Michael W. Deem and Ramdas Pophale) SiO2 
 PCOD9361109
Probable space group: A B M 2
;
_chemical_formula_sum "Si O2"
_cell_formula_units_Z 52
_cell_length_a 18.368930
_cell_length_b 8.614040
_cell_length_c 15.810258
_cell_angle_alpha 90.000000
_cell_angle_beta 90.000000
_cell_angle_gamma 90.000000
_cell_volume 2501.668155
_symmetry_space_group_name_H-M "A B M 2"
_symmetry_group_IT_number 39
_symmetry_cell_setting 'orthorhombic'
loop_
_space_group_symop_operation_xyz
x,y,z
-x,-y,z
-x,1/2+y,z
x,1/2-y,z
x,1/2+y,1/2+z
-x,1/2-y,1/2+z
-x,y,1/2+z
x,-y,1/2+z
loop_
_atom_site_type_symbol
_atom_site_label
_atom_site_fract_x
_atom_site_fract_y
_atom_site_fract_z
Si Si1 0.041493 0.250000 0.287350
Si Si2 0.581380 0.563709 0.362157
Si Si3 0.162977 0.502986 0.251468
Si Si4 0.673802 0.069699 0.704031
Si Si5 0.324515 0.565192 0.514838
Si Si6 0.073054 0.750000 0.969819
Si Si7 0.086428 0.250000 0.654818
Si Si8 0.161927 0.575041 0.445017
O O1 0.094440 0.391453 0.265934
O O2 0.022582 0.250000 0.386846
O O3 0.971260 0.250000 0.230300
O O4 0.500000 0.500000 0.362695
O O5 0.580047 0.750000 0.359041
O O6 0.625540 0.502258 0.279847
O O7 0.624712 0.513915 0.445764
O O8 0.241387 0.433940 0.230206
O O9 0.138930 0.605980 0.172177
O O10 0.171031 0.581778 0.343226
O O11 0.652926 0.250000 0.697053
O O12 0.664918 0.002400 0.610075
O O13 0.339535 0.750000 0.513824
O O14 0.240433 0.548534 0.487377
O O15 0.116455 0.584423 0.962057
O O16 0.046124 0.750000 0.065733
O O17 0.136226 0.750000 0.472555
#
# Coordination Sequence:
#
# PCOD9361109 Si02
#       8
#     4   8   8   8   8   4   4   8
#     4  10  24  44  68  90 135 184 221 273 352 406
#     4  11  24  42  64  91 131 173 216 268 335 402
#     4  11  20  40  68  95 134 173 226 281 331 397
#     4  10  21  40  67  97 125 173 224 269 328 397
#     4  10  21  38  63  95 133 164 217 275 329 389
#     4  10  24  42  70  92 137 180 223 280 338 412
#     4  12  24  42  62 106 134 172 230 285 340 408
#     4  10  20  39  67 103 131 173 223 282 334 400
#
# _framework density 20.786131000000001
#
# number of rings (size 3 to 8) (size 9 to 14) (size 15 to 20)
#    0.000    1.538    3.077    1.846    1.077    0.615 
#    4.154    9.231    0.000    0.000    0.000    0.000 
#    0.000    0.000    0.000    0.000    0.000    0.000 
#
# Total GULP energy -145062.499202 kJ/mol
# GULP energy per Si atom -5579.326892 kJ/mol
# Density = 2.073882 g / cm^3
# Si number density = 20.786131 Si / 1000 Ang^3
#
#
#
# Elastic Constant Matrix: (Units=GPa)
#
#
# Indices 1 2 3 4 5 6 
#
# 1 90.3214 16.9813 51.1339 0.0000 0.0000 0.0000
# 2 16.9813 66.2644 23.1064 0.0000 0.0000 0.0000
# 3 51.1339 23.1064 168.3581 0.0000 0.0000 0.0000
# 4 0.0000 0.0000 0.0000 26.3674 0.0000 0.0000
# 5 0.0000 0.0000 0.0000 0.0000 15.1323 0.0000
# 6 0.0000 0.0000 0.0000 0.0000 0.0000 3.6801
#
#
#
# Elastic Compliance Matrix: (Units=1/GPa)
#
#
# Indices 1 2 3 4 5 6 
#
# 1 0.013658 -0.002157 -0.003852 0.000000 0.000000 0.000000
# 2 -0.002157 0.016190 -0.001567 0.000000 0.000000 0.000000
# 3 -0.003852 -0.001567 0.007325 0.000000 0.000000 0.000000
# 4 0.000000 0.000000 0.000000 0.037926 0.000000 0.000000
# 5 0.000000 0.000000 0.000000 0.000000 0.066084 0.000000
# 6 0.000000 0.000000 0.000000 0.000000 0.000000 0.271734
#
#
# Mechanical properties :
#
#
# Convention : Reuss Voigt Hill
#
# Bulk Modulus (GPa) = 45.41126 56.37633 50.89380
# Shear Modulus (GPa) = 11.48347 24.61744 18.05045
#
# Velocity S-wave (km/s) = 2.35299 3.44513 2.95004
# Velocity P-wave (km/s) = 5.41077 6.55791 6.01176
#
# Compressibility (1/GPa) = 0.02202097
#
# Stress axis : x y z
#
# Youngs Moduli (GPa) = 73.21762 61.76584 136.52305
#
# Poissons Ratio (x) = 0.13322 0.52591
# Poissons Ratio (y) = 0.15792 0.21393
# Poissons Ratio (z) = 0.28205 0.09678
#
# Static dielectric constant tensor:
#      x y z
#    x 1.690660 0.000000 0.000000 
#    y 0.000000 1.785810 0.000000 
#    z 0.000000 0.000000 1.754940 
# 
# From -- ./inp_files/10313.got.cif
#   From: 2010.05.17/outbox.cif.g08.bks.cpg/sg39_6_cif.got.tgz:10313.got - 2010.06.03 18:22:40.
