data_PCOD9361823
_publ_section_title
;
Structure prediction by ZEFSAII (Michael W. Deem and Ramdas Pophale) SiO2 
 PCOD9361823
Probable space group: A B M 2
;
_chemical_formula_sum "Si O2"
_cell_formula_units_Z 48
_cell_length_a 18.294633
_cell_length_b 13.202840
_cell_length_c 8.105355
_cell_angle_alpha 90.000000
_cell_angle_beta 90.000000
_cell_angle_gamma 90.000000
_cell_volume 1957.776463
_symmetry_space_group_name_H-M "A B M 2"
_symmetry_group_IT_number 39
_symmetry_cell_setting 'orthorhombic'
loop_
_space_group_symop_operation_xyz
x,y,z
-x,-y,z
-x,1/2+y,z
x,1/2-y,z
x,1/2+y,1/2+z
-x,1/2-y,1/2+z
-x,y,1/2+z
x,-y,1/2+z
loop_
_atom_site_type_symbol
_atom_site_label
_atom_site_fract_x
_atom_site_fract_y
_atom_site_fract_z
Si Si1 0.547040 0.911746 0.293120
Si Si2 0.752309 0.069259 0.391446
Si Si3 0.954184 0.626787 0.125700
Si Si4 0.198243 0.630230 0.760651
Si Si5 0.897103 0.870335 0.761727
Si Si6 0.596701 0.398807 0.455291
O O1 0.478955 0.856836 0.379077
O O2 0.500000 0.000000 0.700798
O O3 0.590482 0.978574 0.425741
O O4 0.596234 0.869024 0.147749
O O5 0.775335 0.109181 0.572435
O O6 0.813167 0.098413 0.256781
O O7 0.673086 0.119417 0.365688
O O8 0.757788 0.947065 0.377093
O O9 0.957679 0.750000 0.135585
O O10 0.888967 0.602720 0.255196
O O11 0.925323 0.604227 0.944576
O O12 0.037393 0.590602 0.148353
O O13 0.205764 0.750000 0.797725
O O14 0.895680 0.750000 0.743239
#
# Coordination Sequence:
#
# PCOD9361823 Si02
#       6
#     8   8   8   8   8   8
#     4   8  13  26  44  73 111 144 184 237 276 351
#     4  11  21  35  60  90 118 158 199 248 310 353
#     4   8  16  33  54  76 112 155 195 244 295 348
#     4  10  23  41  58  87 126 160 200 251 302 356
#     4   9  18  34  56  82 112 151 199 246 294 351
#     4   9  15  26  48  80 108 144 198 232 283 362
#
# _framework density 24.517610000000001
#
# number of rings (size 3 to 8) (size 9 to 14) (size 15 to 20)
#    1.000    1.667    1.667    2.500    0.000    2.000 
#    0.000    6.667    0.000    0.000    0.000   31.500 
#    0.000    0.000    0.000    0.000    0.000    0.000 
#
# Total GULP energy -133606.288339 kJ/mol
# GULP energy per Si atom -5566.928681 kJ/mol
# Density = 2.446181 g / cm^3
# Si number density = 24.517610 Si / 1000 Ang^3
#
#
#
# Elastic Constant Matrix: (Units=GPa)
#
#
# Indices 1 2 3 4 5 6 
#
# 1 108.0036 13.8795 11.2492 0.0000 0.0000 0.0000
# 2 13.8795 105.2381 11.9726 0.0000 0.0000 0.0000
# 3 11.2492 11.9726 24.9537 0.0000 0.0000 0.0000
# 4 0.0000 0.0000 0.0000 7.0021 0.0000 0.0000
# 5 0.0000 0.0000 0.0000 0.0000 27.1252 0.0000
# 6 0.0000 0.0000 0.0000 0.0000 0.0000 -75.8947
#
#
#
# Elastic Compliance Matrix: (Units=1/GPa)
#
#
# Indices 1 2 3 4 5 6 
#
# 1 0.009784 -0.000834 -0.004010 0.000000 0.000000 0.000000
# 2 -0.000834 0.010122 -0.004480 0.000000 0.000000 0.000000
# 3 -0.004010 -0.004480 0.044032 0.000000 0.000000 0.000000
# 4 0.000000 0.000000 0.000000 0.142814 0.000000 0.000000
# 5 0.000000 0.000000 0.000000 0.000000 0.036866 0.000000
# 6 0.000000 0.000000 0.000000 0.000000 0.000000 -0.013176
#
#
# Mechanical properties :
#
#
# Convention : Reuss Voigt Hill
#
# Bulk Modulus (GPa) = 22.08102 34.71090 28.39596
# Shear Modulus (GPa) = 18.92598 5.05280 11.98939
#
# Velocity S-wave (km/s) = 2.78138 1.43714 2.21376
# Velocity P-wave (km/s) = 4.39779 4.11608 4.25926
#
# Compressibility (1/GPa) = 0.04528776
#
# Stress axis : x y z
#
# Youngs Moduli (GPa) = 102.20933 98.79469 22.71086
#
# Poissons Ratio (x) = 0.08241 0.09108
# Poissons Ratio (y) = 0.08525 0.10176
# Poissons Ratio (z) = 0.40990 0.44265
#
# Static dielectric constant tensor:
#      x y z
#    x 2.019850 0.000000 0.000000 
#    y 0.000000 2.095630 0.000000 
#    z 0.000000 0.000000 1.900730 
# 
# From -- ./inp_files/3717.got.cif
#   From: 2010.05.17/outbox.cif.g08.bks.cpg/sg39_2_cif.got.tgz:3717.got - 2010.06.03 18:22:40.
