data_PCOD9361986
_publ_section_title
;
Structure prediction by ZEFSAII (Michael W. Deem and Ramdas Pophale) SiO2 
 PCOD9361986
Probable space group: A B M 2
;
_chemical_formula_sum "Si O2"
_cell_formula_units_Z 56
_cell_length_a 15.659925
_cell_length_b 8.763095
_cell_length_c 26.160859
_cell_angle_alpha 90.000000
_cell_angle_beta 90.000000
_cell_angle_gamma 90.000000
_cell_volume 3590.039258
_symmetry_space_group_name_H-M "A B M 2"
_symmetry_group_IT_number 39
_symmetry_cell_setting 'orthorhombic'
loop_
_space_group_symop_operation_xyz
x,y,z
-x,-y,z
-x,1/2+y,z
x,1/2-y,z
x,1/2+y,1/2+z
-x,1/2-y,1/2+z
-x,y,1/2+z
x,-y,1/2+z
loop_
_atom_site_type_symbol
_atom_site_label
_atom_site_fract_x
_atom_site_fract_y
_atom_site_fract_z
Si Si1 0.096237 0.432791 0.319840
Si Si2 0.410800 0.573878 0.897588
Si Si3 0.772878 0.063583 0.014531
Si Si4 0.771589 0.567542 0.900818
Si Si5 0.094767 0.433347 0.601311
Si Si6 0.586743 0.923936 0.521924
Si Si7 0.904081 0.066564 0.213994
O O1 0.091594 0.250000 0.320438
O O2 0.157676 0.494770 0.363990
O O3 0.132332 0.491103 0.265111
O O4 0.000000 0.500000 0.325469
O O5 0.500000 0.500000 0.879809
O O6 0.404636 0.750000 0.881437
O O7 0.323941 0.485123 0.884485
O O8 0.414462 0.573295 0.959782
O O9 0.770689 0.250000 0.010001
O O10 0.679765 0.011152 0.034724
O O11 0.785721 0.994644 0.958390
O O12 0.845070 0.019088 0.054803
O O13 0.776973 0.750000 0.900118
O O14 0.087906 0.250000 0.599895
O O15 0.131836 0.471417 0.657751
O O16 0.000000 0.500000 0.596357
O O17 0.585088 0.750000 0.539015
O O18 0.500000 0.000000 0.540189
O O19 0.905955 0.250000 0.220050
O O20 0.000000 0.000000 0.211788
#
# Coordination Sequence:
#
# PCOD9361986 Si02
#       7
#     8   8   8   8   8   8   8
#     4  11  21  34  50  68  91 121 154 193 235 278
#     4   9  16  28  45  66  91 121 154 191 230 272
#     4   9  18  32  45  63  93 127 155 184 225 275
#     4  11  21  32  46  68  96 127 159 192 230 278
#     4   9  18  31  48  67  91 120 151 186 226 270
#     4   8  14  24  40  59  83 113 147 183 220 258
#     4   9  16  29  48  69  88 111 147 191 232 271
#
# _framework density 15.598715
#
# number of rings (size 3 to 8) (size 9 to 14) (size 15 to 20)
#    0.000    2.571    0.000    5.143    0.000    5.143 
#    0.000    1.429    0.000    0.000    0.000    1.000 
#    0.000    4.571    0.000    0.000    0.000    0.000 
#
# Total GULP energy -155894.615177 kJ/mol
# GULP energy per Si atom -5567.664828 kJ/mol
# Density = 1.556321 g / cm^3
# Si number density = 15.598715 Si / 1000 Ang^3
#
#
#
# Elastic Constant Matrix: (Units=GPa)
#
#
# Indices 1 2 3 4 5 6 
#
# 1 108.9264 45.4334 67.8502 0.0000 0.0000 0.0000
# 2 45.4334 89.2031 42.3663 0.0000 0.0000 0.0000
# 3 67.8502 42.3663 93.0960 0.0000 0.0000 0.0000
# 4 0.0000 0.0000 0.0000 18.5732 0.0000 0.0000
# 5 0.0000 0.0000 0.0000 0.0000 -1.6150 0.0000
# 6 0.0000 0.0000 0.0000 0.0000 0.0000 25.0244
#
#
#
# Elastic Compliance Matrix: (Units=1/GPa)
#
#
# Indices 1 2 3 4 5 6 
#
# 1 0.017716 -0.003688 -0.011234 0.000000 0.000000 0.000000
# 2 -0.003688 0.015069 -0.004170 0.000000 0.000000 0.000000
# 3 -0.011234 -0.004170 0.020826 0.000000 0.000000 0.000000
# 4 0.000000 0.000000 0.000000 0.053841 0.000000 0.000000
# 5 0.000000 0.000000 0.000000 0.000000 -0.619180 0.000000
# 6 0.000000 0.000000 0.000000 0.000000 0.000000 0.039961
#
#
# Mechanical properties :
#
#
# Convention : Reuss Voigt Hill
#
# Bulk Modulus (GPa) = 64.81282 66.94725 65.88004
# Shear Modulus (GPa) = -11.67023 17.43487 2.88232
#
# Velocity S-wave (km/s) = -2.73821 3.34685 1.36081
# Velocity P-wave (km/s) = 5.62524 7.61228 6.69291
#
# Compressibility (1/GPa) = 0.01542905
#
# Stress axis : x y z
#
# Youngs Moduli (GPa) = 56.44555 66.36059 48.01584
#
# Poissons Ratio (x) = 0.24474 0.53939
# Poissons Ratio (y) = 0.20817 0.20022
# Poissons Ratio (z) = 0.63409 0.27671
#
# Static dielectric constant tensor:
#      x y z
#    x 1.529480 0.000000 0.000000 
#    y 0.000000 1.530520 0.000000 
#    z 0.000000 0.000000 1.524470 
# 
# From -- ./inp_files/17916.got.cif
#   From: 2010.05.17/outbox.cif.g08.bks.cpg/sg39_9_cif.got.tgz:17916.got - 2010.06.03 18:22:40.
