data_PCOD9361803
_publ_section_title
;
Structure prediction by ZEFSAII (Michael W. Deem and Ramdas Pophale) SiO2 
 PCOD9361803
Probable space group: A B M 2
;
_chemical_formula_sum "Si O2"
_cell_formula_units_Z 40
_cell_length_a 11.640653
_cell_length_b 14.152132
_cell_length_c 10.916322
_cell_angle_alpha 90.000000
_cell_angle_beta 90.000000
_cell_angle_gamma 90.000000
_cell_volume 1798.355517
_symmetry_space_group_name_H-M "A B M 2"
_symmetry_group_IT_number 39
_symmetry_cell_setting 'orthorhombic'
loop_
_space_group_symop_operation_xyz
x,y,z
-x,-y,z
-x,1/2+y,z
x,1/2-y,z
x,1/2+y,1/2+z
-x,1/2-y,1/2+z
-x,y,1/2+z
x,-y,1/2+z
loop_
_atom_site_type_symbol
_atom_site_label
_atom_site_fract_x
_atom_site_fract_y
_atom_site_fract_z
Si Si1 0.127878 0.039743 0.987340
Si Si2 0.692426 0.750000 0.469804
Si Si3 0.771169 0.948626 0.733052
Si Si4 0.124149 0.750000 0.554879
Si Si5 0.635885 0.750000 0.189385
Si Si6 0.119382 0.250000 0.659148
Si Si7 0.452386 0.404029 0.613467
O O1 0.191856 0.008337 0.863058
O O2 0.115663 0.152441 0.983386
O O3 0.000000 0.000000 0.989928
O O4 0.189521 0.008729 0.113883
O O5 0.679843 0.750000 0.326774
O O6 0.821029 0.750000 0.523769
O O7 0.625084 0.659722 0.524522
O O8 0.832116 0.846082 0.717959
O O9 0.635083 0.932511 0.722097
O O10 0.251173 0.750000 0.608728
O O11 0.017520 0.750000 0.649574
O O12 0.556272 0.839997 0.160639
O O13 0.500000 0.500000 0.556342
#
# Coordination Sequence:
#
# PCOD9361803 Si02
#       7
#     8   4   8   4   4   4   8
#     4  12  26  46  70 108 141 188 239 297 360 436
#     4   9  23  43  69  99 138 184 242 294 354 426
#     4  11  25  46  71 102 145 184 239 294 360 426
#     4  12  26  45  69 102 142 182 238 295 360 424
#     4  11  25  43  71 107 138 190 246 294 352 437
#     4  10  22  45  67 100 136 188 222 299 358 423
#     4  10  23  44  66 100 142 188 235 295 356 422
#
# _framework density 22.242542
#
# number of rings (size 3 to 8) (size 9 to 14) (size 15 to 20)
#    0.000    1.200    2.000    3.000    0.000   13.600 
#    0.000    0.000    0.000    0.000    0.000    0.000 
#    0.000    0.000    0.000    0.000    0.000    0.000 
#
# Total GULP energy -111917.136415 kJ/mol
# GULP energy per Si atom -5595.856821 kJ/mol
# Density = 2.219192 g / cm^3
# Si number density = 22.242542 Si / 1000 Ang^3
#
#
#
# Elastic Constant Matrix: (Units=GPa)
#
#
# Indices 1 2 3 4 5 6 
#
# 1 158.9661 33.0818 26.6903 0.0000 0.0000 0.0000
# 2 33.0818 124.9566 38.1099 0.0000 0.0000 0.0000
# 3 26.6903 38.1099 99.1837 0.0000 0.0000 0.0000
# 4 0.0000 0.0000 0.0000 2.3769 0.0000 0.0000
# 5 0.0000 0.0000 0.0000 0.0000 8.2641 0.0000
# 6 0.0000 0.0000 0.0000 0.0000 0.0000 39.4525
#
#
#
# Elastic Compliance Matrix: (Units=1/GPa)
#
#
# Indices 1 2 3 4 5 6 
#
# 1 0.006800 -0.001407 -0.001289 0.000000 0.000000 0.000000
# 2 -0.001407 0.009356 -0.003216 0.000000 0.000000 0.000000
# 3 -0.001289 -0.003216 0.011665 0.000000 0.000000 0.000000
# 4 0.000000 0.000000 0.000000 0.420724 0.000000 0.000000
# 5 0.000000 0.000000 0.000000 0.000000 0.121005 0.000000
# 6 0.000000 0.000000 0.000000 0.000000 0.000000 0.025347
#
#
# Mechanical properties :
#
#
# Convention : Reuss Voigt Hill
#
# Bulk Modulus (GPa) = 62.51581 64.31895 63.41738
# Shear Modulus (GPa) = 8.16920 29.03365 18.60143
#
# Velocity S-wave (km/s) = 1.91853 3.61684 2.89502
# Velocity P-wave (km/s) = 5.75110 6.81336 6.30464
#
# Compressibility (1/GPa) = 0.01599595
#
# Stress axis : x y z
#
# Youngs Moduli (GPa) = 147.06041 106.88058 85.72598
#
# Poissons Ratio (x) = 0.15039 0.11052
# Poissons Ratio (y) = 0.20692 0.27573
# Poissons Ratio (z) = 0.18959 0.34377
#
# Static dielectric constant tensor:
#      x y z
#    x 1.791310 0.000000 0.000000 
#    y 0.000000 1.842820 0.000000 
#    z 0.000000 0.000000 1.815070 
# 
# From -- ./inp_files/5720.got.cif
#   From: 2010.05.17/outbox.cif.g08.bks.cpg/sg39_3_cif.got.tgz:5720.got - 2010.06.03 18:22:40.
