data_PCOD9361102
_publ_section_title
;
Structure prediction by ZEFSAII (Michael W. Deem and Ramdas Pophale) SiO2 
 PCOD9361102
Probable space group: A B M 2
;
_chemical_formula_sum "Si O2"
_cell_formula_units_Z 64
_cell_length_a 15.760898
_cell_length_b 19.171036
_cell_length_c 10.808010
_cell_angle_alpha 90.000000
_cell_angle_beta 90.000000
_cell_angle_gamma 90.000000
_cell_volume 3265.669867
_symmetry_space_group_name_H-M "A B M 2"
_symmetry_group_IT_number 39
_symmetry_cell_setting 'orthorhombic'
loop_
_space_group_symop_operation_xyz
x,y,z
-x,-y,z
-x,1/2+y,z
x,1/2-y,z
x,1/2+y,1/2+z
-x,1/2-y,1/2+z
-x,y,1/2+z
x,-y,1/2+z
loop_
_atom_site_type_symbol
_atom_site_label
_atom_site_fract_x
_atom_site_fract_y
_atom_site_fract_z
Si Si1 0.124452 0.085131 0.717610
Si Si2 0.585468 0.667385 0.949405
Si Si3 0.461077 0.167097 0.223569
Si Si4 0.832153 0.829551 0.478774
Si Si5 0.298617 0.588583 0.827783
Si Si6 0.264039 0.936760 0.406665
Si Si7 0.853448 0.565795 0.135524
Si Si8 0.967436 0.330131 0.755783
O O1 0.132378 0.123661 0.587659
O O2 0.215356 0.088562 0.784371
O O3 0.050659 0.125807 0.788848
O O4 0.106109 0.003943 0.692977
O O5 0.606321 0.750000 0.950655
O O6 0.530688 0.653973 0.075384
O O7 0.537108 0.652437 0.820058
O O8 0.669060 0.619864 0.953558
O O9 0.442752 0.250000 0.236184
O O10 0.382351 0.122164 0.272309
O O11 0.820216 0.750000 0.518762
O O12 0.744441 0.861958 0.429824
O O13 0.900295 0.830553 0.367617
O O14 0.308848 0.510724 0.881103
O O15 0.227646 0.583039 0.720958
O O16 0.187013 0.948558 0.502713
O O17 0.919717 0.628740 0.145361
O O18 0.987645 0.250000 0.724601
#
# Coordination Sequence:
#
# PCOD9361102 Si02
#       8
#     8   8   8   8   8   8   8   8
#     4  11  23  39  60  89 124 160 203 261 312 369
#     4  10  23  42  65  95 129 166 211 257 314 377
#     4  10  21  41  66  93 126 165 210 259 309 374
#     4  10  21  38  59  88 123 158 204 257 311 370
#     4  10  20  39  65  88 118 160 204 248 307 371
#     4  11  23  40  64  92 125 162 205 257 311 378
#     4  10  21  41  61  87 121 162 206 251 310 369
#     4  10  23  40  60  87 119 162 213 258 308 368
#
# _framework density 19.597815000000001
#
# number of rings (size 3 to 8) (size 9 to 14) (size 15 to 20)
#    0.000    1.750    2.500    1.125    1.750    3.500 
#    0.000    2.500    0.000    0.000    0.000    0.000 
#    0.000    0.000    0.000    0.000    0.000    0.000 
#
# Total GULP energy -178591.806969 kJ/mol
# GULP energy per Si atom -5580.993968 kJ/mol
# Density = 1.955321 g / cm^3
# Si number density = 19.597815 Si / 1000 Ang^3
#
#
#
# Elastic Constant Matrix: (Units=GPa)
#
#
# Indices 1 2 3 4 5 6 
#
# 1 50.8238 43.4410 13.8462 0.0000 0.0000 0.0000
# 2 43.4410 91.1056 16.6345 0.0000 0.0000 0.0000
# 3 13.8462 16.6345 56.8053 0.0000 0.0000 0.0000
# 4 0.0000 0.0000 0.0000 25.0776 0.0000 0.0000
# 5 0.0000 0.0000 0.0000 0.0000 19.3994 0.0000
# 6 0.0000 0.0000 0.0000 0.0000 0.0000 36.2147
#
#
#
# Elastic Compliance Matrix: (Units=1/GPa)
#
#
# Indices 1 2 3 4 5 6 
#
# 1 0.033945 -0.015504 -0.003734 0.000000 0.000000 0.000000
# 2 -0.015504 0.018677 -0.001690 0.000000 0.000000 0.000000
# 3 -0.003734 -0.001690 0.019009 0.000000 0.000000 0.000000
# 4 0.000000 0.000000 0.000000 0.039876 0.000000 0.000000
# 5 0.000000 0.000000 0.000000 0.000000 0.051548 0.000000
# 6 0.000000 0.000000 0.000000 0.000000 0.000000 0.027613
#
#
# Mechanical properties :
#
#
# Convention : Reuss Voigt Hill
#
# Bulk Modulus (GPa) = 33.58506 38.50866 36.04686
# Shear Modulus (GPa) = 20.62283 24.45921 22.54102
#
# Velocity S-wave (km/s) = 3.24744 3.53662 3.39511
# Velocity P-wave (km/s) = 5.58887 6.03067 5.81397
#
# Compressibility (1/GPa) = 0.02977515
#
# Stress axis : x y z
#
# Youngs Moduli (GPa) = 29.45966 53.54054 52.60628
#
# Poissons Ratio (x) = 0.83008 0.19643
# Poissons Ratio (y) = 0.45674 0.08892
# Poissons Ratio (z) = 0.11000 0.09050
#
# Static dielectric constant tensor:
#      x y z
#    x 1.666470 0.000000 0.000000 
#    y 0.000000 1.668520 0.000000 
#    z 0.000000 0.000000 1.720840 
# 
# From -- ./inp_files/6634.got.cif
#   From: 2010.05.17/outbox.cif.g08.bks.cpg/sg39_4_cif.got.tgz:6634.got - 2010.06.03 18:22:40.
