data_PCOD9361805
_publ_section_title
;
Structure prediction by ZEFSAII (Michael W. Deem and Ramdas Pophale) SiO2 
 PCOD9361805
Probable space group: A B M 2
;
_chemical_formula_sum "Si O2"
_cell_formula_units_Z 44
_cell_length_a 17.219524
_cell_length_b 14.617249
_cell_length_c 7.361911
_cell_angle_alpha 90.000000
_cell_angle_beta 90.000000
_cell_angle_gamma 90.000000
_cell_volume 1853.008238
_symmetry_space_group_name_H-M "A B M 2"
_symmetry_group_IT_number 39
_symmetry_cell_setting 'orthorhombic'
loop_
_space_group_symop_operation_xyz
x,y,z
-x,-y,z
-x,1/2+y,z
x,1/2-y,z
x,1/2+y,1/2+z
-x,1/2-y,1/2+z
-x,y,1/2+z
x,-y,1/2+z
loop_
_atom_site_type_symbol
_atom_site_label
_atom_site_fract_x
_atom_site_fract_y
_atom_site_fract_z
Si Si1 0.438254 0.750000 0.698470
Si Si2 0.662258 0.853604 0.746501
Si Si3 0.200648 0.888775 0.970291
Si Si4 0.778048 0.597305 0.044392
Si Si5 0.534675 0.900496 0.488626
Si Si6 0.105754 0.250000 0.985995
Si Si7 0.073526 0.250000 0.411589
O O1 0.468423 0.830907 0.556634
O O2 0.420785 0.665919 0.846063
O O3 0.633126 0.750000 0.766544
O O4 0.733606 0.852731 0.604691
O O5 0.698241 0.887762 0.935859
O O6 0.595149 0.912657 0.655345
O O7 0.226230 0.880069 0.758424
O O8 0.118971 0.836719 0.993752
O O9 0.194124 0.994701 0.018445
O O10 0.840960 0.662780 0.948818
O O11 0.500000 0.000000 0.441137
O O12 0.018859 0.250000 0.914780
O O13 0.094473 0.250000 0.201430
#
# Coordination Sequence:
#
# PCOD9361805 Si02
#       7
#     4   8   8   8   8   4   4
#     4  10  22  46  68  98 136 178 232 276 364 462
#     4  12  24  47  75  97 141 189 235 296 364 425
#     4  11  24  44  67 103 138 181 242 290 348 431
#     4  11  24  44  67 103 138 181 242 290 348 431
#     4  11  25  48  69 103 141 184 233 301 375 442
#     4  10  24  40  66  99 138 188 232 291 359 413
#     4  10  24  40  66  99 138 188 232 291 359 413
#
# _framework density 23.745172
#
# number of rings (size 3 to 8) (size 9 to 14) (size 15 to 20)
#    0.000    1.091    5.455    0.545    2.545    3.636 
#    6.545    3.636    0.000    0.000    0.000    0.000 
#    0.000    0.000    0.000    0.000    0.000    0.000 
#
# Total GULP energy -122593.296686 kJ/mol
# GULP energy per Si atom -5572.422577 kJ/mol
# Density = 2.369113 g / cm^3
# Si number density = 23.745172 Si / 1000 Ang^3
#
#
#
# Elastic Constant Matrix: (Units=GPa)
#
#
# Indices 1 2 3 4 5 6 
#
# 1 126.5406 50.7664 32.5735 0.0000 0.0000 0.0000
# 2 50.7664 139.7941 9.0423 0.0000 0.0000 0.0000
# 3 32.5735 9.0423 85.9486 0.0000 0.0000 0.0000
# 4 0.0000 0.0000 0.0000 8.5120 0.0000 0.0000
# 5 0.0000 0.0000 0.0000 0.0000 35.8570 0.0000
# 6 0.0000 0.0000 0.0000 0.0000 0.0000 17.3201
#
#
#
# Elastic Compliance Matrix: (Units=1/GPa)
#
#
# Indices 1 2 3 4 5 6 
#
# 1 0.010198 -0.003477 -0.003499 0.000000 0.000000 0.000000
# 2 -0.003477 0.008388 0.000435 0.000000 0.000000 0.000000
# 3 -0.003499 0.000435 0.012915 0.000000 0.000000 0.000000
# 4 0.000000 0.000000 0.000000 0.117481 0.000000 0.000000
# 5 0.000000 0.000000 0.000000 0.000000 0.027889 0.000000
# 6 0.000000 0.000000 0.000000 0.000000 0.000000 0.057737
#
#
# Mechanical properties :
#
#
# Convention : Reuss Voigt Hill
#
# Bulk Modulus (GPa) = 54.29062 59.67196 56.98129
# Shear Modulus (GPa) = 19.69828 29.66456 24.68142
#
# Velocity S-wave (km/s) = 2.88335 3.53836 3.22752
# Velocity P-wave (km/s) = 5.83082 6.47132 6.15940
#
# Compressibility (1/GPa) = 0.01841939
#
# Stress axis : x y z
#
# Youngs Moduli (GPa) = 98.05491 119.21834 77.42801
#
# Poissons Ratio (x) = 0.41455 0.27094
# Poissons Ratio (y) = 0.34096 -0.03371
# Poissons Ratio (z) = 0.34312 -0.05190
#
# Static dielectric constant tensor:
#      x y z
#    x 1.944590 0.000000 0.000000 
#    y 0.000000 1.888860 0.000000 
#    z 0.000000 0.000000 2.012300 
# 
# From -- ./inp_files/3703.got.cif
#   From: 2010.05.17/outbox.cif.g08.bks.cpg/sg39_2_cif.got.tgz:3703.got - 2010.06.03 18:22:40.
