data_PCOD9361878
_publ_section_title
;
Structure prediction by ZEFSAII (Michael W. Deem and Ramdas Pophale) SiO2 
 PCOD9361878
Probable space group: A B M 2
;
_chemical_formula_sum "Si O2"
_cell_formula_units_Z 64
_cell_length_a 20.547661
_cell_length_b 15.407243
_cell_length_c 9.908514
_cell_angle_alpha 90.000000
_cell_angle_beta 90.000000
_cell_angle_gamma 90.000000
_cell_volume 3136.865166
_symmetry_space_group_name_H-M "A B M 2"
_symmetry_group_IT_number 39
_symmetry_cell_setting 'orthorhombic'
loop_
_space_group_symop_operation_xyz
x,y,z
-x,-y,z
-x,1/2+y,z
x,1/2-y,z
x,1/2+y,1/2+z
-x,1/2-y,1/2+z
-x,y,1/2+z
x,-y,1/2+z
loop_
_atom_site_type_symbol
_atom_site_label
_atom_site_fract_x
_atom_site_fract_y
_atom_site_fract_z
Si Si1 0.151009 0.346531 0.410240
Si Si2 0.070385 0.607493 0.668825
Si Si3 0.567274 0.648589 0.034711
Si Si4 0.660959 0.508331 0.592641
Si Si5 0.437852 0.351678 0.714423
Si Si6 0.252011 0.504945 0.844166
Si Si7 0.840792 0.152216 0.421450
Si Si8 0.076689 0.601557 0.170140
O O1 0.177754 0.250000 0.399608
O O2 0.088221 0.356978 0.315334
O O3 0.201335 0.417632 0.359923
O O4 0.128044 0.366408 0.560641
O O5 0.124376 0.640742 0.565099
O O6 0.075365 0.502994 0.670739
O O7 0.996249 0.631356 0.635397
O O8 0.586877 0.750000 0.045579
O O9 0.621351 0.581558 0.085561
O O10 0.503717 0.636377 0.128067
O O11 0.553285 0.631367 0.875157
O O12 0.615162 0.583887 0.651312
O O13 0.722232 0.502841 0.692854
O O14 0.687656 0.524209 0.442763
O O15 0.418826 0.250000 0.701281
O O16 0.215328 0.417818 0.892864
O O17 0.816092 0.250000 0.406531
O O18 0.897965 0.133920 0.313580
#
# Coordination Sequence:
#
# PCOD9361878 Si02
#       8
#     8   8   8   8   8   8   8   8
#     4  12  25  43  65  91 128 167 216 276 328 385
#     4  11  22  41  68  95 127 163 207 273 344 404
#     4  10  23  44  71 105 140 171 211 265 323 379
#     4  12  25  42  70  94 133 180 222 266 310 382
#     4  10  23  44  71 105 140 171 211 265 323 379
#     4  12  26  44  62  92 132 174 228 268 314 374
#     4  12  25  43  67  91 126 173 218 270 332 395
#     4  11  22  41  68  95 127 163 207 273 344 404
#
# _framework density 20.402535
#
# number of rings (size 3 to 8) (size 9 to 14) (size 15 to 20)
#    0.000    0.750    3.750    3.375    1.750    8.000 
#    0.000    0.000    0.000    0.000    0.000    0.000 
#    0.000    0.000    0.000    0.000    0.000    0.000 
#
# Total GULP energy -179013.427825 kJ/mol
# GULP energy per Si atom -5594.169620 kJ/mol
# Density = 2.035610 g / cm^3
# Si number density = 20.402535 Si / 1000 Ang^3
#
#
#
# Elastic Constant Matrix: (Units=GPa)
#
#
# Indices 1 2 3 4 5 6 
#
# 1 57.1142 36.9499 0.0357 0.0000 0.0000 0.0000
# 2 36.9499 107.0733 11.8274 0.0000 0.0000 0.0000
# 3 0.0357 11.8274 59.4133 0.0000 0.0000 0.0000
# 4 0.0000 0.0000 0.0000 42.3755 0.0000 0.0000
# 5 0.0000 0.0000 0.0000 0.0000 26.0704 0.0000
# 6 0.0000 0.0000 0.0000 0.0000 0.0000 -18.7271
#
#
#
# Elastic Compliance Matrix: (Units=1/GPa)
#
#
# Indices 1 2 3 4 5 6 
#
# 1 0.022685 -0.008003 0.001580 0.000000 0.000000 0.000000
# 2 -0.008003 0.012373 -0.002458 0.000000 0.000000 0.000000
# 3 0.001580 -0.002458 0.017320 0.000000 0.000000 0.000000
# 4 0.000000 0.000000 0.000000 0.023599 0.000000 0.000000
# 5 0.000000 0.000000 0.000000 0.000000 0.038358 0.000000
# 6 0.000000 0.000000 0.000000 0.000000 0.000000 -0.053398
#
#
# Mechanical properties :
#
#
# Convention : Reuss Voigt Hill
#
# Bulk Modulus (GPa) = 28.88977 35.69186 32.29082
# Shear Modulus (GPa) = 55.40975 21.59626 38.50300
#
# Velocity S-wave (km/s) = 5.21701 3.25700 4.34887
# Velocity P-wave (km/s) = 7.10495 5.62813 6.40922
#
# Compressibility (1/GPa) = 0.03461432
#
# Stress axis : x y z
#
# Youngs Moduli (GPa) = 44.08144 80.82333 57.73786
#
# Poissons Ratio (x) = 0.64682 -0.09120
# Poissons Ratio (y) = 0.35278 0.14193
# Poissons Ratio (z) = -0.06963 0.19868
#
# Static dielectric constant tensor:
#      x y z
#    x 1.706620 0.000000 0.000000 
#    y 0.000000 1.713600 0.000000 
#    z 0.000000 0.000000 1.688170 
# 
# From -- ./inp_files/4100.got.cif
#   From: 2010.05.17/outbox.cif.g08.bks.cpg/sg39_3_cif.got.tgz:4100.got - 2010.06.03 18:22:40.
