data_PCOD9361561
_publ_section_title
;
Structure prediction by ZEFSAII (Michael W. Deem and Ramdas Pophale) SiO2 
 PCOD9361561
Probable space group: A B M 2
;
_chemical_formula_sum "Si O2"
_cell_formula_units_Z 64
_cell_length_a 5.310090
_cell_length_b 17.466954
_cell_length_c 32.881994
_cell_angle_alpha 90.000000
_cell_angle_beta 90.000000
_cell_angle_gamma 90.000000
_cell_volume 3049.841040
_symmetry_space_group_name_H-M "A B M 2"
_symmetry_group_IT_number 39
_symmetry_cell_setting 'orthorhombic'
loop_
_space_group_symop_operation_xyz
x,y,z
-x,-y,z
-x,1/2+y,z
x,1/2-y,z
x,1/2+y,1/2+z
-x,1/2-y,1/2+z
-x,y,1/2+z
x,-y,1/2+z
loop_
_atom_site_type_symbol
_atom_site_label
_atom_site_fract_x
_atom_site_fract_y
_atom_site_fract_z
Si Si1 0.248358 0.449360 0.621960
Si Si2 0.917916 0.165891 0.056410
Si Si3 0.930708 0.336512 0.914890
Si Si4 0.571819 0.158374 0.287977
Si Si5 0.838474 0.574629 0.991806
Si Si6 0.748830 0.948352 0.716372
Si Si7 0.545097 0.330762 0.980494
Si Si8 0.059132 0.590291 0.828566
O O1 0.500000 0.500000 0.616571
O O2 0.228002 0.378658 0.591426
O O3 0.230854 0.424454 0.669208
O O4 0.000000 0.500000 0.614235
O O5 0.001660 0.250000 0.069902
O O6 0.745640 0.174306 0.016590
O O7 0.133910 0.114810 0.035965
O O8 0.018887 0.250000 0.904693
O O9 0.660568 0.328053 0.936019
O O10 0.906190 0.389827 0.875952
O O11 0.084656 0.374231 0.952173
O O12 0.533779 0.250000 0.285727
O O13 0.680920 0.121671 0.246097
O O14 0.309614 0.118581 0.303715
O O15 0.805997 0.136776 0.317022
O O16 0.544942 0.582404 0.985818
O O17 0.000000 0.500000 0.991361
O O18 0.500000 0.000000 0.719622
O O19 0.000000 0.000000 0.726051
O O20 0.393138 0.250000 0.985792
O O21 0.000000 0.500000 0.822395
#
# Coordination Sequence:
#
# PCOD9361561 Si02
#       8
#     8   8   8   8   8   8   8   8
#     4  10  23  41  65  96 129 167 212 263 319 385
#     4  10  22  37  57  87 124 166 215 266 320 380
#     4  10  22  40  60  87 123 164 212 266 323 381
#     4  12  25  43  70 102 136 173 221 274 331 397
#     4  11  22  36  58  86 120 166 215 267 319 386
#     4  10  21  42  69  96 131 171 212 261 326 395
#     4   9  20  38  59  83 119 166 212 267 327 381
#     4  12  26  45  68 100 135 178 222 274 332 397
#
# _framework density 20.9847
#
# number of rings (size 3 to 8) (size 9 to 14) (size 15 to 20)
#    0.000    1.500    0.000    6.000    5.250    2.000 
#    2.250    0.000    0.000    4.500    0.000    0.000 
#    0.000    0.000    0.000    0.000    0.000    0.000 
#
# Total GULP energy -178174.350996 kJ/mol
# GULP energy per Si atom -5567.948469 kJ/mol
# Density = 2.093694 g / cm^3
# Si number density = 20.984700 Si / 1000 Ang^3
#
#
#
# Elastic Constant Matrix: (Units=GPa)
#
#
# Indices 1 2 3 4 5 6 
#
# 1 97.9158 39.0992 23.5323 0.0000 0.0000 0.0000
# 2 39.0992 122.0557 60.6016 0.0000 0.0000 0.0000
# 3 23.5323 60.6016 127.8649 0.0000 0.0000 0.0000
# 4 0.0000 0.0000 0.0000 -83.4328 0.0000 0.0000
# 5 0.0000 0.0000 0.0000 0.0000 13.2519 0.0000
# 6 0.0000 0.0000 0.0000 0.0000 0.0000 24.6100
#
#
#
# Elastic Compliance Matrix: (Units=1/GPa)
#
#
# Indices 1 2 3 4 5 6 
#
# 1 0.011735 -0.003514 -0.000494 0.000000 0.000000 0.000000
# 2 -0.003514 0.011766 -0.004930 0.000000 0.000000 0.000000
# 3 -0.000494 -0.004930 0.010248 0.000000 0.000000 0.000000
# 4 0.000000 0.000000 0.000000 -0.011986 0.000000 0.000000
# 5 0.000000 0.000000 0.000000 0.000000 0.075461 0.000000
# 6 0.000000 0.000000 0.000000 0.000000 0.000000 0.040634
#
#
# Mechanical properties :
#
#
# Convention : Reuss Voigt Hill
#
# Bulk Modulus (GPa) = 62.99873 66.03364 64.51619
# Shear Modulus (GPa) = 31.05097 5.85937 18.45517
#
# Velocity S-wave (km/s) = 3.85085 1.67280 2.96878
# Velocity P-wave (km/s) = 7.06106 5.93859 6.52401
#
# Compressibility (1/GPa) = 0.01587334
#
# Stress axis : x y z
#
# Youngs Moduli (GPa) = 85.21723 84.98840 97.57705
#
# Poissons Ratio (x) = 0.29862 0.04824
# Poissons Ratio (y) = 0.29942 0.48105
# Poissons Ratio (z) = 0.04213 0.41899
#
# Static dielectric constant tensor:
#      x y z
#    x 1.923530 0.000000 0.000000 
#    y 0.000000 2.111780 0.000000 
#    z 0.000000 0.000000 1.747620 
# 
# From -- ./inp_files/17365.got.cif
#   From: 2010.05.17/outbox.cif.g08.bks.cpg/sg39_9_cif.got.tgz:17365.got - 2010.06.03 18:22:40.
