data_PCOD9361291
_publ_section_title
;
Structure prediction by ZEFSAII (Michael W. Deem and Ramdas Pophale) SiO2 
 PCOD9361291
Probable space group: A B M 2
;
_chemical_formula_sum "Si O2"
_cell_formula_units_Z 64
_cell_length_a 12.095101
_cell_length_b 18.395310
_cell_length_c 14.944955
_cell_angle_alpha 90.000000
_cell_angle_beta 90.000000
_cell_angle_gamma 90.000000
_cell_volume 3325.149851
_symmetry_space_group_name_H-M "A B M 2"
_symmetry_group_IT_number 39
_symmetry_cell_setting 'orthorhombic'
loop_
_space_group_symop_operation_xyz
x,y,z
-x,-y,z
-x,1/2+y,z
x,1/2-y,z
x,1/2+y,1/2+z
-x,1/2-y,1/2+z
-x,y,1/2+z
x,-y,1/2+z
loop_
_atom_site_type_symbol
_atom_site_label
_atom_site_fract_x
_atom_site_fract_y
_atom_site_fract_z
Si Si1 0.958218 0.917486 0.764780
Si Si2 0.079665 0.431543 0.563539
Si Si3 0.283297 0.550542 0.320356
Si Si4 0.367893 0.668203 0.949124
Si Si5 0.471637 0.832813 0.281190
Si Si6 0.322982 0.017515 0.515198
Si Si7 0.886767 0.665256 0.396256
Si Si8 0.397122 0.949048 0.690540
O O1 0.936608 0.897588 0.661439
O O2 0.841362 0.919772 0.816550
O O3 0.052062 0.870350 0.812355
O O4 0.000000 0.000000 0.764604
O O5 0.202153 0.463149 0.551974
O O6 0.066031 0.374403 0.484069
O O7 0.000000 0.500000 0.552165
O O8 0.364903 0.615744 0.291033
O O9 0.315506 0.518545 0.417407
O O10 0.298952 0.483292 0.250563
O O11 0.365417 0.750000 0.990078
O O12 0.463475 0.666912 0.875517
O O13 0.246923 0.657273 0.902414
O O14 0.381569 0.596653 0.009785
O O15 0.444032 0.750000 0.257373
O O16 0.560665 0.869290 0.214230
O O17 0.375073 0.963929 0.587264
O O18 0.910672 0.750000 0.398137
O O19 0.500000 0.000000 0.718416
#
# Coordination Sequence:
#
# PCOD9361291 Si02
#       8
#     8   8   8   8   8   8   8   8
#     4  11  22  38  62  89 121 155 202 255 309 357
#     4  10  21  37  59  88 117 153 204 256 298 361
#     4  11  22  39  60  91 120 162 205 256 308 369
#     4   9  19  36  60  88 117 158 207 254 306 360
#     4  10  22  41  61  87 126 162 201 253 308 366
#     4  11  20  35  62  87 120 158 206 253 307 368
#     4  10  21  37  58  87 122 161 201 246 306 370
#     4  10  22  36  58  89 120 158 208 248 303 361
#
# _framework density 19.247253000000001
#
# number of rings (size 3 to 8) (size 9 to 14) (size 15 to 20)
#    0.000    1.750    2.500    2.625    1.750    1.000 
#    0.000    3.125    0.000    2.250    0.000    0.000 
#    0.000    0.000    0.000    0.000    0.000    0.000 
#
# Total GULP energy -178592.149357 kJ/mol
# GULP energy per Si atom -5581.004667 kJ/mol
# Density = 1.920345 g / cm^3
# Si number density = 19.247253 Si / 1000 Ang^3
#
#
#
# Elastic Constant Matrix: (Units=GPa)
#
#
# Indices 1 2 3 4 5 6 
#
# 1 50.2700 18.7696 10.5090 0.0000 0.0000 0.0000
# 2 18.7696 90.4795 41.9276 0.0000 0.0000 0.0000
# 3 10.5090 41.9276 77.7178 0.0000 0.0000 0.0000
# 4 0.0000 0.0000 0.0000 3.1929 0.0000 0.0000
# 5 0.0000 0.0000 0.0000 0.0000 21.7388 0.0000
# 6 0.0000 0.0000 0.0000 0.0000 0.0000 23.7449
#
#
#
# Elastic Compliance Matrix: (Units=1/GPa)
#
#
# Indices 1 2 3 4 5 6 
#
# 1 0.021589 -0.004168 -0.000671 0.000000 0.000000 0.000000
# 2 -0.004168 0.015541 -0.007820 0.000000 0.000000 0.000000
# 3 -0.000671 -0.007820 0.017177 0.000000 0.000000 0.000000
# 4 0.000000 0.000000 0.000000 0.313195 0.000000 0.000000
# 5 0.000000 0.000000 0.000000 0.000000 0.046001 0.000000
# 6 0.000000 0.000000 0.000000 0.000000 0.000000 0.042114
#
#
# Mechanical properties :
#
#
# Convention : Reuss Voigt Hill
#
# Bulk Modulus (GPa) = 34.49643 40.09776 37.29709
# Shear Modulus (GPa) = 10.19165 19.55272 14.87219
#
# Velocity S-wave (km/s) = 2.30361 3.19073 2.78275
# Velocity P-wave (km/s) = 5.00372 5.86963 5.45389
#
# Compressibility (1/GPa) = 0.02898851
#
# Stress axis : x y z
#
# Youngs Moduli (GPa) = 46.32002 64.34706 58.21809
#
# Poissons Ratio (x) = 0.26818 0.03906
# Poissons Ratio (y) = 0.19305 0.45529
# Poissons Ratio (z) = 0.03107 0.50322
#
# Static dielectric constant tensor:
#      x y z
#    x 1.739960 0.000000 0.000000 
#    y 0.000000 1.670630 0.000000 
#    z 0.000000 0.000000 1.690540 
# 
# From -- ./inp_files/9432.got.cif
#   From: 2010.05.17/outbox.cif.g08.bks.cpg/sg39_5_cif.got.tgz:9432.got - 2010.06.03 18:22:40.
