data_PCOD9361463
_publ_section_title
;
Structure prediction by ZEFSAII (Michael W. Deem and Ramdas Pophale) SiO2 
 PCOD9361463
Probable space group: A B M 2
;
_chemical_formula_sum "Si O2"
_cell_formula_units_Z 48
_cell_length_a 14.552681
_cell_length_b 8.687994
_cell_length_c 20.922366
_cell_angle_alpha 90.000000
_cell_angle_beta 90.000000
_cell_angle_gamma 90.000000
_cell_volume 2645.290163
_symmetry_space_group_name_H-M "A B M 2"
_symmetry_group_IT_number 39
_symmetry_cell_setting 'orthorhombic'
loop_
_space_group_symop_operation_xyz
x,y,z
-x,-y,z
-x,1/2+y,z
x,1/2-y,z
x,1/2+y,1/2+z
-x,1/2-y,1/2+z
-x,y,1/2+z
x,-y,1/2+z
loop_
_atom_site_type_symbol
_atom_site_label
_atom_site_fract_x
_atom_site_fract_y
_atom_site_fract_z
Si Si1 0.901957 0.064857 0.295170
Si Si2 0.603231 0.065306 0.968692
Si Si3 0.707662 0.435226 0.345908
Si Si4 0.902123 0.434853 0.146409
Si Si5 0.397540 0.566172 0.722967
Si Si6 0.705846 0.063926 0.099950
O O1 0.906078 0.250000 0.295562
O O2 0.814226 0.017488 0.336801
O O3 0.887599 0.016722 0.220770
O O4 0.000000 0.000000 0.316365
O O5 0.598630 0.250000 0.964817
O O6 0.500000 0.000000 0.969410
O O7 0.659079 0.001580 0.908333
O O8 0.657061 0.023043 0.033650
O O9 0.703398 0.250000 0.346999
O O10 0.654777 0.495817 0.283633
O O11 0.907536 0.250000 0.145981
O O12 0.813137 0.480451 0.105608
O O13 0.000000 0.500000 0.124924
O O14 0.500000 0.500000 0.721893
O O15 0.399390 0.750000 0.727514
O O16 0.346554 0.513197 0.658767
O O17 0.700657 0.250000 0.107486
#
# Coordination Sequence:
#
# PCOD9361463 Si02
#       6
#     8   8   8   8   8   8
#     4   9  18  33  57  85 116 150 187 234 287 342
#     4  11  24  41  61  84 115 157 198 241 292 350
#     4  11  22  40  61  84 117 154 194 241 291 343
#     4   9  17  33  56  85 117 150 188 233 287 341
#     4  12  24  37  58  86 115 147 192 243 292 346
#     4  10  21  40  61  84 118 154 193 240 291 342
#
# _framework density 18.145458000000001
#
# number of rings (size 3 to 8) (size 9 to 14) (size 15 to 20)
#    0.000    1.667    1.667    3.500    0.000    4.667 
#    0.000    0.833    0.000    4.000    0.000    0.000 
#    0.000    0.000    0.000    0.000    0.000    0.000 
#
# Total GULP energy -134067.684025 kJ/mol
# GULP energy per Si atom -5586.153501 kJ/mol
# Density = 1.810416 g / cm^3
# Si number density = 18.145458 Si / 1000 Ang^3
#
#
#
# Elastic Constant Matrix: (Units=GPa)
#
#
# Indices 1 2 3 4 5 6 
#
# 1 219.0078 54.2931 103.3812 0.0000 0.0000 0.0000
# 2 54.2931 44.6207 53.7923 0.0000 0.0000 0.0000
# 3 103.3812 53.7923 146.1825 0.0000 0.0000 0.0000
# 4 0.0000 0.0000 0.0000 23.5273 0.0000 0.0000
# 5 0.0000 0.0000 0.0000 0.0000 27.2963 0.0000
# 6 0.0000 0.0000 0.0000 0.0000 0.0000 33.2736
#
#
#
# Elastic Compliance Matrix: (Units=1/GPa)
#
#
# Indices 1 2 3 4 5 6 
#
# 1 0.007393 -0.004840 -0.003448 0.000000 0.000000 0.000000
# 2 -0.004840 0.043448 -0.012565 0.000000 0.000000 0.000000
# 3 -0.003448 -0.012565 0.013903 0.000000 0.000000 0.000000
# 4 0.000000 0.000000 0.000000 0.042504 0.000000 0.000000
# 5 0.000000 0.000000 0.000000 0.000000 0.036635 0.000000
# 6 0.000000 0.000000 0.000000 0.000000 0.000000 0.030054
#
#
# Mechanical properties :
#
#
# Convention : Reuss Voigt Hill
#
# Bulk Modulus (GPa) = 43.40523 92.52713 67.96618
# Shear Modulus (GPa) = 22.38924 30.04242 26.21583
#
# Velocity S-wave (km/s) = 3.51647 4.07337 3.80512
# Velocity P-wave (km/s) = 6.36082 8.55721 7.53942
#
# Compressibility (1/GPa) = 0.02303870
#
# Stress axis : x y z
#
# Youngs Moduli (GPa) = 135.25847 23.01603 71.92772
#
# Poissons Ratio (x) = 0.11139 0.24799
# Poissons Ratio (y) = 0.65459 0.90381
# Poissons Ratio (z) = 0.46633 0.28921
#
# Static dielectric constant tensor:
#      x y z
#    x 1.613500 0.000000 0.000000 
#    y 0.000000 1.616900 0.000000 
#    z 0.000000 0.000000 1.594080 
# 
# From -- ./inp_files/12634.got.cif
#   From: 2010.05.17/outbox.cif.g08.bks.cpg/sg39_7_cif.got.tgz:12634.got - 2010.06.03 18:22:40.
