data_PCOD9361662
_publ_section_title
;
Structure prediction by ZEFSAII (Michael W. Deem and Ramdas Pophale) SiO2 
 PCOD9361662
Probable space group: A B M 2
;
_chemical_formula_sum "Si O2"
_cell_formula_units_Z 56
_cell_length_a 21.977711
_cell_length_b 13.541065
_cell_length_c 8.238648
_cell_angle_alpha 90.000000
_cell_angle_beta 90.000000
_cell_angle_gamma 90.000000
_cell_volume 2451.834935
_symmetry_space_group_name_H-M "A B M 2"
_symmetry_group_IT_number 39
_symmetry_cell_setting 'orthorhombic'
loop_
_space_group_symop_operation_xyz
x,y,z
-x,-y,z
-x,1/2+y,z
x,1/2-y,z
x,1/2+y,1/2+z
-x,1/2-y,1/2+z
-x,y,1/2+z
x,-y,1/2+z
loop_
_atom_site_type_symbol
_atom_site_label
_atom_site_fract_x
_atom_site_fract_y
_atom_site_fract_z
Si Si1 0.080611 0.358007 0.532590
Si Si2 0.778102 0.368492 0.674268
Si Si3 0.359186 0.131561 0.289190
Si Si4 0.575309 0.630383 0.610450
Si Si5 0.837915 0.992938 0.937302
Si Si6 0.560020 0.130457 0.482598
Si Si7 0.042523 0.138185 0.895116
O O1 0.096317 0.250000 0.468727
O O2 0.141552 0.418931 0.557085
O O3 0.049015 0.352314 0.704386
O O4 0.025932 0.399426 0.423898
O O5 0.790928 0.250000 0.670993
O O6 0.711095 0.383521 0.746320
O O7 0.821947 0.437526 0.784170
O O8 0.785574 0.419785 0.497958
O O9 0.369514 0.250000 0.293058
O O10 0.377399 0.097409 0.470388
O O11 0.399310 0.096312 0.135388
O O12 0.580301 0.750000 0.620999
O O13 0.509572 0.608690 0.530766
O O14 0.576966 0.596931 0.799398
O O15 0.899058 0.926049 0.941973
O O16 0.564894 0.250000 0.478260
O O17 0.046619 0.250000 0.966375
#
# Coordination Sequence:
#
# PCOD9361662 Si02
#       7
#     8   8   8   8   8   8   8
#     4  10  22  39  63  98 133 167 216 278 344 409
#     4  11  26  46  68  97 135 183 237 289 339 406
#     4   9  18  34  52  83 131 171 220 287 344 408
#     4   9  14  23  46  82 124 167 212 273 347 418
#     4  12  23  44  68  92 129 186 228 280 342 400
#     4   9  14  23  46  82 124 167 212 273 347 418
#     4  10  22  39  63  98 133 167 216 278 344 409
#
# _framework density 22.840038
#
# number of rings (size 3 to 8) (size 9 to 14) (size 15 to 20)
#    0.000    2.000    2.857    1.286    2.000    1.143 
#    2.571    0.000    0.000    0.000    0.000    3.000 
#    0.000    0.000    0.000    0.000    0.000    3.714 
#
# Total GULP energy -156056.119928 kJ/mol
# GULP energy per Si atom -5573.432855 kJ/mol
# Density = 2.278805 g / cm^3
# Si number density = 22.840038 Si / 1000 Ang^3
#
#
#
# Elastic Constant Matrix: (Units=GPa)
#
#
# Indices 1 2 3 4 5 6 
#
# 1 35.2086 13.1650 -3.7538 0.0000 0.0000 0.0000
# 2 13.1650 95.6403 15.0192 0.0000 0.0000 0.0000
# 3 -3.7538 15.0192 70.1666 0.0000 0.0000 0.0000
# 4 0.0000 0.0000 0.0000 30.5737 0.0000 0.0000
# 5 0.0000 0.0000 0.0000 0.0000 35.4286 0.0000
# 6 0.0000 0.0000 0.0000 0.0000 0.0000 -34.6167
#
#
#
# Elastic Compliance Matrix: (Units=1/GPa)
#
#
# Indices 1 2 3 4 5 6 
#
# 1 0.030398 -0.004594 0.002610 0.000000 0.000000 0.000000
# 2 -0.004594 0.011514 -0.002710 0.000000 0.000000 0.000000
# 3 0.002610 -0.002710 0.014972 0.000000 0.000000 0.000000
# 4 0.000000 0.000000 0.000000 0.032708 0.000000 0.000000
# 5 0.000000 0.000000 0.000000 0.000000 0.028226 0.000000
# 6 0.000000 0.000000 0.000000 0.000000 0.000000 -0.028888
#
#
# Mechanical properties :
#
#
# Convention : Reuss Voigt Hill
#
# Bulk Modulus (GPa) = 21.05533 27.76402 24.40968
# Shear Modulus (GPa) = 43.80186 18.04947 30.92566
#
# Velocity S-wave (km/s) = 4.38398 2.81420 3.68368
# Velocity P-wave (km/s) = 5.90460 4.76884 5.36685
#
# Compressibility (1/GPa) = 0.04749391
#
# Stress axis : x y z
#
# Youngs Moduli (GPa) = 32.89671 86.85182 66.79329
#
# Poissons Ratio (x) = 0.39901 -0.17431
# Poissons Ratio (y) = 0.15113 0.18103
# Poissons Ratio (z) = -0.08585 0.23540
#
# Static dielectric constant tensor:
#      x y z
#    x 1.849090 0.000000 0.000000 
#    y 0.000000 1.955020 0.000000 
#    z 0.000000 0.000000 1.913430 
# 
# From -- ./inp_files/3970.got.cif
#   From: 2010.05.17/outbox.cif.g08.bks.cpg/sg39_2_cif.got.tgz:3970.got - 2010.06.03 18:22:40.
