data_PCOD9361335
_publ_section_title
;
Structure prediction by ZEFSAII (Michael W. Deem and Ramdas Pophale) SiO2 
 PCOD9361335
Probable space group: A B M 2
;
_chemical_formula_sum "Si O2"
_cell_formula_units_Z 40
_cell_length_a 9.326165
_cell_length_b 8.724310
_cell_length_c 26.047709
_cell_angle_alpha 90.000000
_cell_angle_beta 90.000000
_cell_angle_gamma 90.000000
_cell_volume 2119.355031
_symmetry_space_group_name_H-M "A B M 2"
_symmetry_group_IT_number 39
_symmetry_cell_setting 'orthorhombic'
loop_
_space_group_symop_operation_xyz
x,y,z
-x,-y,z
-x,1/2+y,z
x,1/2-y,z
x,1/2+y,1/2+z
-x,1/2-y,1/2+z
-x,y,1/2+z
x,-y,1/2+z
loop_
_atom_site_type_symbol
_atom_site_label
_atom_site_fract_x
_atom_site_fract_y
_atom_site_fract_z
Si Si1 0.342289 0.066005 0.349560
Si Si2 0.841087 0.433949 0.053472
Si Si3 0.840737 0.566555 0.249384
Si Si4 0.340711 0.933469 0.460431
Si Si5 0.340492 0.066543 0.655224
O O1 0.352122 0.250000 0.354889
O O2 0.234174 0.028730 0.303660
O O3 0.500000 0.000000 0.337252
O O4 0.298394 0.993571 0.403954
O O5 0.846753 0.250000 0.048629
O O6 0.745796 0.472359 0.103347
O O7 0.000000 0.500000 0.059755
O O8 0.766021 0.505063 0.003565
O O9 0.845944 0.750000 0.244678
O O10 0.744726 0.499751 0.203672
O O11 0.000000 0.500000 0.246718
O O12 0.346355 0.750000 0.460718
O O13 0.500000 0.000000 0.470511
O O14 0.347511 0.250000 0.659419
O O15 0.500000 0.000000 0.653262
#
# Coordination Sequence:
#
# PCOD9361335 Si02
#       5
#     8   8   8   8   8
#     4  10  21  38  60  87 118 155 199 246 294 349
#     4  11  24  41  61  88 121 157 196 242 295 352
#     4  11  24  40  61  88 121 158 197 243 296 351
#     4  11  22  38  62  89 119 157 199 246 294 347
#     4  11  24  41  64  90 119 155 197 243 292 349
#
# _framework density 18.873667000000001
#
# number of rings (size 3 to 8) (size 9 to 14) (size 15 to 20)
#    0.000    1.200    0.000    7.200    0.000   12.000 
#    0.000    2.000    0.000    0.000    0.000    0.000 
#    0.000    0.000    0.000    0.000    0.000    0.000 
#
# Total GULP energy -111903.329666 kJ/mol
# GULP energy per Si atom -5595.166483 kJ/mol
# Density = 1.883071 g / cm^3
# Si number density = 18.873667 Si / 1000 Ang^3
#
#
#
# Elastic Constant Matrix: (Units=GPa)
#
#
# Indices 1 2 3 4 5 6 
#
# 1 188.1399 83.3755 139.6623 0.0000 0.0000 0.0000
# 2 83.3755 101.4985 86.9754 0.0000 0.0000 0.0000
# 3 139.6623 86.9754 163.2616 0.0000 0.0000 0.0000
# 4 0.0000 0.0000 0.0000 28.8355 0.0000 0.0000
# 5 0.0000 0.0000 0.0000 0.0000 -25.9359 0.0000
# 6 0.0000 0.0000 0.0000 0.0000 0.0000 39.2287
#
#
#
# Elastic Compliance Matrix: (Units=1/GPa)
#
#
# Indices 1 2 3 4 5 6 
#
# 1 0.014880 -0.002420 -0.011439 0.000000 0.000000 0.000000
# 2 -0.002420 0.018522 -0.007797 0.000000 0.000000 0.000000
# 3 -0.011439 -0.007797 0.020065 0.000000 0.000000 0.000000
# 4 0.000000 0.000000 0.000000 0.034680 0.000000 0.000000
# 5 0.000000 0.000000 0.000000 0.000000 -0.038557 0.000000
# 6 0.000000 0.000000 0.000000 0.000000 0.000000 0.025492
#
#
# Mechanical properties :
#
#
# Convention : Reuss Voigt Hill
#
# Bulk Modulus (GPa) = 98.49284 119.21406 108.85345
# Shear Modulus (GPa) = 41.05852 17.95143 29.50497
#
# Velocity S-wave (km/s) = 4.66922 3.08740 3.95813
# Velocity P-wave (km/s) = 9.02039 8.71841 8.87069
#
# Compressibility (1/GPa) = 0.01015302
#
# Stress axis : x y z
#
# Youngs Moduli (GPa) = 67.20628 53.99110 49.83887
#
# Poissons Ratio (x) = 0.13067 0.57013
# Poissons Ratio (y) = 0.16265 0.38858
# Poissons Ratio (z) = 0.76880 0.42096
#
# Static dielectric constant tensor:
#      x y z
#    x 1.620660 0.000000 0.000000 
#    y 0.000000 1.631570 0.000000 
#    z 0.000000 0.000000 1.633970 
# 
# From -- ./inp_files/15452.got.cif
#   From: 2010.05.17/outbox.cif.g08.bks.cpg/sg39_8_cif.got.tgz:15452.got - 2010.06.03 18:22:40.
