data_PCOD9361140
_publ_section_title
;
Structure prediction by ZEFSAII (Michael W. Deem and Ramdas Pophale) SiO2 
 PCOD9361140
Probable space group: A B M 2
;
_chemical_formula_sum "Si O2"
_cell_formula_units_Z 60
_cell_length_a 27.813936
_cell_length_b 11.149146
_cell_length_c 8.448176
_cell_angle_alpha 90.000000
_cell_angle_beta 90.000000
_cell_angle_gamma 90.000000
_cell_volume 2619.793176
_symmetry_space_group_name_H-M "A B M 2"
_symmetry_group_IT_number 39
_symmetry_cell_setting 'orthorhombic'
loop_
_space_group_symop_operation_xyz
x,y,z
-x,-y,z
-x,1/2+y,z
x,1/2-y,z
x,1/2+y,1/2+z
-x,1/2-y,1/2+z
-x,y,1/2+z
x,-y,1/2+z
loop_
_atom_site_type_symbol
_atom_site_label
_atom_site_fract_x
_atom_site_fract_y
_atom_site_fract_z
Si Si1 0.964167 0.114088 0.267670
Si Si2 0.841820 0.120579 0.838063
Si Si3 0.674328 0.250000 0.004827
Si Si4 0.461738 0.608798 0.756379
Si Si5 0.266738 0.583828 0.755263
Si Si6 0.396060 0.966431 0.024650
Si Si7 0.312498 0.384508 0.909686
Si Si8 0.099901 0.534480 0.552132
O O1 0.983637 0.250000 0.251614
O O2 0.933056 0.104882 0.428445
O O3 0.929797 0.078946 0.120710
O O4 0.000000 0.000000 0.273673
O O5 0.845390 0.250000 0.917475
O O6 0.789268 0.111475 0.762618
O O7 0.881850 0.108335 0.701798
O O8 0.853790 0.015862 0.960110
O O9 0.705813 0.351295 0.900204
O O10 0.638912 0.142049 0.071925
O O11 0.500000 0.500000 0.741347
O O12 0.475088 0.750000 0.727937
O O13 0.418587 0.564327 0.642885
O O14 0.439737 0.596281 0.931529
O O15 0.274859 0.444855 0.792043
O O16 0.291471 0.613067 0.588716
O O17 0.362776 0.046972 0.910727
O O18 0.318436 0.250000 0.859428
#
# Coordination Sequence:
#
# PCOD9361140 Si02
#       8
#     8   8   4   8   8   8   8   8
#     4  11  24  43  67  98 134 171 226 287 341 408
#     4  11  21  40  65  89 131 177 222 270 335 396
#     4  10  20  40  66  96 130 170 220 268 326 384
#     4  12  28  48  72 105 140 177 227 276 340 413
#     4  11  22  41  65  96 131 177 220 284 327 392
#     4  11  24  44  73  94 138 177 216 276 334 393
#     4  11  23  41  64  93 132 170 221 273 334 390
#     4  10  24  40  63  97 131 177 225 271 341 410
#
# _framework density 22.902570999999998
#
# number of rings (size 3 to 8) (size 9 to 14) (size 15 to 20)
#    0.000    1.067    2.000    4.400    0.933    6.400 
#    9.600    3.333    0.000    0.000    0.000    0.000 
#    0.000    0.000    0.000    0.000    0.000    0.000 
#
# Total GULP energy -167065.606461 kJ/mol
# GULP energy per Si atom -5568.853549 kJ/mol
# Density = 2.285044 g / cm^3
# Si number density = 22.902571 Si / 1000 Ang^3
#
#
#
# Elastic Constant Matrix: (Units=GPa)
#
#
# Indices 1 2 3 4 5 6 
#
# 1 81.7983 43.0664 10.8605 0.0000 0.0000 0.0000
# 2 43.0664 189.5921 15.2279 0.0000 0.0000 0.0000
# 3 10.8605 15.2279 44.1199 0.0000 0.0000 0.0000
# 4 0.0000 0.0000 0.0000 22.5924 0.0000 0.0000
# 5 0.0000 0.0000 0.0000 0.0000 25.6380 0.0000
# 6 0.0000 0.0000 0.0000 0.0000 0.0000 25.8797
#
#
#
# Elastic Compliance Matrix: (Units=1/GPa)
#
#
# Indices 1 2 3 4 5 6 
#
# 1 0.014137 -0.003015 -0.002439 0.000000 0.000000 0.000000
# 2 -0.003015 0.006068 -0.001352 0.000000 0.000000 0.000000
# 3 -0.002439 -0.001352 0.023733 0.000000 0.000000 0.000000
# 4 0.000000 0.000000 0.000000 0.044263 0.000000 0.000000
# 5 0.000000 0.000000 0.000000 0.000000 0.039005 0.000000
# 6 0.000000 0.000000 0.000000 0.000000 0.000000 0.038640
#
#
# Mechanical properties :
#
#
# Convention : Reuss Voigt Hill
#
# Bulk Modulus (GPa) = 32.97701 50.42443 41.70072
# Shear Modulus (GPa) = 26.37605 31.24571 28.81088
#
# Velocity S-wave (km/s) = 3.39730 3.69763 3.55064
# Velocity P-wave (km/s) = 5.46067 6.34781 5.92088
#
# Compressibility (1/GPa) = 0.03032416
#
# Stress axis : x y z
#
# Youngs Moduli (GPa) = 70.73864 164.79869 42.13613
#
# Poissons Ratio (x) = 0.49691 0.10277
# Poissons Ratio (y) = 0.21329 0.05697
# Poissons Ratio (z) = 0.17254 0.22283
#
# Static dielectric constant tensor:
#      x y z
#    x 1.851810 0.000000 0.000000 
#    y 0.000000 1.875970 0.000000 
#    z 0.000000 0.000000 1.910590 
# 
# From -- ./inp_files/4131.got.cif
#   From: 2010.05.17/outbox.cif.g08.bks.cpg/sg39_3_cif.got.tgz:4131.got - 2010.06.03 18:22:40.
