data_PCOD9361781
_publ_section_title
;
Structure prediction by ZEFSAII (Michael W. Deem and Ramdas Pophale) SiO2 
 PCOD9361781
Probable space group: A B M 2
;
_chemical_formula_sum "Si O2"
_cell_formula_units_Z 56
_cell_length_a 14.664243
_cell_length_b 14.809273
_cell_length_c 11.409253
_cell_angle_alpha 90.000000
_cell_angle_beta 90.000000
_cell_angle_gamma 90.000000
_cell_volume 2477.710713
_symmetry_space_group_name_H-M "A B M 2"
_symmetry_group_IT_number 39
_symmetry_cell_setting 'orthorhombic'
loop_
_space_group_symop_operation_xyz
x,y,z
-x,-y,z
-x,1/2+y,z
x,1/2-y,z
x,1/2+y,1/2+z
-x,1/2-y,1/2+z
-x,y,1/2+z
x,-y,1/2+z
loop_
_atom_site_type_symbol
_atom_site_label
_atom_site_fract_x
_atom_site_fract_y
_atom_site_fract_z
Si Si1 0.308537 0.647445 0.126930
Si Si2 0.921882 0.852854 0.377533
Si Si3 0.769345 0.539321 0.069633
Si Si4 0.451209 0.357928 0.447296
Si Si5 0.276417 0.359616 0.293374
Si Si6 0.028455 0.403094 0.119874
Si Si7 0.654108 0.354461 0.399558
O O1 0.283534 0.750000 0.084425
O O2 0.239183 0.567729 0.092349
O O3 0.321714 0.651233 0.264122
O O4 0.408144 0.624711 0.074143
O O5 0.905995 0.750000 0.408054
O O6 0.820659 0.891339 0.349276
O O7 0.971787 0.852481 0.247610
O O8 0.972610 0.886399 0.497163
O O9 0.713580 0.589137 0.171973
O O10 0.867955 0.585007 0.078559
O O11 0.723388 0.574578 0.953201
O O12 0.460863 0.250000 0.432891
O O13 0.366086 0.383148 0.366204
O O14 0.551981 0.391405 0.421826
O O15 0.271866 0.250000 0.278890
O O16 0.000000 0.500000 0.163912
O O17 0.662587 0.250000 0.446614
#
# Coordination Sequence:
#
# PCOD9361781 Si02
#       7
#     8   8   8   8   8   8   8
#     4  10  24  44  64  93 134 178 230 282 338 404
#     4  10  22  43  71 101 133 176 227 280 344 420
#     4  11  25  42  68  97 135 176 227 285 344 407
#     4   9  20  40  65  94 134 178 220 270 330 399
#     4   9  20  40  68  99 136 181 225 271 334 408
#     4  11  25  44  67  97 137 176 224 286 352 410
#     4  10  23  43  68  98 136 178 223 280 341 404
#
# _framework density 22.601510000000001
#
# number of rings (size 3 to 8) (size 9 to 14) (size 15 to 20)
#    0.000    2.000    0.000    1.286    6.000    4.571 
#    0.000    2.143    0.000    0.000    0.000    1.000 
#    0.000    0.000    0.000    0.000    0.000    0.000 
#
# Total GULP energy -156060.964523 kJ/mol
# GULP energy per Si atom -5573.605876 kJ/mol
# Density = 2.255007 g / cm^3
# Si number density = 22.601510 Si / 1000 Ang^3
#
#
#
# Elastic Constant Matrix: (Units=GPa)
#
#
# Indices 1 2 3 4 5 6 
#
# 1 35.5331 8.9632 18.1628 0.0000 0.0000 0.0000
# 2 8.9632 80.1259 34.9493 0.0000 0.0000 0.0000
# 3 18.1628 34.9493 93.2013 0.0000 0.0000 0.0000
# 4 0.0000 0.0000 0.0000 30.8885 0.0000 0.0000
# 5 0.0000 0.0000 0.0000 0.0000 34.1524 0.0000
# 6 0.0000 0.0000 0.0000 0.0000 0.0000 28.1351
#
#
#
# Elastic Compliance Matrix: (Units=1/GPa)
#
#
# Indices 1 2 3 4 5 6 
#
# 1 0.031324 -0.001006 -0.005727 0.000000 0.000000 0.000000
# 2 -0.001006 0.014953 -0.005411 0.000000 0.000000 0.000000
# 3 -0.005727 -0.005411 0.013875 0.000000 0.000000 0.000000
# 4 0.000000 0.000000 0.000000 0.032375 0.000000 0.000000
# 5 0.000000 0.000000 0.000000 0.000000 0.029281 0.000000
# 6 0.000000 0.000000 0.000000 0.000000 0.000000 0.035543
#
#
# Mechanical properties :
#
#
# Convention : Reuss Voigt Hill
#
# Bulk Modulus (GPa) = 27.88369 37.00120 32.44244
# Shear Modulus (GPa) = 25.82744 28.42086 27.12415
#
# Velocity S-wave (km/s) = 3.38410 3.54994 3.46801
# Velocity P-wave (km/s) = 5.25674 5.76276 5.51556
#
# Compressibility (1/GPa) = 0.03586326
#
# Stress axis : x y z
#
# Youngs Moduli (GPa) = 31.92445 66.87559 72.07376
#
# Poissons Ratio (x) = 0.06727 0.41277
# Poissons Ratio (y) = 0.03211 0.39001
# Poissons Ratio (z) = 0.18283 0.36188
#
# Static dielectric constant tensor:
#      x y z
#    x 1.786660 0.000000 0.000000 
#    y 0.000000 3.090630 0.000000 
#    z 0.000000 0.000000 1.923170 
# 
# From -- ./inp_files/6509.got.cif
#   From: 2010.05.17/outbox.cif.g08.bks.cpg/sg39_4_cif.got.tgz:6509.got - 2010.06.03 18:22:40.
