data_PCOD9361045
_publ_section_title
;
Structure prediction by ZEFSAII (Michael W. Deem and Ramdas Pophale) SiO2 
 PCOD9361045
Probable space group: A B M 2
;
_chemical_formula_sum "Si O2"
_cell_formula_units_Z 36
_cell_length_a 7.891717
_cell_length_b 15.379941
_cell_length_c 13.777279
_cell_angle_alpha 90.000000
_cell_angle_beta 90.000000
_cell_angle_gamma 90.000000
_cell_volume 1672.205416
_symmetry_space_group_name_H-M "A B M 2"
_symmetry_group_IT_number 39
_symmetry_cell_setting 'orthorhombic'
loop_
_space_group_symop_operation_xyz
x,y,z
-x,-y,z
-x,1/2+y,z
x,1/2-y,z
x,1/2+y,1/2+z
-x,1/2-y,1/2+z
-x,y,1/2+z
x,-y,1/2+z
loop_
_atom_site_type_symbol
_atom_site_label
_atom_site_fract_x
_atom_site_fract_y
_atom_site_fract_z
Si Si1 0.128472 0.646807 0.042690
Si Si2 0.000000 0.500000 0.694811
Si Si3 0.235065 0.654131 0.518974
Si Si4 0.449061 0.397738 0.409308
Si Si5 0.342591 0.435475 0.215336
O O1 0.147079 0.750000 0.069419
O O2 0.078976 0.579883 0.129696
O O3 0.954133 0.637464 0.980844
O O4 0.296225 0.619355 0.984569
O O5 0.164470 0.527333 0.754855
O O6 0.229073 0.750000 0.562689
O O7 0.380538 0.649128 0.440800
O O8 0.292014 0.594806 0.608410
O O9 0.500000 0.500000 0.409114
O O10 0.398788 0.371007 0.300355
O O11 0.500000 0.500000 0.203011
#
# Coordination Sequence:
#
# PCOD9361045 Si02
#       5
#     8   4   8   8   8
#     4  10  21  38  62  89 118 159 205 250 305 363
#     4  10  20  38  62  86 120 158 200 250 302 362
#     4  10  21  38  59  84 117 154 194 245 301 359
#     4  11  22  36  59  86 118 157 200 246 299 359
#     4  10  22  37  57  86 115 152 199 245 300 360
#
# _framework density 21.528454
#
# number of rings (size 3 to 8) (size 9 to 14) (size 15 to 20)
#    0.000    1.778    0.000    5.333    0.000    6.222 
#    0.000    0.000    0.000    8.000    0.000    0.000 
#    0.000    0.000    0.000    0.000    0.000    0.000 
#
# Total GULP energy -100259.246428 kJ/mol
# GULP energy per Si atom -5569.958135 kJ/mol
# Density = 2.147945 g / cm^3
# Si number density = 21.528454 Si / 1000 Ang^3
#
#
#
# Elastic Constant Matrix: (Units=GPa)
#
#
# Indices 1 2 3 4 5 6 
#
# 1 132.1241 15.2582 0.8668 0.0000 0.0000 0.0000
# 2 15.2582 80.5467 4.0775 0.0000 0.0000 0.0000
# 3 0.8668 4.0775 19.2854 0.0000 0.0000 0.0000
# 4 0.0000 0.0000 0.0000 -14.2975 0.0000 0.0000
# 5 0.0000 0.0000 0.0000 0.0000 7.5334 0.0000
# 6 0.0000 0.0000 0.0000 0.0000 0.0000 31.1584
#
#
#
# Elastic Compliance Matrix: (Units=1/GPa)
#
#
# Indices 1 2 3 4 5 6 
#
# 1 0.007738 -0.001464 -0.000038 0.000000 0.000000 0.000000
# 2 -0.001464 0.012826 -0.002646 0.000000 0.000000 0.000000
# 3 -0.000038 -0.002646 0.052414 0.000000 0.000000 0.000000
# 4 0.000000 0.000000 0.000000 -0.069942 0.000000 0.000000
# 5 0.000000 0.000000 0.000000 0.000000 0.132742 0.000000
# 6 0.000000 0.000000 0.000000 0.000000 0.000000 0.032094
#
#
# Mechanical properties :
#
#
# Convention : Reuss Voigt Hill
#
# Bulk Modulus (GPa) = 15.46032 30.26234 22.86133
# Shear Modulus (GPa) = 25.28716 18.99579 22.14147
#
# Velocity S-wave (km/s) = 3.43095 2.97367 3.21046
# Velocity P-wave (km/s) = 4.78458 5.08702 4.93811
#
# Compressibility (1/GPa) = 0.06468173
#
# Stress axis : x y z
#
# Youngs Moduli (GPa) = 129.23320 77.96411 19.07894
#
# Poissons Ratio (x) = 0.11413 0.00073
# Poissons Ratio (y) = 0.18918 0.05048
# Poissons Ratio (z) = 0.00495 0.20630
#
# Static dielectric constant tensor:
#      x y z
#    x 1.815360 0.000000 0.000000 
#    y 0.000000 1.985290 0.000000 
#    z 0.000000 0.000000 1.775600 
# 
# From -- ./inp_files/8001.got.cif
#   From: 2010.05.17/outbox.cif.g08.bks.cpg/sg39_5_cif.got.tgz:8001.got - 2010.06.03 18:22:40.
