data_PCOD9361644
_publ_section_title
;
Structure prediction by ZEFSAII (Michael W. Deem and Ramdas Pophale) SiO2 
 PCOD9361644
Probable space group: A B M 2
;
_chemical_formula_sum "Si O2"
_cell_formula_units_Z 56
_cell_length_a 14.430763
_cell_length_b 16.701646
_cell_length_c 11.165019
_cell_angle_alpha 90.000000
_cell_angle_beta 90.000000
_cell_angle_gamma 90.000000
_cell_volume 2690.964913
_symmetry_space_group_name_H-M "A B M 2"
_symmetry_group_IT_number 39
_symmetry_cell_setting 'orthorhombic'
loop_
_space_group_symop_operation_xyz
x,y,z
-x,-y,z
-x,1/2+y,z
x,1/2-y,z
x,1/2+y,1/2+z
-x,1/2-y,1/2+z
-x,y,1/2+z
x,-y,1/2+z
loop_
_atom_site_type_symbol
_atom_site_label
_atom_site_fract_x
_atom_site_fract_y
_atom_site_fract_z
Si Si1 0.593617 0.463632 0.500000
Si Si2 0.036623 0.152586 0.381630
Si Si3 0.082357 0.347948 0.649153
Si Si4 0.759815 0.158692 0.832683
Si Si5 0.579300 0.156481 0.705343
Si Si6 0.287283 0.389041 0.591195
Si Si7 0.388912 0.337318 0.822549
O O1 0.500000 0.500000 0.444717
O O2 0.554468 0.401660 0.597986
O O3 0.661212 0.528525 0.558071
O O4 0.645711 0.409877 0.402771
O O5 0.038583 0.250000 0.380509
O O6 0.027310 0.132513 0.523970
O O7 0.138402 0.121842 0.340849
O O8 0.966353 0.130042 0.275028
O O9 0.096023 0.250000 0.648734
O O10 0.181721 0.390846 0.638151
O O11 0.772517 0.250000 0.791817
O O12 0.678036 0.124782 0.752301
O O13 0.720410 0.158001 0.966755
O O14 0.586723 0.250000 0.669513
O O15 0.499530 0.155268 0.805200
O O16 0.346511 0.344823 0.691339
O O17 0.366587 0.250000 0.873350
#
# Coordination Sequence:
#
# PCOD9361644 Si02
#       7
#     8   8   8   8   8   8   8
#     4  12  25  39  59  86 126 165 211 253 319 371
#     4   8  15  30  56  87 124 156 202 258 314 379
#     4   9  17  34  59  94 125 163 210 264 322 384
#     4   9  18  35  60  89 118 159 205 252 311 378
#     4  10  22  39  60  86 121 161 209 259 309 371
#     4  11  22  36  63  89 127 159 205 254 312 375
#     4  11  24  41  61  87 122 165 213 262 304 367
#
# _framework density 20.810378
#
# number of rings (size 3 to 8) (size 9 to 14) (size 15 to 20)
#    0.000    2.000    1.429    3.429    4.000    0.000 
#    2.571    0.000    0.000    0.857    0.000    0.000 
#    0.000    0.000    0.000    0.571    0.000    0.000 
#
# Total GULP energy -156065.766658 kJ/mol
# GULP energy per Si atom -5573.777381 kJ/mol
# Density = 2.076301 g / cm^3
# Si number density = 20.810378 Si / 1000 Ang^3
#
#
#
# Elastic Constant Matrix: (Units=GPa)
#
#
# Indices 1 2 3 4 5 6 
#
# 1 68.5567 27.8663 27.0551 0.0000 0.0000 0.0000
# 2 27.8663 71.5859 27.2310 0.0000 0.0000 0.0000
# 3 27.0551 27.2310 45.9852 0.0000 0.0000 0.0000
# 4 0.0000 0.0000 0.0000 33.2057 0.0000 0.0000
# 5 0.0000 0.0000 0.0000 0.0000 32.7639 0.0000
# 6 0.0000 0.0000 0.0000 0.0000 0.0000 20.0873
#
#
#
# Elastic Compliance Matrix: (Units=1/GPa)
#
#
# Indices 1 2 3 4 5 6 
#
# 1 0.019956 -0.004262 -0.009217 0.000000 0.000000 0.000000
# 2 -0.004262 0.018941 -0.008709 0.000000 0.000000 0.000000
# 3 -0.009217 -0.008709 0.032326 0.000000 0.000000 0.000000
# 4 0.000000 0.000000 0.000000 0.030115 0.000000 0.000000
# 5 0.000000 0.000000 0.000000 0.000000 0.030521 0.000000
# 6 0.000000 0.000000 0.000000 0.000000 0.000000 0.049783
#
#
# Mechanical properties :
#
#
# Convention : Reuss Voigt Hill
#
# Bulk Modulus (GPa) = 37.24777 38.93695 38.09236
# Shear Modulus (GPa) = 21.27943 24.14306 22.71125
#
# Velocity S-wave (km/s) = 3.20119 3.40979 3.30713
# Velocity P-wave (km/s) = 5.62147 5.85262 5.73821
#
# Compressibility (1/GPa) = 0.02684725
#
# Stress axis : x y z
#
# Youngs Moduli (GPa) = 50.10908 52.79512 30.93477
#
# Poissons Ratio (x) = 0.22503 0.28513
# Poissons Ratio (y) = 0.21358 0.26940
# Poissons Ratio (z) = 0.46187 0.45978
#
# Static dielectric constant tensor:
#      x y z
#    x 1.757560 0.000000 0.000000 
#    y 0.000000 1.744490 0.000000 
#    z 0.000000 0.000000 1.753080 
# 
# From -- ./inp_files/6464.got.cif
#   From: 2010.05.17/outbox.cif.g08.bks.cpg/sg39_4_cif.got.tgz:6464.got - 2010.06.03 18:22:40.
