data_PCOD9361710
_publ_section_title
;
Structure prediction by ZEFSAII (Michael W. Deem and Ramdas Pophale) SiO2 
 PCOD9361710
Probable space group: A B M 2
;
_chemical_formula_sum "Si O2"
_cell_formula_units_Z 32
_cell_length_a 11.078733
_cell_length_b 9.346620
_cell_length_c 12.091848
_cell_angle_alpha 90.000000
_cell_angle_beta 90.000000
_cell_angle_gamma 90.000000
_cell_volume 1252.095231
_symmetry_space_group_name_H-M "A B M 2"
_symmetry_group_IT_number 39
_symmetry_cell_setting 'orthorhombic'
loop_
_space_group_symop_operation_xyz
x,y,z
-x,-y,z
-x,1/2+y,z
x,1/2-y,z
x,1/2+y,1/2+z
-x,1/2-y,1/2+z
-x,y,1/2+z
x,-y,1/2+z
loop_
_atom_site_type_symbol
_atom_site_label
_atom_site_fract_x
_atom_site_fract_y
_atom_site_fract_z
Si Si1 0.500000 0.500000 0.422940
Si Si2 0.340391 0.250000 0.537094
Si Si3 0.548296 0.750000 0.763976
Si Si4 0.186191 0.750000 0.409849
Si Si5 0.078184 0.750000 0.946083
Si Si6 0.870875 0.018637 0.761002
Si Si7 0.711493 0.750000 0.141654
O O1 0.407174 0.394188 0.488734
O O2 0.560526 0.387982 0.340007
O O3 0.360503 0.250000 0.665394
O O4 0.196911 0.250000 0.520276
O O5 0.418316 0.750000 0.701251
O O6 0.178510 0.618490 0.324808
O O7 0.285050 0.750000 0.508349
O O8 0.060431 0.750000 0.482175
O O9 0.094859 0.881779 0.864131
O O10 0.779047 0.107878 0.685840
O O11 0.000000 0.000000 0.699594
#
# Coordination Sequence:
#
# PCOD9361710 Si02
#       7
#     4   4   4   4   4   8   4
#     4  10  22  42  66  92 124 164 210 264 320 370
#     4  11  23  44  68  90 130 172 207 269 324 362
#     4  11  25  42  64  97 127 165 222 259 310 390
#     4  10  22  40  67  97 126 169 213 251 318 392
#     4   9  20  42  64  91 134 165 202 269 318 369
#     4   9  19  39  63  92 128 162 206 259 312 379
#     4  11  24  42  63  93 135 169 202 266 322 367
#
# _framework density 25.557162000000002
#
# number of rings (size 3 to 8) (size 9 to 14) (size 15 to 20)
#    0.000    2.000    0.000    4.500    0.000    9.000 
#    0.000   12.500    0.000    3.000    0.000    0.000 
#    0.000    0.000    0.000    0.000    0.000    0.000 
#
# Total GULP energy -89570.277210 kJ/mol
# GULP energy per Si atom -5598.142326 kJ/mol
# Density = 2.549899 g / cm^3
# Si number density = 25.557162 Si / 1000 Ang^3
#
#
#
# Elastic Constant Matrix: (Units=GPa)
#
#
# Indices 1 2 3 4 5 6 
#
# 1 193.9519 34.0328 64.7815 0.0000 0.0000 0.0000
# 2 34.0328 199.6649 68.5093 0.0000 0.0000 0.0000
# 3 64.7815 68.5093 140.0148 0.0000 0.0000 0.0000
# 4 0.0000 0.0000 0.0000 -0.0570 0.0000 0.0000
# 5 0.0000 0.0000 0.0000 0.0000 50.1244 0.0000
# 6 0.0000 0.0000 0.0000 0.0000 0.0000 117.9953
#
#
#
# Elastic Compliance Matrix: (Units=1/GPa)
#
#
# Indices 1 2 3 4 5 6 
#
# 1 0.006100 -0.000086 -0.002780 0.000000 0.000000 0.000000
# 2 -0.000086 0.006020 -0.002906 0.000000 0.000000 0.000000
# 3 -0.002780 -0.002906 0.009850 0.000000 0.000000 0.000000
# 4 0.000000 0.000000 0.000000-17.530160 0.000000 0.000000
# 5 0.000000 0.000000 0.000000 0.000000 0.019950 0.000000
# 6 0.000000 0.000000 0.000000 0.000000 0.000000 0.008475
#
#
# Mechanical properties :
#
#
# Convention : Reuss Voigt Hill
#
# Bulk Modulus (GPa) = 95.91197 96.47541 96.19369
# Shear Modulus (GPa) = -0.28629 58.03308 28.87339
#
# Velocity S-wave (km/s) = -0.33506 4.77037 3.36483
# Velocity P-wave (km/s) = 6.12047 8.25668 7.26750
#
# Compressibility (1/GPa) = 0.01042623
#
# Stress axis : x y z
#
# Youngs Moduli (GPa) = 163.94622 166.11010 101.51965
#
# Poissons Ratio (x) = 0.01424 0.28224
# Poissons Ratio (y) = 0.01406 0.29501
# Poissons Ratio (z) = 0.45580 0.48271
#
# Static dielectric constant tensor:
#      x y z
#    x 2.176950 0.000000 0.000000 
#    y 0.000000 2.082520 0.000000 
#    z 0.000000 0.000000 1.900530 
# 
# From -- ./inp_files/8952.got.cif
#   From: 2010.05.17/outbox.cif.g08.bks.cpg/sg39_5_cif.got.tgz:8952.got - 2010.06.03 18:22:40.
