data_PCOD9361517
_publ_section_title
;
Structure prediction by ZEFSAII (Michael W. Deem and Ramdas Pophale) SiO2 
 PCOD9361517
Probable space group: A B M 2
;
_chemical_formula_sum "Si O2"
_cell_formula_units_Z 64
_cell_length_a 12.812767
_cell_length_b 24.651357
_cell_length_c 8.543700
_cell_angle_alpha 90.000000
_cell_angle_beta 90.000000
_cell_angle_gamma 90.000000
_cell_volume 2698.545531
_symmetry_space_group_name_H-M "A B M 2"
_symmetry_group_IT_number 39
_symmetry_cell_setting 'orthorhombic'
loop_
_space_group_symop_operation_xyz
x,y,z
-x,-y,z
-x,1/2+y,z
x,1/2-y,z
x,1/2+y,1/2+z
-x,1/2-y,1/2+z
-x,y,1/2+z
x,-y,1/2+z
loop_
_atom_site_type_symbol
_atom_site_label
_atom_site_fract_x
_atom_site_fract_y
_atom_site_fract_z
Si Si1 0.841321 0.690631 0.161250
Si Si2 0.577984 0.049666 0.530973
Si Si3 0.518587 0.869609 0.781206
Si Si4 0.051344 0.808574 0.322231
Si Si5 0.853016 0.617014 0.565495
Si Si6 0.355218 0.314132 0.514393
Si Si7 0.153590 0.575027 0.756318
Si Si8 0.796589 0.504575 0.541162
O O1 0.784652 0.750000 0.155684
O O2 0.793599 0.630736 0.191308
O O3 0.927529 0.696461 0.298019
O O4 0.904271 0.685561 0.996754
O O5 0.532188 0.084333 0.673031
O O6 0.588965 0.094862 0.397104
O O7 0.500000 0.000000 0.489596
O O8 0.687542 0.023781 0.570104
O O9 0.585302 0.828946 0.675476
O O10 0.430372 0.838055 0.879280
O O11 0.094899 0.750000 0.266382
O O12 0.085810 0.852826 0.198508
O O13 0.753418 0.653250 0.517811
O O14 0.913261 0.597562 0.406366
O O15 0.811881 0.560427 0.633557
O O16 0.339980 0.250000 0.497645
O O17 0.120457 0.540107 0.604930
O O18 0.208266 0.528713 0.864498
#
# Coordination Sequence:
#
# PCOD9361517 Si02
#       8
#     8   8   8   8   8   8   8   8
#     4  10  22  42  70  99 129 163 211 267 320 387
#     4  11  22  35  62  85 120 154 218 266 323 377
#     4  10  23  37  57  88 114 165 212 276 316 386
#     4  10  21  40  69  99 129 166 212 265 318 384
#     4  10  23  37  63  93 124 169 212 268 318 386
#     4  11  22  39  59  85 126 167 217 267 330 386
#     4  10  24  39  64  90 132 167 212 259 326 381
#     4  10  24  39  59  91 128 172 203 270 318 383
#
# _framework density 23.716480000000001
#
# number of rings (size 3 to 8) (size 9 to 14) (size 15 to 20)
#    0.750    1.000    0.000    4.125    7.000    2.000 
#    0.000    0.625    2.750    2.250    0.000    0.000 
#    0.000    0.000    0.000    0.000    0.000    0.000 
#
# Total GULP energy -178228.782809 kJ/mol
# GULP energy per Si atom -5569.649463 kJ/mol
# Density = 2.366250 g / cm^3
# Si number density = 23.716480 Si / 1000 Ang^3
#
#
#
# Elastic Constant Matrix: (Units=GPa)
#
#
# Indices 1 2 3 4 5 6 
#
# 1 42.8029 25.3922 25.0860 0.0000 0.0000 0.0000
# 2 25.3922 207.5730 49.7376 0.0000 0.0000 0.0000
# 3 25.0860 49.7376 96.9866 0.0000 0.0000 0.0000
# 4 0.0000 0.0000 0.0000 31.8471 0.0000 0.0000
# 5 0.0000 0.0000 0.0000 0.0000 18.1745 0.0000
# 6 0.0000 0.0000 0.0000 0.0000 0.0000 25.8017
#
#
#
# Elastic Compliance Matrix: (Units=1/GPa)
#
#
# Indices 1 2 3 4 5 6 
#
# 1 0.028207 -0.001941 -0.006301 0.000000 0.000000 0.000000
# 2 -0.001941 0.005626 -0.002383 0.000000 0.000000 0.000000
# 3 -0.006301 -0.002383 0.013163 0.000000 0.000000 0.000000
# 4 0.000000 0.000000 0.000000 0.031400 0.000000 0.000000
# 5 0.000000 0.000000 0.000000 0.000000 0.055022 0.000000
# 6 0.000000 0.000000 0.000000 0.000000 0.000000 0.038757
#
#
# Mechanical properties :
#
#
# Convention : Reuss Voigt Hill
#
# Bulk Modulus (GPa) = 38.84043 60.86603 49.85323
# Shear Modulus (GPa) = 24.75173 31.64111 28.19642
#
# Velocity S-wave (km/s) = 3.23406 3.65655 3.45178
# Velocity P-wave (km/s) = 5.50982 6.59901 6.07886
#
# Compressibility (1/GPa) = 0.02574637
#
# Stress axis : x y z
#
# Youngs Moduli (GPa) = 35.45235 177.74456 75.97321
#
# Poissons Ratio (x) = 0.34497 0.47867
# Poissons Ratio (y) = 0.06881 0.18106
# Poissons Ratio (z) = 0.22337 0.42360
#
# Static dielectric constant tensor:
#      x y z
#    x 1.958980 0.000000 0.000000 
#    y 0.000000 2.051970 0.000000 
#    z 0.000000 0.000000 1.962710 
# 
# From -- ./inp_files/3520.got.cif
#   From: 2010.05.17/outbox.cif.g08.bks.cpg/sg39_2_cif.got.tgz:3520.got - 2010.06.03 18:22:40.
