data_PCOD9361661
_publ_section_title
;
Structure prediction by ZEFSAII (Michael W. Deem and Ramdas Pophale) SiO2 
 PCOD9361661
Probable space group: A B M 2
;
_chemical_formula_sum "Si O2"
_cell_formula_units_Z 64
_cell_length_a 14.543993
_cell_length_b 22.779440
_cell_length_c 9.439643
_cell_angle_alpha 90.000000
_cell_angle_beta 90.000000
_cell_angle_gamma 90.000000
_cell_volume 3127.391635
_symmetry_space_group_name_H-M "A B M 2"
_symmetry_group_IT_number 39
_symmetry_cell_setting 'orthorhombic'
loop_
_space_group_symop_operation_xyz
x,y,z
-x,-y,z
-x,1/2+y,z
x,1/2-y,z
x,1/2+y,1/2+z
-x,1/2-y,1/2+z
-x,y,1/2+z
x,-y,1/2+z
loop_
_atom_site_type_symbol
_atom_site_label
_atom_site_fract_x
_atom_site_fract_y
_atom_site_fract_z
Si Si1 0.195739 0.020935 0.733090
Si Si2 0.112729 0.098707 0.148610
Si Si3 0.977874 0.569198 0.882494
Si Si4 0.366644 0.815320 0.864427
Si Si5 0.432332 0.133824 0.896246
Si Si6 0.477356 0.561304 0.120600
Si Si7 0.721385 0.184175 0.565231
Si Si8 0.701021 0.561305 0.462366
O O1 0.120073 0.063229 0.802737
O O2 0.250926 0.054999 0.613823
O O3 0.146654 0.968584 0.647000
O O4 0.255366 0.984214 0.849441
O O5 0.197374 0.140525 0.111982
O O6 0.058884 0.100622 0.296366
O O7 0.037288 0.102825 0.027083
O O8 0.000000 0.500000 0.905131
O O9 0.341138 0.750000 0.917186
O O10 0.473192 0.828179 0.903322
O O11 0.351206 0.814604 0.695507
O O12 0.305261 0.870750 0.914264
O O13 0.438891 0.103504 0.742817
O O14 0.440434 0.089537 0.030480
O O15 0.336892 0.166231 0.927011
O O16 0.500000 0.500000 0.192100
O O17 0.403950 0.546953 0.998359
O O18 0.758436 0.250000 0.549460
#
# Coordination Sequence:
#
# PCOD9361661 Si02
#       8
#     8   8   8   8   8   8   8   8
#     4  11  22  39  65  97 139 167 214 267 343 417
#     4  11  23  40  66  94 132 167 224 274 349 415
#     4  10  22  39  63  96 124 170 206 268 340 426
#     4  10  22  44  66  91 129 182 237 279 327 397
#     4  11  23  44  63  93 130 181 231 279 328 402
#     4  11  26  37  60  94 141 179 223 269 341 408
#     4  11  24  43  69  96 129 175 233 292 343 396
#     4  11  25  38  63 101 136 180 217 280 341 406
#
# _framework density 20.464337
#
# number of rings (size 3 to 8) (size 9 to 14) (size 15 to 20)
#    0.000    1.250    3.750    1.875   10.500    0.000 
#    0.000    1.250    0.000    0.750    0.000    0.000 
#    0.000    0.000    0.000    0.000    0.000    0.000 
#
# Total GULP energy -178530.276641 kJ/mol
# GULP energy per Si atom -5579.071145 kJ/mol
# Density = 2.041776 g / cm^3
# Si number density = 20.464337 Si / 1000 Ang^3
#
#
#
# Elastic Constant Matrix: (Units=GPa)
#
#
# Indices 1 2 3 4 5 6 
#
# 1 55.4798 8.8025 19.3018 0.0000 0.0000 0.0000
# 2 8.8025 54.9735 31.5866 0.0000 0.0000 0.0000
# 3 19.3018 31.5866 68.6714 0.0000 0.0000 0.0000
# 4 0.0000 0.0000 0.0000 16.9663 0.0000 0.0000
# 5 0.0000 0.0000 0.0000 0.0000 49.5605 0.0000
# 6 0.0000 0.0000 0.0000 0.0000 0.0000 16.5411
#
#
#
# Elastic Compliance Matrix: (Units=1/GPa)
#
#
# Indices 1 2 3 4 5 6 
#
# 1 0.019978 0.000037 -0.005633 0.000000 0.000000 0.000000
# 2 0.000037 0.024725 -0.011383 0.000000 0.000000 0.000000
# 3 -0.005633 -0.011383 0.021381 0.000000 0.000000 0.000000
# 4 0.000000 0.000000 0.000000 0.058940 0.000000 0.000000
# 5 0.000000 0.000000 0.000000 0.000000 0.020177 0.000000
# 6 0.000000 0.000000 0.000000 0.000000 0.000000 0.060456
#
#
# Mechanical properties :
#
#
# Convention : Reuss Voigt Hill
#
# Bulk Modulus (GPa) = 31.12577 33.16739 32.14658
# Shear Modulus (GPa) = 19.97412 24.57584 22.27498
#
# Velocity S-wave (km/s) = 3.12756 3.46918 3.30279
# Velocity P-wave (km/s) = 5.31836 5.68238 5.50338
#
# Compressibility (1/GPa) = 0.03212772
#
# Stress axis : x y z
#
# Youngs Moduli (GPa) = 50.05441 40.44456 46.77003
#
# Poissons Ratio (x) = -0.00151 0.26344
# Poissons Ratio (y) = -0.00187 0.53240
# Poissons Ratio (z) = 0.28194 0.46039
#
# Static dielectric constant tensor:
#      x y z
#    x 1.804580 0.000000 0.000000 
#    y 0.000000 1.780920 0.000000 
#    z 0.000000 0.000000 1.761550 
# 
# From -- ./inp_files/3533.got.cif
#   From: 2010.05.17/outbox.cif.g08.bks.cpg/sg39_2_cif.got.tgz:3533.got - 2010.06.03 18:22:40.
