data_PCOD9361707
_publ_section_title
;
Structure prediction by ZEFSAII (Michael W. Deem and Ramdas Pophale) SiO2 
 PCOD9361707
Probable space group: A B M 2
;
_chemical_formula_sum "Si O2"
_cell_formula_units_Z 28
_cell_length_a 9.378659
_cell_length_b 14.614807
_cell_length_c 8.811036
_cell_angle_alpha 90.000000
_cell_angle_beta 90.000000
_cell_angle_gamma 90.000000
_cell_volume 1207.704837
_symmetry_space_group_name_H-M "A B M 2"
_symmetry_group_IT_number 39
_symmetry_cell_setting 'orthorhombic'
loop_
_space_group_symop_operation_xyz
x,y,z
-x,-y,z
-x,1/2+y,z
x,1/2-y,z
x,1/2+y,1/2+z
-x,1/2-y,1/2+z
-x,y,1/2+z
x,-y,1/2+z
loop_
_atom_site_type_symbol
_atom_site_label
_atom_site_fract_x
_atom_site_fract_y
_atom_site_fract_z
Si Si1 0.355213 0.053346 0.672630
Si Si2 0.313938 0.250000 0.561367
Si Si3 0.739780 0.750000 0.217001
Si Si4 0.930497 0.750000 0.810822
Si Si5 0.771178 0.907664 0.991570
O O1 0.376989 0.155165 0.614565
O O2 0.323195 0.061500 0.850070
O O3 0.500000 0.000000 0.644604
O O4 0.221456 0.001841 0.589231
O O5 0.328151 0.250000 0.381020
O O6 0.163007 0.250000 0.655468
O O7 0.907371 0.750000 0.260675
O O8 0.709004 0.837658 0.114899
O O9 0.890140 0.841584 0.909187
#
# Coordination Sequence:
#
# PCOD9361707 Si02
#       5
#     8   4   4   4   8
#     4  11  23  43  67  98 137 176 221 280 338 395
#     4  10  22  40  66  98 132 174 226 272 332 412
#     4  11  21  42  68  95 136 176 217 281 336 395
#     4   9  21  42  66  97 134 174 215 273 340 397
#     4  10  22  40  66  99 133 171 223 269 327 408
#
# _framework density 23.184474000000002
#
# number of rings (size 3 to 8) (size 9 to 14) (size 15 to 20)
#    0.000    1.714    0.000    5.143    0.000    2.286 
#    0.000   32.857    0.000    0.000    0.000    0.000 
#    0.000    0.000    0.000    0.000    0.000    0.000 
#
# Total GULP energy -78108.191834 kJ/mol
# GULP energy per Si atom -5579.156560 kJ/mol
# Density = 2.313170 g / cm^3
# Si number density = 23.184474 Si / 1000 Ang^3
#
#
#
# Elastic Constant Matrix: (Units=GPa)
#
#
# Indices 1 2 3 4 5 6 
#
# 1 49.0315 25.4246 0.6251 0.0000 0.0000 0.0000
# 2 25.4246 166.1306 54.3920 0.0000 0.0000 0.0000
# 3 0.6251 54.3920 193.2050 0.0000 0.0000 0.0000
# 4 0.0000 0.0000 0.0000 57.3211 0.0000 0.0000
# 5 0.0000 0.0000 0.0000 0.0000 16.4952 0.0000
# 6 0.0000 0.0000 0.0000 0.0000 0.0000 5.8975
#
#
#
# Elastic Compliance Matrix: (Units=1/GPa)
#
#
# Indices 1 2 3 4 5 6 
#
# 1 0.022320 -0.003737 0.000980 0.000000 0.000000 0.000000
# 2 -0.003737 0.007256 -0.002031 0.000000 0.000000 0.000000
# 3 0.000980 -0.002031 0.005744 0.000000 0.000000 0.000000
# 4 0.000000 0.000000 0.000000 0.017446 0.000000 0.000000
# 5 0.000000 0.000000 0.000000 0.000000 0.060624 0.000000
# 6 0.000000 0.000000 0.000000 0.000000 0.000000 0.169564
#
#
# Mechanical properties :
#
#
# Convention : Reuss Voigt Hill
#
# Bulk Modulus (GPa) = 38.84185 63.25006 51.04595
# Shear Modulus (GPa) = 16.60518 37.80447 27.20482
#
# Velocity S-wave (km/s) = 2.67913 4.04244 3.42922
# Velocity P-wave (km/s) = 5.13421 7.00920 6.14365
#
# Compressibility (1/GPa) = 0.02574543
#
# Stress axis : x y z
#
# Youngs Moduli (GPa) = 44.80258 137.81577 174.08372
#
# Poissons Ratio (x) = 0.51497 -0.17056
# Poissons Ratio (y) = 0.16741 0.35351
# Poissons Ratio (z) = -0.04389 0.27986
#
# Static dielectric constant tensor:
#      x y z
#    x 1.894200 0.000000 0.000000 
#    y 0.000000 1.892740 0.000000 
#    z 0.000000 0.000000 1.851620 
# 
# From -- ./inp_files/2408.got.cif
#   From: 2010.05.17/outbox.cif.g08.bks.cpg/sg39_2_cif.got.tgz:2408.got - 2010.06.03 18:22:40.
