data_PCOD9361721
_publ_section_title
;
Structure prediction by ZEFSAII (Michael W. Deem and Ramdas Pophale) SiO2 
 PCOD9361721
Probable space group: A B M 2
;
_chemical_formula_sum "Si O2"
_cell_formula_units_Z 64
_cell_length_a 22.748965
_cell_length_b 13.868182
_cell_length_c 9.605819
_cell_angle_alpha 90.000000
_cell_angle_beta 90.000000
_cell_angle_gamma 90.000000
_cell_volume 3030.508972
_symmetry_space_group_name_H-M "A B M 2"
_symmetry_group_IT_number 39
_symmetry_cell_setting 'orthorhombic'
loop_
_space_group_symop_operation_xyz
x,y,z
-x,-y,z
-x,1/2+y,z
x,1/2-y,z
x,1/2+y,1/2+z
-x,1/2-y,1/2+z
-x,y,1/2+z
x,-y,1/2+z
loop_
_atom_site_type_symbol
_atom_site_label
_atom_site_fract_x
_atom_site_fract_y
_atom_site_fract_z
Si Si1 0.175472 0.364594 0.048830
Si Si2 0.734871 0.982804 0.638758
Si Si3 0.042515 0.367938 0.544251
Si Si4 0.847657 0.634590 0.736124
Si Si5 0.569308 0.134846 0.462447
Si Si6 0.541695 0.634408 0.278074
Si Si7 0.654195 0.029052 0.897952
Si Si8 0.066748 0.367210 0.231042
O O1 0.187218 0.250000 0.054338
O O2 0.233667 0.427415 0.062738
O O3 0.131400 0.390521 0.174432
O O4 0.145054 0.385418 0.900354
O O5 0.787621 0.913719 0.685293
O O6 0.698193 0.020897 0.769192
O O7 0.689991 0.934299 0.531031
O O8 0.041929 0.250000 0.539258
O O9 0.096844 0.395830 0.643212
O O10 0.051995 0.402009 0.386197
O O11 0.981918 0.396600 0.618111
O O12 0.842815 0.750000 0.721705
O O13 0.578342 0.250000 0.458263
O O14 0.519867 0.107933 0.349374
O O15 0.545971 0.107747 0.615877
O O16 0.628237 0.076275 0.433631
O O17 0.545451 0.750000 0.286306
O O18 0.597353 0.591026 0.358090
O O19 0.064544 0.250000 0.235755
#
# Coordination Sequence:
#
# PCOD9361721 Si02
#       8
#     8   8   8   8   8   8   8   8
#     4  10  22  41  63  85 120 165 204 252 312 367
#     4  12  26  42  61  91 124 164 214 252 296 361
#     4   9  17  31  56  88 119 153 200 254 311 372
#     4  10  22  41  62  86 121 162 204 256 311 364
#     4  10  23  43  68  96 128 162 201 249 305 362
#     4  10  23  43  67  97 128 161 201 250 305 360
#     4  12  25  42  65  91 125 167 206 253 298 357
#     4   9  17  31  56  88 118 154 200 252 312 373
#
# _framework density 21.118563000000002
#
# number of rings (size 3 to 8) (size 9 to 14) (size 15 to 20)
#    0.000    1.750    2.500    1.125    3.500    6.000 
#    0.000    0.625    0.000    3.000    0.000    0.000 
#    0.000    0.000    0.000    0.000    0.000    0.000 
#
# Total GULP energy -179001.470606 kJ/mol
# GULP energy per Si atom -5593.795956 kJ/mol
# Density = 2.107050 g / cm^3
# Si number density = 21.118563 Si / 1000 Ang^3
#
#
#
# Elastic Constant Matrix: (Units=GPa)
#
#
# Indices 1 2 3 4 5 6 
#
# 1 84.0815 7.3534 15.6967 0.0000 0.0000 0.0000
# 2 7.3534 46.0471 8.4007 0.0000 0.0000 0.0000
# 3 15.6967 8.4007 94.5850 0.0000 0.0000 0.0000
# 4 0.0000 0.0000 0.0000 16.7393 0.0000 0.0000
# 5 0.0000 0.0000 0.0000 0.0000 43.2037 0.0000
# 6 0.0000 0.0000 0.0000 0.0000 0.0000 28.7750
#
#
#
# Elastic Compliance Matrix: (Units=1/GPa)
#
#
# Indices 1 2 3 4 5 6 
#
# 1 0.012393 -0.001630 -0.001912 0.000000 0.000000 0.000000
# 2 -0.001630 0.022289 -0.001709 0.000000 0.000000 0.000000
# 3 -0.001912 -0.001709 0.011042 0.000000 0.000000 0.000000
# 4 0.000000 0.000000 0.000000 0.059740 0.000000 0.000000
# 5 0.000000 0.000000 0.000000 0.000000 0.023146 0.000000
# 6 0.000000 0.000000 0.000000 0.000000 0.000000 0.034752
#
#
# Mechanical properties :
#
#
# Convention : Reuss Voigt Hill
#
# Bulk Modulus (GPa) = 28.39217 31.95726 30.17472
# Shear Modulus (GPa) = 26.93907 30.62780 28.78343
#
# Velocity S-wave (km/s) = 3.57544 3.81238 3.69581
# Velocity P-wave (km/s) = 5.52435 5.87743 5.70362
#
# Compressibility (1/GPa) = 0.03522098
#
# Stress axis : x y z
#
# Youngs Moduli (GPa) = 80.69267 44.86512 90.56687
#
# Poissons Ratio (x) = 0.07314 0.17315
# Poissons Ratio (y) = 0.13155 0.15479
# Poissons Ratio (z) = 0.15427 0.07668
#
# Static dielectric constant tensor:
#      x y z
#    x 1.695730 0.000000 0.000000 
#    y 0.000000 1.779610 0.000000 
#    z 0.000000 0.000000 1.746260 
# 
# From -- ./inp_files/4086.got.cif
#   From: 2010.05.17/outbox.cif.g08.bks.cpg/sg39_3_cif.got.tgz:4086.got - 2010.06.03 18:22:40.
