data_PCOD9361807
_publ_section_title
;
Structure prediction by ZEFSAII (Michael W. Deem and Ramdas Pophale) SiO2 
 PCOD9361807
Probable space group: A B M 2
;
_chemical_formula_sum "Si O2"
_cell_formula_units_Z 28
_cell_length_a 7.215961
_cell_length_b 15.593209
_cell_length_c 9.918901
_cell_angle_alpha 90.000000
_cell_angle_beta 90.000000
_cell_angle_gamma 90.000000
_cell_volume 1116.074622
_symmetry_space_group_name_H-M "A B M 2"
_symmetry_group_IT_number 39
_symmetry_cell_setting 'orthorhombic'
loop_
_space_group_symop_operation_xyz
x,y,z
-x,-y,z
-x,1/2+y,z
x,1/2-y,z
x,1/2+y,1/2+z
-x,1/2-y,1/2+z
-x,y,1/2+z
x,-y,1/2+z
loop_
_atom_site_type_symbol
_atom_site_label
_atom_site_fract_x
_atom_site_fract_y
_atom_site_fract_z
Si Si1 0.233280 0.116636 0.712400
Si Si2 0.500000 0.000000 0.081308
Si Si3 0.445927 0.345568 0.383081
Si Si4 0.048043 0.399211 0.440177
O O1 0.473669 0.081628 0.983248
O O2 0.101036 0.138467 0.586778
O O3 0.116924 0.132609 0.846697
O O4 0.430363 0.157603 0.749506
O O5 0.682690 0.023169 0.168193
O O6 0.441234 0.250000 0.441537
O O7 0.237388 0.377870 0.361138
O O8 0.000000 0.500000 0.454384
#
# Coordination Sequence:
#
# PCOD9361807 Si02
#       4
#     8   4   8   8
#     4  11  23  43  73 108 148 195 251 312 380 454
#     4  10  22  46  76 106 148 202 256 318 382 450
#     4  11  26  48  75 112 157 204 258 319 387 464
#     4  11  24  43  71 107 148 199 252 310 379 454
#
# _framework density 25.087927000000001
#
# number of rings (size 3 to 8) (size 9 to 14) (size 15 to 20)
#    0.000    1.143    0.000    6.857    0.000   12.571 
#    0.000    0.000    0.000    0.000    0.000    0.000 
#    0.000    0.000    0.000    0.000    0.000    0.000 
#
# Total GULP energy -78055.629452 kJ/mol
# GULP energy per Si atom -5575.402104 kJ/mol
# Density = 2.503083 g / cm^3
# Si number density = 25.087927 Si / 1000 Ang^3
#
#
#
# Elastic Constant Matrix: (Units=GPa)
#
#
# Indices 1 2 3 4 5 6 
#
# 1 161.8700 24.9701 65.1988 0.0000 0.0000 0.0000
# 2 24.9701 161.4880 40.2625 0.0000 0.0000 0.0000
# 3 65.1988 40.2625 106.3106 0.0000 0.0000 0.0000
# 4 0.0000 0.0000 0.0000 18.5724 0.0000 0.0000
# 5 0.0000 0.0000 0.0000 0.0000 53.9848 0.0000
# 6 0.0000 0.0000 0.0000 0.0000 0.0000 -2.9038
#
#
#
# Elastic Compliance Matrix: (Units=1/GPa)
#
#
# Indices 1 2 3 4 5 6 
#
# 1 0.008205 -0.000016 -0.005026 0.000000 0.000000 0.000000
# 2 -0.000016 0.006838 -0.002580 0.000000 0.000000 0.000000
# 3 -0.005026 -0.002580 0.013466 0.000000 0.000000 0.000000
# 4 0.000000 0.000000 0.000000 0.053843 0.000000 0.000000
# 5 0.000000 0.000000 0.000000 0.000000 0.018524 0.000000
# 6 0.000000 0.000000 0.000000 0.000000 0.000000 -0.344373
#
#
# Mechanical properties :
#
#
# Convention : Reuss Voigt Hill
#
# Bulk Modulus (GPa) = 75.38479 76.72573 76.05526
# Shear Modulus (GPa) = -22.33814 33.87981 5.77084
#
# Velocity S-wave (km/s) = -2.98718 3.67882 1.51830
# Velocity P-wave (km/s) = 4.26799 6.97812 5.78402
#
# Compressibility (1/GPa) = 0.01326528
#
# Stress axis : x y z
#
# Youngs Moduli (GPa) = 121.88390 146.23897 74.26186
#
# Poissons Ratio (x) = 0.00228 0.37323
# Poissons Ratio (y) = 0.00190 0.19161
# Poissons Ratio (z) = 0.61257 0.37733
#
# Static dielectric constant tensor:
#      x y z
#    x 2.020260 0.000000 0.000000 
#    y 0.000000 1.947370 0.000000 
#    z 0.000000 0.000000 2.066640 
# 
# From -- ./inp_files/1954.got.cif
#   From: 2010.05.17/outbox.cif.g08.bks.cpg/sg39_1_cif.got.tgz:1954.got - 2010.06.03 18:22:40.
