data_PCOD9361220
_publ_section_title
;
Structure prediction by ZEFSAII (Michael W. Deem and Ramdas Pophale) SiO2 
 PCOD9361220
Probable space group: A B M 2
;
_chemical_formula_sum "Si O2"
_cell_formula_units_Z 48
_cell_length_a 28.716837
_cell_length_b 14.027943
_cell_length_c 5.332869
_cell_angle_alpha 90.000000
_cell_angle_beta 90.000000
_cell_angle_gamma 90.000000
_cell_volume 2148.283096
_symmetry_space_group_name_H-M "A B M 2"
_symmetry_group_IT_number 39
_symmetry_cell_setting 'orthorhombic'
loop_
_space_group_symop_operation_xyz
x,y,z
-x,-y,z
-x,1/2+y,z
x,1/2-y,z
x,1/2+y,1/2+z
-x,1/2-y,1/2+z
-x,y,1/2+z
x,-y,1/2+z
loop_
_atom_site_type_symbol
_atom_site_label
_atom_site_fract_x
_atom_site_fract_y
_atom_site_fract_z
Si Si1 0.149703 0.904165 0.371410
Si Si2 0.748892 0.364244 0.256031
Si Si3 0.690568 0.864045 0.258939
Si Si4 0.529567 0.250000 0.704689
Si Si5 0.029742 0.250000 0.256247
Si Si6 0.887649 0.615346 0.369849
Si Si7 0.412794 0.057761 0.286439
O O1 0.202768 0.919248 0.291269
O O2 0.146876 0.857303 0.643669
O O3 0.120452 0.001996 0.398097
O O4 0.126030 0.849248 0.143838
O O5 0.759600 0.250000 0.254523
O O6 0.716038 0.382021 0.495121
O O7 0.723275 0.387097 0.996242
O O8 0.681086 0.750000 0.272302
O O9 0.642204 0.919287 0.276645
O O10 0.509094 0.250000 0.424075
O O11 0.560145 0.344110 0.745623
O O12 0.062892 0.342317 0.292841
O O13 0.992830 0.250000 0.482278
O O14 0.424282 0.012153 0.555426
#
# Coordination Sequence:
#
# PCOD9361220 Si02
#       7
#     8   8   8   4   4   8   8
#     4  10  21  42  59  95 127 171 204 264 322 387
#     4  10  21  35  66  97 132 178 238 271 320 399
#     4  10  21  43  63  96 140 189 230 289 338 405
#     4  12  28  50  80 109 144 191 248 326 392 456
#     4  12  26  46  70  97 118 157 216 274 330 420
#     4  10  23  41  65  88 130 163 201 265 341 375
#     4  12  26  47  74 107 150 199 243 308 383 442
#
# _framework density 22.343426000000001
#
# number of rings (size 3 to 8) (size 9 to 14) (size 15 to 20)
#    0.000    1.333    0.833    4.000    2.333    2.000 
#   18.000   10.000    0.000    0.000    0.000    0.000 
#    0.000    0.000    0.000    0.000    0.000    0.000 
#
# Total GULP energy -134240.589253 kJ/mol
# GULP energy per Si atom -5593.357886 kJ/mol
# Density = 2.229257 g / cm^3
# Si number density = 22.343426 Si / 1000 Ang^3
#
#
#
# Elastic Constant Matrix: (Units=GPa)
#
#
# Indices 1 2 3 4 5 6 
#
# 1 50.2703 12.2615 -21.7590 0.0000 0.0000 0.0000
# 2 12.2615 113.4580 -8.4025 0.0000 0.0000 0.0000
# 3 -21.7590 -8.4025 98.3876 0.0000 0.0000 0.0000
# 4 0.0000 0.0000 0.0000 -2.1426 0.0000 0.0000
# 5 0.0000 0.0000 0.0000 0.0000 36.6892 0.0000
# 6 0.0000 0.0000 0.0000 0.0000 0.0000 -56.1438
#
#
#
# Elastic Compliance Matrix: (Units=1/GPa)
#
#
# Indices 1 2 3 4 5 6 
#
# 1 0.022473 -0.002074 0.004793 0.000000 0.000000 0.000000
# 2 -0.002074 0.009061 0.000315 0.000000 0.000000 0.000000
# 3 0.004793 0.000315 0.011251 0.000000 0.000000 0.000000
# 4 0.000000 0.000000 0.000000 -0.466733 0.000000 0.000000
# 5 0.000000 0.000000 0.000000 0.000000 0.027256 0.000000
# 6 0.000000 0.000000 0.000000 0.000000 0.000000 -0.017811
#
#
# Mechanical properties :
#
#
# Convention : Reuss Voigt Hill
#
# Bulk Modulus (GPa) = 20.46925 25.14621 22.80773
# Shear Modulus (GPa) = -12.36741 14.34831 0.99045
#
# Velocity S-wave (km/s) = -2.35524 2.53686 0.66652
# Velocity P-wave (km/s) = 1.33599 4.45642 3.28973
#
# Compressibility (1/GPa) = 0.04885378
#
# Stress axis : x y z
#
# Youngs Moduli (GPa) = 44.49818 110.35962 88.88265
#
# Poissons Ratio (x) = 0.22885 -0.42601
# Poissons Ratio (y) = 0.09228 -0.02802
# Poissons Ratio (z) = -0.21328 -0.03479
#
# Static dielectric constant tensor:
#      x y z
#    x 1.774930 0.000000 0.000000 
#    y 0.000000 1.689570 0.000000 
#    z 0.000000 0.000000 1.836940 
# 
# From -- ./inp_files/1408.got.cif
#   From: 2010.05.17/outbox.cif.g08.bks.cpg/sg39_1_cif.got.tgz:1408.got - 2010.06.03 18:22:40.
