data_PCOD9361667
_publ_section_title
;
Structure prediction by ZEFSAII (Michael W. Deem and Ramdas Pophale) SiO2 
 PCOD9361667
Probable space group: A B M 2
;
_chemical_formula_sum "Si O2"
_cell_formula_units_Z 40
_cell_length_a 9.994407
_cell_length_b 17.177531
_cell_length_c 9.935055
_cell_angle_alpha 90.000000
_cell_angle_beta 90.000000
_cell_angle_gamma 90.000000
_cell_volume 1705.642653
_symmetry_space_group_name_H-M "A B M 2"
_symmetry_group_IT_number 39
_symmetry_cell_setting 'orthorhombic'
loop_
_space_group_symop_operation_xyz
x,y,z
-x,-y,z
-x,1/2+y,z
x,1/2-y,z
x,1/2+y,1/2+z
-x,1/2-y,1/2+z
-x,y,1/2+z
x,-y,1/2+z
loop_
_atom_site_type_symbol
_atom_site_label
_atom_site_fract_x
_atom_site_fract_y
_atom_site_fract_z
Si Si1 0.355845 0.032273 0.211270
Si Si2 0.842985 0.154937 0.031429
Si Si3 0.719506 0.087992 0.443633
Si Si4 0.032958 0.841873 0.306207
Si Si5 0.430040 0.658211 0.922107
O O1 0.388532 0.112438 0.288117
O O2 0.500000 0.000000 0.162043
O O3 0.301898 0.973963 0.324615
O O4 0.259669 0.045818 0.085641
O O5 0.852023 0.250000 0.032475
O O6 0.684956 0.137779 0.031475
O O7 0.908798 0.126172 0.892074
O O8 0.925760 0.126529 0.160208
O O9 0.838366 0.144246 0.400647
O O10 0.578620 0.132495 0.459345
O O11 0.008819 0.750000 0.288642
O O12 0.425968 0.750000 0.900249
#
# Coordination Sequence:
#
# PCOD9361667 Si02
#       5
#     8   8   8   8   8
#     4  10  23  41  62  91 129 173 204 263 328 378
#     4   9  21  40  63  95 133 165 204 263 325 373
#     4  11  24  41  67  92 130 168 220 260 322 385
#     4  10  22  41  67  96 129 170 213 264 321 381
#     4  10  22  39  67  98 127 162 215 272 320 381
#
# _framework density 23.45157
#
# number of rings (size 3 to 8) (size 9 to 14) (size 15 to 20)
#    0.000    2.000    0.000    2.400   11.200    1.600 
#    0.000    1.000    0.000    0.000    0.000    0.000 
#    0.000    0.000    0.000    0.000    0.000    0.000 
#
# Total GULP energy -111880.338398 kJ/mol
# GULP energy per Si atom -5594.016920 kJ/mol
# Density = 2.339819 g / cm^3
# Si number density = 23.451570 Si / 1000 Ang^3
#
#
#
# Elastic Constant Matrix: (Units=GPa)
#
#
# Indices 1 2 3 4 5 6 
#
# 1 108.0610 2.4617 9.1084 0.0000 0.0000 0.0000
# 2 2.4617 49.3878 -3.2491 0.0000 0.0000 0.0000
# 3 9.1084 -3.2491 60.1237 0.0000 0.0000 0.0000
# 4 0.0000 0.0000 0.0000 25.6281 0.0000 0.0000
# 5 0.0000 0.0000 0.0000 0.0000 27.8889 0.0000
# 6 0.0000 0.0000 0.0000 0.0000 0.0000 20.0299
#
#
#
# Elastic Compliance Matrix: (Units=1/GPa)
#
#
# Indices 1 2 3 4 5 6 
#
# 1 0.009389 -0.000564 -0.001453 0.000000 0.000000 0.000000
# 2 -0.000564 0.020354 0.001185 0.000000 0.000000 0.000000
# 3 -0.001453 0.001185 0.016917 0.000000 0.000000 0.000000
# 4 0.000000 0.000000 0.000000 0.039020 0.000000 0.000000
# 5 0.000000 0.000000 0.000000 0.000000 0.035857 0.000000
# 6 0.000000 0.000000 0.000000 0.000000 0.000000 0.049925
#
#
# Mechanical properties :
#
#
# Convention : Reuss Voigt Hill
#
# Bulk Modulus (GPa) = 22.22344 26.02384 24.12364
# Shear Modulus (GPa) = 26.57838 28.65950 27.61894
#
# Velocity S-wave (km/s) = 3.37015 3.49961 3.43549
# Velocity P-wave (km/s) = 4.96395 5.23933 5.10350
#
# Compressibility (1/GPa) = 0.04499754
#
# Stress axis : x y z
#
# Youngs Moduli (GPa) = 106.50383 49.13041 59.11380
#
# Poissons Ratio (x) = 0.02769 0.08589
# Poissons Ratio (y) = 0.06003 -0.07007
# Poissons Ratio (z) = 0.15474 -0.05824
#
# Static dielectric constant tensor:
#      x y z
#    x 1.881740 0.000000 0.000000 
#    y 0.000000 1.875150 0.000000 
#    z 0.000000 0.000000 1.888300 
# 
# From -- ./inp_files/2514.got.cif
#   From: 2010.05.17/outbox.cif.g08.bks.cpg/sg39_2_cif.got.tgz:2514.got - 2010.06.03 18:22:40.
