data_PCOD9361967
_publ_section_title
;
Structure prediction by ZEFSAII (Michael W. Deem and Ramdas Pophale) SiO2 
 PCOD9361967
Probable space group: A B M 2
;
_chemical_formula_sum "Si O2"
_cell_formula_units_Z 40
_cell_length_a 13.277504
_cell_length_b 14.135253
_cell_length_c 8.233271
_cell_angle_alpha 90.000000
_cell_angle_beta 90.000000
_cell_angle_gamma 90.000000
_cell_volume 1545.227532
_symmetry_space_group_name_H-M "A B M 2"
_symmetry_group_IT_number 39
_symmetry_cell_setting 'orthorhombic'
loop_
_space_group_symop_operation_xyz
x,y,z
-x,-y,z
-x,1/2+y,z
x,1/2-y,z
x,1/2+y,1/2+z
-x,1/2-y,1/2+z
-x,y,1/2+z
x,-y,1/2+z
loop_
_atom_site_type_symbol
_atom_site_label
_atom_site_fract_x
_atom_site_fract_y
_atom_site_fract_z
Si Si1 0.500000 0.500000 0.950100
Si Si2 0.603805 0.138845 0.204584
Si Si3 0.785449 0.117467 0.988315
Si Si4 0.750044 0.250000 0.685914
Si Si5 0.979527 0.644108 0.681972
Si Si6 0.156019 0.909783 0.488952
O O1 0.576601 0.564096 0.844707
O O2 0.448769 0.583096 0.054960
O O3 0.570996 0.250000 0.228261
O O4 0.718852 0.140830 0.146005
O O5 0.899500 0.145007 0.035069
O O6 0.789857 0.006908 0.958528
O O7 0.744430 0.169545 0.831032
O O8 0.766530 0.168355 0.546956
O O9 0.025848 0.750000 0.694833
O O10 0.074469 0.579683 0.637067
O O11 0.915163 0.620618 0.840032
#
# Coordination Sequence:
#
# PCOD9361967 Si02
#       6
#     4   8   8   4   8   8
#     4  10  26  46  82 114 144 192 238 286 378 456
#     4  11  24  50  77 112 152 187 237 301 365 444
#     4  12  27  44  74 104 146 188 241 303 361 427
#     4  12  24  48  70 102 142 190 240 300 360 420
#     4  12  23  46  64  98 140 194 245 303 356 418
#     4  12  27  44  69 100 144 192 250 299 360 420
#
# _framework density 25.886157000000001
#
# number of rings (size 3 to 8) (size 9 to 14) (size 15 to 20)
#    0.000    0.400    4.000    3.600    5.600    1.600 
#    0.000    0.000    0.000    0.000    0.000    0.000 
#    0.000    0.000    0.000    0.000    0.000    0.000 
#
# Total GULP energy -111604.739941 kJ/mol
# GULP energy per Si atom -5580.236997 kJ/mol
# Density = 2.582724 g / cm^3
# Si number density = 25.886157 Si / 1000 Ang^3
#
#
#
# Elastic Constant Matrix: (Units=GPa)
#
#
# Indices 1 2 3 4 5 6 
#
# 1 68.4118 27.0998 13.6723 0.0000 0.0000 0.0000
# 2 27.0998 248.0523 34.6848 0.0000 0.0000 0.0000
# 3 13.6723 34.6848 88.0230 0.0000 0.0000 0.0000
# 4 0.0000 0.0000 0.0000 -1.2077 0.0000 0.0000
# 5 0.0000 0.0000 0.0000 0.0000 -18.5968 0.0000
# 6 0.0000 0.0000 0.0000 0.0000 0.0000 9.7993
#
#
#
# Elastic Compliance Matrix: (Units=1/GPa)
#
#
# Indices 1 2 3 4 5 6 
#
# 1 0.015558 -0.001441 -0.001849 0.000000 0.000000 0.000000
# 2 -0.001441 0.004400 -0.001510 0.000000 0.000000 0.000000
# 3 -0.001849 -0.001510 0.012243 0.000000 0.000000 0.000000
# 4 0.000000 0.000000 0.000000 -0.828035 0.000000 0.000000
# 5 0.000000 0.000000 0.000000 0.000000 -0.053773 0.000000
# 6 0.000000 0.000000 0.000000 0.000000 0.000000 0.102048
#
#
# Mechanical properties :
#
#
# Convention : Reuss Voigt Hill
#
# Bulk Modulus (GPa) = 44.24587 61.71121 52.97854
# Shear Modulus (GPa) = -6.84532 19.93431 6.54449
#
# Velocity S-wave (km/s) = -1.62792 2.77803 1.59175
# Velocity P-wave (km/s) = 3.68729 5.84647 4.88760
#
# Compressibility (1/GPa) = 0.02260098
#
# Stress axis : x y z
#
# Youngs Moduli (GPa) = 64.27684 227.27318 81.68072
#
# Poissons Ratio (x) = 0.32754 0.15100
# Poissons Ratio (y) = 0.09264 0.12333
# Poissons Ratio (z) = 0.11882 0.34317
#
# Static dielectric constant tensor:
#      x y z
#    x 2.335160 0.000000 0.000000 
#    y 0.000000 1.962250 0.000000 
#    z 0.000000 0.000000 2.089740 
# 
# From -- ./inp_files/3098.got.cif
#   From: 2010.05.17/outbox.cif.g08.bks.cpg/sg39_2_cif.got.tgz:3098.got - 2010.06.03 18:22:40.
