data_PCOD9361167
_publ_section_title
;
Structure prediction by ZEFSAII (Michael W. Deem and Ramdas Pophale) SiO2 
 PCOD9361167
Probable space group: A B M 2
;
_chemical_formula_sum "Si O2"
_cell_formula_units_Z 40
_cell_length_a 5.447213
_cell_length_b 24.482738
_cell_length_c 12.059593
_cell_angle_alpha 90.000000
_cell_angle_beta 90.000000
_cell_angle_gamma 90.000000
_cell_volume 1608.299747
_symmetry_space_group_name_H-M "A B M 2"
_symmetry_group_IT_number 39
_symmetry_cell_setting 'orthorhombic'
loop_
_space_group_symop_operation_xyz
x,y,z
-x,-y,z
-x,1/2+y,z
x,1/2-y,z
x,1/2+y,1/2+z
-x,1/2-y,1/2+z
-x,y,1/2+z
x,-y,1/2+z
loop_
_atom_site_type_symbol
_atom_site_label
_atom_site_fract_x
_atom_site_fract_y
_atom_site_fract_z
Si Si1 0.425124 0.058479 0.212500
Si Si2 0.965352 0.250000 0.038378
Si Si3 0.138468 0.054601 0.984956
Si Si4 0.498584 0.367186 0.869015
Si Si5 0.466173 0.250000 0.893793
Si Si6 0.769115 0.360669 0.090332
O O1 0.293512 0.042801 0.097564
O O2 0.293186 0.098665 0.301030
O O3 0.638464 0.102393 0.182017
O O4 0.500000 0.000000 0.259951
O O5 0.745532 0.250000 0.945132
O O6 0.232117 0.250000 0.979307
O O7 0.913807 0.304598 0.109263
O O8 0.950978 0.098831 0.029213
O O9 0.302771 0.085253 0.895430
O O10 0.000000 0.000000 0.947978
O O11 0.443026 0.306539 0.824038
O O12 0.565850 0.350536 0.995808
#
# Coordination Sequence:
#
# PCOD9361167 Si02
#       6
#     8   4   8   8   4   8
#     4  11  24  40  59  97 136 166 221 279 334 414
#     4  10  20  41  71  94 127 178 228 276 346 395
#     4  11  22  41  64  90 131 170 222 275 342 408
#     4  10  24  40  67  91 132 174 221 273 348 396
#     4  10  20  43  65  98 131 170 230 282 326 417
#     4  10  22  42  64  93 126 174 215 278 332 404
#
# _framework density 24.870985999999998
#
# number of rings (size 3 to 8) (size 9 to 14) (size 15 to 20)
#    0.000    1.600    4.000    0.000    2.800    2.400 
#    0.000    2.000    0.000    0.000    0.000    0.000 
#    0.000    0.000    0.000    0.000    0.000    0.000 
#
# Total GULP energy -111453.076285 kJ/mol
# GULP energy per Si atom -5572.653814 kJ/mol
# Density = 2.481438 g / cm^3
# Si number density = 24.870986 Si / 1000 Ang^3
#
#
#
# Elastic Constant Matrix: (Units=GPa)
#
#
# Indices 1 2 3 4 5 6 
#
# 1 67.0943 25.8630 -0.6927 0.0000 0.0000 0.0000
# 2 25.8630 238.3735 17.7700 0.0000 0.0000 0.0000
# 3 -0.6927 17.7700 40.4797 0.0000 0.0000 0.0000
# 4 0.0000 0.0000 0.0000 40.4835 0.0000 0.0000
# 5 0.0000 0.0000 0.0000 0.0000 -25.5862 0.0000
# 6 0.0000 0.0000 0.0000 0.0000 0.0000 41.9095
#
#
#
# Elastic Compliance Matrix: (Units=1/GPa)
#
#
# Indices 1 2 3 4 5 6 
#
# 1 0.015597 -0.001770 0.001044 0.000000 0.000000 0.000000
# 2 -0.001770 0.004538 -0.002022 0.000000 0.000000 0.000000
# 3 0.001044 -0.002022 0.025609 0.000000 0.000000 0.000000
# 4 0.000000 0.000000 0.000000 0.024701 0.000000 0.000000
# 5 0.000000 0.000000 0.000000 0.000000 -0.039084 0.000000
# 6 0.000000 0.000000 0.000000 0.000000 0.000000 0.023861
#
#
# Mechanical properties :
#
#
# Convention : Reuss Voigt Hill
#
# Bulk Modulus (GPa) = 24.84614 47.98092 36.41353
# Shear Modulus (GPa) = 67.44314 31.56184 49.50249
#
# Velocity S-wave (km/s) = 5.21307 3.56620 4.46620
# Velocity P-wave (km/s) = 6.80047 6.02419 6.42407
#
# Compressibility (1/GPa) = 0.04024770
#
# Stress axis : x y z
#
# Youngs Moduli (GPa) = 64.11285 220.36565 39.04822
#
# Poissons Ratio (x) = 0.39007 -0.04076
# Poissons Ratio (y) = 0.11349 0.07897
# Poissons Ratio (z) = -0.06693 0.44566
#
# Static dielectric constant tensor:
#      x y z
#    x 2.399350 0.000000 0.000000 
#    y 0.000000 2.005000 0.000000 
#    z 0.000000 0.000000 2.903040 
# 
# From -- ./inp_files/4539.got.cif
#   From: 2010.05.17/outbox.cif.g08.bks.cpg/sg39_3_cif.got.tgz:4539.got - 2010.06.03 18:22:40.
