data_PCOD9361980
_publ_section_title
;
Structure prediction by ZEFSAII (Michael W. Deem and Ramdas Pophale) SiO2 
 PCOD9361980
Probable space group: A B M 2
;
_chemical_formula_sum "Si O2"
_cell_formula_units_Z 48
_cell_length_a 12.740695
_cell_length_b 21.976638
_cell_length_c 8.063619
_cell_angle_alpha 90.000000
_cell_angle_beta 90.000000
_cell_angle_gamma 90.000000
_cell_volume 2257.794305
_symmetry_space_group_name_H-M "A B M 2"
_symmetry_group_IT_number 39
_symmetry_cell_setting 'orthorhombic'
loop_
_space_group_symop_operation_xyz
x,y,z
-x,-y,z
-x,1/2+y,z
x,1/2-y,z
x,1/2+y,1/2+z
-x,1/2-y,1/2+z
-x,y,1/2+z
x,-y,1/2+z
loop_
_atom_site_type_symbol
_atom_site_label
_atom_site_fract_x
_atom_site_fract_y
_atom_site_fract_z
Si Si1 0.397684 0.070478 0.746670
Si Si2 0.881786 0.988881 0.571788
Si Si3 0.856682 0.879212 0.344478
Si Si4 0.370938 0.071554 0.352904
Si Si5 0.048616 0.821776 0.177469
Si Si6 0.194776 0.404027 0.868375
O O1 0.377965 0.073455 0.551493
O O2 0.516737 0.090241 0.779907
O O3 0.316527 0.111030 0.851202
O O4 0.372132 0.000553 0.803405
O O5 0.886260 0.946774 0.407494
O O6 0.827380 0.947926 0.709237
O O7 0.172273 0.948234 0.522022
O O8 0.000000 0.000000 0.620772
O O9 0.731998 0.887870 0.310067
O O10 0.889749 0.839363 0.507871
O O11 0.935498 0.853987 0.204719
O O12 0.035980 0.750000 0.186728
O O13 0.118591 0.848258 0.329474
#
# Coordination Sequence:
#
# PCOD9361980 Si02
#       6
#     8   8   8   8   8   8
#     4  11  20  37  56  91 130 170 204 251 317 383
#     4  11  20  31  55  89 126 152 192 246 316 377
#     4  11  23  40  61  92 123 162 205 260 322 376
#     4  11  22  37  59  91 134 171 204 255 316 389
#     4  11  24  43  64  87 121 167 213 259 312 371
#     4  11  21  35  56  89 125 158 195 248 310 369
#
# _framework density 21.259685000000001
#
# number of rings (size 3 to 8) (size 9 to 14) (size 15 to 20)
#    0.000    1.000    6.667    3.000    2.333    0.000 
#    6.000    0.000    0.000    2.000    0.000    0.000 
#    0.000    0.000    0.000    0.000    0.000    0.000 
#
# Total GULP energy -134048.360820 kJ/mol
# GULP energy per Si atom -5585.348367 kJ/mol
# Density = 2.121130 g / cm^3
# Si number density = 21.259685 Si / 1000 Ang^3
#
#
#
# Elastic Constant Matrix: (Units=GPa)
#
#
# Indices 1 2 3 4 5 6 
#
# 1 194.9062 46.1791 25.2633 0.0000 0.0000 0.0000
# 2 46.1791 103.8088 20.4978 0.0000 0.0000 0.0000
# 3 25.2633 20.4978 72.5211 0.0000 0.0000 0.0000
# 4 0.0000 0.0000 0.0000 18.4747 0.0000 0.0000
# 5 0.0000 0.0000 0.0000 0.0000 35.4751 0.0000
# 6 0.0000 0.0000 0.0000 0.0000 0.0000 6.7444
#
#
#
# Elastic Compliance Matrix: (Units=1/GPa)
#
#
# Indices 1 2 3 4 5 6 
#
# 1 0.005863 -0.002335 -0.001382 0.000000 0.000000 0.000000
# 2 -0.002335 0.011133 -0.002333 0.000000 0.000000 0.000000
# 3 -0.001382 -0.002333 0.014930 0.000000 0.000000 0.000000
# 4 0.000000 0.000000 0.000000 0.054128 0.000000 0.000000
# 5 0.000000 0.000000 0.000000 0.000000 0.028189 0.000000
# 6 0.000000 0.000000 0.000000 0.000000 0.000000 0.148272
#
#
# Mechanical properties :
#
#
# Convention : Reuss Voigt Hill
#
# Bulk Modulus (GPa) = 50.44299 61.67960 56.06129
# Shear Modulus (GPa) = 17.77940 30.75856 24.26898
#
# Velocity S-wave (km/s) = 2.89502 3.80781 3.38235
# Velocity P-wave (km/s) = 5.91214 6.95759 6.45606
#
# Compressibility (1/GPa) = 0.01982436
#
# Stress axis : x y z
#
# Youngs Moduli (GPa) = 170.55686 89.82622 66.97874
#
# Poissons Ratio (x) = 0.20977 0.09259
# Poissons Ratio (y) = 0.39829 0.15627
# Poissons Ratio (z) = 0.23578 0.20957
#
# Static dielectric constant tensor:
#      x y z
#    x 1.912270 0.000000 0.000000 
#    y 0.000000 1.736140 0.000000 
#    z 0.000000 0.000000 1.897620 
# 
# From -- ./inp_files/2770.got.cif
#   From: 2010.05.17/outbox.cif.g08.bks.cpg/sg39_2_cif.got.tgz:2770.got - 2010.06.03 18:22:40.
