data_PCOD9361614
_publ_section_title
;
Structure prediction by ZEFSAII (Michael W. Deem and Ramdas Pophale) SiO2 
 PCOD9361614
Probable space group: A B M 2
;
_chemical_formula_sum "Si O2"
_cell_formula_units_Z 56
_cell_length_a 17.555872
_cell_length_b 11.081101
_cell_length_c 13.934015
_cell_angle_alpha 90.000000
_cell_angle_beta 90.000000
_cell_angle_gamma 90.000000
_cell_volume 2710.700855
_symmetry_space_group_name_H-M "A B M 2"
_symmetry_group_IT_number 39
_symmetry_cell_setting 'orthorhombic'
loop_
_space_group_symop_operation_xyz
x,y,z
-x,-y,z
-x,1/2+y,z
x,1/2-y,z
x,1/2+y,1/2+z
-x,1/2-y,1/2+z
-x,y,1/2+z
x,-y,1/2+z
loop_
_atom_site_type_symbol
_atom_site_label
_atom_site_fract_x
_atom_site_fract_y
_atom_site_fract_z
Si Si1 0.785723 0.392918 0.012960
Si Si2 0.673907 0.006214 0.863616
Si Si3 0.798364 0.390767 0.228046
Si Si4 0.444030 0.114673 0.991536
Si Si5 0.023359 0.119434 0.720786
Si Si6 0.949053 0.888103 0.427013
Si Si7 0.558124 0.387385 0.714696
O O1 0.787061 0.250000 0.024718
O O2 0.788596 0.443723 0.120729
O O3 0.711587 0.426700 0.953503
O O4 0.862739 0.420385 0.954465
O O5 0.743623 0.955474 0.801944
O O6 0.623643 0.087868 0.792372
O O7 0.620839 0.904748 0.912220
O O8 0.776109 0.250000 0.227968
O O9 0.888335 0.393041 0.250767
O O10 0.478134 0.250000 0.980657
O O11 0.416148 0.107284 0.102652
O O12 0.500000 0.000000 0.978842
O O13 0.016368 0.250000 0.673068
O O14 0.968758 0.119502 0.813642
O O15 0.000000 0.000000 0.664577
O O16 0.964150 0.750000 0.461415
O O17 0.000000 0.000000 0.460411
O O18 0.500000 0.500000 0.726148
O O19 0.527193 0.250000 0.728531
#
# Coordination Sequence:
#
# PCOD9361614 Si02
#       7
#     8   8   8   8   8   8   8
#     4  10  22  38  56  83 119 157 196 240 295 356
#     4  12  21  36  63  88 116 154 198 242 287 344
#     4  10  22  38  56  83 119 157 196 240 295 356
#     4  10  23  42  63  90 122 154 192 240 292 347
#     4   9  17  32  54  79 109 147 192 240 289 342
#     4   9  17  32  54  79 109 147 192 240 289 342
#     4  10  23  42  63  90 122 154 192 240 292 347
#
# _framework density 20.658864000000001
#
# number of rings (size 3 to 8) (size 9 to 14) (size 15 to 20)
#    0.000    2.000    0.000    3.857    0.000    4.000 
#    0.000    4.286    0.000    3.429    0.000    0.000 
#    0.000    0.000    0.000    0.000    0.000    0.000 
#
# Total GULP energy -156081.570831 kJ/mol
# GULP energy per Si atom -5574.341815 kJ/mol
# Density = 2.061184 g / cm^3
# Si number density = 20.658864 Si / 1000 Ang^3
#
#
#
# Elastic Constant Matrix: (Units=GPa)
#
#
# Indices 1 2 3 4 5 6 
#
# 1 38.8554 35.2107 13.8132 0.0000 0.0000 0.0000
# 2 35.2107 144.7750 14.6429 0.0000 0.0000 0.0000
# 3 13.8132 14.6429 97.3156 0.0000 0.0000 0.0000
# 4 0.0000 0.0000 0.0000 10.8818 0.0000 0.0000
# 5 0.0000 0.0000 0.0000 0.0000 -30.1428 0.0000
# 6 0.0000 0.0000 0.0000 0.0000 0.0000 28.9977
#
#
#
# Elastic Compliance Matrix: (Units=1/GPa)
#
#
# Indices 1 2 3 4 5 6 
#
# 1 0.034252 -0.007960 -0.003664 0.000000 0.000000 0.000000
# 2 -0.007960 0.008864 -0.000204 0.000000 0.000000 0.000000
# 3 -0.003664 -0.000204 0.010827 0.000000 0.000000 0.000000
# 4 0.000000 0.000000 0.000000 0.091896 0.000000 0.000000
# 5 0.000000 0.000000 0.000000 0.000000 -0.033175 0.000000
# 6 0.000000 0.000000 0.000000 0.000000 0.000000 0.034486
#
#
# Mechanical properties :
#
#
# Convention : Reuss Voigt Hill
#
# Bulk Modulus (GPa) = 33.01757 45.36439 39.19098
# Shear Modulus (GPa) = 27.63950 16.43264 22.03607
#
# Velocity S-wave (km/s) = 3.66170 2.82339 3.26953
# Velocity P-wave (km/s) = 5.82189 5.71272 5.76756
#
# Compressibility (1/GPa) = 0.03028690
#
# Stress axis : x y z
#
# Youngs Moduli (GPa) = 29.19517 112.81837 92.36500
#
# Poissons Ratio (x) = 0.89802 0.33844
# Poissons Ratio (y) = 0.23239 0.01883
# Poissons Ratio (z) = 0.10697 0.02300
#
# Static dielectric constant tensor:
#      x y z
#    x 1.738680 0.000000 0.000000 
#    y 0.000000 1.778020 0.000000 
#    z 0.000000 0.000000 1.763930 
# 
# From -- ./inp_files/9803.got.cif
#   From: 2010.05.17/outbox.cif.g08.bks.cpg/sg39_5_cif.got.tgz:9803.got - 2010.06.03 18:22:40.
