data_PCOD9361717
_publ_section_title
;
Structure prediction by ZEFSAII (Michael W. Deem and Ramdas Pophale) SiO2 
 PCOD9361717
Probable space group: A B M 2
;
_chemical_formula_sum "Si O2"
_cell_formula_units_Z 60
_cell_length_a 17.252960
_cell_length_b 7.879907
_cell_length_c 19.314027
_cell_angle_alpha 90.000000
_cell_angle_beta 90.000000
_cell_angle_gamma 90.000000
_cell_volume 2625.775196
_symmetry_space_group_name_H-M "A B M 2"
_symmetry_group_IT_number 39
_symmetry_cell_setting 'orthorhombic'
loop_
_space_group_symop_operation_xyz
x,y,z
-x,-y,z
-x,1/2+y,z
x,1/2-y,z
x,1/2+y,1/2+z
-x,1/2-y,1/2+z
-x,y,1/2+z
x,-y,1/2+z
loop_
_atom_site_type_symbol
_atom_site_label
_atom_site_fract_x
_atom_site_fract_y
_atom_site_fract_z
Si Si1 0.112023 0.250000 0.664950
Si Si2 0.202667 0.061047 0.543314
Si Si3 0.373233 0.947443 0.557912
Si Si4 0.584479 0.949098 0.908158
Si Si5 0.882167 0.457934 0.770706
Si Si6 0.290322 0.938756 0.798734
Si Si7 0.415285 0.559653 0.203032
Si Si8 0.084891 0.951860 0.930834
O O1 0.149014 0.103704 0.609859
O O2 0.083277 0.404671 0.717593
O O3 0.230559 0.250000 0.520437
O O4 0.152193 0.980907 0.481275
O O5 0.279985 0.959775 0.560259
O O6 0.395992 0.750000 0.566007
O O7 0.402061 0.019919 0.484830
O O8 0.407883 0.050816 0.621109
O O9 0.582419 0.750000 0.916341
O O10 0.500000 0.000000 0.880495
O O11 0.657716 0.987777 0.860043
O O12 0.888969 0.250000 0.756861
O O13 0.790746 0.513346 0.773866
O O14 0.908833 0.492884 0.849704
O O15 0.269522 0.750000 0.821198
O O16 0.348871 0.943619 0.734637
O O17 0.500000 0.500000 0.223387
O O18 0.400925 0.750000 0.228690
O O19 0.091499 0.750000 0.936224
O O20 0.000000 0.000000 0.956991
#
# Coordination Sequence:
#
# PCOD9361717 Si02
#       8
#     4   8   8   8   8   8   8   8
#     4  10  22  40  70  98 136 174 216 280 330 396
#     4   9  21  41  64  94 132 171 221 270 341 400
#     4  11  23  39  62  91 122 161 217 270 328 390
#     4  11  24  39  56  83 120 163 209 267 327 394
#     4  10  23  41  68 102 136 175 228 280 339 408
#     4  11  23  40  63  88 122 162 209 268 329 390
#     4  12  25  40  60  87 123 167 215 268 327 393
#     4  10  22  43  70 100 137 181 226 275 337 412
#
# _framework density 22.850394000000001
#
# number of rings (size 3 to 8) (size 9 to 14) (size 15 to 20)
#    0.400    1.067    0.000    4.800    4.667    6.400 
#    0.000    0.667    0.000    0.000    0.000    0.000 
#    0.000    0.000    0.000    0.000    0.000    0.000 
#
# Total GULP energy -167004.039944 kJ/mol
# GULP energy per Si atom -5566.801331 kJ/mol
# Density = 2.279839 g / cm^3
# Si number density = 22.850394 Si / 1000 Ang^3
#
#
#
# Elastic Constant Matrix: (Units=GPa)
#
#
# Indices 1 2 3 4 5 6 
#
# 1 72.8208 3.1721 6.5474 0.0000 0.0000 0.0000
# 2 3.1721 63.8560 14.4816 0.0000 0.0000 0.0000
# 3 6.5474 14.4816 100.2345 0.0000 0.0000 0.0000
# 4 0.0000 0.0000 0.0000 25.2668 0.0000 0.0000
# 5 0.0000 0.0000 0.0000 0.0000 4.9661 0.0000
# 6 0.0000 0.0000 0.0000 0.0000 0.0000 18.7291
#
#
#
# Elastic Compliance Matrix: (Units=1/GPa)
#
#
# Indices 1 2 3 4 5 6 
#
# 1 0.013829 -0.000498 -0.000831 0.000000 0.000000 0.000000
# 2 -0.000498 0.016209 -0.002309 0.000000 0.000000 0.000000
# 3 -0.000831 -0.002309 0.010365 0.000000 0.000000 0.000000
# 4 0.000000 0.000000 0.000000 0.039578 0.000000 0.000000
# 5 0.000000 0.000000 0.000000 0.000000 0.201366 0.000000
# 6 0.000000 0.000000 0.000000 0.000000 0.000000 0.053393
#
#
# Mechanical properties :
#
#
# Convention : Reuss Voigt Hill
#
# Bulk Modulus (GPa) = 30.18950 31.70151 30.94550
# Shear Modulus (GPa) = 14.16201 23.97309 19.06755
#
# Velocity S-wave (km/s) = 2.49222 3.24255 2.89182
# Velocity P-wave (km/s) = 4.63919 5.28417 4.97215
#
# Compressibility (1/GPa) = 0.03312410
#
# Stress axis : x y z
#
# Youngs Moduli (GPa) = 72.31290 61.69525 96.48288
#
# Poissons Ratio (x) = 0.03075 0.08021
# Poissons Ratio (y) = 0.03604 0.22280
# Poissons Ratio (z) = 0.06011 0.14247
#
# Static dielectric constant tensor:
#      x y z
#    x 1.939940 0.000000 0.000000 
#    y 0.000000 1.826210 0.000000 
#    z 0.000000 0.000000 1.887300 
# 
# From -- ./inp_files/12987.got.cif
#   From: 2010.05.17/outbox.cif.g08.bks.cpg/sg39_7_cif.got.tgz:12987.got - 2010.06.03 18:22:40.
