data_PCOD9361866
_publ_section_title
;
Structure prediction by ZEFSAII (Michael W. Deem and Ramdas Pophale) SiO2 
 PCOD9361866
Probable space group: A B M 2
;
_chemical_formula_sum "Si O2"
_cell_formula_units_Z 44
_cell_length_a 15.486965
_cell_length_b 14.318447
_cell_length_c 9.004972
_cell_angle_alpha 90.000000
_cell_angle_beta 90.000000
_cell_angle_gamma 90.000000
_cell_volume 1996.846125
_symmetry_space_group_name_H-M "A B M 2"
_symmetry_group_IT_number 39
_symmetry_cell_setting 'orthorhombic'
loop_
_space_group_symop_operation_xyz
x,y,z
-x,-y,z
-x,1/2+y,z
x,1/2-y,z
x,1/2+y,1/2+z
-x,1/2-y,1/2+z
-x,y,1/2+z
x,-y,1/2+z
loop_
_atom_site_type_symbol
_atom_site_label
_atom_site_fract_x
_atom_site_fract_y
_atom_site_fract_z
Si Si1 0.500000 0.000000 0.634260
Si Si2 0.061119 0.645625 0.456436
Si Si3 0.922946 0.925766 0.281473
Si Si4 0.221419 0.639797 0.258983
Si Si5 0.624115 0.532425 0.882452
Si Si6 0.255125 0.635482 0.914034
O O1 0.562393 0.944308 0.744057
O O2 0.433282 0.948500 0.526303
O O3 0.087587 0.750000 0.504411
O O4 0.069058 0.586025 0.605137
O O5 0.127890 0.617984 0.325940
O O6 0.965900 0.651896 0.388302
O O7 0.821866 0.913708 0.319900
O O8 0.000000 0.000000 0.321763
O O9 0.233178 0.750000 0.263827
O O10 0.290832 0.592423 0.364852
O O11 0.233165 0.613571 0.087042
O O12 0.657330 0.424020 0.880692
O O13 0.259798 0.750000 0.894056
#
# Coordination Sequence:
#
# PCOD9361866 Si02
#       6
#     4   8   8   8   8   8
#     4  10  24  42  70  98 136 168 220 274 338 402
#     4  11  23  40  61  90 128 169 215 265 313 377
#     4  12  25  40  61  92 129 171 217 264 317 379
#     4  10  23  43  69  98 134 176 221 273 332 398
#     4  11  22  45  67  98 134 176 212 278 333 405
#     4  11  24  44  69  98 134 176 224 275 331 396
#
# _framework density 22.034746999999999
#
# number of rings (size 3 to 8) (size 9 to 14) (size 15 to 20)
#    0.000    1.091    1.818    4.364    2.545    4.364 
#    0.000    6.364    0.000    0.000    0.000    0.000 
#    0.000    0.000    0.000    0.000    0.000    0.000 
#
# Total GULP energy -122610.832283 kJ/mol
# GULP energy per Si atom -5573.219649 kJ/mol
# Density = 2.198460 g / cm^3
# Si number density = 22.034747 Si / 1000 Ang^3
#
#
#
# Elastic Constant Matrix: (Units=GPa)
#
#
# Indices 1 2 3 4 5 6 
#
# 1 107.7828 24.5758 22.7278 0.0000 0.0000 0.0000
# 2 24.5758 57.0591 -0.6905 0.0000 0.0000 0.0000
# 3 22.7278 -0.6905 111.2165 0.0000 0.0000 0.0000
# 4 0.0000 0.0000 0.0000 13.9256 0.0000 0.0000
# 5 0.0000 0.0000 0.0000 0.0000 36.1005 0.0000
# 6 0.0000 0.0000 0.0000 0.0000 0.0000 1.0190
#
#
#
# Elastic Compliance Matrix: (Units=1/GPa)
#
#
# Indices 1 2 3 4 5 6 
#
# 1 0.010819 -0.004687 -0.002240 0.000000 0.000000 0.000000
# 2 -0.004687 0.019557 0.001079 0.000000 0.000000 0.000000
# 3 -0.002240 0.001079 0.009456 0.000000 0.000000 0.000000
# 4 0.000000 0.000000 0.000000 0.071810 0.000000 0.000000
# 5 0.000000 0.000000 0.000000 0.000000 0.027700 0.000000
# 6 0.000000 0.000000 0.000000 0.000000 0.000000 0.981366
#
#
# Mechanical properties :
#
#
# Convention : Reuss Voigt Hill
#
# Bulk Modulus (GPa) = 35.54051 41.03162 38.28606
# Shear Modulus (GPa) = 4.37911 25.50537 14.94224
#
# Velocity S-wave (km/s) = 1.41127 3.40591 2.60690
# Velocity P-wave (km/s) = 4.33819 5.84198 5.14532
#
# Compressibility (1/GPa) = 0.02813691
#
# Stress axis : x y z
#
# Youngs Moduli (GPa) = 92.43060 51.13145 105.75368
#
# Poissons Ratio (x) = 0.23965 0.23689
# Poissons Ratio (y) = 0.43321 -0.11413
# Poissons Ratio (z) = 0.20705 -0.05518
#
# Static dielectric constant tensor:
#      x y z
#    x 1.791410 0.000000 0.000000 
#    y 0.000000 2.089170 0.000000 
#    z 0.000000 0.000000 1.786390 
# 
# From -- ./inp_files/3183.got.cif
#   From: 2010.05.17/outbox.cif.g08.bks.cpg/sg39_2_cif.got.tgz:3183.got - 2010.06.03 18:22:40.
