data_PCOD9361970
_publ_section_title
;
Structure prediction by ZEFSAII (Michael W. Deem and Ramdas Pophale) SiO2 
 PCOD9361970
Probable space group: A B M 2
;
_chemical_formula_sum "Si O2"
_cell_formula_units_Z 28
_cell_length_a 4.972059
_cell_length_b 25.984593
_cell_length_c 8.891610
_cell_angle_alpha 90.000000
_cell_angle_beta 90.000000
_cell_angle_gamma 90.000000
_cell_volume 1148.768710
_symmetry_space_group_name_H-M "A B M 2"
_symmetry_group_IT_number 39
_symmetry_cell_setting 'orthorhombic'
loop_
_space_group_symop_operation_xyz
x,y,z
-x,-y,z
-x,1/2+y,z
x,1/2-y,z
x,1/2+y,1/2+z
-x,1/2-y,1/2+z
-x,y,1/2+z
x,-y,1/2+z
loop_
_atom_site_type_symbol
_atom_site_label
_atom_site_fract_x
_atom_site_fract_y
_atom_site_fract_z
Si Si1 0.645854 0.690775 0.501300
Si Si2 0.500000 0.500000 0.565299
Si Si3 0.170705 0.047512 0.297409
Si Si4 0.855172 0.653124 0.824086
O O1 0.556017 0.750000 0.513258
O O2 0.750375 0.671336 0.662162
O O3 0.397889 0.657797 0.436306
O O4 0.898058 0.686878 0.387750
O O5 0.707244 0.527588 0.452903
O O6 0.598204 0.453176 0.672207
O O7 0.988353 0.096976 0.314327
O O8 0.000000 0.000000 0.238119
#
# Coordination Sequence:
#
# PCOD9361970 Si02
#       4
#     8   4   8   8
#     4  12  27  53  82 119 162 209 275 348 410 481
#     4  10  26  50  74 108 176 206 274 328 400 460
#     4  11  27  46  78 114 164 216 267 329 398 493
#     4  12  30  49  85 118 161 217 272 330 421 487
#
# _framework density 24.373919999999998
#
# number of rings (size 3 to 8) (size 9 to 14) (size 15 to 20)
#    0.000    0.571    0.000    5.143   16.000    0.000 
#    0.000    0.000    0.000    0.000    0.000    0.000 
#    0.000    0.000    0.000    0.000    0.000    0.000 
#
# Total GULP energy -78490.635452 kJ/mol
# GULP energy per Si atom -5606.473961 kJ/mol
# Density = 2.431844 g / cm^3
# Si number density = 24.373920 Si / 1000 Ang^3
#
#
#
# Elastic Constant Matrix: (Units=GPa)
#
#
# Indices 1 2 3 4 5 6 
#
# 1 132.7760 47.2183 69.7024 0.0000 0.0000 0.0000
# 2 47.2183 144.9766 76.6064 0.0000 0.0000 0.0000
# 3 69.7024 76.6064 168.9475 0.0000 0.0000 0.0000
# 4 0.0000 0.0000 0.0000 -70.9499 0.0000 0.0000
# 5 0.0000 0.0000 0.0000 0.0000 34.2825 0.0000
# 6 0.0000 0.0000 0.0000 0.0000 0.0000 48.6189
#
#
#
# Elastic Compliance Matrix: (Units=1/GPa)
#
#
# Indices 1 2 3 4 5 6 
#
# 1 0.009822 -0.001391 -0.003422 0.000000 0.000000 0.000000
# 2 -0.001391 0.009268 -0.003629 0.000000 0.000000 0.000000
# 3 -0.003422 -0.003629 0.008976 0.000000 0.000000 0.000000
# 4 0.000000 0.000000 0.000000 -0.014094 0.000000 0.000000
# 5 0.000000 0.000000 0.000000 0.000000 0.029169 0.000000
# 6 0.000000 0.000000 0.000000 0.000000 0.000000 0.020568
#
#
# Mechanical properties :
#
#
# Convention : Reuss Voigt Hill
#
# Bulk Modulus (GPa) = 89.41429 92.63938 91.02683
# Shear Modulus (GPa) = 59.29782 19.26848 39.28315
#
# Velocity S-wave (km/s) = 4.93773 2.81470 4.01894
# Velocity P-wave (km/s) = 8.32300 6.97520 7.67873
#
# Compressibility (1/GPa) = 0.01118390
#
# Stress axis : x y z
#
# Youngs Moduli (GPa) = 101.80778 107.89721 111.40867
#
# Poissons Ratio (x) = 0.15010 0.38120
# Poissons Ratio (y) = 0.14163 0.40425
# Poissons Ratio (z) = 0.34835 0.39151
#
# Static dielectric constant tensor:
#      x y z
#    x 2.082790 0.000000 0.000000 
#    y 0.000000 1.910630 0.000000 
#    z 0.000000 0.000000 1.889260 
# 
# From -- ./inp_files/1688.got.cif
#   From: 2010.05.17/outbox.cif.g08.bks.cpg/sg39_1_cif.got.tgz:1688.got - 2010.06.03 18:22:40.
