data_PCOD9361754
_publ_section_title
;
Structure prediction by ZEFSAII (Michael W. Deem and Ramdas Pophale) SiO2 
 PCOD9361754
Probable space group: A B M 2
;
_chemical_formula_sum "Si O2"
_cell_formula_units_Z 48
_cell_length_a 10.152893
_cell_length_b 16.576066
_cell_length_c 11.882120
_cell_angle_alpha 90.000000
_cell_angle_beta 90.000000
_cell_angle_gamma 90.000000
_cell_volume 1999.701676
_symmetry_space_group_name_H-M "A B M 2"
_symmetry_group_IT_number 39
_symmetry_cell_setting 'orthorhombic'
loop_
_space_group_symop_operation_xyz
x,y,z
-x,-y,z
-x,1/2+y,z
x,1/2-y,z
x,1/2+y,1/2+z
-x,1/2-y,1/2+z
-x,y,1/2+z
x,-y,1/2+z
loop_
_atom_site_type_symbol
_atom_site_label
_atom_site_fract_x
_atom_site_fract_y
_atom_site_fract_z
Si Si1 0.078509 0.080479 0.457680
Si Si2 0.457545 0.907616 0.483247
Si Si3 0.811109 0.160651 0.501532
Si Si4 0.528769 0.904087 0.736542
Si Si5 0.095862 0.660304 0.751303
Si Si6 0.798411 0.655725 0.661207
O O1 0.133913 0.087911 0.333059
O O2 0.186170 0.105472 0.546899
O O3 0.958936 0.145325 0.459783
O O4 0.000000 0.000000 0.485500
O O5 0.299772 0.902186 0.470116
O O6 0.484332 0.872612 0.610457
O O7 0.515090 0.873991 0.362847
O O8 0.500000 0.000000 0.488775
O O9 0.768387 0.250000 0.464824
O O10 0.825675 0.157394 0.635745
O O11 0.683197 0.883208 0.731815
O O12 0.500000 0.000000 0.736438
O O13 0.118295 0.750000 0.800060
O O14 0.942391 0.651362 0.717580
O O15 0.771906 0.750000 0.639840
#
# Coordination Sequence:
#
# PCOD9361754 Si02
#       6
#     8   8   8   8   8   8
#     4  11  23  36  63 102 136 169 215 269 340 405
#     4  10  23  43  65  95 128 177 224 284 338 402
#     4  10  22  42  66  92 131 175 221 272 333 405
#     4  10  23  42  66  91 132 173 228 280 341 398
#     4   9  19  39  64  95 132 170 215 270 331 408
#     4  10  22  42  66  93 129 174 219 271 333 406
#
# _framework density 24.003581000000001
#
# number of rings (size 3 to 8) (size 9 to 14) (size 15 to 20)
#    0.000    2.000    0.000    3.500    4.667    6.667 
#    6.000    0.000    0.000    0.000    0.000    0.000 
#    0.000    0.000    0.000    0.000    0.000    0.000 
#
# Total GULP energy -133927.400101 kJ/mol
# GULP energy per Si atom -5580.308338 kJ/mol
# Density = 2.394895 g / cm^3
# Si number density = 24.003581 Si / 1000 Ang^3
#
#
#
# Elastic Constant Matrix: (Units=GPa)
#
#
# Indices 1 2 3 4 5 6 
#
# 1 60.9952 17.1329 9.8053 0.0000 0.0000 0.0000
# 2 17.1329 75.0633 10.7117 0.0000 0.0000 0.0000
# 3 9.8053 10.7117 168.7151 0.0000 0.0000 0.0000
# 4 0.0000 0.0000 0.0000 6.1480 0.0000 0.0000
# 5 0.0000 0.0000 0.0000 0.0000 -16.6652 0.0000
# 6 0.0000 0.0000 0.0000 0.0000 0.0000 23.2542
#
#
#
# Elastic Compliance Matrix: (Units=1/GPa)
#
#
# Indices 1 2 3 4 5 6 
#
# 1 0.017618 -0.003911 -0.000776 0.000000 0.000000 0.000000
# 2 -0.003911 0.014312 -0.000681 0.000000 0.000000 0.000000
# 3 -0.000776 -0.000681 0.006015 0.000000 0.000000 0.000000
# 4 0.000000 0.000000 0.000000 0.162654 0.000000 0.000000
# 5 0.000000 0.000000 0.000000 0.000000 -0.060005 0.000000
# 6 0.000000 0.000000 0.000000 0.000000 0.000000 0.043003
#
#
# Mechanical properties :
#
#
# Convention : Reuss Voigt Hill
#
# Bulk Modulus (GPa) = 36.75099 42.23037 39.49068
# Shear Modulus (GPa) = 24.58188 20.35565 22.46877
#
# Velocity S-wave (km/s) = 3.20362 2.91525 3.06283
# Velocity P-wave (km/s) = 5.38777 5.38174 5.38476
#
# Compressibility (1/GPa) = 0.02721015
#
# Stress axis : x y z
#
# Youngs Moduli (GPa) = 56.76061 69.87199 166.23747
#
# Poissons Ratio (x) = 0.27324 0.12894
# Poissons Ratio (y) = 0.22196 0.11327
# Poissons Ratio (z) = 0.04403 0.04761
#
# Static dielectric constant tensor:
#      x y z
#    x 1.891790 0.000000 0.000000 
#    y 0.000000 1.849250 0.000000 
#    z 0.000000 0.000000 2.056360 
# 
# From -- ./inp_files/5843.got.cif
#   From: 2010.05.17/outbox.cif.g08.bks.cpg/sg39_3_cif.got.tgz:5843.got - 2010.06.03 18:22:40.
