data_PCOD9361676
_publ_section_title
;
Structure prediction by ZEFSAII (Michael W. Deem and Ramdas Pophale) SiO2 
 PCOD9361676
Probable space group: A B M 2
;
_chemical_formula_sum "Si O2"
_cell_formula_units_Z 64
_cell_length_a 5.315932
_cell_length_b 19.222069
_cell_length_c 28.854639
_cell_angle_alpha 90.000000
_cell_angle_beta 90.000000
_cell_angle_gamma 90.000000
_cell_volume 2948.459686
_symmetry_space_group_name_H-M "A B M 2"
_symmetry_group_IT_number 39
_symmetry_cell_setting 'orthorhombic'
loop_
_space_group_symop_operation_xyz
x,y,z
-x,-y,z
-x,1/2+y,z
x,1/2-y,z
x,1/2+y,1/2+z
-x,1/2-y,1/2+z
-x,y,1/2+z
x,-y,1/2+z
loop_
_atom_site_type_symbol
_atom_site_label
_atom_site_fract_x
_atom_site_fract_y
_atom_site_fract_z
Si Si1 0.773167 0.828934 0.511360
Si Si2 0.239799 0.827567 0.829897
Si Si3 0.096903 0.929217 0.380060
Si Si4 0.974269 0.416647 0.650018
Si Si5 0.938876 0.670957 0.732952
Si Si6 0.630013 0.929609 0.785837
Si Si7 0.528127 0.917378 0.593909
Si Si8 0.274297 0.328962 0.951444
O O1 0.804118 0.750000 0.530407
O O2 0.652497 0.879504 0.549799
O O3 0.547143 0.826545 0.474437
O O4 0.042099 0.846502 0.487029
O O5 0.309089 0.750000 0.843754
O O6 0.063898 0.824210 0.783962
O O7 0.464956 0.872737 0.811603
O O8 0.110098 0.870591 0.870190
O O9 0.192145 0.950368 0.328833
O O10 0.286144 0.888119 0.412523
O O11 0.000000 0.000000 0.402518
O O12 0.903454 0.366758 0.693054
O O13 0.754808 0.400877 0.612096
O O14 0.000000 0.500000 0.660546
O O15 0.256527 0.400868 0.632130
O O16 0.863870 0.750000 0.720572
O O17 0.732308 0.612151 0.742375
O O18 0.500000 0.000000 0.770287
O O19 0.500000 0.000000 0.585254
O O20 0.218406 0.250000 0.933991
#
# Coordination Sequence:
#
# PCOD9361676 Si02
#       8
#     8   8   8   8   8   8   8   8
#     4  10  22  41  64  91 122 162 206 254 318 384
#     4  10  22  40  60  85 122 163 207 259 313 369
#     4  11  23  39  58  91 123 160 213 260 314 378
#     4  10  23  39  63  93 126 165 206 260 318 383
#     4  10  24  40  59  91 124 162 216 264 318 379
#     4  11  23  38  64  88 122 169 213 265 317 377
#     4  10  22  41  63  92 125 160 207 254 320 385
#     4  10  23  40  62  92 126 163 207 258 317 381
#
# _framework density 21.706249
#
# number of rings (size 3 to 8) (size 9 to 14) (size 15 to 20)
#    0.000    1.750    1.250    1.500    5.250    4.000 
#    0.000    0.000    0.000    0.000    0.000    0.000 
#    0.000    0.000    0.000    0.000    0.000    0.000 
#
# Total GULP energy -178344.378996 kJ/mol
# GULP energy per Si atom -5573.261844 kJ/mol
# Density = 2.165684 g / cm^3
# Si number density = 21.706249 Si / 1000 Ang^3
#
#
#
# Elastic Constant Matrix: (Units=GPa)
#
#
# Indices 1 2 3 4 5 6 
#
# 1 76.5534 15.9634 -0.9737 0.0000 0.0000 0.0000
# 2 15.9634 99.2401 24.4756 0.0000 0.0000 0.0000
# 3 -0.9737 24.4756 41.8415 0.0000 0.0000 0.0000
# 4 0.0000 0.0000 0.0000 32.3736 0.0000 0.0000
# 5 0.0000 0.0000 0.0000 0.0000 24.9013 0.0000
# 6 0.0000 0.0000 0.0000 0.0000 0.0000 22.0640
#
#
#
# Elastic Compliance Matrix: (Units=1/GPa)
#
#
# Indices 1 2 3 4 5 6 
#
# 1 0.013640 -0.002656 0.001871 0.000000 0.000000 0.000000
# 2 -0.002656 0.012292 -0.007252 0.000000 0.000000 0.000000
# 3 0.001871 -0.007252 0.028186 0.000000 0.000000 0.000000
# 4 0.000000 0.000000 0.000000 0.030889 0.000000 0.000000
# 5 0.000000 0.000000 0.000000 0.000000 0.040159 0.000000
# 6 0.000000 0.000000 0.000000 0.000000 0.000000 0.045323
#
#
# Mechanical properties :
#
#
# Convention : Reuss Voigt Hill
#
# Bulk Modulus (GPa) = 26.28525 32.95174 29.61850
# Shear Modulus (GPa) = 25.09482 27.74577 26.42030
#
# Velocity S-wave (km/s) = 3.40385 3.57913 3.49259
# Velocity P-wave (km/s) = 5.25206 5.68277 5.47165
#
# Compressibility (1/GPa) = 0.03804414
#
# Stress axis : x y z
#
# Youngs Moduli (GPa) = 73.31201 81.35121 35.47913
#
# Poissons Ratio (x) = 0.21603 -0.06637
# Poissons Ratio (y) = 0.19468 0.25731
# Poissons Ratio (z) = -0.13715 0.58999
#
# Static dielectric constant tensor:
#      x y z
#    x 1.886120 0.000000 0.000000 
#    y 0.000000 1.765120 0.000000 
#    z 0.000000 0.000000 1.990800 
# 
# From -- ./inp_files/16619.got.cif
#   From: 2010.05.17/outbox.cif.g08.bks.cpg/sg39_9_cif.got.tgz:16619.got - 2010.06.03 18:22:40.
