data_PCOD9361624
_publ_section_title
;
Structure prediction by ZEFSAII (Michael W. Deem and Ramdas Pophale) SiO2 
 PCOD9361624
Probable space group: A B M 2
;
_chemical_formula_sum "Si O2"
_cell_formula_units_Z 64
_cell_length_a 15.816904
_cell_length_b 8.761510
_cell_length_c 24.249249
_cell_angle_alpha 90.000000
_cell_angle_beta 90.000000
_cell_angle_gamma 90.000000
_cell_volume 3360.460019
_symmetry_space_group_name_H-M "A B M 2"
_symmetry_group_IT_number 39
_symmetry_cell_setting 'orthorhombic'
loop_
_space_group_symop_operation_xyz
x,y,z
-x,-y,z
-x,1/2+y,z
x,1/2-y,z
x,1/2+y,1/2+z
-x,1/2-y,1/2+z
-x,y,1/2+z
x,-y,1/2+z
loop_
_atom_site_type_symbol
_atom_site_label
_atom_site_fract_x
_atom_site_fract_y
_atom_site_fract_z
Si Si1 0.088071 0.432754 0.448740
Si Si2 0.844416 0.433678 0.336049
Si Si3 0.090273 0.433527 0.715071
Si Si4 0.588566 0.568286 0.949278
Si Si5 0.590838 0.067670 0.714603
Si Si6 0.255932 0.433618 0.517146
Si Si7 0.655058 0.566648 0.336501
Si Si8 0.254075 0.565848 0.145930
O O1 0.082639 0.250000 0.445276
O O2 0.106056 0.500929 0.388312
O O3 0.168180 0.472869 0.486837
O O4 0.000000 0.500000 0.469989
O O5 0.840221 0.250000 0.339341
O O6 0.887633 0.476694 0.278140
O O7 0.750071 0.501615 0.337073
O O8 0.086060 0.250000 0.712718
O O9 0.168060 0.483586 0.676587
O O10 0.000000 0.500000 0.698796
O O11 0.500000 0.500000 0.969690
O O12 0.584274 0.750000 0.947707
O O13 0.605996 0.503950 0.888043
O O14 0.666429 0.513798 0.986716
O O15 0.588459 0.250000 0.710667
O O16 0.612809 0.026841 0.778073
O O17 0.500000 0.000000 0.699567
O O18 0.665409 0.004026 0.676526
O O19 0.266830 0.250000 0.512259
O O20 0.252694 0.473638 0.581509
O O21 0.657584 0.750000 0.342104
O O22 0.258910 0.750000 0.150523
#
# Coordination Sequence:
#
# PCOD9361624 Si02
#       8
#     8   8   8   8   8   8   8   8
#     4  11  23  39  61  90 125 162 205 252 306 366
#     4  11  21  36  61  92 124 161 202 247 307 368
#     4  10  22  38  60  90 123 160 202 248 301 361
#     4  12  25  41  65  93 125 161 203 250 304 366
#     4  11  24  40  63  93 124 161 201 248 303 362
#     4  10  23  43  65  88 120 162 207 256 308 360
#     4  11  22  38  62  93 127 161 199 246 306 368
#     4  10  22  43  65  87 120 162 207 256 306 358
#
# _framework density 19.045010999999999
#
# number of rings (size 3 to 8) (size 9 to 14) (size 15 to 20)
#    0.000    1.250    2.500    3.375    0.000    7.000 
#    0.000    0.000    0.000    0.000    0.000    0.000 
#    0.000    0.000    0.000    0.000    0.000    0.000 
#
# Total GULP energy -178981.163571 kJ/mol
# GULP energy per Si atom -5593.161362 kJ/mol
# Density = 1.900166 g / cm^3
# Si number density = 19.045011 Si / 1000 Ang^3
#
#
#
# Elastic Constant Matrix: (Units=GPa)
#
#
# Indices 1 2 3 4 5 6 
#
# 1 193.3170 59.7350 81.9719 0.0000 0.0000 0.0000
# 2 59.7350 56.2971 57.2578 0.0000 0.0000 0.0000
# 3 81.9719 57.2578 144.1155 0.0000 0.0000 0.0000
# 4 0.0000 0.0000 0.0000 17.9195 0.0000 0.0000
# 5 0.0000 0.0000 0.0000 0.0000 -1.9444 0.0000
# 6 0.0000 0.0000 0.0000 0.0000 0.0000 31.6259
#
#
#
# Elastic Compliance Matrix: (Units=1/GPa)
#
#
# Indices 1 2 3 4 5 6 
#
# 1 0.008020 -0.006494 -0.001981 0.000000 0.000000 0.000000
# 2 -0.006494 0.035067 -0.010238 0.000000 0.000000 0.000000
# 3 -0.001981 -0.010238 0.012134 0.000000 0.000000 0.000000
# 4 0.000000 0.000000 0.000000 0.055805 0.000000 0.000000
# 5 0.000000 0.000000 0.000000 0.000000 -0.514309 0.000000
# 6 0.000000 0.000000 0.000000 0.000000 0.000000 0.031620
#
#
# Mechanical properties :
#
#
# Convention : Reuss Voigt Hill
#
# Bulk Modulus (GPa) = 56.20441 87.96211 72.08326
# Shear Modulus (GPa) = -15.22971 22.50455 3.63742
#
# Velocity S-wave (km/s) = -2.83091 3.44124 1.38349
# Velocity P-wave (km/s) = 4.34626 7.87885 6.36264
#
# Compressibility (1/GPa) = 0.01779220
#
# Stress axis : x y z
#
# Youngs Moduli (GPa) = 124.69230 28.51702 82.41591
#
# Poissons Ratio (x) = 0.18520 0.16329
# Poissons Ratio (y) = 0.80979 0.84380
# Poissons Ratio (z) = 0.24706 0.29197
#
# Static dielectric constant tensor:
#      x y z
#    x 1.646690 0.000000 0.000000 
#    y 0.000000 1.640100 0.000000 
#    z 0.000000 0.000000 1.644410 
# 
# From -- ./inp_files/16173.got.cif
#   From: 2010.05.17/outbox.cif.g08.bks.cpg/sg39_9_cif.got.tgz:16173.got - 2010.06.03 18:22:40.
