data_PCOD9361399
_publ_section_title
;
Structure prediction by ZEFSAII (Michael W. Deem and Ramdas Pophale) SiO2 
 PCOD9361399
Probable space group: A B M 2
;
_chemical_formula_sum "Si O2"
_cell_formula_units_Z 48
_cell_length_a 6.827587
_cell_length_b 16.666982
_cell_length_c 16.004033
_cell_angle_alpha 90.000000
_cell_angle_beta 90.000000
_cell_angle_gamma 90.000000
_cell_volume 1821.183250
_symmetry_space_group_name_H-M "A B M 2"
_symmetry_group_IT_number 39
_symmetry_cell_setting 'orthorhombic'
loop_
_space_group_symop_operation_xyz
x,y,z
-x,-y,z
-x,1/2+y,z
x,1/2-y,z
x,1/2+y,1/2+z
-x,1/2-y,1/2+z
-x,y,1/2+z
x,-y,1/2+z
loop_
_atom_site_type_symbol
_atom_site_label
_atom_site_fract_x
_atom_site_fract_y
_atom_site_fract_z
Si Si1 0.223449 0.337990 0.167510
Si Si2 0.771737 0.979897 0.845857
Si Si3 0.226818 0.655186 0.847616
Si Si4 0.309526 0.655991 0.210633
Si Si5 0.632935 0.926803 0.025075
Si Si6 0.238095 0.657349 0.029257
O O1 0.182854 0.250000 0.132401
O O2 0.119877 0.344096 0.257281
O O3 0.455894 0.341310 0.191128
O O4 0.210976 0.401274 0.093870
O O5 0.667089 0.067695 0.838040
O O6 0.723678 0.909656 0.781347
O O7 0.000000 0.000000 0.835215
O O8 0.729163 0.952139 0.939464
O O9 0.302293 0.750000 0.851897
O O10 0.133639 0.641778 0.940083
O O11 0.262033 0.750000 0.230564
O O12 0.209233 0.625898 0.123602
O O13 0.467871 0.859518 0.008624
O O14 0.500000 0.000000 0.057059
O O15 0.212900 0.750000 0.043505
#
# Coordination Sequence:
#
# PCOD9361399 Si02
#       6
#     8   8   8   8   8   8
#     4   9  20  37  65 101 126 155 213 283 338 390
#     4  12  27  41  59  94 135 181 224 262 328 406
#     4  10  21  39  60  88 127 168 209 267 330 389
#     4   9  20  38  65  95 126 165 217 277 333 390
#     4  11  21  36  61  95 121 164 216 270 327 380
#     4   9  18  37  65  97 124 157 215 281 337 387
#
# _framework density 26.356490999999998
#
# number of rings (size 3 to 8) (size 9 to 14) (size 15 to 20)
#    0.000    2.000    1.667    2.500    4.667    3.333 
#    0.000    3.333    0.000    4.000    0.000    0.000 
#    0.000    0.000    0.000    0.000    0.000    0.000 
#
# Total GULP energy -133829.693585 kJ/mol
# GULP energy per Si atom -5576.237233 kJ/mol
# Density = 2.629650 g / cm^3
# Si number density = 26.356491 Si / 1000 Ang^3
#
#
#
# Elastic Constant Matrix: (Units=GPa)
#
#
# Indices 1 2 3 4 5 6 
#
# 1 107.9422 38.8068 15.2408 0.0000 0.0000 0.0000
# 2 38.8068 188.3237 126.7964 0.0000 0.0000 0.0000
# 3 15.2408 126.7964 198.5705 0.0000 0.0000 0.0000
# 4 0.0000 0.0000 0.0000 53.4116 0.0000 0.0000
# 5 0.0000 0.0000 0.0000 0.0000 22.8237 0.0000
# 6 0.0000 0.0000 0.0000 0.0000 0.0000 20.2448
#
#
#
# Elastic Compliance Matrix: (Units=1/GPa)
#
#
# Indices 1 2 3 4 5 6 
#
# 1 0.010111 -0.002738 0.000973 0.000000 0.000000 0.000000
# 2 -0.002738 0.010056 -0.006211 0.000000 0.000000 0.000000
# 3 0.000973 -0.006211 0.008927 0.000000 0.000000 0.000000
# 4 0.000000 0.000000 0.000000 0.018723 0.000000 0.000000
# 5 0.000000 0.000000 0.000000 0.000000 0.043814 0.000000
# 6 0.000000 0.000000 0.000000 0.000000 0.000000 0.049395
#
#
# Mechanical properties :
#
#
# Convention : Reuss Voigt Hill
#
# Bulk Modulus (GPa) = 76.09782 95.16938 85.63360
# Shear Modulus (GPa) = 30.98635 40.22886 35.60761
#
# Velocity S-wave (km/s) = 3.43251 3.91107 3.67958
# Velocity P-wave (km/s) = 6.68167 7.52212 7.11432
#
# Compressibility (1/GPa) = 0.01314098
#
# Stress axis : x y z
#
# Youngs Moduli (GPa) = 98.89838 99.44107 112.01377
#
# Poissons Ratio (x) = 0.27231 -0.10893
# Poissons Ratio (y) = 0.27082 0.69574
# Poissons Ratio (z) = -0.09618 0.61765
#
# Static dielectric constant tensor:
#      x y z
#    x 2.285240 0.000000 0.000000 
#    y 0.000000 2.053160 0.000000 
#    z 0.000000 0.000000 2.114880 
# 
# From -- ./inp_files/8370.got.cif
#   From: 2010.05.17/outbox.cif.g08.bks.cpg/sg39_5_cif.got.tgz:8370.got - 2010.06.03 18:22:40.
