data_PCOD9361605
_publ_section_title
;
Structure prediction by ZEFSAII (Michael W. Deem and Ramdas Pophale) SiO2 
 PCOD9361605
Probable space group: A B M 2
;
_chemical_formula_sum "Si O2"
_cell_formula_units_Z 40
_cell_length_a 15.538635
_cell_length_b 22.491507
_cell_length_c 5.084098
_cell_angle_alpha 90.000000
_cell_angle_beta 90.000000
_cell_angle_gamma 90.000000
_cell_volume 1776.827774
_symmetry_space_group_name_H-M "A B M 2"
_symmetry_group_IT_number 39
_symmetry_cell_setting 'orthorhombic'
loop_
_space_group_symop_operation_xyz
x,y,z
-x,-y,z
-x,1/2+y,z
x,1/2-y,z
x,1/2+y,1/2+z
-x,1/2-y,1/2+z
-x,y,1/2+z
x,-y,1/2+z
loop_
_atom_site_type_symbol
_atom_site_label
_atom_site_fract_x
_atom_site_fract_y
_atom_site_fract_z
Si Si1 0.760602 0.317931 0.392310
Si Si2 0.463528 0.932977 0.060019
Si Si3 0.888506 0.962302 0.262463
Si Si4 0.049824 0.835047 0.626368
Si Si5 0.281269 0.893477 0.871903
O O1 0.735361 0.250000 0.335719
O O2 0.858186 0.317128 0.508444
O O3 0.707030 0.347723 0.630577
O O4 0.753889 0.357992 0.128862
O O5 0.475030 0.904053 0.343003
O O6 0.500000 0.000000 0.102897
O O7 0.367400 0.927629 0.955727
O O8 0.941858 0.905937 0.164666
O O9 0.789909 0.939570 0.267198
O O10 0.902883 0.985430 0.555530
O O11 0.977292 0.816124 0.418400
#
# Coordination Sequence:
#
# PCOD9361605 Si02
#       5
#     8   8   8   8   8
#     4  11  24  44  68  93 122 176 226 272 336 379
#     4  10  22  37  62  98 132 169 198 258 327 385
#     4  11  23  36  59  89 126 179 209 247 315 397
#     4  11  23  40  60  90 127 161 218 278 321 373
#     4  11  23  41  65  94 137 165 217 271 316 394
#
# _framework density 22.512031
#
# number of rings (size 3 to 8) (size 9 to 14) (size 15 to 20)
#    0.000    1.200    0.000    7.800    5.600    3.200 
#    0.000    0.000    0.000   12.000    0.000    0.000 
#    0.000    0.000    0.000    0.000    0.000    0.000 
#
# Total GULP energy -111763.289168 kJ/mol
# GULP energy per Si atom -5588.164458 kJ/mol
# Density = 2.246079 g / cm^3
# Si number density = 22.512031 Si / 1000 Ang^3
#
#
#
# Elastic Constant Matrix: (Units=GPa)
#
#
# Indices 1 2 3 4 5 6 
#
# 1 95.9107 41.4560 20.1061 0.0000 0.0000 0.0000
# 2 41.4560 97.1138 14.7980 0.0000 0.0000 0.0000
# 3 20.1061 14.7980 138.1344 0.0000 0.0000 0.0000
# 4 0.0000 0.0000 0.0000 -5.2992 0.0000 0.0000
# 5 0.0000 0.0000 0.0000 0.0000 39.5598 0.0000
# 6 0.0000 0.0000 0.0000 0.0000 0.0000 7.1925
#
#
#
# Elastic Compliance Matrix: (Units=1/GPa)
#
#
# Indices 1 2 3 4 5 6 
#
# 1 0.013018 -0.005356 -0.001321 0.000000 0.000000 0.000000
# 2 -0.005356 0.012672 -0.000578 0.000000 0.000000 0.000000
# 3 -0.001321 -0.000578 0.007494 0.000000 0.000000 0.000000
# 4 0.000000 0.000000 0.000000 -0.188708 0.000000 0.000000
# 5 0.000000 0.000000 0.000000 0.000000 0.025278 0.000000
# 6 0.000000 0.000000 0.000000 0.000000 0.000000 0.139034
#
#
# Mechanical properties :
#
#
# Convention : Reuss Voigt Hill
#
# Bulk Modulus (GPa) = 53.55166 53.76432 53.65799
# Shear Modulus (GPa) = 169.36627 25.27721 97.32174
#
# Velocity S-wave (km/s) = 8.68314 3.35450 6.58216
# Velocity P-wave (km/s) = 11.15208 6.24003 9.03623
#
# Compressibility (1/GPa) = 0.01867356
#
# Stress axis : x y z
#
# Youngs Moduli (GPa) = 76.81460 78.91651 133.44855
#
# Poissons Ratio (x) = 0.42267 0.17630
# Poissons Ratio (y) = 0.41142 0.07712
# Poissons Ratio (z) = 0.10148 0.04561
#
# Static dielectric constant tensor:
#      x y z
#    x 1.854740 0.000000 0.000000 
#    y 0.000000 1.749200 0.000000 
#    z 0.000000 0.000000 1.868590 
# 
# From -- ./inp_files/527.got.cif
#   From: 2010.05.17/outbox.cif.g08.bks.cpg/sg39_1_cif.got.tgz:527.got - 2010.06.03 18:22:40.
