data_PCOD9361178
_publ_section_title
;
Structure prediction by ZEFSAII (Michael W. Deem and Ramdas Pophale) SiO2 
 PCOD9361178
Probable space group: A B M 2
;
_chemical_formula_sum "Si O2"
_cell_formula_units_Z 32
_cell_length_a 7.166041
_cell_length_b 18.786722
_cell_length_c 9.462400
_cell_angle_alpha 90.000000
_cell_angle_beta 90.000000
_cell_angle_gamma 90.000000
_cell_volume 1273.889038
_symmetry_space_group_name_H-M "A B M 2"
_symmetry_group_IT_number 39
_symmetry_cell_setting 'orthorhombic'
loop_
_space_group_symop_operation_xyz
x,y,z
-x,-y,z
-x,1/2+y,z
x,1/2-y,z
x,1/2+y,1/2+z
-x,1/2-y,1/2+z
-x,y,1/2+z
x,-y,1/2+z
loop_
_atom_site_type_symbol
_atom_site_label
_atom_site_fract_x
_atom_site_fract_y
_atom_site_fract_z
Si Si1 0.069134 0.376082 0.280340
Si Si2 0.671324 0.830267 0.774586
Si Si3 0.605553 0.601209 0.477754
Si Si4 0.832983 0.956778 0.012874
O O1 0.235247 0.358038 0.388122
O O2 0.894945 0.325016 0.252669
O O3 0.941470 0.430670 0.373389
O O4 0.177480 0.397660 0.137233
O O5 0.601599 0.750000 0.798681
O O6 0.599347 0.866788 0.632634
O O7 0.590336 0.881893 0.899361
O O8 0.681036 0.519499 0.487442
O O9 0.000000 0.000000 0.090738
#
# Coordination Sequence:
#
# PCOD9361178 Si02
#       4
#     8   8   8   8
#     4  11  23  48  75 111 146 199 249 323 382 458
#     4  12  28  49  71 107 153 206 260 307 381 474
#     4  11  27  47  75 108 151 199 255 319 386 461
#     4  10  20  43  75 105 148 179 246 312 389 444
#
# _framework density 25.119927000000001
#
# number of rings (size 3 to 8) (size 9 to 14) (size 15 to 20)
#    0.000    1.000    5.000    3.000    3.500    3.000 
#    0.000    0.000    0.000    0.000    0.000    0.000 
#    0.000    0.000    0.000    0.000    0.000    0.000 
#
# Total GULP energy -89102.878701 kJ/mol
# GULP energy per Si atom -5568.929919 kJ/mol
# Density = 2.506275 g / cm^3
# Si number density = 25.119927 Si / 1000 Ang^3
#
#
#
# Elastic Constant Matrix: (Units=GPa)
#
#
# Indices 1 2 3 4 5 6 
#
# 1 180.8839 9.5662 33.3234 0.0000 0.0000 0.0000
# 2 9.5662 125.1536 57.1753 0.0000 0.0000 0.0000
# 3 33.3234 57.1753 200.0051 0.0000 0.0000 0.0000
# 4 0.0000 0.0000 0.0000 -66.0818 0.0000 0.0000
# 5 0.0000 0.0000 0.0000 0.0000 35.2161 0.0000
# 6 0.0000 0.0000 0.0000 0.0000 0.0000 20.6166
#
#
#
# Elastic Compliance Matrix: (Units=1/GPa)
#
#
# Indices 1 2 3 4 5 6 
#
# 1 0.005703 -0.000002 -0.000950 0.000000 0.000000 0.000000
# 2 -0.000002 0.009190 -0.002627 0.000000 0.000000 0.000000
# 3 -0.000950 -0.002627 0.005909 0.000000 0.000000 0.000000
# 4 0.000000 0.000000 0.000000 -0.015133 0.000000 0.000000
# 5 0.000000 0.000000 0.000000 0.000000 0.028396 0.000000
# 6 0.000000 0.000000 0.000000 0.000000 0.000000 0.048505
#
#
# Mechanical properties :
#
#
# Convention : Reuss Voigt Hill
#
# Bulk Modulus (GPa) = 73.28380 78.46363 75.87371
# Shear Modulus (GPa) = 53.03534 25.01537 39.02536
#
# Velocity S-wave (km/s) = 4.59986 3.15911 3.94580
# Velocity P-wave (km/s) = 7.57948 6.67908 7.14348
#
# Compressibility (1/GPa) = 0.01364558
#
# Stress axis : x y z
#
# Youngs Moduli (GPa) = 175.33182 108.80893 169.23188
#
# Poissons Ratio (x) = 0.00023 0.16071
# Poissons Ratio (y) = 0.00037 0.44456
# Poissons Ratio (z) = 0.16651 0.28583
#
# Static dielectric constant tensor:
#      x y z
#    x 4.667710 0.000000 0.000000 
#    y 0.000000 2.318310 0.000000 
#    z 0.000000 0.000000 1.917020 
# 
# From -- ./inp_files/1987.got.cif
#   From: 2010.05.17/outbox.cif.g08.bks.cpg/sg39_1_cif.got.tgz:1987.got - 2010.06.03 18:22:40.
