data_PCOD9361863
_publ_section_title
;
Structure prediction by ZEFSAII (Michael W. Deem and Ramdas Pophale) SiO2 
 PCOD9361863
Probable space group: A B M 2
;
_chemical_formula_sum "Si O2"
_cell_formula_units_Z 40
_cell_length_a 6.669279
_cell_length_b 20.828514
_cell_length_c 13.375242
_cell_angle_alpha 90.000000
_cell_angle_beta 90.000000
_cell_angle_gamma 90.000000
_cell_volume 1857.970529
_symmetry_space_group_name_H-M "A B M 2"
_symmetry_group_IT_number 39
_symmetry_cell_setting 'orthorhombic'
loop_
_space_group_symop_operation_xyz
x,y,z
-x,-y,z
-x,1/2+y,z
x,1/2-y,z
x,1/2+y,1/2+z
-x,1/2-y,1/2+z
-x,y,1/2+z
x,-y,1/2+z
loop_
_atom_site_type_symbol
_atom_site_label
_atom_site_fract_x
_atom_site_fract_y
_atom_site_fract_z
Si Si1 0.850856 0.440924 0.641580
Si Si2 0.111514 0.823676 0.150882
Si Si3 0.352458 0.324090 0.460562
Si Si4 0.635494 0.558676 0.950583
Si Si5 0.991474 0.106878 0.839027
O O1 0.664735 0.450463 0.570002
O O2 0.847927 0.431999 0.761304
O O3 0.000000 0.500000 0.622883
O O4 0.947644 0.373063 0.607770
O O5 0.044998 0.750000 0.150248
O O6 0.302917 0.828402 0.079193
O O7 0.127393 0.850127 0.263298
O O8 0.394745 0.250000 0.435842
O O9 0.524027 0.374144 0.434166
O O10 0.151637 0.348320 0.404549
O O11 0.500000 0.500000 0.913313
O O12 0.855162 0.563597 0.901318
#
# Coordination Sequence:
#
# PCOD9361863 Si02
#       5
#     8   8   8   8   8
#     4  10  23  43  68  92 135 178 225 271 344 403
#     4   9  20  40  67  92 129 179 223 273 336 401
#     4  11  24  43  68 103 138 180 233 286 342 407
#     4  12  27  43  71 101 141 176 232 287 345 402
#     4  10  23  45  68  96 133 183 225 279 336 418
#
# _framework density 21.528867999999999
#
# number of rings (size 3 to 8) (size 9 to 14) (size 15 to 20)
#    1.200    0.400    2.000    1.800    2.800    4.000 
#    0.000    2.000    0.000    0.000    0.000    0.000 
#    0.000    0.000    0.000    0.000    0.000    0.000 
#
# Total GULP energy -111447.673286 kJ/mol
# GULP energy per Si atom -5572.383664 kJ/mol
# Density = 2.147987 g / cm^3
# Si number density = 21.528868 Si / 1000 Ang^3
#
#
#
# Elastic Constant Matrix: (Units=GPa)
#
#
# Indices 1 2 3 4 5 6 
#
# 1 55.9729 51.9938 33.1011 0.0000 0.0000 0.0000
# 2 51.9938 137.9260 42.8518 0.0000 0.0000 0.0000
# 3 33.1011 42.8518 95.6037 0.0000 0.0000 0.0000
# 4 0.0000 0.0000 0.0000 1.5431 0.0000 0.0000
# 5 0.0000 0.0000 0.0000 0.0000 24.6459 0.0000
# 6 0.0000 0.0000 0.0000 0.0000 0.0000 37.0877
#
#
#
# Elastic Compliance Matrix: (Units=1/GPa)
#
#
# Indices 1 2 3 4 5 6 
#
# 1 0.030411 -0.009518 -0.006263 0.000000 0.000000 0.000000
# 2 -0.009518 0.011402 -0.001815 0.000000 0.000000 0.000000
# 3 -0.006263 -0.001815 0.013442 0.000000 0.000000 0.000000
# 4 0.000000 0.000000 0.000000 0.648054 0.000000 0.000000
# 5 0.000000 0.000000 0.000000 0.000000 0.040575 0.000000
# 6 0.000000 0.000000 0.000000 0.000000 0.000000 0.026963
#
#
# Mechanical properties :
#
#
# Convention : Reuss Voigt Hill
#
# Bulk Modulus (GPa) = 49.84451 60.59957 55.22204
# Shear Modulus (GPa) = 6.15212 23.42572 14.78892
#
# Velocity S-wave (km/s) = 1.69228 3.30223 2.62379
# Velocity P-wave (km/s) = 5.19818 6.53825 5.90635
#
# Compressibility (1/GPa) = 0.02006239
#
# Stress axis : x y z
#
# Youngs Moduli (GPa) = 32.88261 87.70139 74.39391
#
# Poissons Ratio (x) = 0.83476 0.46593
# Poissons Ratio (y) = 0.31298 0.13504
# Poissons Ratio (z) = 0.20595 0.15920
#
# Static dielectric constant tensor:
#      x y z
#    x 1.746640 0.000000 0.000000 
#    y 0.000000 1.766880 0.000000 
#    z 0.000000 0.000000 1.832690 
# 
# From -- ./inp_files/10985.got.cif
#   From: 2010.05.17/outbox.cif.g08.bks.cpg/sg39_6_cif.got.tgz:10985.got - 2010.06.03 18:22:40.
