data_PCOD9361060
_publ_section_title
;
Structure prediction by ZEFSAII (Michael W. Deem and Ramdas Pophale) SiO2 
 PCOD9361060
Probable space group: A B M 2
;
_chemical_formula_sum "Si O2"
_cell_formula_units_Z 56
_cell_length_a 21.044034
_cell_length_b 8.909542
_cell_length_c 14.575469
_cell_angle_alpha 90.000000
_cell_angle_beta 90.000000
_cell_angle_gamma 90.000000
_cell_volume 2732.794106
_symmetry_space_group_name_H-M "A B M 2"
_symmetry_group_IT_number 39
_symmetry_cell_setting 'orthorhombic'
loop_
_space_group_symop_operation_xyz
x,y,z
-x,-y,z
-x,1/2+y,z
x,1/2-y,z
x,1/2+y,1/2+z
-x,1/2-y,1/2+z
-x,y,1/2+z
x,-y,1/2+z
loop_
_atom_site_type_symbol
_atom_site_label
_atom_site_fract_x
_atom_site_fract_y
_atom_site_fract_z
Si Si1 0.834584 0.431612 0.158560
Si Si2 0.435096 0.077952 0.390336
Si Si3 0.693819 0.427660 0.162608
Si Si4 0.299678 0.569194 0.863752
Si Si5 0.435165 0.422097 0.165637
Si Si6 0.930045 0.929992 0.012277
Si Si7 0.157632 0.929396 0.861424
O O1 0.839622 0.250000 0.162799
O O2 0.762993 0.468285 0.123394
O O3 0.841641 0.504020 0.259079
O O4 0.887468 0.501731 0.093715
O O5 0.439817 0.250000 0.418619
O O6 0.364086 0.023735 0.416422
O O7 0.434131 0.070436 0.277966
O O8 0.500000 0.000000 0.420049
O O9 0.686357 0.250000 0.155016
O O10 0.699290 0.478284 0.268836
O O11 0.629146 0.503315 0.129911
O O12 0.305570 0.750000 0.845296
O O13 0.228991 0.547658 0.902176
O O14 0.500000 0.500000 0.136321
O O15 0.436314 0.250000 0.139227
O O16 0.932487 0.750000 0.016921
O O17 0.894440 0.985633 0.920772
O O18 0.000000 0.000000 0.016023
O O19 0.146074 0.750000 0.860216
#
# Coordination Sequence:
#
# PCOD9361060 Si02
#       7
#     8   8   8   8   8   8   8
#     4  10  21  39  62  90 122 157 197 241 290 347
#     4   8  13  20  31  54  89 131 175 221 269 318
#     4   9  16  26  44  70 102 139 182 230 280 334
#     4   8  15  27  44  67 100 141 184 227 276 332
#     4   9  15  22  34  56  92 135 181 230 281 333
#     4  12  26  44  65  91 121 153 191 236 288 350
#     4  10  20  38  63  90 120 156 196 241 292 346
#
# _framework density 20.491845999999999
#
# number of rings (size 3 to 8) (size 9 to 14) (size 15 to 20)
#    0.000    2.571    0.000    3.857    0.000    6.286 
#    0.000    2.857    0.000    0.000    0.000    1.000 
#    0.000    2.286    0.000    0.857    0.000    0.000 
#
# Total GULP energy -156236.390326 kJ/mol
# GULP energy per Si atom -5579.871083 kJ/mol
# Density = 2.044521 g / cm^3
# Si number density = 20.491846 Si / 1000 Ang^3
#
#
#
# Elastic Constant Matrix: (Units=GPa)
#
#
# Indices 1 2 3 4 5 6 
#
# 1 234.9529 101.6577 46.4484 0.0000 0.0000 0.0000
# 2 101.6577 110.7092 31.1558 0.0000 0.0000 0.0000
# 3 46.4484 31.1558 74.3520 0.0000 0.0000 0.0000
# 4 0.0000 0.0000 0.0000 14.4966 0.0000 0.0000
# 5 0.0000 0.0000 0.0000 0.0000 45.2520 0.0000
# 6 0.0000 0.0000 0.0000 0.0000 0.0000 39.9300
#
#
#
# Elastic Compliance Matrix: (Units=1/GPa)
#
#
# Indices 1 2 3 4 5 6 
#
# 1 0.007312 -0.006155 -0.001989 0.000000 0.000000 0.000000
# 2 -0.006155 0.015421 -0.002617 0.000000 0.000000 0.000000
# 3 -0.001989 -0.002617 0.015789 0.000000 0.000000 0.000000
# 4 0.000000 0.000000 0.000000 0.068982 0.000000 0.000000
# 5 0.000000 0.000000 0.000000 0.000000 0.022098 0.000000
# 6 0.000000 0.000000 0.000000 0.000000 0.000000 0.025044
#
#
# Mechanical properties :
#
#
# Convention : Reuss Voigt Hill
#
# Bulk Modulus (GPa) = 58.82206 86.50419 72.66313
# Shear Modulus (GPa) = 27.49766 35.98587 31.74177
#
# Velocity S-wave (km/s) = 3.66715 4.19514 3.94000
# Velocity P-wave (km/s) = 6.83360 8.10994 7.49897
#
# Compressibility (1/GPa) = 0.01700042
#
# Stress axis : x y z
#
# Youngs Moduli (GPa) = 136.75402 64.84810 63.33664
#
# Poissons Ratio (x) = 0.39913 0.12598
# Poissons Ratio (y) = 0.84169 0.16574
# Poissons Ratio (z) = 0.27202 0.16969
#
# Static dielectric constant tensor:
#      x y z
#    x 1.752100 0.000000 0.000000 
#    y 0.000000 1.681520 0.000000 
#    z 0.000000 0.000000 1.809240 
# 
# From -- ./inp_files/10392.got.cif
#   From: 2010.05.17/outbox.cif.g08.bks.cpg/sg39_6_cif.got.tgz:10392.got - 2010.06.03 18:22:40.
