data_PCOD9361759
_publ_section_title
;
Structure prediction by ZEFSAII (Michael W. Deem and Ramdas Pophale) SiO2 
 PCOD9361759
Probable space group: A B M 2
;
_chemical_formula_sum "Si O2"
_cell_formula_units_Z 32
_cell_length_a 6.788913
_cell_length_b 23.023639
_cell_length_c 7.937026
_cell_angle_alpha 90.000000
_cell_angle_beta 90.000000
_cell_angle_gamma 90.000000
_cell_volume 1240.600675
_symmetry_space_group_name_H-M "A B M 2"
_symmetry_group_IT_number 39
_symmetry_cell_setting 'orthorhombic'
loop_
_space_group_symop_operation_xyz
x,y,z
-x,-y,z
-x,1/2+y,z
x,1/2-y,z
x,1/2+y,1/2+z
-x,1/2-y,1/2+z
-x,y,1/2+z
x,-y,1/2+z
loop_
_atom_site_type_symbol
_atom_site_label
_atom_site_fract_x
_atom_site_fract_y
_atom_site_fract_z
Si Si1 0.230256 0.514861 0.334800
Si Si2 0.775073 0.372787 0.509159
Si Si3 0.467120 0.181245 0.705577
Si Si4 0.233076 0.594454 0.001379
O O1 0.292225 0.560692 0.477840
O O2 0.243644 0.550785 0.163165
O O3 0.311050 0.449991 0.357325
O O4 0.000000 0.500000 0.359607
O O5 0.690007 0.343897 0.679197
O O6 0.683821 0.335892 0.354718
O O7 0.010499 0.380621 0.493599
O O8 0.476036 0.250000 0.692787
O O9 0.366584 0.149086 0.546006
#
# Coordination Sequence:
#
# PCOD9361759 Si02
#       4
#     8   8   8   8
#     4   9  18  37  64  93 125 160 205 262 327 391
#     4  10  23  42  64  92 132 173 218 276 330 387
#     4  11  25  43  65  96 132 178 229 269 321 395
#     4  10  22  42  67  95 130 169 212 270 333 392
#
# _framework density 25.793955
#
# number of rings (size 3 to 8) (size 9 to 14) (size 15 to 20)
#    0.000    2.000    0.000    3.000    0.000   11.000 
#    0.000   12.500    0.000    0.000    0.000    0.000 
#    0.000    0.000    0.000    0.000    0.000    0.000 
#
# Total GULP energy -89374.879343 kJ/mol
# GULP energy per Si atom -5585.929959 kJ/mol
# Density = 2.573525 g / cm^3
# Si number density = 25.793955 Si / 1000 Ang^3
#
#
#
# Elastic Constant Matrix: (Units=GPa)
#
#
# Indices 1 2 3 4 5 6 
#
# 1 136.5687 38.0733 3.5955 0.0000 0.0000 0.0000
# 2 38.0733 225.7940 28.9450 0.0000 0.0000 0.0000
# 3 3.5955 28.9450 114.4560 0.0000 0.0000 0.0000
# 4 0.0000 0.0000 0.0000 32.9098 0.0000 0.0000
# 5 0.0000 0.0000 0.0000 0.0000 33.6223 0.0000
# 6 0.0000 0.0000 0.0000 0.0000 0.0000 41.6276
#
#
#
# Elastic Compliance Matrix: (Units=1/GPa)
#
#
# Indices 1 2 3 4 5 6 
#
# 1 0.007684 -0.001307 0.000089 0.000000 0.000000 0.000000
# 2 -0.001307 0.004800 -0.001173 0.000000 0.000000 0.000000
# 3 0.000089 -0.001173 0.009031 0.000000 0.000000 0.000000
# 4 0.000000 0.000000 0.000000 0.030386 0.000000 0.000000
# 5 0.000000 0.000000 0.000000 0.000000 0.029742 0.000000
# 6 0.000000 0.000000 0.000000 0.000000 0.000000 0.024023
#
#
# Mechanical properties :
#
#
# Convention : Reuss Voigt Hill
#
# Bulk Modulus (GPa) = 59.76108 68.67181 64.21645
# Shear Modulus (GPa) = 43.09428 48.71226 45.90327
#
# Velocity S-wave (km/s) = 4.09187 4.35042 4.22312
# Velocity P-wave (km/s) = 6.74859 7.20527 6.98066
#
# Compressibility (1/GPa) = 0.01673330
#
# Stress axis : x y z
#
# Youngs Moduli (GPa) = 130.13387 208.35233 110.73277
#
# Poissons Ratio (x) = 0.27235 -0.00987
# Poissons Ratio (y) = 0.17011 0.12986
# Poissons Ratio (z) = -0.01160 0.24434
#
# Static dielectric constant tensor:
#      x y z
#    x 2.145330 0.000000 0.000000 
#    y 0.000000 1.951900 0.000000 
#    z 0.000000 0.000000 2.289680 
# 
# From -- ./inp_files/2081.got.cif
#   From: 2010.05.17/outbox.cif.g08.bks.cpg/sg39_2_cif.got.tgz:2081.got - 2010.06.03 18:22:40.
