data_PCOD9361519
_publ_section_title
;
Structure prediction by ZEFSAII (Michael W. Deem and Ramdas Pophale) SiO2 
 PCOD9361519
Probable space group: A B M 2
;
_chemical_formula_sum "Si O2"
_cell_formula_units_Z 52
_cell_length_a 15.528325
_cell_length_b 14.434783
_cell_length_c 8.664381
_cell_angle_alpha 90.000000
_cell_angle_beta 90.000000
_cell_angle_gamma 90.000000
_cell_volume 1942.103687
_symmetry_space_group_name_H-M "A B M 2"
_symmetry_group_IT_number 39
_symmetry_cell_setting 'orthorhombic'
loop_
_space_group_symop_operation_xyz
x,y,z
-x,-y,z
-x,1/2+y,z
x,1/2-y,z
x,1/2+y,1/2+z
-x,1/2-y,1/2+z
-x,y,1/2+z
x,-y,1/2+z
loop_
_atom_site_type_symbol
_atom_site_label
_atom_site_fract_x
_atom_site_fract_y
_atom_site_fract_z
Si Si1 0.123867 0.750000 0.139920
Si Si2 0.339743 0.750000 0.334481
Si Si3 0.921940 0.568609 0.057022
Si Si4 0.438324 0.075563 0.389229
Si Si5 0.268755 0.106066 0.633375
Si Si6 0.000277 0.750000 0.401173
Si Si7 0.802688 0.446325 0.829106
Si Si8 0.397574 0.105310 0.060061
O O1 0.182774 0.664137 0.187530
O O2 0.033283 0.750000 0.226909
O O3 0.097423 0.750000 0.961365
O O4 0.344023 0.668636 0.200320
O O5 0.331487 0.668243 0.467223
O O6 0.868338 0.598096 0.207719
O O7 0.000000 0.500000 0.103967
O O8 0.958856 0.656048 0.968196
O O9 0.860415 0.509515 0.944040
O O10 0.397549 0.123602 0.241636
O O11 0.508803 0.132841 0.486081
O O12 0.500000 0.000000 0.302055
O O13 0.390391 0.003538 0.506515
O O14 0.254045 0.110484 0.450198
O O15 0.257567 0.009902 0.721486
#
# Coordination Sequence:
#
# PCOD9361519 Si02
#       8
#     4   4   8   8   8   4   8   8
#     4  11  24  38  53  89 115 150 178 249 317 354
#     4  11  24  35  58  86 118 158 204 248 276 363
#     4  11  23  36  61  90 113 138 191 243 310 385
#     4   8  14  33  59  85 122 150 184 235 287 356
#     4  10  23  43  58  76 118 154 207 240 295 354
#     4  12  24  35  59  87 121 142 184 247 313 375
#     4  10  21  41  60  77 107 156 188 245 301 361
#     4   9  17  33  58  89 116 156 190 232 295 332
#
# _framework density 26.775088
#
# number of rings (size 3 to 8) (size 9 to 14) (size 15 to 20)
#    0.923    0.923    3.077    2.308    4.308    2.462 
#    0.000    0.000    0.000    7.385    0.000    0.000 
#    0.000    0.000    0.000    0.000    0.000    0.000 
#
# Total GULP energy -144846.390374 kJ/mol
# GULP energy per Si atom -5571.015014 kJ/mol
# Density = 2.671415 g / cm^3
# Si number density = 26.775088 Si / 1000 Ang^3
#
#
#
# Elastic Constant Matrix: (Units=GPa)
#
#
# Indices 1 2 3 4 5 6 
#
# 1 50.0839 -6.4071 42.7272 0.0000 0.0000 0.0000
# 2 -6.4071 46.1778 6.7060 0.0000 0.0000 0.0000
# 3 42.7272 6.7060 154.3185 0.0000 0.0000 0.0000
# 4 0.0000 0.0000 0.0000 27.4121 0.0000 0.0000
# 5 0.0000 0.0000 0.0000 0.0000 57.5324 0.0000
# 6 0.0000 0.0000 0.0000 0.0000 0.0000 69.5845
#
#
#
# Elastic Compliance Matrix: (Units=1/GPa)
#
#
# Indices 1 2 3 4 5 6 
#
# 1 0.027199 0.004898 -0.007744 0.000000 0.000000 0.000000
# 2 0.004898 0.022675 -0.002342 0.000000 0.000000 0.000000
# 3 -0.007744 -0.002342 0.008726 0.000000 0.000000 0.000000
# 4 0.000000 0.000000 0.000000 0.036480 0.000000 0.000000
# 5 0.000000 0.000000 0.000000 0.000000 0.017382 0.000000
# 6 0.000000 0.000000 0.000000 0.000000 0.000000 0.014371
#
#
# Mechanical properties :
#
#
# Convention : Reuss Voigt Hill
#
# Bulk Modulus (GPa) = 20.73544 37.40361 29.06952
# Shear Modulus (GPa) = 32.61945 44.74274 38.68109
#
# Velocity S-wave (km/s) = 3.49417 4.09229 3.80500
# Velocity P-wave (km/s) = 4.90307 6.02736 5.49405
#
# Compressibility (1/GPa) = 0.04822662
#
# Stress axis : x y z
#
# Youngs Moduli (GPa) = 36.76541 44.10118 114.60095
#
# Poissons Ratio (x) = -0.21603 0.88744
# Poissons Ratio (y) = -0.18009 0.26835
# Poissons Ratio (z) = 0.28470 0.10327
#
# Static dielectric constant tensor:
#      x y z
#    x 2.320430 0.000000 0.000000 
#    y 0.000000 2.160410 0.000000 
#    z 0.000000 0.000000 2.086830 
# 
# From -- ./inp_files/3956.got.cif
#   From: 2010.05.17/outbox.cif.g08.bks.cpg/sg39_2_cif.got.tgz:3956.got - 2010.06.03 18:22:40.
