data_PCOD9361991
_publ_section_title
;
Structure prediction by ZEFSAII (Michael W. Deem and Ramdas Pophale) SiO2 
 PCOD9361991
Probable space group: A B M 2
;
_chemical_formula_sum "Si O2"
_cell_formula_units_Z 64
_cell_length_a 20.688162
_cell_length_b 18.756076
_cell_length_c 9.651007
_cell_angle_alpha 90.000000
_cell_angle_beta 90.000000
_cell_angle_gamma 90.000000
_cell_volume 3744.868074
_symmetry_space_group_name_H-M "A B M 2"
_symmetry_group_IT_number 39
_symmetry_cell_setting 'orthorhombic'
loop_
_space_group_symop_operation_xyz
x,y,z
-x,-y,z
-x,1/2+y,z
x,1/2-y,z
x,1/2+y,1/2+z
-x,1/2-y,1/2+z
-x,y,1/2+z
x,-y,1/2+z
loop_
_atom_site_type_symbol
_atom_site_label
_atom_site_fract_x
_atom_site_fract_y
_atom_site_fract_z
Si Si1 0.054665 0.666289 0.317640
Si Si2 0.453493 0.665106 0.388849
Si Si3 0.185672 0.092908 0.802777
Si Si4 0.689104 0.936299 0.165730
Si Si5 0.574811 0.665529 0.210603
Si Si6 0.027533 0.579814 0.595841
Si Si7 0.328116 0.578454 0.340614
Si Si8 0.830055 0.460841 0.612300
O O1 0.039625 0.750000 0.318530
O O2 0.131531 0.653218 0.302546
O O3 0.033754 0.626079 0.457405
O O4 0.018172 0.623235 0.198004
O O5 0.447494 0.750000 0.365339
O O6 0.520312 0.641309 0.318863
O O7 0.451371 0.653312 0.554193
O O8 0.391821 0.625546 0.323902
O O9 0.259978 0.117490 0.809099
O O10 0.175069 0.040578 0.672476
O O11 0.174493 0.047104 0.945217
O O12 0.642361 0.875259 0.222543
O O13 0.766152 0.922630 0.173706
O O14 0.672851 0.008702 0.245738
O O15 0.674706 0.943738 0.002165
O O16 0.584691 0.750000 0.227244
O O17 0.100474 0.570201 0.653824
O O18 0.000000 0.500000 0.570638
#
# Coordination Sequence:
#
# PCOD9361991 Si02
#       8
#     8   8   8   8   8   8   8   8
#     4  11  23  36  52  81 113 138 172 226 274 311
#     4   9  18  32  50  71  96 130 169 205 249 308
#     4   9  18  33  52  74 100 133 169 211 255 308
#     4   9  18  33  50  75 101 129 166 212 254 296
#     4   9  18  33  51  71  98 132 169 209 254 303
#     4  11  21  36  58  79 103 144 185 214 261 328
#     4   9  18  32  51  74 100 130 165 208 254 297
#     4   9  18  32  53  78  96 129 179 212 243 308
#
# _framework density 17.090055
#
# number of rings (size 3 to 8) (size 9 to 14) (size 15 to 20)
#    0.000    2.500    1.250    0.750    1.750    2.000 
#    0.000    9.375    0.000    0.000    0.000    7.875 
#    0.000    0.000    0.000    0.000    0.000    0.000 
#
# Total GULP energy -178282.271113 kJ/mol
# GULP energy per Si atom -5571.320972 kJ/mol
# Density = 1.705116 g / cm^3
# Si number density = 17.090055 Si / 1000 Ang^3
#
#
#
# Elastic Constant Matrix: (Units=GPa)
#
#
# Indices 1 2 3 4 5 6 
#
# 1 103.8827 39.4927 19.3568 0.0000 0.0000 0.0000
# 2 39.4927 70.9733 18.3970 0.0000 0.0000 0.0000
# 3 19.3568 18.3970 11.9957 0.0000 0.0000 0.0000
# 4 0.0000 0.0000 0.0000 15.2483 0.0000 0.0000
# 5 0.0000 0.0000 0.0000 0.0000 11.9309 0.0000
# 6 0.0000 0.0000 0.0000 0.0000 0.0000 15.6609
#
#
#
# Elastic Compliance Matrix: (Units=1/GPa)
#
#
# Indices 1 2 3 4 5 6 
#
# 1 0.014205 -0.003258 -0.017925 0.000000 0.000000 0.000000
# 2 -0.003258 0.024134 -0.031756 0.000000 0.000000 0.000000
# 3 -0.017925 -0.031756 0.160991 0.000000 0.000000 0.000000
# 4 0.000000 0.000000 0.000000 0.065581 0.000000 0.000000
# 5 0.000000 0.000000 0.000000 0.000000 0.083816 0.000000
# 6 0.000000 0.000000 0.000000 0.000000 0.000000 0.063853
#
#
# Mechanical properties :
#
#
# Convention : Reuss Voigt Hill
#
# Bulk Modulus (GPa) = 10.70071 37.92719 24.31395
# Shear Modulus (GPa) = 9.09736 15.87501 12.48618
#
# Velocity S-wave (km/s) = 2.30971 3.05110 2.70591
# Velocity P-wave (km/s) = 3.65896 5.88668 4.90107
#
# Compressibility (1/GPa) = 0.09345173
#
# Stress axis : x y z
#
# Youngs Moduli (GPa) = 70.39856 41.43514 6.21151
#
# Poissons Ratio (x) = 0.13499 0.11134
# Poissons Ratio (y) = 0.22934 0.19725
# Poissons Ratio (z) = 1.26192 1.31582
#
# Static dielectric constant tensor:
#      x y z
#    x 1.603160 0.000000 0.000000 
#    y 0.000000 1.546240 0.000000 
#    z 0.000000 0.000000 1.587660 
# 
# From -- ./inp_files/4019.got.cif
#   From: 2010.05.17/outbox.cif.g08.bks.cpg/sg39_3_cif.got.tgz:4019.got - 2010.06.03 18:22:40.
