data_PCOD9361233
_publ_section_title
;
Structure prediction by ZEFSAII (Michael W. Deem and Ramdas Pophale) SiO2 
 PCOD9361233
Probable space group: A B M 2
;
_chemical_formula_sum "Si O2"
_cell_formula_units_Z 64
_cell_length_a 11.187227
_cell_length_b 22.483220
_cell_length_c 13.894494
_cell_angle_alpha 90.000000
_cell_angle_beta 90.000000
_cell_angle_gamma 90.000000
_cell_volume 3494.811017
_symmetry_space_group_name_H-M "A B M 2"
_symmetry_group_IT_number 39
_symmetry_cell_setting 'orthorhombic'
loop_
_space_group_symop_operation_xyz
x,y,z
-x,-y,z
-x,1/2+y,z
x,1/2-y,z
x,1/2+y,1/2+z
-x,1/2-y,1/2+z
-x,y,1/2+z
x,-y,1/2+z
loop_
_atom_site_type_symbol
_atom_site_label
_atom_site_fract_x
_atom_site_fract_y
_atom_site_fract_z
Si Si1 0.352765 0.041144 0.219590
Si Si2 0.682514 0.932435 0.010795
Si Si3 0.936526 0.862189 0.624870
Si Si4 0.427814 0.415946 0.809561
Si Si5 0.878658 0.464632 0.989988
Si Si6 0.919082 0.058834 0.771749
Si Si7 0.149581 0.319507 0.991326
Si Si8 0.766117 0.683827 0.778625
O O1 0.433484 0.086381 0.281461
O O2 0.212052 0.050039 0.229272
O O3 0.381039 0.975392 0.257051
O O4 0.382601 0.050689 0.108566
O O5 0.592977 0.924446 0.922610
O O6 0.774928 0.985963 0.985406
O O7 0.757236 0.870914 0.023911
O O8 0.864721 0.914750 0.570796
O O9 0.844434 0.821685 0.682744
O O10 0.016840 0.890959 0.709603
O O11 0.025521 0.833205 0.546359
O O12 0.341685 0.362717 0.778806
O O13 0.900757 0.434164 0.886329
O O14 0.000000 0.500000 0.014476
O O15 0.000000 0.000000 0.761609
O O16 0.181706 0.250000 0.010502
O O17 0.152879 0.327087 0.874790
O O18 0.717432 0.750000 0.788543
#
# Coordination Sequence:
#
# PCOD9361233 Si02
#       8
#     8   8   8   8   8   8   8   8
#     4  11  21  38  58  89 114 151 189 241 295 349
#     4  11  20  38  57  80 118 150 191 240 288 349
#     4  12  20  33  58  91 117 150 185 246 294 357
#     4  10  23  38  58  82 117 152 200 235 285 349
#     4  11  20  32  55  89 118 154 180 228 302 363
#     4  11  21  33  57  89 128 146 181 229 304 360
#     4  10  21  36  55  81 112 153 197 235 287 349
#     4  10  22  40  59  81 115 160 202 242 285 348
#
# _framework density 18.312864999999999
#
# number of rings (size 3 to 8) (size 9 to 14) (size 15 to 20)
#    0.000    1.250    3.750    3.750    3.500    2.000 
#    2.250    0.625    0.000    0.000    0.000    0.000 
#    0.000    0.000    0.000    0.000    0.000    0.000 
#
# Total GULP energy -178605.381316 kJ/mol
# GULP energy per Si atom -5581.418166 kJ/mol
# Density = 1.827118 g / cm^3
# Si number density = 18.312865 Si / 1000 Ang^3
#
#
#
# Elastic Constant Matrix: (Units=GPa)
#
#
# Indices 1 2 3 4 5 6 
#
# 1 80.8978 26.9470 32.2682 0.0000 0.0000 0.0000
# 2 26.9470 92.1988 41.6659 0.0000 0.0000 0.0000
# 3 32.2682 41.6659 100.0746 0.0000 0.0000 0.0000
# 4 0.0000 0.0000 0.0000 19.0199 0.0000 0.0000
# 5 0.0000 0.0000 0.0000 0.0000 21.9942 0.0000
# 6 0.0000 0.0000 0.0000 0.0000 0.0000 16.9270
#
#
#
# Elastic Compliance Matrix: (Units=1/GPa)
#
#
# Indices 1 2 3 4 5 6 
#
# 1 0.014694 -0.002653 -0.003634 0.000000 0.000000 0.000000
# 2 -0.002653 0.013839 -0.004906 0.000000 0.000000 0.000000
# 3 -0.003634 -0.004906 0.013207 0.000000 0.000000 0.000000
# 4 0.000000 0.000000 0.000000 0.052576 0.000000 0.000000
# 5 0.000000 0.000000 0.000000 0.000000 0.045467 0.000000
# 6 0.000000 0.000000 0.000000 0.000000 0.000000 0.059077
#
#
# Mechanical properties :
#
#
# Convention : Reuss Voigt Hill
#
# Bulk Modulus (GPa) = 51.66734 52.77040 52.21887
# Shear Modulus (GPa) = 21.95900 23.07421 22.51661
#
# Velocity S-wave (km/s) = 3.46656 3.55350 3.51030
# Velocity P-wave (km/s) = 6.65565 6.76129 6.70868
#
# Compressibility (1/GPa) = 0.01935459
#
# Stress axis : x y z
#
# Youngs Moduli (GPa) = 68.05396 72.26120 75.71772
#
# Poissons Ratio (x) = 0.19168 0.27513
# Poissons Ratio (y) = 0.18052 0.37150
# Poissons Ratio (z) = 0.24728 0.35454
#
# Static dielectric constant tensor:
#      x y z
#    x 1.650600 0.000000 0.000000 
#    y 0.000000 1.623480 0.000000 
#    z 0.000000 0.000000 1.666450 
# 
# From -- ./inp_files/6077.got.cif
#   From: 2010.05.17/outbox.cif.g08.bks.cpg/sg39_4_cif.got.tgz:6077.got - 2010.06.03 18:22:40.
