data_PCOD9361072
_publ_section_title
;
Structure prediction by ZEFSAII (Michael W. Deem and Ramdas Pophale) SiO2 
 PCOD9361072
Probable space group: A B M 2
;
_chemical_formula_sum "Si O2"
_cell_formula_units_Z 56
_cell_length_a 5.436612
_cell_length_b 31.374476
_cell_length_c 15.398818
_cell_angle_alpha 90.000000
_cell_angle_beta 90.000000
_cell_angle_gamma 90.000000
_cell_volume 2626.589517
_symmetry_space_group_name_H-M "A B M 2"
_symmetry_group_IT_number 39
_symmetry_cell_setting 'orthorhombic'
loop_
_space_group_symop_operation_xyz
x,y,z
-x,-y,z
-x,1/2+y,z
x,1/2-y,z
x,1/2+y,1/2+z
-x,1/2-y,1/2+z
-x,y,1/2+z
x,-y,1/2+z
loop_
_atom_site_type_symbol
_atom_site_label
_atom_site_fract_x
_atom_site_fract_y
_atom_site_fract_z
Si Si1 0.886524 0.314115 0.253890
Si Si2 0.414955 0.703837 0.423988
Si Si3 0.965586 0.089730 0.493272
Si Si4 0.146228 0.325973 0.090852
Si Si5 0.763015 0.860683 0.359891
Si Si6 0.536342 0.049825 0.053621
Si Si7 0.475691 0.380708 0.699146
O O1 0.699530 0.296071 0.326004
O O2 0.778268 0.360535 0.230587
O O3 0.976138 0.299789 0.158495
O O4 0.130490 0.319811 0.310060
O O5 0.537130 0.750000 0.437211
O O6 0.220700 0.697898 0.502512
O O7 0.580020 0.661095 0.428559
O O8 0.020286 0.113181 0.403288
O O9 0.200428 0.059589 0.509667
O O10 0.973876 0.129170 0.561037
O O11 0.701836 0.067408 0.501143
O O12 0.386622 0.343161 0.143676
O O13 0.627664 0.887868 0.287133
O O14 0.538299 0.077661 0.141323
O O15 0.500000 0.000000 0.068463
#
# Coordination Sequence:
#
# PCOD9361072 Si02
#       7
#     8   8   8   8   8   8   8
#     4  10  20  39  65  92 121 167 235 273 333 403
#     4  11  24  39  60  96 138 174 224 296 347 384
#     4  11  21  40  69  93 129 177 231 266 324 424
#     4  10  20  38  65  93 123 178 228 264 330 413
#     4  10  21  39  64  89 123 179 231 273 325 414
#     4  11  23  40  66 101 138 170 218 285 347 390
#     4   9  20  37  64  93 120 173 225 271 325 416
#
# _framework density 21.320422000000001
#
# number of rings (size 3 to 8) (size 9 to 14) (size 15 to 20)
#    0.000    1.714    2.857    2.143    2.000    1.143 
#    0.000    6.429    3.143    0.000    0.000    0.000 
#    0.000    0.000    0.000    0.000    0.000    0.000 
#
# Total GULP energy -156014.007436 kJ/mol
# GULP energy per Si atom -5571.928837 kJ/mol
# Density = 2.127190 g / cm^3
# Si number density = 21.320422 Si / 1000 Ang^3
#
#
#
# Elastic Constant Matrix: (Units=GPa)
#
#
# Indices 1 2 3 4 5 6 
#
# 1 79.8249 19.1190 28.2754 0.0000 0.0000 0.0000
# 2 19.1190 99.2235 26.0552 0.0000 0.0000 0.0000
# 3 28.2754 26.0552 100.9519 0.0000 0.0000 0.0000
# 4 0.0000 0.0000 0.0000 144.6357 0.0000 0.0000
# 5 0.0000 0.0000 0.0000 0.0000 40.1770 0.0000
# 6 0.0000 0.0000 0.0000 0.0000 0.0000 -46.0761
#
#
#
# Elastic Compliance Matrix: (Units=1/GPa)
#
#
# Indices 1 2 3 4 5 6 
#
# 1 0.014206 -0.001815 -0.003510 0.000000 0.000000 0.000000
# 2 -0.001815 0.011043 -0.002342 0.000000 0.000000 0.000000
# 3 -0.003510 -0.002342 0.011493 0.000000 0.000000 0.000000
# 4 0.000000 0.000000 0.000000 0.006914 0.000000 0.000000
# 5 0.000000 0.000000 0.000000 0.000000 0.024890 0.000000
# 6 0.000000 0.000000 0.000000 0.000000 0.000000 -0.021703
#
#
# Mechanical properties :
#
#
# Convention : Reuss Voigt Hill
#
# Bulk Modulus (GPa) = 46.71343 47.43326 47.07335
# Shear Modulus (GPa) = 72.13672 41.51738 56.82705
#
# Velocity S-wave (km/s) = 5.82306 4.41762 5.16833
# Velocity P-wave (km/s) = 8.19564 6.95101 7.59885
#
# Compressibility (1/GPa) = 0.02140712
#
# Stress axis : x y z
#
# Youngs Moduli (GPa) = 70.39463 90.55534 87.00755
#
# Poissons Ratio (x) = 0.16440 0.30542
# Poissons Ratio (y) = 0.12780 0.20374
# Poissons Ratio (z) = 0.24710 0.21205
#
# Static dielectric constant tensor:
#      x y z
#    x 1.843350 0.000000 0.000000 
#    y 0.000000 1.509470 0.000000 
#    z 0.000000 0.000000 1.821040 
# 
# From -- ./inp_files/7667.got.cif
#   From: 2010.05.17/outbox.cif.g08.bks.cpg/sg39_4_cif.got.tgz:7667.got - 2010.06.03 18:22:40.
