data_PCOD9361639
_publ_section_title
;
Structure prediction by ZEFSAII (Michael W. Deem and Ramdas Pophale) SiO2 
 PCOD9361639
Probable space group: A B M 2
;
_chemical_formula_sum "Si O2"
_cell_formula_units_Z 56
_cell_length_a 5.155775
_cell_length_b 18.722021
_cell_length_c 28.097933
_cell_angle_alpha 90.000000
_cell_angle_beta 90.000000
_cell_angle_gamma 90.000000
_cell_volume 2712.195911
_symmetry_space_group_name_H-M "A B M 2"
_symmetry_group_IT_number 39
_symmetry_cell_setting 'orthorhombic'
loop_
_space_group_symop_operation_xyz
x,y,z
-x,-y,z
-x,1/2+y,z
x,1/2-y,z
x,1/2+y,1/2+z
-x,1/2-y,1/2+z
-x,y,1/2+z
x,-y,1/2+z
loop_
_atom_site_type_symbol
_atom_site_label
_atom_site_fract_x
_atom_site_fract_y
_atom_site_fract_z
Si Si1 0.500000 0.000000 0.702510
Si Si2 0.506902 0.250000 0.199297
Si Si3 0.054325 0.664346 0.561843
Si Si4 0.980045 0.585473 0.842297
Si Si5 0.452974 0.164651 0.502337
Si Si6 0.480066 0.585012 0.903641
Si Si7 0.801546 0.629111 0.244521
Si Si8 0.807418 0.625800 0.658600
O O1 0.674641 0.052068 0.734475
O O2 0.318990 0.050331 0.670790
O O3 0.419731 0.312411 0.237644
O O4 0.590146 0.187098 0.160696
O O5 0.054972 0.750000 0.570786
O O6 0.833066 0.649515 0.522510
O O7 0.968118 0.627358 0.610415
O O8 0.332712 0.643162 0.541432
O O9 0.702408 0.602158 0.865030
O O10 0.000000 0.500000 0.832845
O O11 0.202052 0.601521 0.880815
O O12 0.048650 0.626251 0.793965
O O13 0.476182 0.250000 0.495868
O O14 0.509740 0.126146 0.452882
O O15 0.500000 0.500000 0.912382
O O16 0.001532 0.646793 0.202009
#
# Coordination Sequence:
#
# PCOD9361639 Si02
#       8
#     4   4   8   8   8   8   8   8
#     4  10  24  38  62  88 132 170 212 268 312 374
#     4  10  24  38  64  88 136 166 214 270 320 378
#     4  10  22  38  68  90 123 171 211 253 326 398
#     4  10  22  39  67  89 124 172 213 258 325 395
#     4  10  22  42  64  93 121 162 214 268 326 388
#     4  10  22  42  64  91 122 165 214 268 329 389
#     4  11  24  41  62  94 130 173 220 262 322 388
#     4  11  22  40  62  93 130 171 219 263 322 387
#
# _framework density 20.647473999999999
#
# number of rings (size 3 to 8) (size 9 to 14) (size 15 to 20)
#    0.000    1.714    0.714    2.571   11.000    0.000 
#    3.857    0.000    0.000    0.000    0.000    0.000 
#    0.000    0.000    0.000    0.000    0.000    0.000 
#
# Total GULP energy -156073.131943 kJ/mol
# GULP energy per Si atom -5574.040427 kJ/mol
# Density = 2.060048 g / cm^3
# Si number density = 20.647474 Si / 1000 Ang^3
#
#
#
# Elastic Constant Matrix: (Units=GPa)
#
#
# Indices 1 2 3 4 5 6 
#
# 1 53.1017 7.7745 -5.7348 0.0000 0.0000 0.0000
# 2 7.7745 64.5720 19.1880 0.0000 0.0000 0.0000
# 3 -5.7348 19.1880 91.4224 0.0000 0.0000 0.0000
# 4 0.0000 0.0000 0.0000 14.5431 0.0000 0.0000
# 5 0.0000 0.0000 0.0000 0.0000 40.1724 0.0000
# 6 0.0000 0.0000 0.0000 0.0000 0.0000 -19.3243
#
#
#
# Elastic Compliance Matrix: (Units=1/GPa)
#
#
# Indices 1 2 3 4 5 6 
#
# 1 0.019451 -0.002884 0.001826 0.000000 0.000000 0.000000
# 2 -0.002884 0.016944 -0.003737 0.000000 0.000000 0.000000
# 3 0.001826 -0.003737 0.011837 0.000000 0.000000 0.000000
# 4 0.000000 0.000000 0.000000 0.068761 0.000000 0.000000
# 5 0.000000 0.000000 0.000000 0.000000 0.024893 0.000000
# 6 0.000000 0.000000 0.000000 0.000000 0.000000 -0.051748
#
#
# Mechanical properties :
#
#
# Convention : Reuss Voigt Hill
#
# Bulk Modulus (GPa) = 25.87957 27.95016 26.91486
# Shear Modulus (GPa) = 44.40070 19.60281 32.00176
#
# Velocity S-wave (km/s) = 4.64229 3.08458 3.94116
# Velocity P-wave (km/s) = 6.42617 5.12371 5.81155
#
# Compressibility (1/GPa) = 0.03864052
#
# Stress axis : x y z
#
# Youngs Moduli (GPa) = 51.41064 59.01644 84.47986
#
# Poissons Ratio (x) = 0.17023 -0.15422
# Poissons Ratio (y) = 0.14829 0.31572
# Poissons Ratio (z) = -0.09385 0.22056
#
# Static dielectric constant tensor:
#      x y z
#    x 1.795850 0.000000 0.000000 
#    y 0.000000 1.717750 0.000000 
#    z 0.000000 0.000000 1.699430 
# 
# From -- ./inp_files/15309.got.cif
#   From: 2010.05.17/outbox.cif.g08.bks.cpg/sg39_8_cif.got.tgz:15309.got - 2010.06.03 18:22:40.
