data_PCOD9361746
_publ_section_title
;
Structure prediction by ZEFSAII (Michael W. Deem and Ramdas Pophale) SiO2 
 PCOD9361746
Probable space group: A B M 2
;
_chemical_formula_sum "Si O2"
_cell_formula_units_Z 48
_cell_length_a 11.817859
_cell_length_b 13.504992
_cell_length_c 11.794661
_cell_angle_alpha 90.000000
_cell_angle_beta 90.000000
_cell_angle_gamma 90.000000
_cell_volume 1882.428972
_symmetry_space_group_name_H-M "A B M 2"
_symmetry_group_IT_number 39
_symmetry_cell_setting 'orthorhombic'
loop_
_space_group_symop_operation_xyz
x,y,z
-x,-y,z
-x,1/2+y,z
x,1/2-y,z
x,1/2+y,1/2+z
-x,1/2-y,1/2+z
-x,y,1/2+z
x,-y,1/2+z
loop_
_atom_site_type_symbol
_atom_site_label
_atom_site_fract_x
_atom_site_fract_y
_atom_site_fract_z
Si Si1 0.434659 0.142232 0.072760
Si Si2 0.676747 0.864631 0.674932
Si Si3 0.045794 0.109057 0.198155
Si Si4 0.928519 0.854470 0.941060
Si Si5 0.700030 0.424090 0.765670
Si Si6 0.748013 0.481122 0.991358
O O1 0.412551 0.250000 0.022103
O O2 0.567946 0.129680 0.091322
O O3 0.395238 0.136699 0.203634
O O4 0.354760 0.057647 0.020001
O O5 0.691131 0.750000 0.709688
O O6 0.668148 0.957474 0.761238
O O7 0.775837 0.911775 0.598309
O O8 0.999505 0.855055 0.323072
O O9 0.182438 0.105920 0.206076
O O10 0.000000 0.000000 0.196261
O O11 0.020228 0.147762 0.069691
O O12 0.862326 0.750000 0.934246
O O13 0.850773 0.952136 0.945446
O O14 0.714314 0.404367 0.895564
#
# Coordination Sequence:
#
# PCOD9361746 Si02
#       6
#     8   8   8   8   8   8
#     4  10  22  41  69 102 139 179 232 293 361 436
#     4  10  23  43  68 103 138 179 236 295 358 432
#     4  12  25  47  73 103 148 192 244 299 362 426
#     4  12  26  45  73 108 145 192 246 300 361 430
#     4  11  23  42  68  96 138 188 229 293 358 433
#     4  11  22  41  66  98 136 189 228 292 359 428
#
# _framework density 25.49897
#
# number of rings (size 3 to 8) (size 9 to 14) (size 15 to 20)
#    0.000    1.000    5.000    3.500    0.000    5.333 
#    0.000    5.000    0.000    1.000    0.000    0.000 
#    0.000    0.000    0.000    0.000    0.000    0.000 
#
# Total GULP energy -133693.307523 kJ/mol
# GULP energy per Si atom -5570.554480 kJ/mol
# Density = 2.544093 g / cm^3
# Si number density = 25.498970 Si / 1000 Ang^3
#
#
#
# Elastic Constant Matrix: (Units=GPa)
#
#
# Indices 1 2 3 4 5 6 
#
# 1 103.4737 21.3628 20.5435 0.0000 0.0000 0.0000
# 2 21.3628 111.0907 10.7100 0.0000 0.0000 0.0000
# 3 20.5435 10.7100 146.4553 0.0000 0.0000 0.0000
# 4 0.0000 0.0000 0.0000 43.2341 0.0000 0.0000
# 5 0.0000 0.0000 0.0000 0.0000 40.2887 0.0000
# 6 0.0000 0.0000 0.0000 0.0000 0.0000 -4.4964
#
#
#
# Elastic Compliance Matrix: (Units=1/GPa)
#
#
# Indices 1 2 3 4 5 6 
#
# 1 0.010308 -0.001856 -0.001310 0.000000 0.000000 0.000000
# 2 -0.001856 0.009400 -0.000427 0.000000 0.000000 0.000000
# 3 -0.001310 -0.000427 0.007043 0.000000 0.000000 0.000000
# 4 0.000000 0.000000 0.000000 0.023130 0.000000 0.000000
# 5 0.000000 0.000000 0.000000 0.000000 0.024821 0.000000
# 6 0.000000 0.000000 0.000000 0.000000 0.000000 -0.222401
#
#
# Mechanical properties :
#
#
# Convention : Reuss Voigt Hill
#
# Bulk Modulus (GPa) = 51.11375 51.80580 51.45977
# Shear Modulus (GPa) = -37.31552 36.36550 -0.47501
#
# Velocity S-wave (km/s) = -3.82961 3.78054 -0.43208
# Velocity P-wave (km/s) = 0.73103 6.27834 4.46945
#
# Compressibility (1/GPa) = 0.01956421
#
# Stress axis : x y z
#
# Youngs Moduli (GPa) = 97.01619 106.38629 141.98439
#
# Poissons Ratio (x) = 0.19744 0.18602
# Poissons Ratio (y) = 0.18005 0.06064
# Poissons Ratio (z) = 0.12711 0.04543
#
# Static dielectric constant tensor:
#      x y z
#    x 2.035590 0.000000 0.000000 
#    y 0.000000 1.966950 0.000000 
#    z 0.000000 0.000000 2.093600 
# 
# From -- ./inp_files/6413.got.cif
#   From: 2010.05.17/outbox.cif.g08.bks.cpg/sg39_4_cif.got.tgz:6413.got - 2010.06.03 18:22:40.
