data_PCOD9361588
_publ_section_title
;
Structure prediction by ZEFSAII (Michael W. Deem and Ramdas Pophale) SiO2 
 PCOD9361588
Probable space group: A B M 2
;
_chemical_formula_sum "Si O2"
_cell_formula_units_Z 44
_cell_length_a 7.561924
_cell_length_b 27.998567
_cell_length_c 8.722545
_cell_angle_alpha 90.000000
_cell_angle_beta 90.000000
_cell_angle_gamma 90.000000
_cell_volume 1846.763707
_symmetry_space_group_name_H-M "A B M 2"
_symmetry_group_IT_number 39
_symmetry_cell_setting 'orthorhombic'
loop_
_space_group_symop_operation_xyz
x,y,z
-x,-y,z
-x,1/2+y,z
x,1/2-y,z
x,1/2+y,1/2+z
-x,1/2-y,1/2+z
-x,y,1/2+z
x,-y,1/2+z
loop_
_atom_site_type_symbol
_atom_site_label
_atom_site_fract_x
_atom_site_fract_y
_atom_site_fract_z
Si Si1 0.673625 0.556211 0.267460
Si Si2 0.011515 0.944261 0.985600
Si Si3 0.284152 0.337605 0.262266
Si Si4 0.117911 0.124716 0.757273
Si Si5 0.500000 0.000000 0.519743
Si Si6 0.388088 0.304890 0.605889
O O1 0.866301 0.552223 0.335462
O O2 0.642774 0.609772 0.223580
O O3 0.551587 0.542098 0.408334
O O4 0.647977 0.519236 0.132249
O O5 0.863895 0.908287 0.911235
O O6 0.106408 0.912284 0.114275
O O7 0.000000 0.000000 0.029535
O O8 0.339856 0.322266 0.434025
O O9 0.402044 0.306736 0.145529
O O10 0.069806 0.345252 0.259018
O O11 0.276291 0.161175 0.721392
O O12 0.330022 0.250000 0.621777
#
# Coordination Sequence:
#
# PCOD9361588 Si02
#       6
#     8   8   8   8   4   8
#     4  10  22  39  61  95 138 185 231 290 342 420
#     4  11  25  41  70  98 143 193 237 278 349 423
#     4  11  26  47  72 104 143 186 233 299 364 419
#     4  11  25  49  68 109 146 190 233 302 351 421
#     4  10  22  36  60  98 136 184 236 288 342 406
#     4  12  27  49  78 106 138 187 244 300 367 428
#
# _framework density 23.825465000000001
#
# number of rings (size 3 to 8) (size 9 to 14) (size 15 to 20)
#    0.000    1.091    3.636    2.182   10.182    2.909 
#    0.000    0.000    0.000    0.000    0.000    0.000 
#    0.000    0.000    0.000    0.000    0.000    0.000 
#
# Total GULP energy -122816.104715 kJ/mol
# GULP energy per Si atom -5582.550214 kJ/mol
# Density = 2.377124 g / cm^3
# Si number density = 23.825465 Si / 1000 Ang^3
#
#
#
# Elastic Constant Matrix: (Units=GPa)
#
#
# Indices 1 2 3 4 5 6 
#
# 1 108.5979 34.7189 24.0577 0.0000 0.0000 0.0000
# 2 34.7189 135.9411 28.9801 0.0000 0.0000 0.0000
# 3 24.0577 28.9801 66.4542 0.0000 0.0000 0.0000
# 4 0.0000 0.0000 0.0000 9.8332 0.0000 0.0000
# 5 0.0000 0.0000 0.0000 0.0000 41.7491 0.0000
# 6 0.0000 0.0000 0.0000 0.0000 0.0000 25.6314
#
#
#
# Elastic Compliance Matrix: (Units=1/GPa)
#
#
# Indices 1 2 3 4 5 6 
#
# 1 0.010512 -0.002066 -0.002905 0.000000 0.000000 0.000000
# 2 -0.002066 0.008516 -0.002966 0.000000 0.000000 0.000000
# 3 -0.002905 -0.002966 0.017393 0.000000 0.000000 0.000000
# 4 0.000000 0.000000 0.000000 0.101696 0.000000 0.000000
# 5 0.000000 0.000000 0.000000 0.000000 0.023953 0.000000
# 6 0.000000 0.000000 0.000000 0.000000 0.000000 0.039015
#
#
# Mechanical properties :
#
#
# Convention : Reuss Voigt Hill
#
# Bulk Modulus (GPa) = 48.66553 54.05629 51.36091
# Shear Modulus (GPa) = 22.34073 30.32517 26.33295
#
# Velocity S-wave (km/s) = 3.06548 3.57151 3.32813
# Velocity P-wave (km/s) = 5.74454 6.30439 6.03096
#
# Compressibility (1/GPa) = 0.02054842
#
# Stress axis : x y z
#
# Youngs Moduli (GPa) = 95.12813 117.42679 57.49432
#
# Poissons Ratio (x) = 0.24255 0.16701
# Poissons Ratio (y) = 0.19649 0.17053
# Poissons Ratio (z) = 0.27633 0.34829
#
# Static dielectric constant tensor:
#      x y z
#    x 1.957740 0.000000 0.000000 
#    y 0.000000 2.087510 0.000000 
#    z 0.000000 0.000000 1.951590 
# 
# From -- ./inp_files/2269.got.cif
#   From: 2010.05.17/outbox.cif.g08.bks.cpg/sg39_2_cif.got.tgz:2269.got - 2010.06.03 18:22:40.
