data_PCOD9361476
_publ_section_title
;
Structure prediction by ZEFSAII (Michael W. Deem and Ramdas Pophale) SiO2 
 PCOD9361476
Probable space group: A B M 2
;
_chemical_formula_sum "Si O2"
_cell_formula_units_Z 40
_cell_length_a 15.367320
_cell_length_b 8.742559
_cell_length_c 14.671363
_cell_angle_alpha 90.000000
_cell_angle_beta 90.000000
_cell_angle_gamma 90.000000
_cell_volume 1971.093244
_symmetry_space_group_name_H-M "A B M 2"
_symmetry_group_IT_number 39
_symmetry_cell_setting 'orthorhombic'
loop_
_space_group_symop_operation_xyz
x,y,z
-x,-y,z
-x,1/2+y,z
x,1/2-y,z
x,1/2+y,1/2+z
-x,1/2-y,1/2+z
-x,y,1/2+z
x,-y,1/2+z
loop_
_atom_site_type_symbol
_atom_site_label
_atom_site_fract_x
_atom_site_fract_y
_atom_site_fract_z
Si Si1 0.773345 0.432409 0.520860
Si Si2 0.903613 0.933027 0.373516
Si Si3 0.589460 0.576174 0.741819
Si Si4 0.590526 0.074250 0.019122
Si Si5 0.221154 0.064246 0.723837
O O1 0.782473 0.250000 0.517510
O O2 0.843743 0.512209 0.456968
O O3 0.675532 0.479716 0.492010
O O4 0.785235 0.495704 0.623007
O O5 0.906060 0.750000 0.368259
O O6 0.856622 0.003760 0.285141
O O7 0.000000 0.000000 0.382800
O O8 0.500000 0.500000 0.771880
O O9 0.587334 0.750000 0.773590
O O10 0.588865 0.575039 0.630498
O O11 0.684854 0.511676 0.764506
O O12 0.597872 0.250000 0.989447
O O13 0.500000 0.000000 0.989309
O O14 0.222245 0.250000 0.719916
#
# Coordination Sequence:
#
# PCOD9361476 Si02
#       5
#     8   8   8   8   8
#     4  11  22  39  63  92 124 162 203 248 299 357
#     4  12  26  45  66  90 118 153 198 253 310 366
#     4   8  15  27  49  80 117 155 193 234 282 338
#     4   9  16  29  51  83 120 160 201 245 293 349
#     4  10  21  40  63  91 124 160 201 248 298 356
#
# _framework density 20.293306000000001
#
# number of rings (size 3 to 8) (size 9 to 14) (size 15 to 20)
#    0.000    2.000    0.000    6.000    0.000    6.400 
#    0.000    5.000    0.000    2.400    0.000    0.000 
#    0.000    0.000    0.000    0.000    0.000    0.000 
#
# Total GULP energy -111776.903441 kJ/mol
# GULP energy per Si atom -5588.845172 kJ/mol
# Density = 2.024712 g / cm^3
# Si number density = 20.293306 Si / 1000 Ang^3
#
#
#
# Elastic Constant Matrix: (Units=GPa)
#
#
# Indices 1 2 3 4 5 6 
#
# 1 172.8696 43.4936 36.6625 0.0000 0.0000 0.0000
# 2 43.4936 114.9307 11.2283 0.0000 0.0000 0.0000
# 3 36.6625 11.2283 66.0747 0.0000 0.0000 0.0000
# 4 0.0000 0.0000 0.0000 22.6196 0.0000 0.0000
# 5 0.0000 0.0000 0.0000 0.0000 31.7042 0.0000
# 6 0.0000 0.0000 0.0000 0.0000 0.0000 40.6433
#
#
#
# Elastic Compliance Matrix: (Units=1/GPa)
#
#
# Indices 1 2 3 4 5 6 
#
# 1 0.007131 -0.002351 -0.003557 0.000000 0.000000 0.000000
# 2 -0.002351 0.009623 -0.000331 0.000000 0.000000 0.000000
# 3 -0.003557 -0.000331 0.017164 0.000000 0.000000 0.000000
# 4 0.000000 0.000000 0.000000 0.044209 0.000000 0.000000
# 5 0.000000 0.000000 0.000000 0.000000 0.031542 0.000000
# 6 0.000000 0.000000 0.000000 0.000000 0.000000 0.024604
#
#
# Mechanical properties :
#
#
# Convention : Reuss Voigt Hill
#
# Bulk Modulus (GPa) = 46.64129 59.62709 53.13419
# Shear Modulus (GPa) = 32.48921 36.49278 34.49100
#
# Velocity S-wave (km/s) = 4.00557 4.24520 4.12712
# Velocity P-wave (km/s) = 6.66530 7.31269 6.99649
#
# Compressibility (1/GPa) = 0.02144023
#
# Stress axis : x y z
#
# Youngs Moduli (GPa) = 140.24124 103.91894 58.26068
#
# Poissons Ratio (x) = 0.24431 0.20723
# Poissons Ratio (y) = 0.32970 0.01927
# Poissons Ratio (z) = 0.49884 0.03438
#
# Static dielectric constant tensor:
#      x y z
#    x 1.702710 0.000000 0.000000 
#    y 0.000000 1.681570 0.000000 
#    z 0.000000 0.000000 1.782650 
# 
# From -- ./inp_files/9635.got.cif
#   From: 2010.05.17/outbox.cif.g08.bks.cpg/sg39_5_cif.got.tgz:9635.got - 2010.06.03 18:22:40.
