data_PCOD9361290
_publ_section_title
;
Structure prediction by ZEFSAII (Michael W. Deem and Ramdas Pophale) SiO2 
 PCOD9361290
Probable space group: A B M 2
;
_chemical_formula_sum "Si O2"
_cell_formula_units_Z 48
_cell_length_a 5.034644
_cell_length_b 16.378830
_cell_length_c 26.349005
_cell_angle_alpha 90.000000
_cell_angle_beta 90.000000
_cell_angle_gamma 90.000000
_cell_volume 2172.780536
_symmetry_space_group_name_H-M "A B M 2"
_symmetry_group_IT_number 39
_symmetry_cell_setting 'orthorhombic'
loop_
_space_group_symop_operation_xyz
x,y,z
-x,-y,z
-x,1/2+y,z
x,1/2-y,z
x,1/2+y,1/2+z
-x,1/2-y,1/2+z
-x,y,1/2+z
x,-y,1/2+z
loop_
_atom_site_type_symbol
_atom_site_label
_atom_site_fract_x
_atom_site_fract_y
_atom_site_fract_z
Si Si1 0.033474 0.098878 0.730710
Si Si2 0.812092 0.345215 0.573945
Si Si3 0.704783 0.845827 0.507570
Si Si4 0.466008 0.097060 0.175502
Si Si5 0.128332 0.156078 0.841686
Si Si6 0.629053 0.088641 0.896415
O O1 0.236756 0.127149 0.686434
O O2 0.152655 0.129222 0.783359
O O3 0.738665 0.129393 0.717929
O O4 0.000000 0.000000 0.732072
O O5 0.854852 0.250000 0.587142
O O6 0.588796 0.349882 0.530482
O O7 0.678155 0.386253 0.622555
O O8 0.084273 0.377828 0.549321
O O9 0.772392 0.750000 0.498943
O O10 0.703788 0.890791 0.454203
O O11 0.500000 0.000000 0.180502
O O12 0.042053 0.250000 0.844557
O O13 0.399703 0.145935 0.872991
O O14 0.896698 0.100350 0.864869
O O15 0.500000 0.000000 0.892725
#
# Coordination Sequence:
#
# PCOD9361290 Si02
#       6
#     8   8   8   8   8   8
#     4  10  21  38  59  86 122 164 208 256 310 369
#     4  10  21  37  60  86 117 157 201 250 306 364
#     4  10  21  39  61  88 121 159 201 252 309 366
#     4  10  21  37  58  86 122 162 203 252 309 367
#     4  12  25  42  66  96 128 168 215 268 324 385
#     4  12  25  43  66  94 128 168 214 266 324 389
#
# _framework density 22.091508999999999
#
# number of rings (size 3 to 8) (size 9 to 14) (size 15 to 20)
#    0.000    1.333    0.000    6.000    0.000    4.667 
#    0.000    1.667    0.000    0.000    0.000    0.000 
#    0.000    0.000    0.000    0.000    0.000    0.000 
#
# Total GULP energy -134151.465455 kJ/mol
# GULP energy per Si atom -5589.644394 kJ/mol
# Density = 2.204123 g / cm^3
# Si number density = 22.091509 Si / 1000 Ang^3
#
#
#
# Elastic Constant Matrix: (Units=GPa)
#
#
# Indices 1 2 3 4 5 6 
#
# 1 102.6653 11.3461 17.8794 0.0000 0.0000 0.0000
# 2 11.3461 26.6799 0.3733 0.0000 0.0000 0.0000
# 3 17.8794 0.3733 76.4279 0.0000 0.0000 0.0000
# 4 0.0000 0.0000 0.0000 18.7343 0.0000 0.0000
# 5 0.0000 0.0000 0.0000 0.0000 17.3085 0.0000
# 6 0.0000 0.0000 0.0000 0.0000 0.0000 25.5714
#
#
#
# Elastic Compliance Matrix: (Units=1/GPa)
#
#
# Indices 1 2 3 4 5 6 
#
# 1 0.010669 -0.004503 -0.002474 0.000000 0.000000 0.000000
# 2 -0.004503 0.039384 0.000861 0.000000 0.000000 0.000000
# 3 -0.002474 0.000861 0.013659 0.000000 0.000000 0.000000
# 4 0.000000 0.000000 0.000000 0.053378 0.000000 0.000000
# 5 0.000000 0.000000 0.000000 0.000000 0.057775 0.000000
# 6 0.000000 0.000000 0.000000 0.000000 0.000000 0.039106
#
#
# Mechanical properties :
#
#
# Convention : Reuss Voigt Hill
#
# Bulk Modulus (GPa) = 19.42466 29.44117 24.43292
# Shear Modulus (GPa) = 20.54552 24.06780 22.30666
#
# Velocity S-wave (km/s) = 3.05293 3.30428 3.18109
# Velocity P-wave (km/s) = 4.60859 5.28332 4.95745
#
# Compressibility (1/GPa) = 0.05148094
#
# Stress axis : x y z
#
# Youngs Moduli (GPa) = 93.73110 25.39091 73.21309
#
# Poissons Ratio (x) = 0.11432 0.18112
# Poissons Ratio (y) = 0.42203 -0.06303
# Poissons Ratio (z) = 0.23188 -0.02186
#
# Static dielectric constant tensor:
#      x y z
#    x 1.798700 0.000000 0.000000 
#    y 0.000000 1.811340 0.000000 
#    z 0.000000 0.000000 1.802120 
# 
# From -- ./inp_files/16495.got.cif
#   From: 2010.05.17/outbox.cif.g08.bks.cpg/sg39_9_cif.got.tgz:16495.got - 2010.06.03 18:22:40.
