data_PCOD9361834
_publ_section_title
;
Structure prediction by ZEFSAII (Michael W. Deem and Ramdas Pophale) SiO2 
 PCOD9361834
Probable space group: A B M 2
;
_chemical_formula_sum "Si O2"
_cell_formula_units_Z 44
_cell_length_a 16.521353
_cell_length_b 9.057701
_cell_length_c 14.253908
_cell_angle_alpha 90.000000
_cell_angle_beta 90.000000
_cell_angle_gamma 90.000000
_cell_volume 2133.032842
_symmetry_space_group_name_H-M "A B M 2"
_symmetry_group_IT_number 39
_symmetry_cell_setting 'orthorhombic'
loop_
_space_group_symop_operation_xyz
x,y,z
-x,-y,z
-x,1/2+y,z
x,1/2-y,z
x,1/2+y,1/2+z
-x,1/2-y,1/2+z
-x,y,1/2+z
x,-y,1/2+z
loop_
_atom_site_type_symbol
_atom_site_label
_atom_site_fract_x
_atom_site_fract_y
_atom_site_fract_z
Si Si1 0.114948 0.587059 0.741920
Si Si2 0.414302 0.075175 0.550073
Si Si3 0.273128 0.921485 0.191247
Si Si4 0.309511 0.581822 0.409977
Si Si5 0.000000 0.000000 0.086071
Si Si6 0.121279 0.927432 0.435321
O O1 0.131569 0.750000 0.780632
O O2 0.193892 0.522042 0.690297
O O3 0.098293 0.478916 0.829861
O O4 0.045884 0.598432 0.663345
O O5 0.423643 0.250000 0.556000
O O6 0.345075 0.029193 0.624025
O O7 0.500000 0.000000 0.566451
O O8 0.375598 0.026462 0.451641
O O9 0.251740 0.750000 0.169502
O O10 0.304299 0.924680 0.298017
O O11 0.329571 0.750000 0.438028
O O12 0.217765 0.550256 0.444172
O O13 0.927812 0.024049 0.010855
O O14 0.104572 0.750000 0.446762
#
# Coordination Sequence:
#
# PCOD9361834 Si02
#       6
#     8   8   8   8   4   8
#     4  11  24  40  61  89 119 154 199 249 300 354
#     4  11  23  38  59  90 122 153 191 237 289 347
#     4   9  21  42  64  85 116 157 197 238 290 351
#     4   9  19  40  64  85 114 152 194 241 291 346
#     4  12  24  36  58  88 120 158 200 244 296 348
#     4  10  23  42  62  85 117 158 202 247 296 352
#
# _framework density 20.627905999999999
#
# number of rings (size 3 to 8) (size 9 to 14) (size 15 to 20)
#    0.000    1.818    0.000    4.364    0.000   12.364 
#    0.000    1.818    0.000    0.000    0.000    0.000 
#    0.000    0.000    0.000    0.000    0.000    0.000 
#
# Total GULP energy -122690.220550 kJ/mol
# GULP energy per Si atom -5576.828207 kJ/mol
# Density = 2.058096 g / cm^3
# Si number density = 20.627906 Si / 1000 Ang^3
#
#
#
# Elastic Constant Matrix: (Units=GPa)
#
#
# Indices 1 2 3 4 5 6 
#
# 1 80.4720 52.7338 33.2882 0.0000 0.0000 0.0000
# 2 52.7338 59.4911 20.5875 0.0000 0.0000 0.0000
# 3 33.2882 20.5875 66.9926 0.0000 0.0000 0.0000
# 4 0.0000 0.0000 0.0000 4.1689 0.0000 0.0000
# 5 0.0000 0.0000 0.0000 0.0000 17.5770 0.0000
# 6 0.0000 0.0000 0.0000 0.0000 0.0000 -69.3811
#
#
#
# Elastic Compliance Matrix: (Units=1/GPa)
#
#
# Indices 1 2 3 4 5 6 
#
# 1 0.033389 -0.026694 -0.008387 0.000000 0.000000 0.000000
# 2 -0.026694 0.040151 0.000925 0.000000 0.000000 0.000000
# 3 -0.008387 0.000925 0.018810 0.000000 0.000000 0.000000
# 4 0.000000 0.000000 0.000000 0.239874 0.000000 0.000000
# 5 0.000000 0.000000 0.000000 0.000000 0.056893 0.000000
# 6 0.000000 0.000000 0.000000 0.000000 0.000000 -0.014413
#
#
# Mechanical properties :
#
#
# Convention : Reuss Voigt Hill
#
# Bulk Modulus (GPa) = 41.60076 46.68607 44.14341
# Shear Modulus (GPa) = 11.08579 -2.83731 4.12424
#
# Velocity S-wave (km/s) = 2.32074 -1.17408 1.41552
# Velocity P-wave (km/s) = 5.23375 4.56549 4.91100
#
# Compressibility (1/GPa) = 0.02403803
#
# Stress axis : x y z
#
# Youngs Moduli (GPa) = 29.95009 24.90604 53.16224
#
# Poissons Ratio (x) = 0.66484 0.44589
# Poissons Ratio (y) = 0.79948 -0.04919
# Poissons Ratio (z) = 0.25120 -0.02304
#
# Static dielectric constant tensor:
#      x y z
#    x 1.722470 0.000000 0.000000 
#    y 0.000000 1.728050 0.000000 
#    z 0.000000 0.000000 1.744230 
# 
# From -- ./inp_files/9998.got.cif
#   From: 2010.05.17/outbox.cif.g08.bks.cpg/sg39_5_cif.got.tgz:9998.got - 2010.06.03 18:22:40.
