data_PCOD9361312
_publ_section_title
;
Structure prediction by ZEFSAII (Michael W. Deem and Ramdas Pophale) SiO2 
 PCOD9361312
Probable space group: A B M 2
;
_chemical_formula_sum "Si O2"
_cell_formula_units_Z 48
_cell_length_a 11.459501
_cell_length_b 14.617830
_cell_length_c 11.906042
_cell_angle_alpha 90.000000
_cell_angle_beta 90.000000
_cell_angle_gamma 90.000000
_cell_volume 1994.417260
_symmetry_space_group_name_H-M "A B M 2"
_symmetry_group_IT_number 39
_symmetry_cell_setting 'orthorhombic'
loop_
_space_group_symop_operation_xyz
x,y,z
-x,-y,z
-x,1/2+y,z
x,1/2-y,z
x,1/2+y,1/2+z
-x,1/2-y,1/2+z
-x,y,1/2+z
x,-y,1/2+z
loop_
_atom_site_type_symbol
_atom_site_label
_atom_site_fract_x
_atom_site_fract_y
_atom_site_fract_z
Si Si1 0.537988 0.750000 0.437701
Si Si2 0.210077 0.953290 0.603871
Si Si3 0.149698 0.854714 0.820215
Si Si4 0.654990 0.047687 0.932434
Si Si5 0.905050 0.352165 0.415635
Si Si6 0.453602 0.750000 0.180355
Si Si7 0.706917 0.593775 0.756557
O O1 0.590719 0.644817 0.441498
O O2 0.503631 0.750000 0.306242
O O3 0.476322 0.750000 0.562479
O O4 0.207011 0.875847 0.699901
O O5 0.112698 0.921957 0.516767
O O6 0.330777 0.978351 0.537572
O O7 0.198238 0.043788 0.678371
O O8 0.173739 0.750000 0.849381
O O9 0.212661 0.919399 0.908979
O O10 0.012276 0.871395 0.832480
O O11 0.632174 0.982812 0.824263
O O12 0.924430 0.250000 0.461244
O O13 0.782781 0.354254 0.349419
O O14 0.370672 0.838945 0.184215
#
# Coordination Sequence:
#
# PCOD9361312 Si02
#       7
#     4   8   8   8   8   4   8
#     4  12  26  52  75 108 138 184 239 310 391 456
#     4  10  21  38  62  93 138 186 232 287 351 418
#     4  10  21  37  61  99 143 189 242 284 334 417
#     4  10  22  42  69  99 140 186 232 294 365 437
#     4  10  21  37  61  99 143 189 242 284 334 417
#     4  12  26  52  75 108 138 184 239 310 391 456
#     4  10  22  42  69  99 140 186 232 294 365 437
#
# _framework density 24.067181000000001
#
# number of rings (size 3 to 8) (size 9 to 14) (size 15 to 20)
#    0.000    1.667    3.333    0.500    0.000    9.333 
#   12.000    3.333    0.000    0.000    0.000    0.000 
#    0.000    0.000    0.000    0.000    0.000    0.000 
#
# Total GULP energy -133601.249222 kJ/mol
# GULP energy per Si atom -5566.718718 kJ/mol
# Density = 2.401240 g / cm^3
# Si number density = 24.067181 Si / 1000 Ang^3
#
#
#
# Elastic Constant Matrix: (Units=GPa)
#
#
# Indices 1 2 3 4 5 6 
#
# 1 34.0805 29.5950 20.7290 0.0000 0.0000 0.0000
# 2 29.5950 138.3181 50.9871 0.0000 0.0000 0.0000
# 3 20.7290 50.9871 131.9483 0.0000 0.0000 0.0000
# 4 0.0000 0.0000 0.0000 23.3907 0.0000 0.0000
# 5 0.0000 0.0000 0.0000 0.0000 22.4642 0.0000
# 6 0.0000 0.0000 0.0000 0.0000 0.0000 18.9899
#
#
#
# Elastic Compliance Matrix: (Units=1/GPa)
#
#
# Indices 1 2 3 4 5 6 
#
# 1 0.037180 -0.006766 -0.003227 0.000000 0.000000 0.000000
# 2 -0.006766 0.009662 -0.002671 0.000000 0.000000 0.000000
# 3 -0.003227 -0.002671 0.009118 0.000000 0.000000 0.000000
# 4 0.000000 0.000000 0.000000 0.042752 0.000000 0.000000
# 5 0.000000 0.000000 0.000000 0.000000 0.044515 0.000000
# 6 0.000000 0.000000 0.000000 0.000000 0.000000 0.052660
#
#
# Mechanical properties :
#
#
# Convention : Reuss Voigt Hill
#
# Bulk Modulus (GPa) = 32.64392 56.32989 44.48690
# Shear Modulus (GPa) = 21.60543 26.50469 24.05506
#
# Velocity S-wave (km/s) = 2.99944 3.32215 3.16491
# Velocity P-wave (km/s) = 5.05852 6.17832 5.64625
#
# Compressibility (1/GPa) = 0.03063358
#
# Stress axis : x y z
#
# Youngs Moduli (GPa) = 26.89614 103.50071 109.67832
#
# Poissons Ratio (x) = 0.70026 0.35388
# Poissons Ratio (y) = 0.18197 0.29290
# Poissons Ratio (z) = 0.08678 0.27641
#
# Static dielectric constant tensor:
#      x y z
#    x 1.912860 0.000000 0.000000 
#    y 0.000000 1.908110 0.000000 
#    z 0.000000 0.000000 1.976270 
# 
# From -- ./inp_files/6440.got.cif
#   From: 2010.05.17/outbox.cif.g08.bks.cpg/sg39_4_cif.got.tgz:6440.got - 2010.06.03 18:22:40.
