data_PCOD9361696
_publ_section_title
;
Structure prediction by ZEFSAII (Michael W. Deem and Ramdas Pophale) SiO2 
 PCOD9361696
Probable space group: A B M 2
;
_chemical_formula_sum "Si O2"
_cell_formula_units_Z 48
_cell_length_a 19.183640
_cell_length_b 8.679253
_cell_length_c 15.284697
_cell_angle_alpha 90.000000
_cell_angle_beta 90.000000
_cell_angle_gamma 90.000000
_cell_volume 2544.896930
_symmetry_space_group_name_H-M "A B M 2"
_symmetry_group_IT_number 39
_symmetry_cell_setting 'orthorhombic'
loop_
_space_group_symop_operation_xyz
x,y,z
-x,-y,z
-x,1/2+y,z
x,1/2-y,z
x,1/2+y,1/2+z
-x,1/2-y,1/2+z
-x,y,1/2+z
x,-y,1/2+z
loop_
_atom_site_type_symbol
_atom_site_label
_atom_site_fract_x
_atom_site_fract_y
_atom_site_fract_z
Si Si1 0.336848 0.566445 0.393230
Si Si2 0.187852 0.434653 0.338530
Si Si3 0.322775 0.934244 0.084260
Si Si4 0.422838 0.065732 0.234591
Si Si5 0.827562 0.934185 0.136019
Si Si6 0.076740 0.934599 0.988632
O O1 0.344126 0.750000 0.394202
O O2 0.259538 0.520597 0.360212
O O3 0.344786 0.498473 0.490034
O O4 0.391446 0.492924 0.326168
O O5 0.201001 0.250000 0.345325
O O6 0.165044 0.467341 0.239184
O O7 0.128886 0.475535 0.409016
O O8 0.325479 0.750000 0.084991
O O9 0.372072 0.002336 0.159220
O O10 0.243978 0.989133 0.102987
O O11 0.423348 0.250000 0.232526
O O12 0.500000 0.000000 0.222007
O O13 0.822105 0.750000 0.125242
O O14 0.889861 0.997573 0.076944
O O15 0.074184 0.750000 0.994460
O O16 0.000000 0.000000 0.973889
#
# Coordination Sequence:
#
# PCOD9361696 Si02
#       6
#     8   8   8   8   8   8
#     4  12  24  40  67  99 130 172 219 266 322 383
#     4  10  22  40  64  93 129 168 212 266 321 381
#     4  12  24  41  66  98 132 172 219 267 321 384
#     4  12  26  46  68  97 135 172 215 270 327 387
#     4  11  22  39  65  96 128 167 214 266 323 384
#     4  11  24  42  63  91 130 171 214 269 330 385
#
# _framework density 18.861276
#
# number of rings (size 3 to 8) (size 9 to 14) (size 15 to 20)
#    0.000    0.667    3.333    5.500    0.000    2.667 
#    0.000    5.000    0.000    0.000    0.000    0.000 
#    0.000    0.000    0.000    0.000    0.000    0.000 
#
# Total GULP energy -134328.866603 kJ/mol
# GULP energy per Si atom -5597.036108 kJ/mol
# Density = 1.881835 g / cm^3
# Si number density = 18.861276 Si / 1000 Ang^3
#
#
#
# Elastic Constant Matrix: (Units=GPa)
#
#
# Indices 1 2 3 4 5 6 
#
# 1 62.3594 20.0900 -11.1459 0.0000 0.0000 0.0000
# 2 20.0900 111.1471 30.0958 0.0000 0.0000 0.0000
# 3 -11.1459 30.0958 86.2491 0.0000 0.0000 0.0000
# 4 0.0000 0.0000 0.0000 29.2404 0.0000 0.0000
# 5 0.0000 0.0000 0.0000 0.0000 12.4602 0.0000
# 6 0.0000 0.0000 0.0000 0.0000 0.0000 38.2740
#
#
#
# Elastic Compliance Matrix: (Units=1/GPa)
#
#
# Indices 1 2 3 4 5 6 
#
# 1 0.018114 -0.004316 0.003847 0.000000 0.000000 0.000000
# 2 -0.004316 0.010964 -0.004384 0.000000 0.000000 0.000000
# 3 0.003847 -0.004384 0.013621 0.000000 0.000000 0.000000
# 4 0.000000 0.000000 0.000000 0.034199 0.000000 0.000000
# 5 0.000000 0.000000 0.000000 0.000000 0.080255 0.000000
# 6 0.000000 0.000000 0.000000 0.000000 0.000000 0.026127
#
#
# Mechanical properties :
#
#
# Convention : Reuss Voigt Hill
#
# Bulk Modulus (GPa) = 30.30837 37.53726 33.92281
# Shear Modulus (GPa) = 24.51172 30.70933 27.61053
#
# Velocity S-wave (km/s) = 3.60888 4.03943 3.83021
# Velocity P-wave (km/s) = 5.78527 6.45763 6.13067
#
# Compressibility (1/GPa) = 0.03299419
#
# Stress axis : x y z
#
# Youngs Moduli (GPa) = 55.20589 91.20672 73.41588
#
# Poissons Ratio (x) = 0.39362 -0.28242
# Poissons Ratio (y) = 0.23825 0.32182
# Poissons Ratio (z) = -0.21237 0.39981
#
# Static dielectric constant tensor:
#      x y z
#    x 1.611570 0.000000 0.000000 
#    y 0.000000 1.630380 0.000000 
#    z 0.000000 0.000000 1.643300 
# 
# From -- ./inp_files/10035.got.cif
#   From: 2010.05.17/outbox.cif.g08.bks.cpg/sg39_6_cif.got.tgz:10035.got - 2010.06.03 18:22:40.
