data_PCOD9361030
_publ_section_title
;
Structure prediction by ZEFSAII (Michael W. Deem and Ramdas Pophale) SiO2 
 PCOD9361030
Probable space group: A B M 2
;
_chemical_formula_sum "Si O2"
_cell_formula_units_Z 56
_cell_length_a 5.006768
_cell_length_b 15.160494
_cell_length_c 32.044738
_cell_angle_alpha 90.000000
_cell_angle_beta 90.000000
_cell_angle_gamma 90.000000
_cell_volume 2432.358280
_symmetry_space_group_name_H-M "A B M 2"
_symmetry_group_IT_number 39
_symmetry_cell_setting 'orthorhombic'
loop_
_space_group_symop_operation_xyz
x,y,z
-x,-y,z
-x,1/2+y,z
x,1/2-y,z
x,1/2+y,1/2+z
-x,1/2-y,1/2+z
-x,y,1/2+z
x,-y,1/2+z
loop_
_atom_site_type_symbol
_atom_site_label
_atom_site_fract_x
_atom_site_fract_y
_atom_site_fract_z
Si Si1 0.141518 0.857838 0.790070
Si Si2 0.892574 0.900819 0.926941
Si Si3 0.250000 0.564888 0.515604
Si Si4 0.385003 0.650133 0.876166
Si Si5 0.641518 0.357838 0.241137
Si Si6 0.114997 0.650133 0.155042
Si Si7 0.392574 0.400819 0.104267
O O1 0.137605 0.750000 0.792052
O O2 0.261413 0.889169 0.833809
O O3 0.344081 0.884702 0.753273
O O4 0.844081 0.884702 0.777935
O O5 0.637568 0.895892 0.896918
O O6 0.139359 0.847579 0.908344
O O7 0.809519 0.879207 0.974217
O O8 0.000000 0.000000 0.928848
O O9 0.500000 0.500000 0.506403
O O10 0.309519 0.620793 0.556991
O O11 0.000000 0.500000 0.524804
O O12 0.476018 0.750000 0.866569
O O13 0.637605 0.250000 0.239155
O O14 0.761413 0.389169 0.197398
O O15 0.023982 0.750000 0.164639
O O16 0.360640 0.652421 0.122864
O O17 0.862432 0.604109 0.134289
O O18 0.500000 0.500000 0.102360
#
# Coordination Sequence:
#
# PCOD9361030 Si02
#       7
#     8   8   8   8   8   8   8
#     4   9  17  31  53  79 108 147 191 229 269 330
#     4  11  22  39  61  84 113 153 194 233 282 343
#     4  10  20  38  61  84 109 150 202 234 264 340
#     4  11  22  37  59  89 119 146 188 243 291 332
#     4   9  17  31  53  79 108 147 191 229 269 330
#     4  11  22  37  59  89 119 146 188 243 291 332
#     4  11  22  39  61  84 113 153 194 233 282 343
#
# _framework density 23.022925999999998
#
# number of rings (size 3 to 8) (size 9 to 14) (size 15 to 20)
#    0.000    1.714    0.000    6.857    0.000    4.571 
#    0.000    4.286    0.000   17.143    0.000    0.000 
#    0.000    0.000    0.000    0.000    0.000    0.000 
#
# Total GULP energy -156602.621193 kJ/mol
# GULP energy per Si atom -5592.950757 kJ/mol
# Density = 2.297053 g / cm^3
# Si number density = 23.022926 Si / 1000 Ang^3
#
#
#
# Elastic Constant Matrix: (Units=GPa)
#
#
# Indices 1 2 3 4 5 6 
#
# 1 117.5795 -2.5991 6.8181 0.0000 0.0000 0.0000
# 2 -2.5991 25.9577 7.1027 0.0000 0.0000 0.0000
# 3 6.8181 7.1027 86.4344 0.0000 0.0000 0.0000
# 4 0.0000 0.0000 0.0000 22.9702 0.0000 0.0000
# 5 0.0000 0.0000 0.0000 0.0000 39.4783 0.0000
# 6 0.0000 0.0000 0.0000 0.0000 0.0000 35.2262
#
#
#
# Elastic Compliance Matrix: (Units=1/GPa)
#
#
# Indices 1 2 3 4 5 6 
#
# 1 0.008573 0.001067 -0.000764 0.000000 0.000000 0.000000
# 2 0.001067 0.039543 -0.003334 0.000000 0.000000 0.000000
# 3 -0.000764 -0.003334 0.011904 0.000000 0.000000 0.000000
# 4 0.000000 0.000000 0.000000 0.043535 0.000000 0.000000
# 5 0.000000 0.000000 0.000000 0.000000 0.025330 0.000000
# 6 0.000000 0.000000 0.000000 0.000000 0.000000 0.028388
#
#
# Mechanical properties :
#
#
# Convention : Reuss Voigt Hill
#
# Bulk Modulus (GPa) = 18.53246 28.06834 23.30040
# Shear Modulus (GPa) = 27.57561 34.11158 30.84360
#
# Velocity S-wave (km/s) = 3.46460 3.85338 3.66415
# Velocity P-wave (km/s) = 4.90629 5.65826 5.29564
#
# Compressibility (1/GPa) = 0.05395937
#
# Stress axis : x y z
#
# Youngs Moduli (GPa) = 116.64834 25.28875 84.00768
#
# Poissons Ratio (x) = -0.02699 0.06418
# Poissons Ratio (y) = -0.12451 0.28005
# Poissons Ratio (z) = 0.08911 0.08430
#
# Static dielectric constant tensor:
#      x y z
#    x 1.810850 0.000000 0.000000 
#    y 0.000000 1.871680 0.000000 
#    z 0.000000 0.000000 1.897360 
# 
# From -- ./inp_files/17273.got.cif
#   From: 2010.05.17/outbox.cif.g08.bks.cpg/sg39_9_cif.got.tgz:17273.got - 2010.06.03 18:22:40.
