data_PCOD9361299
_publ_section_title
;
Structure prediction by ZEFSAII (Michael W. Deem and Ramdas Pophale) SiO2 
 PCOD9361299
Probable space group: A B M 2
;
_chemical_formula_sum "Si O2"
_cell_formula_units_Z 64
_cell_length_a 5.407506
_cell_length_b 18.281660
_cell_length_c 31.912626
_cell_angle_alpha 90.000000
_cell_angle_beta 90.000000
_cell_angle_gamma 90.000000
_cell_volume 3154.824321
_symmetry_space_group_name_H-M "A B M 2"
_symmetry_group_IT_number 39
_symmetry_cell_setting 'orthorhombic'
loop_
_space_group_symop_operation_xyz
x,y,z
-x,-y,z
-x,1/2+y,z
x,1/2-y,z
x,1/2+y,1/2+z
-x,1/2-y,1/2+z
-x,y,1/2+z
x,-y,1/2+z
loop_
_atom_site_type_symbol
_atom_site_label
_atom_site_fract_x
_atom_site_fract_y
_atom_site_fract_z
Si Si1 0.252635 0.950970 0.944710
Si Si2 0.323336 0.928949 0.738232
Si Si3 0.795367 0.336203 0.020440
Si Si4 0.968778 0.424187 0.318849
Si Si5 0.755645 0.830938 0.374209
Si Si6 0.703889 0.835098 0.074281
Si Si7 0.572135 0.328740 0.290029
Si Si8 0.242004 0.954526 0.645133
O O1 0.307468 0.896148 0.905571
O O2 0.500000 0.000000 0.950516
O O3 0.213117 0.894552 0.983027
O O4 0.000000 0.000000 0.940532
O O5 0.157643 0.932824 0.780228
O O6 0.438794 0.848494 0.746606
O O7 0.193499 0.930440 0.693270
O O8 0.500000 0.000000 0.736673
O O9 0.787745 0.250000 0.006907
O O10 0.550868 0.348604 0.048816
O O11 0.052232 0.346480 0.045545
O O12 0.994764 0.358368 0.351847
O O13 0.000000 0.500000 0.342518
O O14 0.721375 0.402794 0.296358
O O15 0.769457 0.750000 0.393133
O O16 0.587421 0.826226 0.332568
O O17 0.702625 0.750000 0.086616
O O18 0.722604 0.887162 0.114046
O O19 0.701373 0.250000 0.286462
O O20 0.500000 0.000000 0.643971
O O21 0.000000 0.000000 0.631604
#
# Coordination Sequence:
#
# PCOD9361299 Si02
#       8
#     8   8   8   8   8   8   8   8
#     4  12  27  43  66  99 129 161 210 261 310 374
#     4  10  21  37  59  85 123 166 210 258 317 374
#     4  10  22  44  69  93 128 169 206 252 316 380
#     4  11  20  35  64  86 118 165 212 262 314 372
#     4  10  24  41  59  87 126 165 208 258 317 377
#     4  10  22  42  68  96 128 168 210 253 315 379
#     4  10  22  39  60  90 120 162 214 263 315 372
#     4  11  24  39  64  95 131 168 213 261 316 375
#
# _framework density 20.286390999999998
#
# number of rings (size 3 to 8) (size 9 to 14) (size 15 to 20)
#    0.000    1.500    1.250    3.000    5.250    4.000 
#    0.000    1.250    0.000    0.000    0.000    0.000 
#    0.000    0.000    0.000    0.000    0.000    0.000 
#
# Total GULP energy -178142.467244 kJ/mol
# GULP energy per Si atom -5566.952101 kJ/mol
# Density = 2.024022 g / cm^3
# Si number density = 20.286391 Si / 1000 Ang^3
#
#
#
# Elastic Constant Matrix: (Units=GPa)
#
#
# Indices 1 2 3 4 5 6 
#
# 1 85.7593 35.1437 15.8892 0.0000 0.0000 0.0000
# 2 35.1437 132.3116 58.5609 0.0000 0.0000 0.0000
# 3 15.8892 58.5609 88.2543 0.0000 0.0000 0.0000
# 4 0.0000 0.0000 0.0000 40.0788 0.0000 0.0000
# 5 0.0000 0.0000 0.0000 0.0000 45.3371 0.0000
# 6 0.0000 0.0000 0.0000 0.0000 0.0000 19.7066
#
#
#
# Elastic Compliance Matrix: (Units=1/GPa)
#
#
# Indices 1 2 3 4 5 6 
#
# 1 0.013085 -0.003444 -0.000070 0.000000 0.000000 0.000000
# 2 -0.003444 0.011607 -0.007082 0.000000 0.000000 0.000000
# 3 -0.000070 -0.007082 0.016043 0.000000 0.000000 0.000000
# 4 0.000000 0.000000 0.000000 0.024951 0.000000 0.000000
# 5 0.000000 0.000000 0.000000 0.000000 0.022057 0.000000
# 6 0.000000 0.000000 0.000000 0.000000 0.000000 0.050744
#
#
# Mechanical properties :
#
#
# Convention : Reuss Voigt Hill
#
# Bulk Modulus (GPa) = 51.17208 58.39030 54.78119
# Shear Modulus (GPa) = 30.08531 34.13994 32.11262
#
# Velocity S-wave (km/s) = 3.85519 4.10677 3.98296
# Velocity P-wave (km/s) = 6.71537 7.16469 6.94367
#
# Compressibility (1/GPa) = 0.01954190
#
# Stress axis : x y z
#
# Youngs Moduli (GPa) = 76.42287 86.15346 62.33391
#
# Poissons Ratio (x) = 0.29675 0.00438
# Poissons Ratio (y) = 0.26324 0.44143
# Poissons Ratio (z) = 0.00537 0.61012
#
# Static dielectric constant tensor:
#      x y z
#    x 1.738170 0.000000 0.000000 
#    y 0.000000 1.770220 0.000000 
#    z 0.000000 0.000000 1.699520 
# 
# From -- ./inp_files/17369.got.cif
#   From: 2010.05.17/outbox.cif.g08.bks.cpg/sg39_9_cif.got.tgz:17369.got - 2010.06.03 18:22:40.
