data_PCOD9361777
_publ_section_title
;
Structure prediction by ZEFSAII (Michael W. Deem and Ramdas Pophale) SiO2 
 PCOD9361777
Probable space group: A B M 2
;
_chemical_formula_sum "Si O2"
_cell_formula_units_Z 40
_cell_length_a 13.321518
_cell_length_b 17.187427
_cell_length_c 8.804368
_cell_angle_alpha 90.000000
_cell_angle_beta 90.000000
_cell_angle_gamma 90.000000
_cell_volume 2015.871148
_symmetry_space_group_name_H-M "A B M 2"
_symmetry_group_IT_number 39
_symmetry_cell_setting 'orthorhombic'
loop_
_space_group_symop_operation_xyz
x,y,z
-x,-y,z
-x,1/2+y,z
x,1/2-y,z
x,1/2+y,1/2+z
-x,1/2-y,1/2+z
-x,y,1/2+z
x,-y,1/2+z
loop_
_atom_site_type_symbol
_atom_site_label
_atom_site_fract_x
_atom_site_fract_y
_atom_site_fract_z
Si Si1 0.731954 0.432595 0.834370
Si Si2 0.385987 0.996694 0.579865
Si Si3 0.069377 0.074458 0.523508
Si Si4 0.901669 0.159465 0.336677
Si Si5 0.707806 0.338828 0.549888
O O1 0.696257 0.497507 0.713578
O O2 0.835993 0.446870 0.918256
O O3 0.735176 0.356836 0.726893
O O4 0.644735 0.437775 0.960065
O O5 0.500000 0.000000 0.633129
O O6 0.368396 0.909249 0.512993
O O7 0.103280 0.110635 0.682409
O O8 0.999414 0.133668 0.430464
O O9 0.000000 0.000000 0.553987
O O10 0.908044 0.250000 0.296445
O O11 0.805845 0.149260 0.446412
O O12 0.672957 0.250000 0.531717
#
# Coordination Sequence:
#
# PCOD9361777 Si02
#       5
#     8   8   8   8   8
#     4  10  24  38  68  93 129 164 218 265 323 381
#     4  10  22  43  69  92 124 171 215 269 332 382
#     4  12  25  38  62  97 132 174 218 263 312 380
#     4  11  24  42  63  93 136 177 210 256 323 388
#     4   9  22  43  65  93 129 166 211 267 319 382
#
# _framework density 19.842538000000001
#
# number of rings (size 3 to 8) (size 9 to 14) (size 15 to 20)
#    1.200    0.400    0.000    4.200    8.400    3.200 
#    0.000    1.000    0.000    0.000    0.000    0.000 
#    0.000    0.000    0.000    0.000    0.000    0.000 
#
# Total GULP energy -111511.896254 kJ/mol
# GULP energy per Si atom -5575.594813 kJ/mol
# Density = 1.979738 g / cm^3
# Si number density = 19.842538 Si / 1000 Ang^3
#
#
#
# Elastic Constant Matrix: (Units=GPa)
#
#
# Indices 1 2 3 4 5 6 
#
# 1 100.7866 51.6656 25.5930 0.0000 0.0000 0.0000
# 2 51.6656 85.4379 28.6877 0.0000 0.0000 0.0000
# 3 25.5930 28.6877 77.3556 0.0000 0.0000 0.0000
# 4 0.0000 0.0000 0.0000 27.7088 0.0000 0.0000
# 5 0.0000 0.0000 0.0000 0.0000 -59.1685 0.0000
# 6 0.0000 0.0000 0.0000 0.0000 0.0000 22.1801
#
#
#
# Elastic Compliance Matrix: (Units=1/GPa)
#
#
# Indices 1 2 3 4 5 6 
#
# 1 0.014590 -0.008226 -0.001776 0.000000 0.000000 0.000000
# 2 -0.008226 0.018008 -0.003956 0.000000 0.000000 0.000000
# 3 -0.001776 -0.003956 0.014982 0.000000 0.000000 0.000000
# 4 0.000000 0.000000 0.000000 0.036090 0.000000 0.000000
# 5 0.000000 0.000000 0.000000 0.000000 -0.016901 0.000000
# 6 0.000000 0.000000 0.000000 0.000000 0.000000 0.045086
#
#
# Mechanical properties :
#
#
# Convention : Reuss Voigt Hill
#
# Bulk Modulus (GPa) = 50.86084 52.83030 51.84557
# Shear Modulus (GPa) = 34.17023 8.65301 21.41162
#
# Velocity S-wave (km/s) = 4.15428 2.09053 3.28849
# Velocity P-wave (km/s) = 6.97844 5.70172 6.37214
#
# Compressibility (1/GPa) = 0.01966149
#
# Stress axis : x y z
#
# Youngs Moduli (GPa) = 68.53987 55.53241 66.74547
#
# Poissons Ratio (x) = 0.45683 0.11856
# Poissons Ratio (y) = 0.56384 0.26408
# Poissons Ratio (z) = 0.12175 0.21971
#
# Static dielectric constant tensor:
#      x y z
#    x 1.671860 0.000000 0.000000 
#    y 0.000000 1.701140 0.000000 
#    z 0.000000 0.000000 1.742050 
# 
# From -- ./inp_files/2525.got.cif
#   From: 2010.05.17/outbox.cif.g08.bks.cpg/sg39_2_cif.got.tgz:2525.got - 2010.06.03 18:22:40.
