data_PCOD9361640
_publ_section_title
;
Structure prediction by ZEFSAII (Michael W. Deem and Ramdas Pophale) SiO2 
 PCOD9361640
Probable space group: A B M 2
;
_chemical_formula_sum "Si O2"
_cell_formula_units_Z 56
_cell_length_a 21.084412
_cell_length_b 9.243821
_cell_length_c 14.660946
_cell_angle_alpha 90.000000
_cell_angle_beta 90.000000
_cell_angle_gamma 90.000000
_cell_volume 2857.426152
_symmetry_space_group_name_H-M "A B M 2"
_symmetry_group_IT_number 39
_symmetry_cell_setting 'orthorhombic'
loop_
_space_group_symop_operation_xyz
x,y,z
-x,-y,z
-x,1/2+y,z
x,1/2-y,z
x,1/2+y,1/2+z
-x,1/2-y,1/2+z
-x,y,1/2+z
x,-y,1/2+z
loop_
_atom_site_type_symbol
_atom_site_label
_atom_site_fract_x
_atom_site_fract_y
_atom_site_fract_z
Si Si1 0.161879 0.577864 0.023520
Si Si2 0.932575 0.575471 0.366667
Si Si3 0.171359 0.423488 0.216915
Si Si4 0.563126 0.083235 0.210673
Si Si5 0.562346 0.415025 0.986940
Si Si6 0.697746 0.075758 0.015044
Si Si7 0.688668 0.577453 0.210422
O O1 0.156982 0.750000 0.038724
O O2 0.161332 0.498391 0.119845
O O3 0.231362 0.554765 0.977626
O O4 0.104630 0.533101 0.958662
O O5 0.939749 0.750000 0.366412
O O6 0.884487 0.536223 0.285371
O O7 0.000000 0.500000 0.358540
O O8 0.170381 0.250000 0.205171
O O9 0.242543 0.458075 0.252371
O O10 0.561981 0.250000 0.238013
O O11 0.563712 0.079856 0.098756
O O12 0.500000 0.000000 0.239136
O O13 0.626335 0.003922 0.244402
O O14 0.500000 0.500000 0.957628
O O15 0.554601 0.250000 0.958157
O O16 0.633741 0.462608 0.960521
O O17 0.692053 0.250000 0.035800
O O18 0.695792 0.979975 0.106479
O O19 0.678913 0.750000 0.213756
#
# Coordination Sequence:
#
# PCOD9361640 Si02
#       7
#     8   8   8   8   8   8   8
#     4   9  18  34  56  78 102 135 176 216 256 305
#     4  10  22  39  57  80 108 137 170 211 259 317
#     4   9  19  35  54  77 107 139 173 214 261 311
#     4   9  15  22  33  54  87 125 164 208 253 297
#     4   8  13  19  29  49  80 115 150 190 236 280
#     4   8  14  25  40  60  87 121 162 205 245 292
#     4   9  15  24  40  62  89 124 164 206 250 298
#
# _framework density 19.598058000000002
#
# number of rings (size 3 to 8) (size 9 to 14) (size 15 to 20)
#    0.000    3.143    0.000    1.714    0.000    5.714 
#    0.000    2.857    0.000    0.000    0.000    1.000 
#    0.000    2.286    0.000    0.857    0.000    4.000 
#
# Total GULP energy -156054.281715 kJ/mol
# GULP energy per Si atom -5573.367204 kJ/mol
# Density = 1.955345 g / cm^3
# Si number density = 19.598058 Si / 1000 Ang^3
#
#
#
# Elastic Constant Matrix: (Units=GPa)
#
#
# Indices 1 2 3 4 5 6 
#
# 1 227.4432 80.7584 49.6529 0.0000 0.0000 0.0000
# 2 80.7584 56.5611 27.4452 0.0000 0.0000 0.0000
# 3 49.6529 27.4452 64.1863 0.0000 0.0000 0.0000
# 4 0.0000 0.0000 0.0000 6.1144 0.0000 0.0000
# 5 0.0000 0.0000 0.0000 0.0000 114.0832 0.0000
# 6 0.0000 0.0000 0.0000 0.0000 0.0000 39.8325
#
#
#
# Elastic Compliance Matrix: (Units=1/GPa)
#
#
# Indices 1 2 3 4 5 6 
#
# 1 0.009092 -0.012074 -0.001871 0.000000 0.000000 0.000000
# 2 -0.012074 0.038343 -0.007054 0.000000 0.000000 0.000000
# 3 -0.001871 -0.007054 0.020043 0.000000 0.000000 0.000000
# 4 0.000000 0.000000 0.000000 0.163548 0.000000 0.000000
# 5 0.000000 0.000000 0.000000 0.000000 0.008766 0.000000
# 6 0.000000 0.000000 0.000000 0.000000 0.000000 0.025105
#
#
# Mechanical properties :
#
#
# Convention : Reuss Voigt Hill
#
# Bulk Modulus (GPa) = 39.24757 73.76707 56.50732
# Shear Modulus (GPa) = 15.85340 44.69497 30.27418
#
# Velocity S-wave (km/s) = 2.84725 4.78072 3.93460
# Velocity P-wave (km/s) = 5.55687 8.25805 7.03826
#
# Compressibility (1/GPa) = 0.02547928
#
# Stress axis : x y z
#
# Youngs Moduli (GPa) = 109.98203 26.08034 49.89217
#
# Poissons Ratio (x) = 0.31491 0.09334
# Poissons Ratio (y) = 1.32797 0.35196
# Poissons Ratio (z) = 0.20575 0.18398
#
# Static dielectric constant tensor:
#      x y z
#    x 1.711440 0.000000 0.000000 
#    y 0.000000 1.652030 0.000000 
#    z 0.000000 0.000000 1.731370 
# 
# From -- ./inp_files/10358.got.cif
#   From: 2010.05.17/outbox.cif.g08.bks.cpg/sg39_6_cif.got.tgz:10358.got - 2010.06.03 18:22:40.
