data_PCOD9361598
_publ_section_title
;
Structure prediction by ZEFSAII (Michael W. Deem and Ramdas Pophale) SiO2 
 PCOD9361598
Probable space group: A B M 2
;
_chemical_formula_sum "Si O2"
_cell_formula_units_Z 48
_cell_length_a 11.038753
_cell_length_b 23.460624
_cell_length_c 8.962525
_cell_angle_alpha 90.000000
_cell_angle_beta 90.000000
_cell_angle_gamma 90.000000
_cell_volume 2321.079175
_symmetry_space_group_name_H-M "A B M 2"
_symmetry_group_IT_number 39
_symmetry_cell_setting 'orthorhombic'
loop_
_space_group_symop_operation_xyz
x,y,z
-x,-y,z
-x,1/2+y,z
x,1/2-y,z
x,1/2+y,1/2+z
-x,1/2-y,1/2+z
-x,y,1/2+z
x,-y,1/2+z
loop_
_atom_site_type_symbol
_atom_site_label
_atom_site_fract_x
_atom_site_fract_y
_atom_site_fract_z
Si Si1 0.144402 0.967636 0.983610
Si Si2 0.763755 0.064435 0.674222
Si Si3 0.133972 0.815453 0.213100
Si Si4 0.342341 0.114582 0.629120
Si Si5 0.946400 0.876058 0.012808
Si Si6 0.519508 0.565992 0.361152
O O1 0.157818 0.963289 0.806610
O O2 0.012480 0.939055 0.014168
O O3 0.232010 0.922901 0.066654
O O4 0.214928 0.024456 0.033107
O O5 0.831464 0.121668 0.624153
O O6 0.630112 0.067364 0.740984
O O7 0.116993 0.750000 0.255658
O O8 0.273541 0.827210 0.166872
O O9 0.096629 0.856945 0.349981
O O10 0.044983 0.832467 0.077613
O O11 0.440460 0.106614 0.497135
O O12 0.401919 0.088364 0.776344
O O13 0.500000 0.500000 0.408869
#
# Coordination Sequence:
#
# PCOD9361598 Si02
#       6
#     8   8   8   8   8   8
#     4  10  22  37  56  97 135 169 206 249 312 389
#     4  11  23  35  60  94 135 173 208 248 310 391
#     4  11  25  47  68  89 121 166 223 282 336 381
#     4  10  24  39  64  93 128 170 215 263 305 382
#     4  11  23  41  66  93 125 166 214 274 328 383
#     4  11  22  40  64  98 136 176 209 246 313 390
#
# _framework density 20.680036000000001
#
# number of rings (size 3 to 8) (size 9 to 14) (size 15 to 20)
#    0.000    1.333    3.333    1.500    9.333    1.333 
#    0.000    0.833    0.000    0.000    0.000    0.000 
#    0.000    0.000    0.000    0.000    0.000    0.000 
#
# Total GULP energy -133811.537322 kJ/mol
# GULP energy per Si atom -5575.480722 kJ/mol
# Density = 2.063297 g / cm^3
# Si number density = 20.680036 Si / 1000 Ang^3
#
#
#
# Elastic Constant Matrix: (Units=GPa)
#
#
# Indices 1 2 3 4 5 6 
#
# 1 46.9178 13.1813 43.3892 0.0000 0.0000 0.0000
# 2 13.1813 59.5865 11.7201 0.0000 0.0000 0.0000
# 3 43.3892 11.7201 95.0010 0.0000 0.0000 0.0000
# 4 0.0000 0.0000 0.0000 38.1658 0.0000 0.0000
# 5 0.0000 0.0000 0.0000 0.0000 33.5368 0.0000
# 6 0.0000 0.0000 0.0000 0.0000 0.0000 12.5980
#
#
#
# Elastic Compliance Matrix: (Units=1/GPa)
#
#
# Indices 1 2 3 4 5 6 
#
# 1 0.038392 -0.005169 -0.016897 0.000000 0.000000 0.000000
# 2 -0.005169 0.017896 0.000153 0.000000 0.000000 0.000000
# 3 -0.016897 0.000153 0.018225 0.000000 0.000000 0.000000
# 4 0.000000 0.000000 0.000000 0.026201 0.000000 0.000000
# 5 0.000000 0.000000 0.000000 0.000000 0.029818 0.000000
# 6 0.000000 0.000000 0.000000 0.000000 0.000000 0.079378
#
#
# Mechanical properties :
#
#
# Convention : Reuss Voigt Hill
#
# Bulk Modulus (GPa) = 32.58780 37.56518 35.07649
# Shear Modulus (GPa) = 18.94190 25.74108 22.34149
#
# Velocity S-wave (km/s) = 3.02975 3.53190 3.29042
# Velocity P-wave (km/s) = 5.29448 5.90227 5.60662
#
# Compressibility (1/GPa) = 0.03068633
#
# Stress axis : x y z
#
# Youngs Moduli (GPa) = 26.04687 55.87922 54.87110
#
# Poissons Ratio (x) = 0.28886 0.92715
# Poissons Ratio (y) = 0.13465 -0.00841
# Poissons Ratio (z) = 0.44011 -0.00856
#
# Static dielectric constant tensor:
#      x y z
#    x 1.836560 0.000000 0.000000 
#    y 0.000000 1.753450 0.000000 
#    z 0.000000 0.000000 1.774280 
# 
# From -- ./inp_files/2691.got.cif
#   From: 2010.05.17/outbox.cif.g08.bks.cpg/sg39_2_cif.got.tgz:2691.got - 2010.06.03 18:22:40.
