data_PCOD9361643
_publ_section_title
;
Structure prediction by ZEFSAII (Michael W. Deem and Ramdas Pophale) SiO2 
 PCOD9361643
Probable space group: A B M 2
;
_chemical_formula_sum "Si O2"
_cell_formula_units_Z 32
_cell_length_a 12.913890
_cell_length_b 11.496053
_cell_length_c 8.526224
_cell_angle_alpha 90.000000
_cell_angle_beta 90.000000
_cell_angle_gamma 90.000000
_cell_volume 1265.792676
_symmetry_space_group_name_H-M "A B M 2"
_symmetry_group_IT_number 39
_symmetry_cell_setting 'orthorhombic'
loop_
_space_group_symop_operation_xyz
x,y,z
-x,-y,z
-x,1/2+y,z
x,1/2-y,z
x,1/2+y,1/2+z
-x,1/2-y,1/2+z
-x,y,1/2+z
x,-y,1/2+z
loop_
_atom_site_type_symbol
_atom_site_label
_atom_site_fract_x
_atom_site_fract_y
_atom_site_fract_z
Si Si1 0.288299 0.626233 0.577980
Si Si2 0.111613 0.750000 0.027482
Si Si3 0.118200 0.250000 0.899798
Si Si4 0.501648 0.375488 0.371568
Si Si5 0.295268 0.123397 0.580649
O O1 0.287924 0.750000 0.668903
O O2 0.188352 0.643445 0.465686
O O3 0.393850 0.625448 0.475297
O O4 0.285389 0.501709 0.661770
O O5 0.102471 0.750000 0.215290
O O6 0.187541 0.642078 0.987132
O O7 0.997480 0.750000 0.964334
O O8 0.500000 0.500000 0.283013
O O9 0.498194 0.250000 0.287404
O O10 0.398643 0.378705 0.477435
O O11 0.301576 0.250000 0.666987
#
# Coordination Sequence:
#
# PCOD9361643 Si02
#       5
#     8   4   4   8   8
#     4   8  16  31  57  84 113 147 192 236 289 346
#     4  10  22  39  60  82 116 159 201 242 289 342
#     4  10  22  39  60  82 116 159 201 242 289 342
#     4   8  12  24  50  84 108 144 182 232 280 350
#     4   8  16  31  57  84 113 147 192 236 289 346
#
# _framework density 25.280602999999999
#
# number of rings (size 3 to 8) (size 9 to 14) (size 15 to 20)
#    1.500    2.000    0.000    0.000    0.000    1.000 
#    0.000    5.000    0.000   19.500    0.000    0.000 
#    0.000    0.000    0.000    0.000    0.000    0.000 
#
# Total GULP energy -89071.409640 kJ/mol
# GULP energy per Si atom -5566.963103 kJ/mol
# Density = 2.522306 g / cm^3
# Si number density = 25.280603 Si / 1000 Ang^3
#
#
#
# Elastic Constant Matrix: (Units=GPa)
#
#
# Indices 1 2 3 4 5 6 
#
# 1 274.5859 11.0228 63.5333 0.0000 0.0000 0.0000
# 2 11.0228 308.3111 25.5769 0.0000 0.0000 0.0000
# 3 63.5333 25.5769 60.3929 0.0000 0.0000 0.0000
# 4 0.0000 0.0000 0.0000 -4.0888 0.0000 0.0000
# 5 0.0000 0.0000 0.0000 0.0000 52.8660 0.0000
# 6 0.0000 0.0000 0.0000 0.0000 0.0000 3.2066
#
#
#
# Elastic Compliance Matrix: (Units=1/GPa)
#
#
# Indices 1 2 3 4 5 6 
#
# 1 0.004833 0.000258 -0.005194 0.000000 0.000000 0.000000
# 2 0.000258 0.003375 -0.001701 0.000000 0.000000 0.000000
# 3 -0.005194 -0.001701 0.022743 0.000000 0.000000 0.000000
# 4 0.000000 0.000000 0.000000 -0.244570 0.000000 0.000000
# 5 0.000000 0.000000 0.000000 0.000000 0.018916 0.000000
# 6 0.000000 0.000000 0.000000 0.000000 0.000000 0.311852
#
#
# Mechanical properties :
#
#
# Convention : Reuss Voigt Hill
#
# Bulk Modulus (GPa) = 56.56870 93.72843 75.14856
# Shear Modulus (GPa) = 36.67979 46.60723 41.64351
#
# Velocity S-wave (km/s) = 3.81321 4.29837 4.06304
# Velocity P-wave (km/s) = 6.46624 7.86069 7.19732
#
# Compressibility (1/GPa) = 0.01767762
#
# Stress axis : x y z
#
# Youngs Moduli (GPa) = 206.90084 296.26466 43.97042
#
# Poissons Ratio (x) = -0.07646 0.22838
# Poissons Ratio (y) = -0.05340 0.07479
# Poissons Ratio (z) = 1.07461 0.50394
#
# Static dielectric constant tensor:
#      x y z
#    x 1.989280 0.000000 0.000000 
#    y 0.000000 2.067260 0.000000 
#    z 0.000000 0.000000 1.960630 
# 
# From -- ./inp_files/5529.got.cif
#   From: 2010.05.17/outbox.cif.g08.bks.cpg/sg39_3_cif.got.tgz:5529.got - 2010.06.03 18:22:40.
