data_PCOD9361979
_publ_section_title
;
Structure prediction by ZEFSAII (Michael W. Deem and Ramdas Pophale) SiO2 
 PCOD9361979
Probable space group: A B M 2
;
_chemical_formula_sum "Si O2"
_cell_formula_units_Z 56
_cell_length_a 18.377643
_cell_length_b 8.712190
_cell_length_c 19.564827
_cell_angle_alpha 90.000000
_cell_angle_beta 90.000000
_cell_angle_gamma 90.000000
_cell_volume 3132.515012
_symmetry_space_group_name_H-M "A B M 2"
_symmetry_group_IT_number 39
_symmetry_cell_setting 'orthorhombic'
loop_
_space_group_symop_operation_xyz
x,y,z
-x,-y,z
-x,1/2+y,z
x,1/2-y,z
x,1/2+y,1/2+z
-x,1/2-y,1/2+z
-x,y,1/2+z
x,-y,1/2+z
loop_
_atom_site_type_symbol
_atom_site_label
_atom_site_fract_x
_atom_site_fract_y
_atom_site_fract_z
Si Si1 0.809128 0.425251 0.166730
Si Si2 0.310317 0.419642 0.786638
Si Si3 0.572193 0.574036 0.211666
Si Si4 0.420096 0.567045 0.062427
Si Si5 0.263397 0.934439 0.533690
Si Si6 0.809136 0.068519 0.397728
Si Si7 0.918965 0.062923 0.280332
O O1 0.823005 0.250000 0.143254
O O2 0.748395 0.416837 0.225866
O O3 0.775535 0.520139 0.104652
O O4 0.878845 0.484324 0.209493
O O5 0.654342 0.750000 0.788265
O O6 0.365670 0.550344 0.766691
O O7 0.265481 0.443553 0.855066
O O8 0.500000 0.500000 0.241200
O O9 0.562181 0.750000 0.192292
O O10 0.588255 0.480237 0.142374
O O11 0.500000 0.500000 0.041311
O O12 0.421906 0.750000 0.055651
O O13 0.345523 0.502140 0.029407
O O14 0.269901 0.750000 0.529545
O O15 0.210758 0.992167 0.472466
O O16 0.825341 0.250000 0.405890
O O17 0.871956 0.008966 0.346625
O O18 0.917735 0.250000 0.280460
O O19 0.000000 0.000000 0.283634
#
# Coordination Sequence:
#
# PCOD9361979 Si02
#       7
#     8   8   8   8   8   8   8
#     4   9  18  32  53  77 104 136 172 214 265 316
#     4   9  16  32  53  71  96 134 174 213 260 313
#     4  11  20  30  47  74 102 132 174 223 271 315
#     4  11  21  34  51  74 105 142 182 224 274 321
#     4  11  20  33  54  81 110 140 181 226 268 318
#     4   8  18  35  55  77 106 144 177 211 264 321
#     4   9  18  36  59  82 107 140 178 217 265 320
#
# _framework density 17.877009000000001
#
# number of rings (size 3 to 8) (size 9 to 14) (size 15 to 20)
#    0.000    2.286    1.429    5.571    0.000    0.571 
#    0.000    6.429    0.000    3.429    0.000    0.000 
#    0.000    0.000    0.000    0.000    0.000    0.000 
#
# Total GULP energy -155927.433003 kJ/mol
# GULP energy per Si atom -5568.836893 kJ/mol
# Density = 1.783632 g / cm^3
# Si number density = 17.877009 Si / 1000 Ang^3
#
#
#
# Elastic Constant Matrix: (Units=GPa)
#
#
# Indices 1 2 3 4 5 6 
#
# 1 107.0016 31.0063 31.2785 0.0000 0.0000 0.0000
# 2 31.0063 66.9694 19.3303 0.0000 0.0000 0.0000
# 3 31.2785 19.3303 78.6717 0.0000 0.0000 0.0000
# 4 0.0000 0.0000 0.0000 7.1005 0.0000 0.0000
# 5 0.0000 0.0000 0.0000 0.0000 2.4365 0.0000
# 6 0.0000 0.0000 0.0000 0.0000 0.0000 29.6631
#
#
#
# Elastic Compliance Matrix: (Units=1/GPa)
#
#
# Indices 1 2 3 4 5 6 
#
# 1 0.011652 -0.004367 -0.003559 0.000000 0.000000 0.000000
# 2 -0.004367 0.017709 -0.002615 0.000000 0.000000 0.000000
# 3 -0.003559 -0.002615 0.014769 0.000000 0.000000 0.000000
# 4 0.000000 0.000000 0.000000 0.140835 0.000000 0.000000
# 5 0.000000 0.000000 0.000000 0.000000 0.410431 0.000000
# 6 0.000000 0.000000 0.000000 0.000000 0.000000 0.033712
#
#
# Mechanical properties :
#
#
# Convention : Reuss Voigt Hill
#
# Bulk Modulus (GPa) = 43.39107 46.20810 44.79959
# Shear Modulus (GPa) = 7.60026 19.24186 13.42106
#
# Velocity S-wave (km/s) = 2.06413 3.28433 2.74294
# Velocity P-wave (km/s) = 5.47773 6.34715 5.92840
#
# Compressibility (1/GPa) = 0.02304622
#
# Stress axis : x y z
#
# Youngs Moduli (GPa) = 85.82482 56.46863 67.71063
#
# Poissons Ratio (x) = 0.24661 0.24101
# Poissons Ratio (y) = 0.37482 0.17706
# Poissons Ratio (z) = 0.30549 0.14766
#
# Static dielectric constant tensor:
#      x y z
#    x 1.700660 0.000000 0.000000 
#    y 0.000000 1.628470 0.000000 
#    z 0.000000 0.000000 1.610250 
# 
# From -- ./inp_files/14937.got.cif
#   From: 2010.05.17/outbox.cif.g08.bks.cpg/sg39_8_cif.got.tgz:14937.got - 2010.06.03 18:22:40.
