data_PCOD9361464
_publ_section_title
;
Structure prediction by ZEFSAII (Michael W. Deem and Ramdas Pophale) SiO2 
 PCOD9361464
Probable space group: A B M 2
;
_chemical_formula_sum "Si O2"
_cell_formula_units_Z 40
_cell_length_a 10.546812
_cell_length_b 21.178815
_cell_length_c 8.878688
_cell_angle_alpha 90.000000
_cell_angle_beta 90.000000
_cell_angle_gamma 90.000000
_cell_volume 1983.223484
_symmetry_space_group_name_H-M "A B M 2"
_symmetry_group_IT_number 39
_symmetry_cell_setting 'orthorhombic'
loop_
_space_group_symop_operation_xyz
x,y,z
-x,-y,z
-x,1/2+y,z
x,1/2-y,z
x,1/2+y,1/2+z
-x,1/2-y,1/2+z
-x,y,1/2+z
x,-y,1/2+z
loop_
_atom_site_type_symbol
_atom_site_label
_atom_site_fract_x
_atom_site_fract_y
_atom_site_fract_z
Si Si1 0.318737 0.534945 0.376720
Si Si2 0.061398 0.068087 0.010491
Si Si3 0.376854 0.176546 0.343029
Si Si4 0.163834 0.905839 0.836675
Si Si5 0.528499 0.407695 0.106542
O O1 0.191174 0.573970 0.415789
O O2 0.265864 0.462334 0.378392
O O3 0.380348 0.450006 0.714002
O O4 0.425398 0.555584 0.500238
O O5 0.942666 0.109341 0.960141
O O6 0.096663 0.071084 0.184470
O O7 0.000000 0.000000 0.977135
O O8 0.405593 0.250000 0.346163
O O9 0.234591 0.158775 0.300005
O O10 0.398545 0.141760 0.501413
O O11 0.457506 0.137286 0.223781
#
# Coordination Sequence:
#
# PCOD9361464 Si02
#       5
#     8   8   8   8   8
#     4  10  22  40  63  99 123 161 199 256 326 371
#     4  10  21  40  61  94 123 162 196 252 318 370
#     4  11  24  42  63  89 124 169 212 252 302 367
#     4  11  24  39  66  89 129 160 208 253 308 369
#     4  10  23  41  66  91 130 159 203 258 314 374
#
# _framework density 20.169184000000001
#
# number of rings (size 3 to 8) (size 9 to 14) (size 15 to 20)
#    0.000    1.600    2.000    2.400    8.400    4.800 
#    0.000    1.000    0.000    0.000    0.000    0.000 
#    0.000    0.000    0.000    0.000    0.000    0.000 
#
# Total GULP energy -111548.469907 kJ/mol
# GULP energy per Si atom -5577.423495 kJ/mol
# Density = 2.012328 g / cm^3
# Si number density = 20.169184 Si / 1000 Ang^3
#
#
#
# Elastic Constant Matrix: (Units=GPa)
#
#
# Indices 1 2 3 4 5 6 
#
# 1 92.5938 43.7096 34.6920 0.0000 0.0000 0.0000
# 2 43.7096 69.0501 44.9104 0.0000 0.0000 0.0000
# 3 34.6920 44.9104 117.7497 0.0000 0.0000 0.0000
# 4 0.0000 0.0000 0.0000 -7.8418 0.0000 0.0000
# 5 0.0000 0.0000 0.0000 0.0000 43.3676 0.0000
# 6 0.0000 0.0000 0.0000 0.0000 0.0000 14.2456
#
#
#
# Elastic Compliance Matrix: (Units=1/GPa)
#
#
# Indices 1 2 3 4 5 6 
#
# 1 0.015508 -0.009103 -0.001097 0.000000 0.000000 0.000000
# 2 -0.009103 0.024604 -0.006702 0.000000 0.000000 0.000000
# 3 -0.001097 -0.006702 0.011372 0.000000 0.000000 0.000000
# 4 0.000000 0.000000 0.000000 -0.127521 0.000000 0.000000
# 5 0.000000 0.000000 0.000000 0.000000 0.023059 0.000000
# 6 0.000000 0.000000 0.000000 0.000000 0.000000 0.070197
#
#
# Mechanical properties :
#
#
# Convention : Reuss Voigt Hill
#
# Bulk Modulus (GPa) = 56.56353 58.44641 57.50497
# Shear Modulus (GPa) = 87.84808 20.35971 54.10389
#
# Velocity S-wave (km/s) = 6.60683 3.18063 5.18491
# Velocity P-wave (km/s) = 9.29008 6.52146 8.02605
#
# Compressibility (1/GPa) = 0.01767924
#
# Stress axis : x y z
#
# Youngs Moduli (GPa) = 64.48203 40.64423 87.93562
#
# Poissons Ratio (x) = 0.37000 0.09647
# Poissons Ratio (y) = 0.58700 0.58934
# Poissons Ratio (z) = 0.07074 0.27239
#
# Static dielectric constant tensor:
#      x y z
#    x 1.834680 0.000000 0.000000 
#    y 0.000000 1.707330 0.000000 
#    z 0.000000 0.000000 1.764080 
# 
# From -- ./inp_files/2618.got.cif
#   From: 2010.05.17/outbox.cif.g08.bks.cpg/sg39_2_cif.got.tgz:2618.got - 2010.06.03 18:22:40.
