data_PCOD9361468
_publ_section_title
;
Structure prediction by ZEFSAII (Michael W. Deem and Ramdas Pophale) SiO2 
 PCOD9361468
Probable space group: A B M 2
;
_chemical_formula_sum "Si O2"
_cell_formula_units_Z 40
_cell_length_a 6.202214
_cell_length_b 29.462023
_cell_length_c 9.703511
_cell_angle_alpha 90.000000
_cell_angle_beta 90.000000
_cell_angle_gamma 90.000000
_cell_volume 1773.120348
_symmetry_space_group_name_H-M "A B M 2"
_symmetry_group_IT_number 39
_symmetry_cell_setting 'orthorhombic'
loop_
_space_group_symop_operation_xyz
x,y,z
-x,-y,z
-x,1/2+y,z
x,1/2-y,z
x,1/2+y,1/2+z
-x,1/2-y,1/2+z
-x,y,1/2+z
x,-y,1/2+z
loop_
_atom_site_type_symbol
_atom_site_label
_atom_site_fract_x
_atom_site_fract_y
_atom_site_fract_z
Si Si1 0.407604 0.618456 0.596270
Si Si2 0.037028 0.324387 0.243924
Si Si3 0.290434 0.201160 0.510056
Si Si4 0.061527 0.551016 0.489748
Si Si5 0.194319 0.411294 0.730279
O O1 0.224080 0.650010 0.660790
O O2 0.561184 0.655929 0.520683
O O3 0.289603 0.575808 0.523995
O O4 0.552432 0.594333 0.713776
O O5 0.151321 0.300231 0.370357
O O6 0.878507 0.299947 0.137099
O O7 0.886892 0.364806 0.299583
O O8 0.410207 0.250000 0.515560
O O9 0.074019 0.552425 0.324461
O O10 0.000000 0.500000 0.530205
O O11 0.890747 0.581492 0.574179
#
# Coordination Sequence:
#
# PCOD9361468 Si02
#       5
#     8   8   8   8   8
#     4  10  22  40  64  91 125 168 211 264 322 377
#     4  10  21  40  62  87 126 170 209 259 317 373
#     4  11  23  39  63  95 128 168 218 265 313 374
#     4  11  23  41  65  93 126 163 209 264 323 387
#     4  10  21  40  64  91 126 166 208 258 319 382
#
# _framework density 22.559100000000001
#
# number of rings (size 3 to 8) (size 9 to 14) (size 15 to 20)
#    0.000    1.600    0.000    6.000    0.000    5.600 
#    0.000    2.000    0.000    0.000    0.000    0.000 
#    0.000    0.000    0.000    0.000    0.000    0.000 
#
# Total GULP energy -111396.031222 kJ/mol
# GULP energy per Si atom -5569.801561 kJ/mol
# Density = 2.250775 g / cm^3
# Si number density = 22.559100 Si / 1000 Ang^3
#
#
#
# Elastic Constant Matrix: (Units=GPa)
#
#
# Indices 1 2 3 4 5 6 
#
# 1 74.3651 37.3812 19.0040 0.0000 0.0000 0.0000
# 2 37.3812 142.5330 40.3693 0.0000 0.0000 0.0000
# 3 19.0040 40.3693 73.6079 0.0000 0.0000 0.0000
# 4 0.0000 0.0000 0.0000 60.8974 0.0000 0.0000
# 5 0.0000 0.0000 0.0000 0.0000 12.0448 0.0000
# 6 0.0000 0.0000 0.0000 0.0000 0.0000 20.3738
#
#
#
# Elastic Compliance Matrix: (Units=1/GPa)
#
#
# Indices 1 2 3 4 5 6 
#
# 1 0.015767 -0.003531 -0.002134 0.000000 0.000000 0.000000
# 2 -0.003531 0.009097 -0.004077 0.000000 0.000000 0.000000
# 3 -0.002134 -0.004077 0.016373 0.000000 0.000000 0.000000
# 4 0.000000 0.000000 0.000000 0.016421 0.000000 0.000000
# 5 0.000000 0.000000 0.000000 0.000000 0.083023 0.000000
# 6 0.000000 0.000000 0.000000 0.000000 0.000000 0.049083
#
#
# Mechanical properties :
#
#
# Convention : Reuss Voigt Hill
#
# Bulk Modulus (GPa) = 45.97329 53.77946 49.87637
# Shear Modulus (GPa) = 23.09473 31.57998 27.33735
#
# Velocity S-wave (km/s) = 3.20307 3.74555 3.48488
# Velocity P-wave (km/s) = 5.83976 6.52661 6.19272
#
# Compressibility (1/GPa) = 0.02175176
#
# Stress axis : x y z
#
# Youngs Moduli (GPa) = 63.42202 109.92964 61.07700
#
# Poissons Ratio (x) = 0.38813 0.13037
# Poissons Ratio (y) = 0.22392 0.24904
# Poissons Ratio (z) = 0.13537 0.44823
#
# Static dielectric constant tensor:
#      x y z
#    x 1.848200 0.000000 0.000000 
#    y 0.000000 1.820520 0.000000 
#    z 0.000000 0.000000 1.950300 
# 
# From -- ./inp_files/4511.got.cif
#   From: 2010.05.17/outbox.cif.g08.bks.cpg/sg39_3_cif.got.tgz:4511.got - 2010.06.03 18:22:40.
