data_PCOD9361547
_publ_section_title
;
Structure prediction by ZEFSAII (Michael W. Deem and Ramdas Pophale) SiO2 
 PCOD9361547
Probable space group: A B M 2
;
_chemical_formula_sum "Si O2"
_cell_formula_units_Z 48
_cell_length_a 8.959509
_cell_length_b 16.955529
_cell_length_c 14.812617
_cell_angle_alpha 90.000000
_cell_angle_beta 90.000000
_cell_angle_gamma 90.000000
_cell_volume 2250.232266
_symmetry_space_group_name_H-M "A B M 2"
_symmetry_group_IT_number 39
_symmetry_cell_setting 'orthorhombic'
loop_
_space_group_symop_operation_xyz
x,y,z
-x,-y,z
-x,1/2+y,z
x,1/2-y,z
x,1/2+y,1/2+z
-x,1/2-y,1/2+z
-x,y,1/2+z
x,-y,1/2+z
loop_
_atom_site_type_symbol
_atom_site_label
_atom_site_fract_x
_atom_site_fract_y
_atom_site_fract_z
Si Si1 0.677262 0.568253 0.925360
Si Si2 0.908958 0.662399 0.817795
Si Si3 0.818074 0.433384 0.618606
Si Si4 0.777354 0.087545 0.814039
Si Si5 0.621112 0.838572 0.468253
Si Si6 0.141550 0.885165 0.123221
O O1 0.776166 0.637533 0.882868
O O2 0.713878 0.493772 0.858821
O O3 0.511945 0.600130 0.946717
O O4 0.736055 0.552828 0.025330
O O5 0.964554 0.750000 0.838970
O O6 0.846240 0.661537 0.715911
O O7 0.043301 0.598515 0.821194
O O8 0.739875 0.399935 0.708376
O O9 0.845652 0.523108 0.649430
O O10 0.966737 0.383082 0.595053
O O11 0.713404 0.156203 0.876133
O O12 0.565366 0.750000 0.485900
O O13 0.736709 0.862363 0.548312
#
# Coordination Sequence:
#
# PCOD9361547 Si02
#       6
#     8   8   8   8   8   8
#     4  12  24  42  67  96 136 178 227 271 330 411
#     4  11  23  42  69 103 135 174 222 280 339 392
#     4  10  22  41  70 100 124 168 232 280 327 386
#     4  11  23  43  68  96 129 177 230 281 323 395
#     4  12  26  44  64  99 141 180 217 274 347 406
#     4  10  21  41  69 100 133 169 221 279 331 401
#
# _framework density 21.331130999999999
#
# number of rings (size 3 to 8) (size 9 to 14) (size 15 to 20)
#    0.000    1.000    3.333    3.500    2.333    1.333 
#    3.000   10.833    0.000    0.000    0.000    0.000 
#    0.000    0.000    0.000    0.000    0.000    0.000 
#
# Total GULP energy -133754.770200 kJ/mol
# GULP energy per Si atom -5573.115425 kJ/mol
# Density = 2.128258 g / cm^3
# Si number density = 21.331131 Si / 1000 Ang^3
#
#
#
# Elastic Constant Matrix: (Units=GPa)
#
#
# Indices 1 2 3 4 5 6 
#
# 1 73.7454 40.5546 41.1864 0.0000 0.0000 0.0000
# 2 40.5546 103.5024 33.1157 0.0000 0.0000 0.0000
# 3 41.1864 33.1157 82.3843 0.0000 0.0000 0.0000
# 4 0.0000 0.0000 0.0000 10.7101 0.0000 0.0000
# 5 0.0000 0.0000 0.0000 0.0000 -34.7169 0.0000
# 6 0.0000 0.0000 0.0000 0.0000 0.0000 29.9789
#
#
#
# Elastic Compliance Matrix: (Units=1/GPa)
#
#
# Indices 1 2 3 4 5 6 
#
# 1 0.021382 -0.005689 -0.008402 0.000000 0.000000 0.000000
# 2 -0.005689 0.012601 -0.002221 0.000000 0.000000 0.000000
# 3 -0.008402 -0.002221 0.017232 0.000000 0.000000 0.000000
# 4 0.000000 0.000000 0.000000 0.093370 0.000000 0.000000
# 5 0.000000 0.000000 0.000000 0.000000 -0.028804 0.000000
# 6 0.000000 0.000000 0.000000 0.000000 0.000000 0.033357
#
#
# Mechanical properties :
#
#
# Convention : Reuss Voigt Hill
#
# Bulk Modulus (GPa) = 53.79521 54.37173 54.08347
# Shear Modulus (GPa) = 26.60155 10.84611 18.72383
#
# Velocity S-wave (km/s) = 3.53523 2.25736 2.96593
# Velocity P-wave (km/s) = 6.47593 5.68673 6.09412
#
# Compressibility (1/GPa) = 0.01858902
#
# Stress axis : x y z
#
# Youngs Moduli (GPa) = 46.76915 79.35564 58.03286
#
# Poissons Ratio (x) = 0.45149 0.48761
# Poissons Ratio (y) = 0.26609 0.12889
# Poissons Ratio (z) = 0.39297 0.17625
#
# Static dielectric constant tensor:
#      x y z
#    x 1.872210 0.000000 0.000000 
#    y 0.000000 1.789400 0.000000 
#    z 0.000000 0.000000 1.773100 
# 
# From -- ./inp_files/8329.got.cif
#   From: 2010.05.17/outbox.cif.g08.bks.cpg/sg39_5_cif.got.tgz:8329.got - 2010.06.03 18:22:40.
