data_PCOD9361740
_publ_section_title
;
Structure prediction by ZEFSAII (Michael W. Deem and Ramdas Pophale) SiO2 
 PCOD9361740
Probable space group: A B M 2
;
_chemical_formula_sum "Si O2"
_cell_formula_units_Z 56
_cell_length_a 11.730585
_cell_length_b 21.936520
_cell_length_c 11.021729
_cell_angle_alpha 90.000000
_cell_angle_beta 90.000000
_cell_angle_gamma 90.000000
_cell_volume 2836.201822
_symmetry_space_group_name_H-M "A B M 2"
_symmetry_group_IT_number 39
_symmetry_cell_setting 'orthorhombic'
loop_
_space_group_symop_operation_xyz
x,y,z
-x,-y,z
-x,1/2+y,z
x,1/2-y,z
x,1/2+y,1/2+z
-x,1/2-y,1/2+z
-x,y,1/2+z
x,-y,1/2+z
loop_
_atom_site_type_symbol
_atom_site_label
_atom_site_fract_x
_atom_site_fract_y
_atom_site_fract_z
Si Si1 0.663320 0.382417 0.345970
Si Si2 0.372106 0.525750 0.129780
Si Si3 0.873354 0.323552 0.749870
Si Si4 0.858933 0.178768 0.224149
Si Si5 0.445320 0.817163 0.805295
Si Si6 0.692905 0.896709 0.121683
Si Si7 0.732859 0.635112 0.481480
O O1 0.627251 0.435016 0.253020
O O2 0.791441 0.362545 0.318935
O O3 0.578624 0.326580 0.320280
O O4 0.650335 0.398525 0.484938
O O5 0.500000 0.500000 0.103712
O O6 0.292437 0.467276 0.154062
O O7 0.317250 0.569769 0.026423
O O8 0.855245 0.250000 0.761090
O O9 0.801942 0.353653 0.640740
O O10 0.006711 0.333822 0.728544
O O11 0.820860 0.357619 0.868559
O O12 0.843974 0.250000 0.251131
O O13 0.797763 0.163936 0.096119
O O14 0.418030 0.750000 0.760148
O O15 0.399254 0.866605 0.710797
O O16 0.377537 0.828855 0.930639
#
# Coordination Sequence:
#
# PCOD9361740 Si02
#       7
#     8   8   8   8   8   8   8
#     4  11  25  40  62 100 129 170 219 271 333 403
#     4  11  23  43  67  94 130 175 220 267 326 399
#     4  10  23  43  69  97 130 175 223 277 331 392
#     4  10  22  41  67  95 130 173 220 270 332 399
#     4  11  23  40  64  98 136 167 209 276 339 394
#     4  11  24  41  65  93 129 170 219 271 327 389
#     4  10  22  41  66  98 126 174 223 267 325 390
#
# _framework density 19.744717000000001
#
# number of rings (size 3 to 8) (size 9 to 14) (size 15 to 20)
#    0.000    1.429    1.429    3.857    8.000    2.857 
#    0.000    2.857    0.000    0.000    0.000    0.000 
#    0.000    0.000    0.000    0.000    0.000    0.000 
#
# Total GULP energy -156228.318490 kJ/mol
# GULP energy per Si atom -5579.582803 kJ/mol
# Density = 1.969978 g / cm^3
# Si number density = 19.744717 Si / 1000 Ang^3
#
#
#
# Elastic Constant Matrix: (Units=GPa)
#
#
# Indices 1 2 3 4 5 6 
#
# 1 116.3498 45.6922 18.2413 0.0000 0.0000 0.0000
# 2 45.6922 123.6655 35.5959 0.0000 0.0000 0.0000
# 3 18.2413 35.5959 79.2452 0.0000 0.0000 0.0000
# 4 0.0000 0.0000 0.0000 20.4860 0.0000 0.0000
# 5 0.0000 0.0000 0.0000 0.0000 -5.3951 0.0000
# 6 0.0000 0.0000 0.0000 0.0000 0.0000 43.6914
#
#
#
# Elastic Compliance Matrix: (Units=1/GPa)
#
#
# Indices 1 2 3 4 5 6 
#
# 1 0.010092 -0.003514 -0.000744 0.000000 0.000000 0.000000
# 2 -0.003514 0.010511 -0.003912 0.000000 0.000000 0.000000
# 3 -0.000744 -0.003912 0.014548 0.000000 0.000000 0.000000
# 4 0.000000 0.000000 0.000000 0.048814 0.000000 0.000000
# 5 0.000000 0.000000 0.000000 0.000000 -0.185354 0.000000
# 6 0.000000 0.000000 0.000000 0.000000 0.000000 0.022888
#
#
# Mechanical properties :
#
#
# Convention : Reuss Voigt Hill
#
# Bulk Modulus (GPa) = 53.16868 57.59103 55.37986
# Shear Modulus (GPa) = -89.46176 26.40521 -31.52827
#
# Velocity S-wave (km/s) = -6.73851 3.66092 -4.00033
# Velocity P-wave (km/s) = 5.79283 6.86301 2.60231
#
# Compressibility (1/GPa) = 0.01880806
#
# Stress axis : x y z
#
# Youngs Moduli (GPa) = 99.09203 95.13847 68.73883
#
# Poissons Ratio (x) = 0.33436 0.05117
# Poissons Ratio (y) = 0.34825 0.26894
# Poissons Ratio (z) = 0.07376 0.37222
#
# Static dielectric constant tensor:
#      x y z
#    x 1.690350 0.000000 0.000000 
#    y 0.000000 1.694570 0.000000 
#    z 0.000000 0.000000 1.712990 
# 
# From -- ./inp_files/5972.got.cif
#   From: 2010.05.17/outbox.cif.g08.bks.cpg/sg39_3_cif.got.tgz:5972.got - 2010.06.03 18:22:40.
