data_PCOD9361765
_publ_section_title
;
Structure prediction by ZEFSAII (Michael W. Deem and Ramdas Pophale) SiO2 
 PCOD9361765
Probable space group: A B M 2
;
_chemical_formula_sum "Si O2"
_cell_formula_units_Z 44
_cell_length_a 5.621872
_cell_length_b 24.030642
_cell_length_c 14.184645
_cell_angle_alpha 90.000000
_cell_angle_beta 90.000000
_cell_angle_gamma 90.000000
_cell_volume 1916.305729
_symmetry_space_group_name_H-M "A B M 2"
_symmetry_group_IT_number 39
_symmetry_cell_setting 'orthorhombic'
loop_
_space_group_symop_operation_xyz
x,y,z
-x,-y,z
-x,1/2+y,z
x,1/2-y,z
x,1/2+y,1/2+z
-x,1/2-y,1/2+z
-x,y,1/2+z
x,-y,1/2+z
loop_
_atom_site_type_symbol
_atom_site_label
_atom_site_fract_x
_atom_site_fract_y
_atom_site_fract_z
Si Si1 0.551738 0.811720 0.813310
Si Si2 0.778973 0.076702 0.012800
Si Si3 0.145207 0.810990 0.695675
Si Si4 0.000000 0.000000 0.367821
Si Si5 0.792064 0.912203 0.722411
Si Si6 0.287338 0.644127 0.503898
O O1 0.620902 0.750000 0.774218
O O2 0.269687 0.808694 0.797962
O O3 0.589528 0.871525 0.761999
O O4 0.680637 0.817396 0.912565
O O5 0.527834 0.107295 0.996888
O O6 0.810417 0.028371 0.937085
O O7 0.028851 0.112544 0.001425
O O8 0.759901 0.057895 0.122147
O O9 0.043917 0.750000 0.676118
O O10 0.304611 0.823551 0.603267
O O11 0.978847 0.863544 0.701228
O O12 0.878806 0.045482 0.300930
#
# Coordination Sequence:
#
# PCOD9361765 Si02
#       6
#     8   8   8   4   8   8
#     4  11  22  40  68 102 137 183 229 288 355 420
#     4  11  25  45  70  99 139 183 233 291 343 415
#     4  10  22  42  69 101 141 183 231 295 361 426
#     4  12  24  46  70 102 140 192 240 292 354 414
#     4  11  23  45  68  99 140 183 239 290 353 422
#     4  11  23  45  68 102 140 178 232 284 351 415
#
# _framework density 22.960846
#
# number of rings (size 3 to 8) (size 9 to 14) (size 15 to 20)
#    0.000    1.091    3.636    2.727    0.000    0.727 
#    3.273    1.818    0.000    0.000    0.000    0.000 
#    0.000    0.000    0.000    0.000    0.000    0.000 
#
# Total GULP energy -122477.023995 kJ/mol
# GULP energy per Si atom -5567.137454 kJ/mol
# Density = 2.290859 g / cm^3
# Si number density = 22.960846 Si / 1000 Ang^3
#
#
#
# Elastic Constant Matrix: (Units=GPa)
#
#
# Indices 1 2 3 4 5 6 
#
# 1 76.8234 24.0294 9.7599 0.0000 0.0000 0.0000
# 2 24.0294 120.2261 36.0837 0.0000 0.0000 0.0000
# 3 9.7599 36.0837 87.6484 0.0000 0.0000 0.0000
# 4 0.0000 0.0000 0.0000 29.2691 0.0000 0.0000
# 5 0.0000 0.0000 0.0000 0.0000 13.9904 0.0000
# 6 0.0000 0.0000 0.0000 0.0000 0.0000 20.7273
#
#
#
# Elastic Compliance Matrix: (Units=1/GPa)
#
#
# Indices 1 2 3 4 5 6 
#
# 1 0.013901 -0.002640 -0.000461 0.000000 0.000000 0.000000
# 2 -0.002640 0.009992 -0.003819 0.000000 0.000000 0.000000
# 3 -0.000461 -0.003819 0.013033 0.000000 0.000000 0.000000
# 4 0.000000 0.000000 0.000000 0.034166 0.000000 0.000000
# 5 0.000000 0.000000 0.000000 0.000000 0.071478 0.000000
# 6 0.000000 0.000000 0.000000 0.000000 0.000000 0.048246
#
#
# Mechanical properties :
#
#
# Convention : Reuss Voigt Hill
#
# Bulk Modulus (GPa) = 43.31867 47.16042 45.23954
# Shear Modulus (GPa) = 23.54592 27.11901 25.33246
#
# Velocity S-wave (km/s) = 3.20579 3.44044 3.32518
# Velocity P-wave (km/s) = 5.71052 6.03044 5.87266
#
# Compressibility (1/GPa) = 0.02308474
#
# Stress axis : x y z
#
# Youngs Moduli (GPa) = 71.93616 100.08340 76.72839
#
# Poissons Ratio (x) = 0.26422 0.03538
# Poissons Ratio (y) = 0.18991 0.29306
# Poissons Ratio (z) = 0.03317 0.38226
#
# Static dielectric constant tensor:
#      x y z
#    x 2.051240 0.000000 0.000000 
#    y 0.000000 1.865560 0.000000 
#    z 0.000000 0.000000 1.927950 
# 
# From -- ./inp_files/7485.got.cif
#   From: 2010.05.17/outbox.cif.g08.bks.cpg/sg39_4_cif.got.tgz:7485.got - 2010.06.03 18:22:40.
