data_PCOD9361771
_publ_section_title
;
Structure prediction by ZEFSAII (Michael W. Deem and Ramdas Pophale) SiO2 
 PCOD9361771
Probable space group: A B M 2
;
_chemical_formula_sum "Si O2"
_cell_formula_units_Z 48
_cell_length_a 12.529155
_cell_length_b 17.985485
_cell_length_c 8.501914
_cell_angle_alpha 90.000000
_cell_angle_beta 90.000000
_cell_angle_gamma 90.000000
_cell_volume 1915.846206
_symmetry_space_group_name_H-M "A B M 2"
_symmetry_group_IT_number 39
_symmetry_cell_setting 'orthorhombic'
loop_
_space_group_symop_operation_xyz
x,y,z
-x,-y,z
-x,1/2+y,z
x,1/2-y,z
x,1/2+y,1/2+z
-x,1/2-y,1/2+z
-x,y,1/2+z
x,-y,1/2+z
loop_
_atom_site_type_symbol
_atom_site_label
_atom_site_fract_x
_atom_site_fract_y
_atom_site_fract_z
Si Si1 0.342438 0.516278 0.480920
Si Si2 0.969065 0.414428 0.428208
Si Si3 0.141840 0.161129 0.230285
Si Si4 0.328816 0.250000 0.671696
Si Si5 0.613123 0.390254 0.761348
Si Si6 0.223747 0.592612 0.198317
Si Si7 0.498901 0.250000 0.387317
O O1 0.406193 0.565585 0.602520
O O2 0.401263 0.448753 0.399288
O O3 0.298528 0.568268 0.344150
O O4 0.247069 0.472868 0.573466
O O5 0.906679 0.376780 0.573094
O O6 0.893004 0.409920 0.273789
O O7 0.000000 0.500000 0.457420
O O8 0.074223 0.368944 0.378312
O O9 0.134579 0.250000 0.218949
O O10 0.264445 0.136948 0.250832
O O11 0.260746 0.174756 0.646549
O O12 0.426696 0.250000 0.545180
O O13 0.373953 0.250000 0.853186
O O14 0.538861 0.322202 0.794221
#
# Coordination Sequence:
#
# PCOD9361771 Si02
#       7
#     8   8   8   4   8   8   4
#     4  10  22  42  75 101 138 189 237 296 360 430
#     4  12  27  44  70 103 147 196 250 303 361 441
#     4  12  27  42  66 105 146 198 246 305 366 438
#     4  12  30  50  79 112 143 196 243 312 382 456
#     4  11  23  47  72 104 146 195 243 306 370 435
#     4  11  25  46  73 105 147 193 245 300 371 435
#     4  12  28  52  79 108 149 188 249 308 386 454
#
# _framework density 25.054203000000001
#
# number of rings (size 3 to 8) (size 9 to 14) (size 15 to 20)
#    0.000    0.667    4.167    3.000    9.333    0.000 
#    0.000    5.000    0.000    0.000    0.000    0.000 
#    0.000    0.000    0.000    0.000    0.000    0.000 
#
# Total GULP energy -134645.787543 kJ/mol
# GULP energy per Si atom -5610.241148 kJ/mol
# Density = 2.499718 g / cm^3
# Si number density = 25.054203 Si / 1000 Ang^3
#
#
#
# Elastic Constant Matrix: (Units=GPa)
#
#
# Indices 1 2 3 4 5 6 
#
# 1 85.9776 39.7118 28.4379 0.0000 0.0000 0.0000
# 2 39.7118 211.1924 63.5220 0.0000 0.0000 0.0000
# 3 28.4379 63.5220 75.8411 0.0000 0.0000 0.0000
# 4 0.0000 0.0000 0.0000 19.9475 0.0000 0.0000
# 5 0.0000 0.0000 0.0000 0.0000 42.8297 0.0000
# 6 0.0000 0.0000 0.0000 0.0000 0.0000 32.2678
#
#
#
# Elastic Compliance Matrix: (Units=1/GPa)
#
#
# Indices 1 2 3 4 5 6 
#
# 1 0.013566 -0.001365 -0.003944 0.000000 0.000000 0.000000
# 2 -0.001365 0.006467 -0.004905 0.000000 0.000000 0.000000
# 3 -0.003944 -0.004905 0.018772 0.000000 0.000000 0.000000
# 4 0.000000 0.000000 0.000000 0.050132 0.000000 0.000000
# 5 0.000000 0.000000 0.000000 0.000000 0.023348 0.000000
# 6 0.000000 0.000000 0.000000 0.000000 0.000000 0.030991
#
#
# Mechanical properties :
#
#
# Convention : Reuss Voigt Hill
#
# Bulk Modulus (GPa) = 54.41101 70.70605 62.55853
# Shear Modulus (GPa) = 29.44162 35.09829 32.26996
#
# Velocity S-wave (km/s) = 3.43172 3.74691 3.59277
# Velocity P-wave (km/s) = 6.12101 6.85577 6.49878
#
# Compressibility (1/GPa) = 0.01837863
#
# Stress axis : x y z
#
# Youngs Moduli (GPa) = 73.71552 154.63477 53.27021
#
# Poissons Ratio (x) = 0.21102 0.21008
# Poissons Ratio (y) = 0.10060 0.26127
# Poissons Ratio (z) = 0.29071 0.75844
#
# Static dielectric constant tensor:
#      x y z
#    x 2.014070 0.000000 0.000000 
#    y 0.000000 1.884770 0.000000 
#    z 0.000000 0.000000 2.016020 
# 
# From -- ./inp_files/3267.got.cif
#   From: 2010.05.17/outbox.cif.g08.bks.cpg/sg39_2_cif.got.tgz:3267.got - 2010.06.03 18:22:40.
