data_PCOD9361352
_publ_section_title
;
Structure prediction by ZEFSAII (Michael W. Deem and Ramdas Pophale) SiO2 
 PCOD9361352
Probable space group: A B M 2
;
_chemical_formula_sum "Si O2"
_cell_formula_units_Z 40
_cell_length_a 11.852562
_cell_length_b 16.769574
_cell_length_c 8.816191
_cell_angle_alpha 90.000000
_cell_angle_beta 90.000000
_cell_angle_gamma 90.000000
_cell_volume 1752.327419
_symmetry_space_group_name_H-M "A B M 2"
_symmetry_group_IT_number 39
_symmetry_cell_setting 'orthorhombic'
loop_
_space_group_symop_operation_xyz
x,y,z
-x,-y,z
-x,1/2+y,z
x,1/2-y,z
x,1/2+y,1/2+z
-x,1/2-y,1/2+z
-x,y,1/2+z
x,-y,1/2+z
loop_
_atom_site_type_symbol
_atom_site_label
_atom_site_fract_x
_atom_site_fract_y
_atom_site_fract_z
Si Si1 0.504850 0.408254 0.266660
Si Si2 0.749344 0.083642 0.236455
Si Si3 0.097156 0.437421 0.239318
Si Si4 0.357066 0.841650 0.514449
Si Si5 0.937897 0.657726 0.535019
O O1 0.500000 0.500000 0.821747
O O2 0.622947 0.407693 0.171318
O O3 0.533666 0.349046 0.403462
O O4 0.399440 0.380390 0.169397
O O5 0.731301 0.108651 0.412366
O O6 0.839048 0.140976 0.156838
O O7 0.796618 0.994732 0.217871
O O8 0.106854 0.375653 0.375880
O O9 0.000000 0.500000 0.286892
O O10 0.045121 0.392281 0.095072
O O11 0.322919 0.750000 0.533014
O O12 0.965760 0.750000 0.524852
#
# Coordination Sequence:
#
# PCOD9361352 Si02
#       5
#     8   8   8   8   8
#     4  10  22  38  61  90 126 169 219 264 312 387
#     4   9  23  37  65  89 128 171 217 245 325 390
#     4  10  21  41  65  91 126 166 210 257 321 396
#     4  10  21  38  61  89 127 168 218 271 319 367
#     4  11  22  40  67  97 127 161 209 270 327 386
#
# _framework density 22.826785000000001
#
# number of rings (size 3 to 8) (size 9 to 14) (size 15 to 20)
#    1.200    0.800    0.000    4.200    2.800    0.000 
#    0.000    0.000    0.000    2.400    0.000    0.000 
#    0.000    0.000    0.000    0.000    0.000    0.000 
#
# Total GULP energy -111616.983145 kJ/mol
# GULP energy per Si atom -5580.849157 kJ/mol
# Density = 2.277483 g / cm^3
# Si number density = 22.826785 Si / 1000 Ang^3
#
#
#
# Elastic Constant Matrix: (Units=GPa)
#
#
# Indices 1 2 3 4 5 6 
#
# 1 69.1399 16.8305 0.2625 0.0000 0.0000 0.0000
# 2 16.8305 133.6980 4.7168 0.0000 0.0000 0.0000
# 3 0.2625 4.7168 27.9908 0.0000 0.0000 0.0000
# 4 0.0000 0.0000 0.0000 28.7098 0.0000 0.0000
# 5 0.0000 0.0000 0.0000 0.0000 42.9567 0.0000
# 6 0.0000 0.0000 0.0000 0.0000 0.0000 20.3207
#
#
#
# Elastic Compliance Matrix: (Units=1/GPa)
#
#
# Indices 1 2 3 4 5 6 
#
# 1 0.014922 -0.001885 0.000178 0.000000 0.000000 0.000000
# 2 -0.001885 0.007762 -0.001290 0.000000 0.000000 0.000000
# 3 0.000178 -0.001290 0.035942 0.000000 0.000000 0.000000
# 4 0.000000 0.000000 0.000000 0.034831 0.000000 0.000000
# 5 0.000000 0.000000 0.000000 0.000000 0.023279 0.000000
# 6 0.000000 0.000000 0.000000 0.000000 0.000000 0.049211
#
#
# Mechanical properties :
#
#
# Convention : Reuss Voigt Hill
#
# Bulk Modulus (GPa) = 19.00023 30.49425 24.74724
# Shear Modulus (GPa) = 26.38725 32.33204 29.35964
#
# Velocity S-wave (km/s) = 3.40366 3.76760 3.59024
# Velocity P-wave (km/s) = 4.87732 5.68458 5.29635
#
# Compressibility (1/GPa) = 0.05263093
#
# Stress axis : x y z
#
# Youngs Moduli (GPa) = 67.01720 128.82748 27.82274
#
# Poissons Ratio (x) = 0.24280 -0.00494
# Poissons Ratio (y) = 0.12630 0.03590
# Poissons Ratio (z) = -0.01191 0.16624
#
# Static dielectric constant tensor:
#      x y z
#    x 1.926990 0.000000 0.000000 
#    y 0.000000 1.848850 0.000000 
#    z 0.000000 0.000000 1.866470 
# 
# From -- ./inp_files/2511.got.cif
#   From: 2010.05.17/outbox.cif.g08.bks.cpg/sg39_2_cif.got.tgz:2511.got - 2010.06.03 18:22:40.
