data_PCOD9361309
_publ_section_title
;
Structure prediction by ZEFSAII (Michael W. Deem and Ramdas Pophale) SiO2 
 PCOD9361309
Probable space group: A B M 2
;
_chemical_formula_sum "Si O2"
_cell_formula_units_Z 64
_cell_length_a 8.898466
_cell_length_b 21.436372
_cell_length_c 15.174652
_cell_angle_alpha 90.000000
_cell_angle_beta 90.000000
_cell_angle_gamma 90.000000
_cell_volume 2894.577425
_symmetry_space_group_name_H-M "A B M 2"
_symmetry_group_IT_number 39
_symmetry_cell_setting 'orthorhombic'
loop_
_space_group_symop_operation_xyz
x,y,z
-x,-y,z
-x,1/2+y,z
x,1/2-y,z
x,1/2+y,1/2+z
-x,1/2-y,1/2+z
-x,y,1/2+z
x,-y,1/2+z
loop_
_atom_site_type_symbol
_atom_site_label
_atom_site_fract_x
_atom_site_fract_y
_atom_site_fract_z
Si Si1 0.828218 0.367835 0.632780
Si Si2 0.537447 0.821800 0.333430
Si Si3 0.658574 0.019866 0.622741
Si Si4 0.927979 0.820444 0.751545
Si Si5 0.632600 0.823917 0.654913
Si Si6 0.130403 0.175305 0.406034
Si Si7 0.579085 0.127052 0.508264
Si Si8 0.088207 0.440313 0.532509
O O1 0.731083 0.423206 0.678089
O O2 0.720773 0.339406 0.557203
O O3 0.920803 0.321810 0.693087
O O4 0.956933 0.409314 0.588853
O O5 0.496275 0.750000 0.352367
O O6 0.486813 0.833173 0.233761
O O7 0.714446 0.826969 0.351337
O O8 0.448328 0.860677 0.406853
O O9 0.386041 0.944307 0.531912
O O10 0.778831 0.968788 0.593088
O O11 0.500000 0.000000 0.662987
O O12 0.879077 0.750000 0.768179
O O13 0.789422 0.847993 0.696443
O O14 0.986788 0.843204 0.845649
O O15 0.649127 0.750000 0.636451
O O16 0.564352 0.852985 0.566715
O O17 0.115165 0.250000 0.434221
O O18 0.141411 0.118652 0.474863
O O19 0.000000 0.500000 0.488409
#
# Coordination Sequence:
#
# PCOD9361309 Si02
#       8
#     8   8   8   8   8   8   8   8
#     4   9  22  35  61  87 117 170 207 261 318 389
#     4  10  21  37  61  92 128 168 215 276 328 394
#     4   9  20  37  62  86 117 165 208 270 319 381
#     4  10  22  39  60  91 132 171 209 272 340 393
#     4  10  22  38  59  90 131 169 215 279 330 388
#     4  10  22  39  64  91 125 169 216 266 334 400
#     4  10  21  37  62  90 120 171 224 257 336 395
#     4  10  21  41  62  92 130 163 213 265 327 390
#
# _framework density 22.110308
#
# number of rings (size 3 to 8) (size 9 to 14) (size 15 to 20)
#    0.750    1.500    0.000    1.875    5.250    2.500 
#    0.000    1.875    2.750    0.000    0.000    0.000 
#    0.000    0.000    0.000    0.000    0.000    0.000 
#
# Total GULP energy -178163.974351 kJ/mol
# GULP energy per Si atom -5567.624198 kJ/mol
# Density = 2.205998 g / cm^3
# Si number density = 22.110308 Si / 1000 Ang^3
#
#
#
# Elastic Constant Matrix: (Units=GPa)
#
#
# Indices 1 2 3 4 5 6 
#
# 1 113.5144 30.4257 2.5139 0.0000 0.0000 0.0000
# 2 30.4257 78.2612 18.6073 0.0000 0.0000 0.0000
# 3 2.5139 18.6073 19.2783 0.0000 0.0000 0.0000
# 4 0.0000 0.0000 0.0000 -40.6007 0.0000 0.0000
# 5 0.0000 0.0000 0.0000 0.0000 31.5393 0.0000
# 6 0.0000 0.0000 0.0000 0.0000 0.0000 37.4585
#
#
#
# Elastic Compliance Matrix: (Units=1/GPa)
#
#
# Indices 1 2 3 4 5 6 
#
# 1 0.009981 -0.004635 0.003172 0.000000 0.000000 0.000000
# 2 -0.004635 0.018735 -0.017479 0.000000 0.000000 0.000000
# 3 0.003172 -0.017479 0.068328 0.000000 0.000000 0.000000
# 4 0.000000 0.000000 0.000000 -0.024630 0.000000 0.000000
# 5 0.000000 0.000000 0.000000 0.000000 0.031707 0.000000
# 6 0.000000 0.000000 0.000000 0.000000 0.000000 0.026696
#
#
# Mechanical properties :
#
#
# Convention : Reuss Voigt Hill
#
# Bulk Modulus (GPa) = 16.90278 34.90529 25.90403
# Shear Modulus (GPa) = 26.53623 16.31321 21.42472
#
# Velocity S-wave (km/s) = 3.46811 2.71921 3.11624
# Velocity P-wave (km/s) = 4.86810 5.06754 4.96882
#
# Compressibility (1/GPa) = 0.05916187
#
# Stress axis : x y z
#
# Youngs Moduli (GPa) = 100.18584 53.37533 14.63520
#
# Poissons Ratio (x) = 0.24737 -0.04642
# Poissons Ratio (y) = 0.46432 0.25580
# Poissons Ratio (z) = -0.31776 0.93293
#
# Static dielectric constant tensor:
#      x y z
#    x 1.903370 0.000000 0.000000 
#    y 0.000000 1.922660 0.000000 
#    z 0.000000 0.000000 1.833480 
# 
# From -- ./inp_files/8789.got.cif
#   From: 2010.05.17/outbox.cif.g08.bks.cpg/sg39_5_cif.got.tgz:8789.got - 2010.06.03 18:22:40.
