data_PCOD9361745
_publ_section_title
;
Structure prediction by ZEFSAII (Michael W. Deem and Ramdas Pophale) SiO2 
 PCOD9361745
Probable space group: A B M 2
;
_chemical_formula_sum "Si O2"
_cell_formula_units_Z 56
_cell_length_a 5.218192
_cell_length_b 14.500879
_cell_length_c 29.415893
_cell_angle_alpha 90.000000
_cell_angle_beta 90.000000
_cell_angle_gamma 90.000000
_cell_volume 2225.852699
_symmetry_space_group_name_H-M "A B M 2"
_symmetry_group_IT_number 39
_symmetry_cell_setting 'orthorhombic'
loop_
_space_group_symop_operation_xyz
x,y,z
-x,-y,z
-x,1/2+y,z
x,1/2-y,z
x,1/2+y,1/2+z
-x,1/2-y,1/2+z
-x,y,1/2+z
x,-y,1/2+z
loop_
_atom_site_type_symbol
_atom_site_label
_atom_site_fract_x
_atom_site_fract_y
_atom_site_fract_z
Si Si1 0.295418 0.362325 0.860640
Si Si2 0.914966 0.898476 0.763456
Si Si3 0.000000 0.000000 0.517787
Si Si4 0.601915 0.352731 0.491626
Si Si5 0.774783 0.750000 0.227161
Si Si6 0.550077 0.890415 0.681626
Si Si7 0.638047 0.598863 0.581400
Si Si8 0.209155 0.360574 0.412873
O O1 0.297363 0.250000 0.858221
O O2 0.228491 0.398583 0.811018
O O3 0.571580 0.393354 0.878194
O O4 0.070146 0.391348 0.895857
O O5 0.734016 0.859845 0.723120
O O6 0.153020 0.830141 0.764688
O O7 0.000000 0.000000 0.750923
O O8 0.203461 0.938700 0.489754
O O9 0.889602 0.924437 0.553119
O O10 0.696042 0.250000 0.476819
O O11 0.527825 0.347062 0.544604
O O12 0.346674 0.374614 0.461923
O O13 0.702718 0.668594 0.190184
O O14 0.665530 0.866810 0.632431
O O15 0.500000 0.000000 0.685406
O O16 0.500000 0.500000 0.586509
O O17 0.196670 0.250000 0.409368
#
# Coordination Sequence:
#
# PCOD9361745 Si02
#       8
#     8   8   4   8   4   8   8   8
#     4  10  22  41  69 100 140 188 241 304 372 438
#     4  12  26  44  71 107 140 189 242 306 368 445
#     4  10  22  42  70 100 140 188 234 302 368 424
#     4  10  22  42  68 102 143 191 239 297 367 441
#     4  12  26  46  72  98 144 190 242 296 378 436
#     4  11  25  45  72 101 145 193 244 306 366 443
#     4   9  22  42  64  98 140 183 236 299 361 427
#     4   9  21  40  69 101 139 187 242 299 368 441
#
# _framework density 25.158898000000001
#
# number of rings (size 3 to 8) (size 9 to 14) (size 15 to 20)
#    0.000    1.714    2.143    0.429    6.000    1.714 
#    1.286    0.000    0.000    0.000    0.000    0.000 
#    0.000    0.000    0.000    0.000    0.000    0.000 
#
# Total GULP energy -156078.442932 kJ/mol
# GULP energy per Si atom -5574.230105 kJ/mol
# Density = 2.510163 g / cm^3
# Si number density = 25.158898 Si / 1000 Ang^3
#
#
#
# Elastic Constant Matrix: (Units=GPa)
#
#
# Indices 1 2 3 4 5 6 
#
# 1 73.0507 -2.6814 20.0831 0.0000 0.0000 0.0000
# 2 -2.6814 140.0013 -5.7831 0.0000 0.0000 0.0000
# 3 20.0831 -5.7831 177.0658 0.0000 0.0000 0.0000
# 4 0.0000 0.0000 0.0000 202.0529 0.0000 0.0000
# 5 0.0000 0.0000 0.0000 0.0000 37.4331 0.0000
# 6 0.0000 0.0000 0.0000 0.0000 0.0000 -42.2459
#
#
#
# Elastic Compliance Matrix: (Units=1/GPa)
#
#
# Indices 1 2 3 4 5 6 
#
# 1 0.014136 0.000205 -0.001597 0.000000 0.000000 0.000000
# 2 0.000205 0.007155 0.000210 0.000000 0.000000 0.000000
# 3 -0.001597 0.000210 0.005836 0.000000 0.000000 0.000000
# 4 0.000000 0.000000 0.000000 0.004949 0.000000 0.000000
# 5 0.000000 0.000000 0.000000 0.000000 0.026714 0.000000
# 6 0.000000 0.000000 0.000000 0.000000 0.000000 -0.023671
#
#
# Mechanical properties :
#
#
# Convention : Reuss Voigt Hill
#
# Bulk Modulus (GPa) = 40.38136 45.92833 43.15485
# Shear Modulus (GPa) = 109.32195 64.68130 87.00163
#
# Velocity S-wave (km/s) = 6.59901 5.07592 5.88693
# Velocity P-wave (km/s) = 8.61092 7.25591 7.96229
#
# Compressibility (1/GPa) = 0.02476390
#
# Stress axis : x y z
#
# Youngs Moduli (GPa) = 70.74346 139.75448 171.36250
#
# Poissons Ratio (x) = -0.02862 0.27360
# Poissons Ratio (y) = -0.01449 -0.03607
# Poissons Ratio (z) = 0.11295 -0.02941
#
# Static dielectric constant tensor:
#      x y z
#    x 2.151180 0.000000 0.000000 
#    y 0.000000 1.849020 0.000000 
#    z 0.000000 0.000000 1.976500 
# 
# From -- ./inp_files/17323.got.cif
#   From: 2010.05.17/outbox.cif.g08.bks.cpg/sg39_9_cif.got.tgz:17323.got - 2010.06.03 18:22:40.
