data_PCOD9361009
_publ_section_title
;
Structure prediction by ZEFSAII (Michael W. Deem and Ramdas Pophale) SiO2 
 PCOD9361009
Probable space group: A B M 2
;
_chemical_formula_sum "Si O2"
_cell_formula_units_Z 64
_cell_length_a 13.977639
_cell_length_b 23.344555
_cell_length_c 9.451362
_cell_angle_alpha 90.000000
_cell_angle_beta 90.000000
_cell_angle_gamma 90.000000
_cell_volume 3083.996078
_symmetry_space_group_name_H-M "A B M 2"
_symmetry_group_IT_number 39
_symmetry_cell_setting 'orthorhombic'
loop_
_space_group_symop_operation_xyz
x,y,z
-x,-y,z
-x,1/2+y,z
x,1/2-y,z
x,1/2+y,1/2+z
-x,1/2-y,1/2+z
-x,y,1/2+z
x,-y,1/2+z
loop_
_atom_site_type_symbol
_atom_site_label
_atom_site_fract_x
_atom_site_fract_y
_atom_site_fract_z
Si Si1 0.760016 0.934171 0.666660
Si Si2 0.017411 0.184604 0.369002
Si Si3 0.709503 0.317658 0.729287
Si Si4 0.396092 0.600349 0.537511
Si Si5 0.777362 0.816212 0.527976
Si Si6 0.197210 0.967548 0.473460
Si Si7 0.544636 0.556670 0.761870
Si Si8 0.905374 0.630008 0.111747
O O1 0.768750 0.866124 0.643223
O O2 0.649380 0.950394 0.694955
O O3 0.795880 0.967684 0.527703
O O4 0.813207 0.957630 0.806331
O O5 0.007616 0.250000 0.316415
O O6 0.116917 0.181658 0.457177
O O7 0.020500 0.141149 0.237830
O O8 0.935805 0.167327 0.477476
O O9 0.715756 0.250000 0.718728
O O10 0.631474 0.343188 0.624116
O O11 0.807843 0.344959 0.674680
O O12 0.705121 0.330691 0.897369
O O13 0.298648 0.563456 0.513732
O O14 0.470310 0.569787 0.639800
O O15 0.442409 0.604561 0.382773
O O16 0.762003 0.750000 0.574090
O O17 0.115503 0.933652 0.558699
O O18 0.500000 0.500000 0.834251
#
# Coordination Sequence:
#
# PCOD9361009 Si02
#       8
#     8   8   8   8   8   8   8   8
#     4  11  24  40  65  94 126 168 212 261 319 380
#     4  10  20  37  65  94 123 166 214 260 306 368
#     4   9  19  39  62  87 125 168 206 255 318 375
#     4  10  22  36  59  91 119 157 204 259 310 361
#     4   9  21  40  66  93 122 168 217 261 311 376
#     4  10  24  40  61  93 126 168 203 261 323 373
#     4  11  22  37  60  92 120 155 208 260 309 366
#     4  10  21  38  62  93 125 158 212 258 315 368
#
# _framework density 20.752296999999999
#
# number of rings (size 3 to 8) (size 9 to 14) (size 15 to 20)
#    0.000    2.000    1.250    2.250   10.500    0.000 
#    0.000    8.125    0.000    0.000    0.000    0.000 
#    0.000    0.000    0.000    0.000    0.000    0.000 
#
# Total GULP energy -178557.003503 kJ/mol
# GULP energy per Si atom -5579.906359 kJ/mol
# Density = 2.070506 g / cm^3
# Si number density = 20.752297 Si / 1000 Ang^3
#
#
#
# Elastic Constant Matrix: (Units=GPa)
#
#
# Indices 1 2 3 4 5 6 
#
# 1 4.9628 0.1982 0.4086 0.0000 0.0000 0.0000
# 2 0.1982 79.5297 32.4543 0.0000 0.0000 0.0000
# 3 0.4086 32.4543 95.8289 0.0000 0.0000 0.0000
# 4 0.0000 0.0000 0.0000 35.8536 0.0000 0.0000
# 5 0.0000 0.0000 0.0000 0.0000 14.4133 0.0000
# 6 0.0000 0.0000 0.0000 0.0000 0.0000 21.3223
#
#
#
# Elastic Compliance Matrix: (Units=1/GPa)
#
#
# Indices 1 2 3 4 5 6 
#
# 1 0.201574 -0.000176 -0.000800 0.000000 0.000000 0.000000
# 2 -0.000176 0.014591 -0.004941 0.000000 0.000000 0.000000
# 3 -0.000800 -0.004941 0.012112 0.000000 0.000000 0.000000
# 4 0.000000 0.000000 0.000000 0.027891 0.000000 0.000000
# 5 0.000000 0.000000 0.000000 0.000000 0.069380 0.000000
# 6 0.000000 0.000000 0.000000 0.000000 0.000000 0.046899
#
#
# Mechanical properties :
#
#
# Convention : Reuss Voigt Hill
#
# Bulk Modulus (GPa) = 4.62015 27.38261 16.00138
# Shear Modulus (GPa) = 10.95465 24.13520 17.54492
#
# Velocity S-wave (km/s) = 2.30005 3.41400 2.91081
# Velocity P-wave (km/s) = 3.04710 5.36322 4.36170
#
# Compressibility (1/GPa) = 0.21644316
#
# Stress axis : x y z
#
# Youngs Moduli (GPa) = 4.96097 68.53770 82.56334
#
# Poissons Ratio (x) = 0.01205 0.06605
# Poissons Ratio (y) = 0.00087 0.40791
# Poissons Ratio (z) = 0.00397 0.33862
#
# Static dielectric constant tensor:
#      x y z
#    x 1.765100 0.000000 0.000000 
#    y 0.000000 1.743110 0.000000 
#    z 0.000000 0.000000 1.757620 
# 
# From -- ./inp_files/3505.got.cif
#   From: 2010.05.17/outbox.cif.g08.bks.cpg/sg39_2_cif.got.tgz:3505.got - 2010.06.03 18:22:40.
