data_PCOD9361635
_publ_section_title
;
Structure prediction by ZEFSAII (Michael W. Deem and Ramdas Pophale) SiO2 
 PCOD9361635
Probable space group: A B M 2
;
_chemical_formula_sum "Si O2"
_cell_formula_units_Z 48
_cell_length_a 16.349432
_cell_length_b 15.949268
_cell_length_c 7.278056
_cell_angle_alpha 90.000000
_cell_angle_beta 90.000000
_cell_angle_gamma 90.000000
_cell_volume 1897.836600
_symmetry_space_group_name_H-M "A B M 2"
_symmetry_group_IT_number 39
_symmetry_cell_setting 'orthorhombic'
loop_
_space_group_symop_operation_xyz
x,y,z
-x,-y,z
-x,1/2+y,z
x,1/2-y,z
x,1/2+y,1/2+z
-x,1/2-y,1/2+z
-x,y,1/2+z
x,-y,1/2+z
loop_
_atom_site_type_symbol
_atom_site_label
_atom_site_fract_x
_atom_site_fract_y
_atom_site_fract_z
Si Si1 0.831594 0.916650 0.947820
Si Si2 0.078294 0.437399 0.598489
Si Si3 0.934136 0.750000 0.616023
Si Si4 0.119788 0.750000 0.543501
Si Si5 0.614218 0.088501 0.819763
Si Si6 0.456618 0.841197 0.460126
Si Si7 0.326605 0.406493 0.697593
O O1 0.910047 0.918959 0.813665
O O2 0.837162 0.838008 0.083680
O O3 0.753799 0.901203 0.821198
O O4 0.843124 0.006047 0.043567
O O5 0.080717 0.341884 0.521518
O O6 0.000000 0.500000 0.585087
O O7 0.890626 0.750000 0.817457
O O8 0.031805 0.750000 0.635958
O O9 0.595134 0.145692 0.644747
O O10 0.640449 0.000847 0.731035
O O11 0.527836 0.091150 0.929338
O O12 0.677813 0.111402 0.980705
O O13 0.496067 0.750000 0.462998
O O14 0.394314 0.848316 0.292088
#
# Coordination Sequence:
#
# PCOD9361635 Si02
#       7
#     8   8   4   4   8   8   8
#     4  11  25  43  67  99 142 181 228 286 363 419
#     4  11  22  41  69 100 134 184 235 289 341 423
#     4  10  22  38  66 100 130 174 239 287 339 413
#     4  10  22  42  66  98 136 176 227 289 351 413
#     4  12  25  45  74 103 140 187 237 292 348 438
#     4  12  27  45  73 107 137 184 244 298 357 423
#     4  12  26  45  73 105 146 187 236 294 366 435
#
# _framework density 25.291958000000001
#
# number of rings (size 3 to 8) (size 9 to 14) (size 15 to 20)
#    0.000    0.667    5.000    2.500    3.500    0.667 
#    0.000    0.000    3.667    0.000    0.000    0.000 
#    0.000    0.000    0.000    0.000    0.000    0.000 
#
# Total GULP energy -134031.077893 kJ/mol
# GULP energy per Si atom -5584.628246 kJ/mol
# Density = 2.523439 g / cm^3
# Si number density = 25.291958 Si / 1000 Ang^3
#
#
#
# Elastic Constant Matrix: (Units=GPa)
#
#
# Indices 1 2 3 4 5 6 
#
# 1 51.7141 7.5209 -16.9620 0.0000 0.0000 0.0000
# 2 7.5209 139.1774 2.1710 0.0000 0.0000 0.0000
# 3 -16.9620 2.1710 86.2455 0.0000 0.0000 0.0000
# 4 0.0000 0.0000 0.0000 23.3257 0.0000 0.0000
# 5 0.0000 0.0000 0.0000 0.0000 30.2533 0.0000
# 6 0.0000 0.0000 0.0000 0.0000 0.0000 3.0240
#
#
#
# Elastic Compliance Matrix: (Units=1/GPa)
#
#
# Indices 1 2 3 4 5 6 
#
# 1 0.020866 -0.001192 0.004134 0.000000 0.000000 0.000000
# 2 -0.001192 0.007256 -0.000417 0.000000 0.000000 0.000000
# 3 0.004134 -0.000417 0.012418 0.000000 0.000000 0.000000
# 4 0.000000 0.000000 0.000000 0.042871 0.000000 0.000000
# 5 0.000000 0.000000 0.000000 0.000000 0.033054 0.000000
# 6 0.000000 0.000000 0.000000 0.000000 0.000000 0.330686
#
#
# Mechanical properties :
#
#
# Convention : Reuss Voigt Hill
#
# Bulk Modulus (GPa) = 21.93468 29.17742 25.55605
# Shear Modulus (GPa) = 10.93376 30.28108 20.60742
#
# Velocity S-wave (km/s) = 2.08144 3.46390 2.85753
# Velocity P-wave (km/s) = 3.80368 5.24971 4.58407
#
# Compressibility (1/GPa) = 0.04558990
#
# Stress axis : x y z
#
# Youngs Moduli (GPa) = 47.92416 137.81704 80.52634
#
# Poissons Ratio (x) = 0.16429 -0.33288
# Poissons Ratio (y) = 0.05713 0.03359
# Poissons Ratio (z) = -0.19811 0.05748
#
# Static dielectric constant tensor:
#      x y z
#    x 2.020710 0.000000 0.000000 
#    y 0.000000 2.081380 0.000000 
#    z 0.000000 0.000000 2.038250 
# 
# From -- ./inp_files/3735.got.cif
#   From: 2010.05.17/outbox.cif.g08.bks.cpg/sg39_2_cif.got.tgz:3735.got - 2010.06.03 18:22:40.
