data_PCOD9361822
_publ_section_title
;
Structure prediction by ZEFSAII (Michael W. Deem and Ramdas Pophale) SiO2 
 PCOD9361822
Probable space group: A B M 2
;
_chemical_formula_sum "Si O2"
_cell_formula_units_Z 44
_cell_length_a 5.299826
_cell_length_b 15.528751
_cell_length_c 24.816098
_cell_angle_alpha 90.000000
_cell_angle_beta 90.000000
_cell_angle_gamma 90.000000
_cell_volume 2042.356882
_symmetry_space_group_name_H-M "A B M 2"
_symmetry_group_IT_number 39
_symmetry_cell_setting 'orthorhombic'
loop_
_space_group_symop_operation_xyz
x,y,z
-x,-y,z
-x,1/2+y,z
x,1/2-y,z
x,1/2+y,1/2+z
-x,1/2-y,1/2+z
-x,y,1/2+z
x,-y,1/2+z
loop_
_atom_site_type_symbol
_atom_site_label
_atom_site_fract_x
_atom_site_fract_y
_atom_site_fract_z
Si Si1 0.324224 0.750000 0.250000
Si Si2 0.166631 0.750000 0.818657
Si Si3 0.000000 0.000000 0.594874
Si Si4 0.596043 0.409489 0.171367
Si Si5 0.014387 0.595520 0.897545
Si Si6 0.490981 0.849272 0.955253
Si Si7 0.293187 0.345648 0.068996
O O1 0.548229 0.750000 0.295041
O O2 0.352254 0.663910 0.214286
O O3 0.040324 0.750000 0.271600
O O4 0.096245 0.666100 0.853687
O O5 0.876064 0.071946 0.558179
O O6 0.176788 0.056234 0.634140
O O7 0.500000 0.500000 0.196108
O O8 0.407502 0.367238 0.127419
O O9 0.249779 0.596233 0.938532
O O10 0.000000 0.500000 0.873800
O O11 0.752213 0.621255 0.926910
O O12 0.449340 0.750000 0.937945
O O13 0.513228 0.847396 0.019763
O O14 0.175644 0.250000 0.069316
#
# Coordination Sequence:
#
# PCOD9361822 Si02
#       7
#     4   4   4   8   8   8   8
#     4  12  28  46  80  95 137 182 234 294 368 410
#     4  12  28  50  72 103 135 174 240 308 352 416
#     4  10  24  40  66  98 156 174 238 284 332 420
#     4  10  24  43  67 104 142 181 232 285 342 423
#     4  12  26  47  75 102 141 182 235 293 355 416
#     4  11  23  44  73 106 146 189 230 277 345 425
#     4  10  23  40  68 105 147 190 227 275 343 421
#
# _framework density 21.543737
#
# number of rings (size 3 to 8) (size 9 to 14) (size 15 to 20)
#    0.000    1.091    2.727    1.636   10.182    4.364 
#    0.000    0.000    0.000    0.000    0.000    0.000 
#    0.000    0.000    0.000    0.000    0.000    0.000 
#
# Total GULP energy -122869.257402 kJ/mol
# GULP energy per Si atom -5584.966246 kJ/mol
# Density = 2.149470 g / cm^3
# Si number density = 21.543737 Si / 1000 Ang^3
#
#
#
# Elastic Constant Matrix: (Units=GPa)
#
#
# Indices 1 2 3 4 5 6 
#
# 1 61.1727 12.8572 -15.8728 0.0000 0.0000 0.0000
# 2 12.8572 174.2621 37.7376 0.0000 0.0000 0.0000
# 3 -15.8728 37.7376 34.7235 0.0000 0.0000 0.0000
# 4 0.0000 0.0000 0.0000 7.8763 0.0000 0.0000
# 5 0.0000 0.0000 0.0000 0.0000 14.0085 0.0000
# 6 0.0000 0.0000 0.0000 0.0000 0.0000 16.9855
#
#
#
# Elastic Compliance Matrix: (Units=1/GPa)
#
#
# Indices 1 2 3 4 5 6 
#
# 1 0.021225 -0.004796 0.014915 0.000000 0.000000 0.000000
# 2 -0.004796 0.008588 -0.011526 0.000000 0.000000 0.000000
# 3 0.014915 -0.011526 0.048143 0.000000 0.000000 0.000000
# 4 0.000000 0.000000 0.000000 0.126963 0.000000 0.000000
# 5 0.000000 0.000000 0.000000 0.000000 0.071385 0.000000
# 6 0.000000 0.000000 0.000000 0.000000 0.000000 0.058874
#
#
# Mechanical properties :
#
#
# Convention : Reuss Voigt Hill
#
# Bulk Modulus (GPa) = 13.30814 37.73358 25.52086
# Shear Modulus (GPa) = 13.77253 23.46981 18.62117
#
# Velocity S-wave (km/s) = 2.53115 3.30419 2.94316
# Velocity P-wave (km/s) = 3.83835 5.66655 4.83956
#
# Compressibility (1/GPa) = 0.07514198
#
# Stress axis : x y z
#
# Youngs Moduli (GPa) = 47.11401 116.43622 20.77129
#
# Poissons Ratio (x) = 0.55841 -0.30980
# Poissons Ratio (y) = 0.22595 0.23941
# Poissons Ratio (z) = -0.70269 1.34206
#
# Static dielectric constant tensor:
#      x y z
#    x 1.838730 0.000000 0.000000 
#    y 0.000000 1.811270 0.000000 
#    z 0.000000 0.000000 1.760150 
# 
# From -- ./inp_files/16475.got.cif
#   From: 2010.05.17/outbox.cif.g08.bks.cpg/sg39_9_cif.got.tgz:16475.got - 2010.06.03 18:22:40.
