data_PCOD9361997
_publ_section_title
;
Structure prediction by ZEFSAII (Michael W. Deem and Ramdas Pophale) SiO2 
 PCOD9361997
Probable space group: A B M 2
;
_chemical_formula_sum "Si O2"
_cell_formula_units_Z 60
_cell_length_a 5.147234
_cell_length_b 23.967419
_cell_length_c 22.185425
_cell_angle_alpha 90.000000
_cell_angle_beta 90.000000
_cell_angle_gamma 90.000000
_cell_volume 2736.925232
_symmetry_space_group_name_H-M "A B M 2"
_symmetry_group_IT_number 39
_symmetry_cell_setting 'orthorhombic'
loop_
_space_group_symop_operation_xyz
x,y,z
-x,-y,z
-x,1/2+y,z
x,1/2-y,z
x,1/2+y,1/2+z
-x,1/2-y,1/2+z
-x,y,1/2+z
x,-y,1/2+z
loop_
_atom_site_type_symbol
_atom_site_label
_atom_site_fract_x
_atom_site_fract_y
_atom_site_fract_z
Si Si1 0.711110 0.843488 0.401040
Si Si2 0.214376 0.683683 0.477416
Si Si3 0.824859 0.250000 0.818835
Si Si4 0.800301 0.849619 0.773669
Si Si5 0.545012 0.563009 0.325314
Si Si6 0.571941 0.312881 0.155744
Si Si7 0.859458 0.059163 0.705536
Si Si8 0.078666 0.135838 0.104464
O O1 0.483844 0.838823 0.450342
O O2 0.736120 0.903933 0.370041
O O3 0.979677 0.821799 0.429769
O O4 0.641942 0.798625 0.349808
O O5 0.242356 0.750000 0.492396
O O6 0.131030 0.646628 0.534584
O O7 0.022800 0.200614 0.795320
O O8 0.689868 0.892807 0.822685
O O9 0.589189 0.825234 0.726821
O O10 0.967694 0.890945 0.731712
O O11 0.500000 0.500000 0.345930
O O12 0.631377 0.557932 0.255049
O O13 0.657043 0.250000 0.144391
O O14 0.276463 0.320727 0.136039
O O15 0.777678 0.351264 0.119743
O O16 0.824374 0.078378 0.636300
O O17 0.000000 0.000000 0.708227
#
# Coordination Sequence:
#
# PCOD9361997 Si02
#       8
#     8   8   4   8   8   8   8   8
#     4  12  27  44  72 103 144 191 245 294 367 423
#     4  12  24  47  69 102 141 193 239 300 360 437
#     4  12  22  44  64 106 148 188 226 304 358 458
#     4  11  23  39  66 102 147 184 227 282 373 438
#     4  12  25  45  72 102 142 196 244 300 359 447
#     4  11  21  39  60 102 138 180 217 282 354 435
#     4  11  23  43  69 101 141 190 236 300 367 440
#     4  11  25  42  69  99 137 184 245 286 356 425
#
# _framework density 21.922409999999999
#
# number of rings (size 3 to 8) (size 9 to 14) (size 15 to 20)
#    0.000    0.533    6.000    2.800    0.000    0.533 
#    4.800    1.333    0.000    0.000    0.000    0.000 
#    0.000    0.000    0.000    0.000    0.000    0.000 
#
# Total GULP energy -167061.706187 kJ/mol
# GULP energy per Si atom -5568.723540 kJ/mol
# Density = 2.187251 g / cm^3
# Si number density = 21.922410 Si / 1000 Ang^3
#
#
#
# Elastic Constant Matrix: (Units=GPa)
#
#
# Indices 1 2 3 4 5 6 
#
# 1 61.3273 12.5140 10.7082 0.0000 0.0000 0.0000
# 2 12.5140 172.5046 30.0840 0.0000 0.0000 0.0000
# 3 10.7082 30.0840 78.9877 0.0000 0.0000 0.0000
# 4 0.0000 0.0000 0.0000 22.4563 0.0000 0.0000
# 5 0.0000 0.0000 0.0000 0.0000 37.3055 0.0000
# 6 0.0000 0.0000 0.0000 0.0000 0.0000 34.5156
#
#
#
# Elastic Compliance Matrix: (Units=1/GPa)
#
#
# Indices 1 2 3 4 5 6 
#
# 1 0.016825 -0.000881 -0.001945 0.000000 0.000000 0.000000
# 2 -0.000881 0.006256 -0.002263 0.000000 0.000000 0.000000
# 3 -0.001945 -0.002263 0.013786 0.000000 0.000000 0.000000
# 4 0.000000 0.000000 0.000000 0.044531 0.000000 0.000000
# 5 0.000000 0.000000 0.000000 0.000000 0.026806 0.000000
# 6 0.000000 0.000000 0.000000 0.000000 0.000000 0.028972
#
#
# Mechanical properties :
#
#
# Convention : Reuss Voigt Hill
#
# Bulk Modulus (GPa) = 37.47080 46.60354 42.03717
# Shear Modulus (GPa) = 31.99977 36.15638 34.07807
#
# Velocity S-wave (km/s) = 3.82472 4.06555 3.94697
# Velocity P-wave (km/s) = 6.05262 6.58353 6.32365
#
# Compressibility (1/GPa) = 0.02668745
#
# Stress axis : x y z
#
# Youngs Moduli (GPa) = 59.43377 159.85811 72.53811
#
# Poissons Ratio (x) = 0.14088 0.14111
# Poissons Ratio (y) = 0.05238 0.16416
# Poissons Ratio (z) = 0.11562 0.36177
#
# Static dielectric constant tensor:
#      x y z
#    x 1.899860 0.000000 0.000000 
#    y 0.000000 1.769320 0.000000 
#    z 0.000000 0.000000 1.918260 
# 
# From -- ./inp_files/13606.got.cif
#   From: 2010.05.17/outbox.cif.g08.bks.cpg/sg39_7_cif.got.tgz:13606.got - 2010.06.03 18:22:40.
