data_PCOD9361608
_publ_section_title
;
Structure prediction by ZEFSAII (Michael W. Deem and Ramdas Pophale) SiO2 
 PCOD9361608
Probable space group: A B M 2
;
_chemical_formula_sum "Si O2"
_cell_formula_units_Z 64
_cell_length_a 25.497405
_cell_length_b 7.816759
_cell_length_c 14.577343
_cell_angle_alpha 90.000000
_cell_angle_beta 90.000000
_cell_angle_gamma 90.000000
_cell_volume 2905.367522
_symmetry_space_group_name_H-M "A B M 2"
_symmetry_group_IT_number 39
_symmetry_cell_setting 'orthorhombic'
loop_
_space_group_symop_operation_xyz
x,y,z
-x,-y,z
-x,1/2+y,z
x,1/2-y,z
x,1/2+y,1/2+z
-x,1/2-y,1/2+z
-x,y,1/2+z
x,-y,1/2+z
loop_
_atom_site_type_symbol
_atom_site_label
_atom_site_fract_x
_atom_site_fract_y
_atom_site_fract_z
Si Si1 0.629090 0.044783 0.452450
Si Si2 0.870900 0.544299 0.326315
Si Si3 0.059680 0.543946 0.667109
Si Si4 0.243653 0.952507 0.797883
Si Si5 0.849887 0.452480 0.534035
Si Si6 0.559199 0.452453 0.107671
Si Si7 0.262939 0.947573 0.505344
Si Si8 0.647653 0.956544 0.744768
O O1 0.635052 0.250000 0.449730
O O2 0.678962 0.973928 0.510846
O O3 0.632925 0.983525 0.347982
O O4 0.576156 0.004748 0.505522
O O5 0.873729 0.750000 0.335764
O O6 0.919984 0.484507 0.266716
O O7 0.816278 0.506565 0.272492
O O8 0.865663 0.470976 0.427653
O O9 0.062853 0.750000 0.666456
O O10 0.102886 0.477720 0.595140
O O11 0.000000 0.500000 0.647007
O O12 0.245448 0.750000 0.817035
O O13 0.254202 0.048301 0.894241
O O14 0.291563 0.992645 0.730279
O O15 0.845146 0.250000 0.554505
O O16 0.790812 0.525932 0.544353
O O17 0.500000 0.500000 0.130759
O O18 0.562666 0.250000 0.113305
O O19 0.603900 0.524957 0.175450
O O20 0.265482 0.750000 0.536290
O O21 0.646234 0.750000 0.744074
#
# Coordination Sequence:
#
# PCOD9361608 Si02
#       8
#     8   8   8   8   8   8   8   8
#     4   9  18  35  58  82 108 138 171 210 259 313
#     4   9  19  35  54  78 108 138 170 214 264 312
#     4  10  22  38  53  73 103 139 181 223 262 309
#     4   9  16  28  52  83 109 134 169 212 258 311
#     4   9  18  34  56  79 104 137 174 213 260 313
#     4  11  24  40  56  77 106 140 181 223 260 304
#     4   8  15  30  53  79 108 139 169 205 257 319
#     4   9  20  38  57  79 110 143 172 210 262 315
#
# _framework density 22.028193000000002
#
# number of rings (size 3 to 8) (size 9 to 14) (size 15 to 20)
#    0.000    2.750    0.000    1.500    0.000    6.500 
#    0.000    6.250    0.000    0.000    0.000    0.000 
#    0.000    0.000    0.000    0.000    0.000    0.000 
#
# Total GULP energy -178528.758520 kJ/mol
# GULP energy per Si atom -5579.023704 kJ/mol
# Density = 2.197806 g / cm^3
# Si number density = 22.028193 Si / 1000 Ang^3
#
#
#
# Elastic Constant Matrix: (Units=GPa)
#
#
# Indices 1 2 3 4 5 6 
#
# 1 119.0213 3.5032 29.0177 0.0000 0.0000 0.0000
# 2 3.5032 34.3109 0.6658 0.0000 0.0000 0.0000
# 3 29.0177 0.6658 46.2818 0.0000 0.0000 0.0000
# 4 0.0000 0.0000 0.0000 13.1267 0.0000 0.0000
# 5 0.0000 0.0000 0.0000 0.0000 32.9761 0.0000
# 6 0.0000 0.0000 0.0000 0.0000 0.0000 25.6735
#
#
#
# Elastic Compliance Matrix: (Units=1/GPa)
#
#
# Indices 1 2 3 4 5 6 
#
# 1 0.009945 -0.000895 -0.006223 0.000000 0.000000 0.000000
# 2 -0.000895 0.029234 0.000140 0.000000 0.000000 0.000000
# 3 -0.006223 0.000140 0.025506 0.000000 0.000000 0.000000
# 4 0.000000 0.000000 0.000000 0.076180 0.000000 0.000000
# 5 0.000000 0.000000 0.000000 0.000000 0.030325 0.000000
# 6 0.000000 0.000000 0.000000 0.000000 0.000000 0.038951
#
#
# Mechanical properties :
#
#
# Convention : Reuss Voigt Hill
#
# Bulk Modulus (GPa) = 19.71157 29.55415 24.63286
# Shear Modulus (GPa) = 20.74640 25.45043 23.09842
#
# Velocity S-wave (km/s) = 3.07222 3.40274 3.24170
# Velocity P-wave (km/s) = 4.64247 5.37437 5.02177
#
# Compressibility (1/GPa) = 0.05073162
#
# Stress axis : x y z
#
# Youngs Moduli (GPa) = 100.55020 34.20686 39.20616
#
# Poissons Ratio (x) = 0.03060 0.24396
# Poissons Ratio (y) = 0.08996 -0.00551
# Poissons Ratio (z) = 0.62568 -0.00480
#
# Static dielectric constant tensor:
#      x y z
#    x 1.945630 0.000000 0.000000 
#    y 0.000000 1.816620 0.000000 
#    z 0.000000 0.000000 1.829430 
# 
# From -- ./inp_files/10655.got.cif
#   From: 2010.05.17/outbox.cif.g08.bks.cpg/sg39_6_cif.got.tgz:10655.got - 2010.06.03 18:22:40.
