data_PCOD9361550
_publ_section_title
;
Structure prediction by ZEFSAII (Michael W. Deem and Ramdas Pophale) SiO2 
 PCOD9361550
Probable space group: A B M 2
;
_chemical_formula_sum "Si O2"
_cell_formula_units_Z 64
_cell_length_a 8.797390
_cell_length_b 29.176715
_cell_length_c 11.186962
_cell_angle_alpha 90.000000
_cell_angle_beta 90.000000
_cell_angle_gamma 90.000000
_cell_volume 2871.457557
_symmetry_space_group_name_H-M "A B M 2"
_symmetry_group_IT_number 39
_symmetry_cell_setting 'orthorhombic'
loop_
_space_group_symop_operation_xyz
x,y,z
-x,-y,z
-x,1/2+y,z
x,1/2-y,z
x,1/2+y,1/2+z
-x,1/2-y,1/2+z
-x,y,1/2+z
x,-y,1/2+z
loop_
_atom_site_type_symbol
_atom_site_label
_atom_site_fract_x
_atom_site_fract_y
_atom_site_fract_z
Si Si1 0.161893 0.198803 0.706830
Si Si2 0.316511 0.896742 0.598566
Si Si3 0.887856 0.620545 0.875668
Si Si4 0.204383 0.200235 0.193988
Si Si5 0.198919 0.167646 0.447644
Si Si6 0.355462 0.578313 0.009686
Si Si7 0.648596 0.023603 0.778977
Si Si8 0.889011 0.958931 0.699600
O O1 0.197156 0.250000 0.750592
O O2 0.203772 0.158439 0.798198
O O3 0.227073 0.190019 0.575661
O O4 0.979014 0.196019 0.687085
O O5 0.214976 0.901764 0.478752
O O6 0.280497 0.844970 0.640077
O O7 0.494275 0.905431 0.576582
O O8 0.284517 0.935906 0.696610
O O9 0.949329 0.583536 0.778931
O O10 0.026074 0.648683 0.935128
O O11 0.248134 0.250000 0.142670
O O12 0.233709 0.199113 0.335636
O O13 0.298122 0.122465 0.439233
O O14 0.217594 0.561097 0.094146
O O15 0.393917 0.541673 0.908808
O O16 0.500000 0.000000 0.721441
O O17 0.775430 0.985175 0.788458
O O18 0.000000 0.000000 0.657711
#
# Coordination Sequence:
#
# PCOD9361550 Si02
#       8
#     8   8   8   8   8   8   8   8
#     4  10  21  41  71 106 138 176 232 292 346 412
#     4  12  26  46  71  97 142 185 229 285 344 430
#     4  11  25  43  70 103 136 180 232 289 351 409
#     4  10  22  42  70 103 137 180 230 285 350 412
#     4  11  21  42  71 102 136 179 228 289 351 404
#     4  12  27  44  72  97 141 183 229 283 348 417
#     4  12  27  48  68 100 131 185 236 278 344 414
#     4  12  28  44  69 103 141 179 233 290 347 413
#
# _framework density 22.288332
#
# number of rings (size 3 to 8) (size 9 to 14) (size 15 to 20)
#    0.000    0.750    5.000    1.875    7.000    1.500 
#    0.000    1.250    0.000    0.000    0.000    0.000 
#    0.000    0.000    0.000    0.000    0.000    0.000 
#
# Total GULP energy -178812.720506 kJ/mol
# GULP energy per Si atom -5587.897516 kJ/mol
# Density = 2.223760 g / cm^3
# Si number density = 22.288332 Si / 1000 Ang^3
#
#
#
# Elastic Constant Matrix: (Units=GPa)
#
#
# Indices 1 2 3 4 5 6 
#
# 1 44.4277 15.7718 5.1412 0.0000 0.0000 0.0000
# 2 15.7718 135.2933 39.3167 0.0000 0.0000 0.0000
# 3 5.1412 39.3167 78.5680 0.0000 0.0000 0.0000
# 4 0.0000 0.0000 0.0000 26.5317 0.0000 0.0000
# 5 0.0000 0.0000 0.0000 0.0000 19.7978 0.0000
# 6 0.0000 0.0000 0.0000 0.0000 0.0000 -3.8796
#
#
#
# Elastic Compliance Matrix: (Units=1/GPa)
#
#
# Indices 1 2 3 4 5 6 
#
# 1 0.023483 -0.002681 -0.000195 0.000000 0.000000 0.000000
# 2 -0.002681 0.008955 -0.004306 0.000000 0.000000 0.000000
# 3 -0.000195 -0.004306 0.014895 0.000000 0.000000 0.000000
# 4 0.000000 0.000000 0.000000 0.037691 0.000000 0.000000
# 5 0.000000 0.000000 0.000000 0.000000 0.050511 0.000000
# 6 0.000000 0.000000 0.000000 0.000000 0.000000 -0.257761
#
#
# Mechanical properties :
#
#
# Convention : Reuss Voigt Hill
#
# Bulk Modulus (GPa) = 30.33092 42.08315 36.20703
# Shear Modulus (GPa) = -51.61385 21.69395 -14.95995
#
# Velocity S-wave (km/s) = -4.81743 3.12321 -2.59357
# Velocity P-wave (km/s) = 4.15999 5.65050 2.70395
#
# Compressibility (1/GPa) = 0.03296966
#
# Stress axis : x y z
#
# Youngs Moduli (GPa) = 42.58447 111.66743 67.13517
#
# Poissons Ratio (x) = 0.29936 0.01310
# Poissons Ratio (y) = 0.11416 0.28908
# Poissons Ratio (z) = 0.00831 0.48083
#
# Static dielectric constant tensor:
#      x y z
#    x 1.867450 0.000000 0.000000 
#    y 0.000000 1.817540 0.000000 
#    z 0.000000 0.000000 1.825860 
# 
# From -- ./inp_files/5410.got.cif
#   From: 2010.05.17/outbox.cif.g08.bks.cpg/sg39_3_cif.got.tgz:5410.got - 2010.06.03 18:22:40.
