data_PCOD9361713
_publ_section_title
;
Structure prediction by ZEFSAII (Michael W. Deem and Ramdas Pophale) SiO2 
 PCOD9361713
Probable space group: A B M 2
;
_chemical_formula_sum "Si O2"
_cell_formula_units_Z 48
_cell_length_a 8.953079
_cell_length_b 22.357455
_cell_length_c 9.574674
_cell_angle_alpha 90.000000
_cell_angle_beta 90.000000
_cell_angle_gamma 90.000000
_cell_volume 1916.543928
_symmetry_space_group_name_H-M "A B M 2"
_symmetry_group_IT_number 39
_symmetry_cell_setting 'orthorhombic'
loop_
_space_group_symop_operation_xyz
x,y,z
-x,-y,z
-x,1/2+y,z
x,1/2-y,z
x,1/2+y,1/2+z
-x,1/2-y,1/2+z
-x,y,1/2+z
x,-y,1/2+z
loop_
_atom_site_type_symbol
_atom_site_label
_atom_site_fract_x
_atom_site_fract_y
_atom_site_fract_z
Si Si1 0.677033 0.990414 0.686160
Si Si2 0.506881 0.182284 0.578396
Si Si3 0.686594 0.677420 0.330522
Si Si4 0.811694 0.931632 0.957680
Si Si5 0.871200 0.394055 0.030677
Si Si6 0.792672 0.182010 0.270899
O O1 0.754187 0.975821 0.834253
O O2 0.736250 0.934995 0.590512
O O3 0.500000 0.000000 0.703168
O O4 0.735396 0.046380 0.598889
O O5 0.549084 0.250000 0.540528
O O6 0.446668 0.156027 0.435082
O O7 0.637752 0.160643 0.676808
O O8 0.361908 0.184802 0.681243
O O9 0.699418 0.750000 0.340938
O O10 0.826043 0.644701 0.396821
O O11 0.780502 0.864929 0.897024
O O12 0.987112 0.932493 0.989532
O O13 0.903821 0.347930 0.157348
O O14 0.831850 0.250000 0.309477
#
# Coordination Sequence:
#
# PCOD9361713 Si02
#       6
#     8   8   8   8   8   8
#     4  11  26  49  76 106 142 194 262 320 374 451
#     4   8  15  30  54  86 132 180 226 289 341 413
#     4   9  17  33  59  94 136 183 235 289 359 429
#     4  11  25  46  75 108 150 196 245 318 387 451
#     4  10  22  40  69 101 146 198 235 307 375 445
#     4   9  20  40  68 106 149 192 244 301 374 449
#
# _framework density 25.045082000000001
#
# number of rings (size 3 to 8) (size 9 to 14) (size 15 to 20)
#    0.000    2.333    0.000    2.500    2.333    6.667 
#    3.000    3.333    0.000    2.000    0.000    1.167 
#    0.000    0.000    0.000    0.000    0.000    0.000 
#
# Total GULP energy -134185.317508 kJ/mol
# GULP energy per Si atom -5591.054896 kJ/mol
# Density = 2.498808 g / cm^3
# Si number density = 25.045082 Si / 1000 Ang^3
#
#
#
# Elastic Constant Matrix: (Units=GPa)
#
#
# Indices 1 2 3 4 5 6 
#
# 1 126.2785 50.0514 76.9329 0.0000 0.0000 0.0000
# 2 50.0514 164.5729 66.3756 0.0000 0.0000 0.0000
# 3 76.9329 66.3756 118.9344 0.0000 0.0000 0.0000
# 4 0.0000 0.0000 0.0000 35.8990 0.0000 0.0000
# 5 0.0000 0.0000 0.0000 0.0000 39.4780 0.0000
# 6 0.0000 0.0000 0.0000 0.0000 0.0000 22.9148
#
#
#
# Elastic Compliance Matrix: (Units=1/GPa)
#
#
# Indices 1 2 3 4 5 6 
#
# 1 0.013138 -0.000733 -0.008089 0.000000 0.000000 0.000000
# 2 -0.000733 0.007882 -0.003925 0.000000 0.000000 0.000000
# 3 -0.008089 -0.003925 0.015831 0.000000 0.000000 0.000000
# 4 0.000000 0.000000 0.000000 0.027856 0.000000 0.000000
# 5 0.000000 0.000000 0.000000 0.000000 0.025331 0.000000
# 6 0.000000 0.000000 0.000000 0.000000 0.000000 0.043640
#
#
# Mechanical properties :
#
#
# Convention : Reuss Voigt Hill
#
# Bulk Modulus (GPa) = 88.05194 88.50061 88.27627
# Shear Modulus (GPa) = 30.68307 34.08674 32.38491
#
# Velocity S-wave (km/s) = 3.50396 3.69320 3.59982
# Velocity P-wave (km/s) = 7.18359 7.32117 7.25271
#
# Compressibility (1/GPa) = 0.01135693
#
# Stress axis : x y z
#
# Youngs Moduli (GPa) = 76.11724 126.86770 63.16835
#
# Poissons Ratio (x) = 0.09301 0.51097
# Poissons Ratio (y) = 0.05580 0.24792
# Poissons Ratio (z) = 0.61571 0.49793
#
# Static dielectric constant tensor:
#      x y z
#    x 2.019400 0.000000 0.000000 
#    y 0.000000 2.022900 0.000000 
#    z 0.000000 0.000000 1.938890 
# 
# From -- ./inp_files/5169.got.cif
#   From: 2010.05.17/outbox.cif.g08.bks.cpg/sg39_3_cif.got.tgz:5169.got - 2010.06.03 18:22:40.
