data_PCOD9361429
_publ_section_title
;
Structure prediction by ZEFSAII (Michael W. Deem and Ramdas Pophale) SiO2 
 PCOD9361429
Probable space group: A B M 2
;
_chemical_formula_sum "Si O2"
_cell_formula_units_Z 64
_cell_length_a 12.309296
_cell_length_b 15.035350
_cell_length_c 15.579571
_cell_angle_alpha 90.000000
_cell_angle_beta 90.000000
_cell_angle_gamma 90.000000
_cell_volume 2883.382460
_symmetry_space_group_name_H-M "A B M 2"
_symmetry_group_IT_number 39
_symmetry_cell_setting 'orthorhombic'
loop_
_space_group_symop_operation_xyz
x,y,z
-x,-y,z
-x,1/2+y,z
x,1/2-y,z
x,1/2+y,1/2+z
-x,1/2-y,1/2+z
-x,y,1/2+z
x,-y,1/2+z
loop_
_atom_site_type_symbol
_atom_site_label
_atom_site_fract_x
_atom_site_fract_y
_atom_site_fract_z
Si Si1 0.840554 0.106025 0.980380
Si Si2 0.781776 0.595110 0.935041
Si Si3 0.425369 0.641154 0.341573
Si Si4 0.752206 0.348105 0.616079
Si Si5 0.587777 0.854186 0.489369
Si Si6 0.474705 0.640349 0.660773
Si Si7 0.007337 0.391109 0.836507
Si Si8 0.001728 0.394233 0.640924
O O1 0.717271 0.138003 0.985474
O O2 0.903425 0.136211 0.893832
O O3 0.823734 0.999292 0.971739
O O4 0.914144 0.129997 0.064224
O O5 0.685339 0.591711 0.866845
O O6 0.887269 0.636025 0.890712
O O7 0.730918 0.648363 0.014361
O O8 0.409172 0.750000 0.345486
O O9 0.520739 0.613302 0.407310
O O10 0.463337 0.617803 0.246785
O O11 0.749611 0.250000 0.652919
O O12 0.649310 0.395252 0.658853
O O13 0.876956 0.373359 0.621868
O O14 0.563633 0.750000 0.491542
O O15 0.538797 0.892180 0.577105
O O16 0.471211 0.750000 0.657723
O O17 0.021104 0.360642 0.738197
O O18 0.000000 0.500000 0.833900
O O19 0.000000 0.500000 0.644216
#
# Coordination Sequence:
#
# PCOD9361429 Si02
#       8
#     8   8   8   8   8   8   8   8
#     4  11  22  39  60  88 122 159 195 248 303 361
#     4  11  20  40  64  86 120 156 201 252 296 358
#     4  10  21  39  63  87 119 160 198 249 308 353
#     4  11  21  38  65  89 115 159 210 247 292 368
#     4  10  22  39  59  84 121 160 196 245 306 361
#     4   9  20  39  61  88 119 155 202 253 305 358
#     4   9  21  38  59  85 115 155 198 238 298 361
#     4  11  21  40  63  85 119 160 192 244 313 353
#
# _framework density 22.196154
#
# number of rings (size 3 to 8) (size 9 to 14) (size 15 to 20)
#    0.000    1.750    3.750    0.750    3.500    1.000 
#    0.000    1.250    2.750    0.000    0.000    0.000 
#    0.000    0.000    0.000    0.000    0.000    0.000 
#
# Total GULP energy -178547.375405 kJ/mol
# GULP energy per Si atom -5579.605481 kJ/mol
# Density = 2.214563 g / cm^3
# Si number density = 22.196154 Si / 1000 Ang^3
#
#
#
# Elastic Constant Matrix: (Units=GPa)
#
#
# Indices 1 2 3 4 5 6 
#
# 1 148.6770 0.2802 35.1474 0.0000 0.0000 0.0000
# 2 0.2802 31.2664 6.1864 0.0000 0.0000 0.0000
# 3 35.1474 6.1864 99.3719 0.0000 0.0000 0.0000
# 4 0.0000 0.0000 0.0000 -160.7543 0.0000 0.0000
# 5 0.0000 0.0000 0.0000 0.0000 40.8200 0.0000
# 6 0.0000 0.0000 0.0000 0.0000 0.0000 19.1630
#
#
#
# Elastic Compliance Matrix: (Units=1/GPa)
#
#
# Indices 1 2 3 4 5 6 
#
# 1 0.007346 0.000454 -0.002627 0.000000 0.000000 0.000000
# 2 0.000454 0.032410 -0.002178 0.000000 0.000000 0.000000
# 3 -0.002627 -0.002178 0.011128 0.000000 0.000000 0.000000
# 4 0.000000 0.000000 0.000000 -0.006221 0.000000 0.000000
# 5 0.000000 0.000000 0.000000 0.000000 0.024498 0.000000
# 6 0.000000 0.000000 0.000000 0.000000 0.000000 0.052184
#
#
# Mechanical properties :
#
#
# Convention : Reuss Voigt Hill
#
# Bulk Modulus (GPa) = 23.70669 40.28259 31.99464
# Shear Modulus (GPa) = 34.69630 -4.30750 15.19440
#
# Velocity S-wave (km/s) = 3.95798 -1.39458 2.61923
# Velocity P-wave (km/s) = 5.62061 3.94901 4.85726
#
# Compressibility (1/GPa) = 0.04218218
#
# Stress axis : x y z
#
# Youngs Moduli (GPa) = 136.12768 30.85456 89.86501
#
# Poissons Ratio (x) = -0.01400 0.23603
# Poissons Ratio (y) = -0.06178 0.19575
# Poissons Ratio (z) = 0.35754 0.06721
#
# Static dielectric constant tensor:
#      x y z
#    x 1.934930 0.000000 0.000000 
#    y 0.000000 2.310770 0.000000 
#    z 0.000000 0.000000 1.828220 
# 
# From -- ./inp_files/9427.got.cif
#   From: 2010.05.17/outbox.cif.g08.bks.cpg/sg39_5_cif.got.tgz:9427.got - 2010.06.03 18:22:40.
