data_PCOD9361410
_publ_section_title
;
Structure prediction by ZEFSAII (Michael W. Deem and Ramdas Pophale) SiO2 
 PCOD9361410
Probable space group: A B M 2
;
_chemical_formula_sum "Si O2"
_cell_formula_units_Z 64
_cell_length_a 24.311087
_cell_length_b 8.583251
_cell_length_c 15.855242
_cell_angle_alpha 90.000000
_cell_angle_beta 90.000000
_cell_angle_gamma 90.000000
_cell_volume 3308.484203
_symmetry_space_group_name_H-M "A B M 2"
_symmetry_group_IT_number 39
_symmetry_cell_setting 'orthorhombic'
loop_
_space_group_symop_operation_xyz
x,y,z
-x,-y,z
-x,1/2+y,z
x,1/2-y,z
x,1/2+y,1/2+z
-x,1/2-y,1/2+z
-x,y,1/2+z
x,-y,1/2+z
loop_
_atom_site_type_symbol
_atom_site_label
_atom_site_fract_x
_atom_site_fract_y
_atom_site_fract_z
Si Si1 0.638083 0.060145 0.488840
Si Si2 0.938914 0.435787 0.329495
Si Si3 0.250486 0.564169 0.743041
Si Si4 0.241238 0.063993 0.930951
Si Si5 0.860932 0.938481 0.675611
Si Si6 0.561322 0.936476 0.834462
Si Si7 0.125082 0.564912 0.988140
Si Si8 0.372380 0.562643 0.677101
O O1 0.637943 0.250000 0.488171
O O2 0.701345 0.013919 0.473245
O O3 0.600000 0.007328 0.411624
O O4 0.617924 0.010175 0.581029
O O5 0.940628 0.250000 0.325889
O O6 0.898817 0.489534 0.253796
O O7 0.913054 0.486133 0.418417
O O8 0.000000 0.500000 0.319388
O O9 0.248060 0.750000 0.756959
O O10 0.245393 0.477148 0.832212
O O11 0.199185 0.512030 0.686596
O O12 0.309157 0.527222 0.701446
O O13 0.234923 0.250000 0.941142
O O14 0.187969 0.980822 0.968178
O O15 0.855561 0.750000 0.678466
O O16 0.885990 0.980910 0.584920
O O17 0.560146 0.750000 0.837151
O O18 0.500000 0.000000 0.843065
O O19 0.588238 0.989263 0.746665
O O20 0.118595 0.750000 0.980509
O O21 0.378729 0.750000 0.680443
#
# Coordination Sequence:
#
# PCOD9361410 Si02
#       8
#     8   8   8   8   8   8   8   8
#     4   9  20  38  61  86 119 157 195 238 293 355
#     4  11  24  43  64  87 118 161 203 252 303 352
#     4  11  21  34  60  93 125 159 198 243 296 355
#     4  11  20  36  61  89 124 163 197 240 300 360
#     4  10  23  41  62  89 125 161 199 245 299 359
#     4  11  23  41  61  84 114 154 199 246 297 349
#     4  11  23  40  62  93 125 158 200 249 298 357
#     4  10  21  39  61  89 121 154 195 242 292 353
#
# _framework density 19.344207000000001
#
# number of rings (size 3 to 8) (size 9 to 14) (size 15 to 20)
#    0.000    1.500    2.500    2.625    0.000    4.000 
#    0.000    5.000    0.000    0.000    0.000    0.000 
#    0.000    0.000    0.000    0.000    0.000    0.000 
#
# Total GULP energy -178865.210496 kJ/mol
# GULP energy per Si atom -5589.537828 kJ/mol
# Density = 1.930018 g / cm^3
# Si number density = 19.344207 Si / 1000 Ang^3
#
#
#
# Elastic Constant Matrix: (Units=GPa)
#
#
# Indices 1 2 3 4 5 6 
#
# 1 73.6483 9.5884 -2.6511 0.0000 0.0000 0.0000
# 2 9.5884 20.0540 7.5047 0.0000 0.0000 0.0000
# 3 -2.6511 7.5047 82.7759 0.0000 0.0000 0.0000
# 4 0.0000 0.0000 0.0000 21.4664 0.0000 0.0000
# 5 0.0000 0.0000 0.0000 0.0000 2.6758 0.0000
# 6 0.0000 0.0000 0.0000 0.0000 0.0000 22.3544
#
#
#
# Elastic Compliance Matrix: (Units=1/GPa)
#
#
# Indices 1 2 3 4 5 6 
#
# 1 0.014582 -0.007398 0.001138 0.000000 0.000000 0.000000
# 2 -0.007398 0.055370 -0.005257 0.000000 0.000000 0.000000
# 3 0.001138 -0.005257 0.012594 0.000000 0.000000 0.000000
# 4 0.000000 0.000000 0.000000 0.046584 0.000000 0.000000
# 5 0.000000 0.000000 0.000000 0.000000 0.373725 0.000000
# 6 0.000000 0.000000 0.000000 0.000000 0.000000 0.044734
#
#
# Mechanical properties :
#
#
# Convention : Reuss Voigt Hill
#
# Bulk Modulus (GPa) = 16.80342 22.81802 19.81072
# Shear Modulus (GPa) = 8.46796 20.10172 14.28484
#
# Velocity S-wave (km/s) = 2.09452 3.22710 2.72040
# Velocity P-wave (km/s) = 3.81507 5.07020 4.48674
#
# Compressibility (1/GPa) = 0.05951169
#
# Stress axis : x y z
#
# Youngs Moduli (GPa) = 68.57697 18.06034 79.40371
#
# Poissons Ratio (x) = 0.13361 -0.09034
# Poissons Ratio (y) = 0.50733 0.41742
# Poissons Ratio (z) = -0.07802 0.09494
#
# Static dielectric constant tensor:
#      x y z
#    x 1.642490 0.000000 0.000000 
#    y 0.000000 1.659000 0.000000 
#    z 0.000000 0.000000 1.679980 
# 
# From -- ./inp_files/10593.got.cif
#   From: 2010.05.17/outbox.cif.g08.bks.cpg/sg39_6_cif.got.tgz:10593.got - 2010.06.03 18:22:40.
