data_PCOD9361972
_publ_section_title
;
Structure prediction by ZEFSAII (Michael W. Deem and Ramdas Pophale) SiO2 
 PCOD9361972
Probable space group: A B M 2
;
_chemical_formula_sum "Si O2"
_cell_formula_units_Z 40
_cell_length_a 10.016908
_cell_length_b 18.784114
_cell_length_c 9.499537
_cell_angle_alpha 90.000000
_cell_angle_beta 90.000000
_cell_angle_gamma 90.000000
_cell_volume 1787.420930
_symmetry_space_group_name_H-M "A B M 2"
_symmetry_group_IT_number 39
_symmetry_cell_setting 'orthorhombic'
loop_
_space_group_symop_operation_xyz
x,y,z
-x,-y,z
-x,1/2+y,z
x,1/2-y,z
x,1/2+y,1/2+z
-x,1/2-y,1/2+z
-x,y,1/2+z
x,-y,1/2+z
loop_
_atom_site_type_symbol
_atom_site_label
_atom_site_fract_x
_atom_site_fract_y
_atom_site_fract_z
Si Si1 0.500000 0.500000 0.140471
Si Si2 0.631552 0.587481 0.888628
Si Si3 0.744992 0.750000 0.299690
Si Si4 0.935101 0.066361 0.392947
Si Si5 0.815790 0.250000 0.129505
Si Si6 0.572474 0.250000 0.334749
Si Si7 0.948114 0.854810 0.164132
O O1 0.445850 0.559372 0.250060
O O2 0.591454 0.544447 0.030164
O O3 0.781690 0.562792 0.856103
O O4 0.606549 0.672869 0.906449
O O5 0.793037 0.750000 0.462316
O O6 0.585021 0.750000 0.297803
O O7 0.818206 0.815116 0.221501
O O8 0.938987 0.132025 0.499959
O O9 0.032447 0.077836 0.262475
O O10 0.000000 0.000000 0.472115
O O11 0.672363 0.250000 0.201604
O O12 0.910618 0.185773 0.179653
#
# Coordination Sequence:
#
# PCOD9361972 Si02
#       7
#     4   8   4   8   4   4   8
#     4  10  28  54  70 108 160 210 242 326 390 476
#     4  11  28  49  79 109 157 200 263 314 392 465
#     4  11  27  44  77 106 149 196 244 313 394 443
#     4  12  27  44  76 106 143 198 255 312 375 456
#     4  11  23  48  69 105 151 188 233 321 383 436
#     4  12  28  44  80 115 150 202 261 322 383 463
#     4  11  25  47  71 108 148 187 246 311 376 451
#
# _framework density 22.378613000000001
#
# number of rings (size 3 to 8) (size 9 to 14) (size 15 to 20)
#    0.000    0.800    4.000    0.600   11.200    3.200 
#    0.000    0.000    0.000    0.000    0.000    0.000 
#    0.000    0.000    0.000    0.000    0.000    0.000 
#
# Total GULP energy -111567.372598 kJ/mol
# GULP energy per Si atom -5578.368630 kJ/mol
# Density = 2.232768 g / cm^3
# Si number density = 22.378613 Si / 1000 Ang^3
#
#
#
# Elastic Constant Matrix: (Units=GPa)
#
#
# Indices 1 2 3 4 5 6 
#
# 1 129.4884 22.8338 9.3725 0.0000 0.0000 0.0000
# 2 22.8338 92.9795 9.2343 0.0000 0.0000 0.0000
# 3 9.3725 9.2343 98.2232 0.0000 0.0000 0.0000
# 4 0.0000 0.0000 0.0000 21.5429 0.0000 0.0000
# 5 0.0000 0.0000 0.0000 0.0000 23.7538 0.0000
# 6 0.0000 0.0000 0.0000 0.0000 0.0000 2.6312
#
#
#
# Elastic Compliance Matrix: (Units=1/GPa)
#
#
# Indices 1 2 3 4 5 6 
#
# 1 0.008106 -0.001932 -0.000592 0.000000 0.000000 0.000000
# 2 -0.001932 0.011317 -0.000880 0.000000 0.000000 0.000000
# 3 -0.000592 -0.000880 0.010320 0.000000 0.000000 0.000000
# 4 0.000000 0.000000 0.000000 0.046419 0.000000 0.000000
# 5 0.000000 0.000000 0.000000 0.000000 0.042099 0.000000
# 6 0.000000 0.000000 0.000000 0.000000 0.000000 0.380059
#
#
# Mechanical properties :
#
#
# Convention : Reuss Voigt Hill
#
# Bulk Modulus (GPa) = 43.59892 44.84137 44.22014
# Shear Modulus (GPa) = 9.75092 28.20227 18.97660
#
# Velocity S-wave (km/s) = 2.08967 3.55383 2.91517
# Velocity P-wave (km/s) = 5.03458 6.07624 5.57977
#
# Compressibility (1/GPa) = 0.02293635
#
# Stress axis : x y z
#
# Youngs Moduli (GPa) = 123.36216 88.36378 96.89864
#
# Poissons Ratio (x) = 0.17071 0.05735
# Poissons Ratio (y) = 0.23833 0.08523
# Poissons Ratio (z) = 0.07301 0.07772
#
# Static dielectric constant tensor:
#      x y z
#    x 1.811010 0.000000 0.000000 
#    y 0.000000 1.900820 0.000000 
#    z 0.000000 0.000000 1.762270 
# 
# From -- ./inp_files/2156.got.cif
#   From: 2010.05.17/outbox.cif.g08.bks.cpg/sg39_2_cif.got.tgz:2156.got - 2010.06.03 18:22:40.
