data_PCOD9361940
_publ_section_title
;
Structure prediction by ZEFSAII (Michael W. Deem and Ramdas Pophale) SiO2 
 PCOD9361940
Probable space group: A B M 2
;
_chemical_formula_sum "Si O2"
_cell_formula_units_Z 40
_cell_length_a 5.015960
_cell_length_b 29.207787
_cell_length_c 9.737711
_cell_angle_alpha 90.000000
_cell_angle_beta 90.000000
_cell_angle_gamma 90.000000
_cell_volume 1426.624239
_symmetry_space_group_name_H-M "A B M 2"
_symmetry_group_IT_number 39
_symmetry_cell_setting 'orthorhombic'
loop_
_space_group_symop_operation_xyz
x,y,z
-x,-y,z
-x,1/2+y,z
x,1/2-y,z
x,1/2+y,1/2+z
-x,1/2-y,1/2+z
-x,y,1/2+z
x,-y,1/2+z
loop_
_atom_site_type_symbol
_atom_site_label
_atom_site_fract_x
_atom_site_fract_y
_atom_site_fract_z
Si Si1 0.278574 0.124612 0.716210
Si Si2 0.941072 0.550337 0.064735
Si Si3 0.005513 0.801884 0.404339
Si Si4 0.650540 0.198976 0.658129
Si Si5 0.562987 0.950633 0.382264
O O1 0.051811 0.093273 0.648510
O O2 0.160099 0.156799 0.833717
O O3 0.485870 0.089878 0.783915
O O4 0.447405 0.158948 0.620616
O O5 0.135430 0.550961 0.931939
O O6 0.000000 0.500000 0.127807
O O7 0.639667 0.552628 0.011727
O O8 0.098002 0.750000 0.367653
O O9 0.082050 0.805177 0.565168
O O10 0.727386 0.804222 0.319801
O O11 0.541623 0.250000 0.631011
O O12 0.500000 0.000000 0.319210
#
# Coordination Sequence:
#
# PCOD9361940 Si02
#       5
#     8   8   8   8   8
#     4  12  25  40  78 106 149 201 271 322 401 477
#     4  10  25  46  68 104 150 199 251 320 392 464
#     4  10  24  45  72 107 153 200 257 328 402 479
#     4  10  24  47  73 113 159 207 260 331 405 483
#     4  10  25  46  69 102 151 199 254 321 390 463
#
# _framework density 28.038215000000001
#
# number of rings (size 3 to 8) (size 9 to 14) (size 15 to 20)
#    0.000    1.600    0.000    1.800    8.400    6.400 
#    0.000    4.000    0.000    0.000    0.000    0.000 
#    0.000    0.000    0.000    0.000    0.000    0.000 
#
# Total GULP energy -112162.749495 kJ/mol
# GULP energy per Si atom -5608.137475 kJ/mol
# Density = 2.797440 g / cm^3
# Si number density = 28.038215 Si / 1000 Ang^3
#
#
#
# Elastic Constant Matrix: (Units=GPa)
#
#
# Indices 1 2 3 4 5 6 
#
# 1 92.8313 45.0093 28.2863 0.0000 0.0000 0.0000
# 2 45.0093 234.5144 52.5919 0.0000 0.0000 0.0000
# 3 28.2863 52.5919 98.3425 0.0000 0.0000 0.0000
# 4 0.0000 0.0000 0.0000 35.8661 0.0000 0.0000
# 5 0.0000 0.0000 0.0000 0.0000 45.6658 0.0000
# 6 0.0000 0.0000 0.0000 0.0000 0.0000 49.6853
#
#
#
# Elastic Compliance Matrix: (Units=1/GPa)
#
#
# Indices 1 2 3 4 5 6 
#
# 1 0.012443 -0.001802 -0.002615 0.000000 0.000000 0.000000
# 2 -0.001802 0.005106 -0.002212 0.000000 0.000000 0.000000
# 3 -0.002615 -0.002212 0.012104 0.000000 0.000000 0.000000
# 4 0.000000 0.000000 0.000000 0.027881 0.000000 0.000000
# 5 0.000000 0.000000 0.000000 0.000000 0.021898 0.000000
# 6 0.000000 0.000000 0.000000 0.000000 0.000000 0.020127
#
#
# Mechanical properties :
#
#
# Convention : Reuss Voigt Hill
#
# Bulk Modulus (GPa) = 60.99855 75.27368 68.13612
# Shear Modulus (GPa) = 42.27165 46.23016 44.25090
#
# Velocity S-wave (km/s) = 3.88705 4.06498 3.97701
# Velocity P-wave (km/s) = 6.47675 6.99551 6.74112
#
# Compressibility (1/GPa) = 0.01639383
#
# Stress axis : x y z
#
# Youngs Moduli (GPa) = 80.36881 195.84603 82.61723
#
# Poissons Ratio (x) = 0.35282 0.21608
# Poissons Ratio (y) = 0.14479 0.18279
# Poissons Ratio (z) = 0.21020 0.43330
#
# Static dielectric constant tensor:
#      x y z
#    x 2.150790 0.000000 0.000000 
#    y 0.000000 2.114980 0.000000 
#    z 0.000000 0.000000 2.179910 
# 
# From -- ./inp_files/4605.got.cif
#   From: 2010.05.17/outbox.cif.g08.bks.cpg/sg39_3_cif.got.tgz:4605.got - 2010.06.03 18:22:40.
