data_PCOD9361193
_publ_section_title
;
Structure prediction by ZEFSAII (Michael W. Deem and Ramdas Pophale) SiO2 
 PCOD9361193
Probable space group: A B M 2
;
_chemical_formula_sum "Si O2"
_cell_formula_units_Z 64
_cell_length_a 10.823755
_cell_length_b 24.014293
_cell_length_c 13.672564
_cell_angle_alpha 90.000000
_cell_angle_beta 90.000000
_cell_angle_gamma 90.000000
_cell_volume 3553.838790
_symmetry_space_group_name_H-M "A B M 2"
_symmetry_group_IT_number 39
_symmetry_cell_setting 'orthorhombic'
loop_
_space_group_symop_operation_xyz
x,y,z
-x,-y,z
-x,1/2+y,z
x,1/2-y,z
x,1/2+y,1/2+z
-x,1/2-y,1/2+z
-x,y,1/2+z
x,-y,1/2+z
loop_
_atom_site_type_symbol
_atom_site_label
_atom_site_fract_x
_atom_site_fract_y
_atom_site_fract_z
Si Si1 0.843915 0.047639 0.053390
Si Si2 0.264838 0.186271 0.089832
Si Si3 0.615521 0.965176 0.820392
Si Si4 0.532709 0.314919 0.755683
Si Si5 0.868202 0.967656 0.327661
Si Si6 0.445058 0.132501 0.947764
Si Si7 0.882300 0.424085 0.621237
Si Si8 0.398107 0.601121 0.131983
O O1 0.738138 0.085543 0.098782
O O2 0.974761 0.066272 0.096424
O O3 0.822041 0.981775 0.078897
O O4 0.852379 0.054362 0.937020
O O5 0.216754 0.250000 0.090451
O O6 0.345266 0.177348 0.189214
O O7 0.171976 0.133991 0.082629
O O8 0.360647 0.178525 0.999986
O O9 0.635964 0.913130 0.891707
O O10 0.568370 0.943589 0.715153
O O11 0.500000 0.000000 0.861982
O O12 0.745667 0.995498 0.809952
O O13 0.513017 0.250000 0.769055
O O14 0.532282 0.343639 0.861875
O O15 0.423255 0.341664 0.690194
O O16 0.868625 0.924955 0.238286
O O17 0.000000 0.000000 0.323395
O O18 0.518607 0.103238 0.035644
#
# Coordination Sequence:
#
# PCOD9361193 Si02
#       8
#     8   8   8   8   8   8   8   8
#     4  11  22  38  60  89 117 156 198 242 303 369
#     4  10  22  39  60  83 114 156 198 243 293 354
#     4  11  23  34  54  89 127 152 194 250 303 358
#     4   9  20  38  58  84 115 155 200 244 301 359
#     4  12  22  37  59  84 121 162 196 233 300 377
#     4  10  21  34  59  85 114 155 194 248 300 350
#     4  11  22  38  60  83 119 156 197 244 292 365
#     4  10  21  36  57  85 120 153 194 244 307 357
#
# _framework density 18.008696
#
# number of rings (size 3 to 8) (size 9 to 14) (size 15 to 20)
#    0.000    1.500    3.750    1.875    7.000    2.000 
#    0.000    0.625    0.000    0.750    0.000    0.000 
#    0.000    0.000    0.000    0.000    0.000    0.000 
#
# Total GULP energy -178374.127169 kJ/mol
# GULP energy per Si atom -5574.191474 kJ/mol
# Density = 1.796771 g / cm^3
# Si number density = 18.008696 Si / 1000 Ang^3
#
#
#
# Elastic Constant Matrix: (Units=GPa)
#
#
# Indices 1 2 3 4 5 6 
#
# 1 53.4951 46.3068 6.1295 0.0000 0.0000 0.0000
# 2 46.3068 81.1320 30.1363 0.0000 0.0000 0.0000
# 3 6.1295 30.1363 120.9090 0.0000 0.0000 0.0000
# 4 0.0000 0.0000 0.0000 7.3699 0.0000 0.0000
# 5 0.0000 0.0000 0.0000 0.0000 25.8028 0.0000
# 6 0.0000 0.0000 0.0000 0.0000 0.0000 24.5271
#
#
#
# Elastic Compliance Matrix: (Units=1/GPa)
#
#
# Indices 1 2 3 4 5 6 
#
# 1 0.038539 -0.023441 0.003889 0.000000 0.000000 0.000000
# 2 -0.023441 0.027841 -0.005751 0.000000 0.000000 0.000000
# 3 0.003889 -0.005751 0.009507 0.000000 0.000000 0.000000
# 4 0.000000 0.000000 0.000000 0.135687 0.000000 0.000000
# 5 0.000000 0.000000 0.000000 0.000000 0.038755 0.000000
# 6 0.000000 0.000000 0.000000 0.000000 0.000000 0.040771
#
#
# Mechanical properties :
#
#
# Convention : Reuss Voigt Hill
#
# Bulk Modulus (GPa) = 39.55590 46.74237 43.14913
# Shear Modulus (GPa) = 14.28031 23.07086 18.67559
#
# Velocity S-wave (km/s) = 2.81902 3.58312 3.22379
# Velocity P-wave (km/s) = 5.71038 6.56735 6.15380
#
# Compressibility (1/GPa) = 0.02528068
#
# Stress axis : x y z
#
# Youngs Moduli (GPa) = 25.94797 35.91856 105.18626
#
# Poissons Ratio (x) = 0.84196 -0.40905
# Poissons Ratio (y) = 0.60824 0.60492
# Poissons Ratio (z) = -0.10091 0.20656
#
# Static dielectric constant tensor:
#      x y z
#    x 1.607810 0.000000 0.000000 
#    y 0.000000 1.627580 0.000000 
#    z 0.000000 0.000000 1.638330 
# 
# From -- ./inp_files/6068.got.cif
#   From: 2010.05.17/outbox.cif.g08.bks.cpg/sg39_4_cif.got.tgz:6068.got - 2010.06.03 18:22:40.
