data_PCOD9361638
_publ_section_title
;
Structure prediction by ZEFSAII (Michael W. Deem and Ramdas Pophale) SiO2 
 PCOD9361638
Probable space group: A B M 2
;
_chemical_formula_sum "Si O2"
_cell_formula_units_Z 48
_cell_length_a 8.737498
_cell_length_b 27.968560
_cell_length_c 8.435649
_cell_angle_alpha 90.000000
_cell_angle_beta 90.000000
_cell_angle_gamma 90.000000
_cell_volume 2061.463724
_symmetry_space_group_name_H-M "A B M 2"
_symmetry_group_IT_number 39
_symmetry_cell_setting 'orthorhombic'
loop_
_space_group_symop_operation_xyz
x,y,z
-x,-y,z
-x,1/2+y,z
x,1/2-y,z
x,1/2+y,1/2+z
-x,1/2-y,1/2+z
-x,y,1/2+z
x,-y,1/2+z
loop_
_atom_site_type_symbol
_atom_site_label
_atom_site_fract_x
_atom_site_fract_y
_atom_site_fract_z
Si Si1 0.540493 0.075299 0.802270
Si Si2 0.952205 0.899767 0.798422
Si Si3 0.620471 0.750000 0.629764
Si Si4 0.000000 0.500000 0.464949
Si Si5 0.728777 0.455168 0.102541
Si Si6 0.227685 0.630900 0.607326
Si Si7 0.552274 0.319103 0.418433
O O1 0.397135 0.044646 0.740772
O O2 0.655121 0.089121 0.659375
O O3 0.485467 0.127246 0.864417
O O4 0.635450 0.052366 0.943020
O O5 0.839084 0.910905 0.651470
O O6 0.001041 0.952221 0.861189
O O7 0.096812 0.869465 0.740650
O O8 0.858639 0.878256 0.942816
O O9 0.591388 0.708542 0.491754
O O10 0.623660 0.791174 0.771123
O O11 0.152887 0.497843 0.571047
O O12 0.330098 0.677047 0.567949
#
# Coordination Sequence:
#
# PCOD9361638 Si02
#       7
#     8   8   4   4   8   8   8
#     4  12  22  43  74 106 137 184 253 305 341 436
#     4  12  25  44  68  99 141 200 242 294 367 434
#     4  10  22  38  68 112 142 176 206 296 372 408
#     4  12  26  44  70  94 150 186 250 298 374 426
#     4  12  24  45  72 102 140 190 251 305 368 420
#     4  12  23  43  70 103 141 189 250 286 354 445
#     4  11  21  40  71 109 143 169 230 292 354 435
#
# _framework density 23.284427000000001
#
# number of rings (size 3 to 8) (size 9 to 14) (size 15 to 20)
#    0.000    0.333    8.333    0.500    0.000    0.000 
#    0.000    6.667    0.000    4.000    0.000    0.000 
#    0.000    0.000    0.000    0.000    0.000    0.000 
#
# Total GULP energy -133711.164450 kJ/mol
# GULP energy per Si atom -5571.298519 kJ/mol
# Density = 2.323143 g / cm^3
# Si number density = 23.284427 Si / 1000 Ang^3
#
#
#
# Elastic Constant Matrix: (Units=GPa)
#
#
# Indices 1 2 3 4 5 6 
#
# 1 120.0833 30.1763 44.3657 0.0000 0.0000 0.0000
# 2 30.1763 73.6077 33.4747 0.0000 0.0000 0.0000
# 3 44.3657 33.4747 111.6708 0.0000 0.0000 0.0000
# 4 0.0000 0.0000 0.0000 32.3946 0.0000 0.0000
# 5 0.0000 0.0000 0.0000 0.0000 66.2776 0.0000
# 6 0.0000 0.0000 0.0000 0.0000 0.0000 -22.6445
#
#
#
# Elastic Compliance Matrix: (Units=1/GPa)
#
#
# Indices 1 2 3 4 5 6 
#
# 1 0.010207 -0.002710 -0.003243 0.000000 0.000000 0.000000
# 2 -0.002710 0.016449 -0.003854 0.000000 0.000000 0.000000
# 3 -0.003243 -0.003854 0.011399 0.000000 0.000000 0.000000
# 4 0.000000 0.000000 0.000000 0.030869 0.000000 0.000000
# 5 0.000000 0.000000 0.000000 0.000000 0.015088 0.000000
# 6 0.000000 0.000000 0.000000 0.000000 0.000000 -0.044161
#
#
# Mechanical properties :
#
#
# Convention : Reuss Voigt Hill
#
# Bulk Modulus (GPa) = 54.22704 57.93280 56.07992
# Shear Modulus (GPa) = 76.20654 28.36187 52.28420
#
# Velocity S-wave (km/s) = 5.72709 3.49386 4.74377
# Velocity P-wave (km/s) = 8.18977 6.41955 7.35809
#
# Compressibility (1/GPa) = 0.01844099
#
# Stress axis : x y z
#
# Youngs Moduli (GPa) = 97.97675 60.79319 87.73017
#
# Poissons Ratio (x) = 0.16472 0.28448
# Poissons Ratio (y) = 0.26548 0.33814
# Poissons Ratio (z) = 0.31771 0.23432
#
# Static dielectric constant tensor:
#      x y z
#    x 1.963630 0.000000 0.000000 
#    y 0.000000 1.869010 0.000000 
#    z 0.000000 0.000000 1.926890 
# 
# From -- ./inp_files/2340.got.cif
#   From: 2010.05.17/outbox.cif.g08.bks.cpg/sg39_2_cif.got.tgz:2340.got - 2010.06.03 18:22:40.
