data_PCOD9361356
_publ_section_title
;
Structure prediction by ZEFSAII (Michael W. Deem and Ramdas Pophale) SiO2 
 PCOD9361356
Probable space group: A B M 2
;
_chemical_formula_sum "Si O2"
_cell_formula_units_Z 64
_cell_length_a 13.468747
_cell_length_b 16.405247
_cell_length_c 14.044254
_cell_angle_alpha 90.000000
_cell_angle_beta 90.000000
_cell_angle_gamma 90.000000
_cell_volume 3103.191979
_symmetry_space_group_name_H-M "A B M 2"
_symmetry_group_IT_number 39
_symmetry_cell_setting 'orthorhombic'
loop_
_space_group_symop_operation_xyz
x,y,z
-x,-y,z
-x,1/2+y,z
x,1/2-y,z
x,1/2+y,1/2+z
-x,1/2-y,1/2+z
-x,y,1/2+z
x,-y,1/2+z
loop_
_atom_site_type_symbol
_atom_site_label
_atom_site_fract_x
_atom_site_fract_y
_atom_site_fract_z
Si Si1 0.114670 0.021503 0.307530
Si Si2 0.533045 0.408234 0.908290
Si Si3 0.933261 0.844894 0.452660
Si Si4 0.650536 0.846293 0.590476
Si Si5 0.159671 0.459100 0.602084
Si Si6 0.554708 0.846211 0.203424
Si Si7 0.157606 0.897723 0.447420
Si Si8 0.641754 0.839729 0.014657
O O1 0.124153 0.105800 0.367225
O O2 0.128412 0.008552 0.196050
O O3 0.179101 0.948371 0.351938
O O4 0.000000 0.000000 0.329499
O O5 0.500000 0.500000 0.927899
O O6 0.568252 0.394454 0.801237
O O7 0.609501 0.373972 0.986626
O O8 0.429525 0.363407 0.929135
O O9 0.905571 0.750000 0.454022
O O10 0.910641 0.890430 0.552793
O O11 0.051993 0.853881 0.438872
O O12 0.679664 0.750000 0.588257
O O13 0.738446 0.908799 0.615365
O O14 0.557323 0.853352 0.662485
O O15 0.158156 0.529221 0.523204
O O16 0.573811 0.750000 0.226161
O O17 0.621758 0.882419 0.116489
O O18 0.246905 0.842187 0.480215
O O19 0.607775 0.750000 0.040479
#
# Coordination Sequence:
#
# PCOD9361356 Si02
#       8
#     8   8   8   8   8   8   8   8
#     4   9  20  39  62  90 125 163 203 260 320 377
#     4  11  22  37  61  87 121 164 208 261 327 384
#     4  10  21  41  66  93 129 168 210 261 324 391
#     4  10  22  40  61  90 124 163 216 267 317 387
#     4  11  21  39  64  90 128 168 211 258 319 387
#     4   9  20  39  60  84 120 162 205 263 321 375
#     4  10  21  38  61  92 126 163 207 261 319 384
#     4  10  21  39  59  86 120 157 208 263 315 376
#
# _framework density 20.623923999999999
#
# number of rings (size 3 to 8) (size 9 to 14) (size 15 to 20)
#    0.000    2.000    0.000    5.250    1.750    3.000 
#    4.500    9.375    0.000    0.000    0.000    0.000 
#    0.000    0.000    0.000    0.000    0.000    0.000 
#
# Total GULP energy -178276.829140 kJ/mol
# GULP energy per Si atom -5571.150911 kJ/mol
# Density = 2.057698 g / cm^3
# Si number density = 20.623924 Si / 1000 Ang^3
#
#
#
# Elastic Constant Matrix: (Units=GPa)
#
#
# Indices 1 2 3 4 5 6 
#
# 1 49.0677 7.9701 -1.2289 0.0000 0.0000 0.0000
# 2 7.9701 70.4277 -4.4399 0.0000 0.0000 0.0000
# 3 -1.2289 -4.4399 71.7496 0.0000 0.0000 0.0000
# 4 0.0000 0.0000 0.0000 21.0340 0.0000 0.0000
# 5 0.0000 0.0000 0.0000 0.0000 4.2165 0.0000
# 6 0.0000 0.0000 0.0000 0.0000 0.0000 16.5824
#
#
#
# Elastic Compliance Matrix: (Units=1/GPa)
#
#
# Indices 1 2 3 4 5 6 
#
# 1 0.020765 -0.002337 0.000211 0.000000 0.000000 0.000000
# 2 -0.002337 0.014518 0.000858 0.000000 0.000000 0.000000
# 3 0.000211 0.000858 0.013994 0.000000 0.000000 0.000000
# 4 0.000000 0.000000 0.000000 0.047542 0.000000 0.000000
# 5 0.000000 0.000000 0.000000 0.000000 0.237165 0.000000
# 6 0.000000 0.000000 0.000000 0.000000 0.000000 0.060305
#
#
# Mechanical properties :
#
#
# Convention : Reuss Voigt Hill
#
# Bulk Modulus (GPa) = 21.39403 21.76084 21.57743
# Shear Modulus (GPa) = 12.12406 20.96283 16.54345
#
# Velocity S-wave (km/s) = 2.42722 3.19161 2.83530
# Velocity P-wave (km/s) = 4.27213 4.91488 4.60473
#
# Compressibility (1/GPa) = 0.04674202
#
# Stress axis : x y z
#
# Youngs Moduli (GPa) = 48.15841 68.88237 71.45878
#
# Poissons Ratio (x) = 0.16095 -0.01508
# Poissons Ratio (y) = 0.11253 -0.06134
# Poissons Ratio (z) = -0.01016 -0.05912
#
# Static dielectric constant tensor:
#      x y z
#    x 1.810710 0.000000 0.000000 
#    y 0.000000 1.725460 0.000000 
#    z 0.000000 0.000000 1.781800 
# 
# From -- ./inp_files/6610.got.cif
#   From: 2010.05.17/outbox.cif.g08.bks.cpg/sg39_4_cif.got.tgz:6610.got - 2010.06.03 18:22:40.
