data_PCOD9361637
_publ_section_title
;
Structure prediction by ZEFSAII (Michael W. Deem and Ramdas Pophale) SiO2 
 PCOD9361637
Probable space group: A B M 2
;
_chemical_formula_sum "Si O2"
_cell_formula_units_Z 60
_cell_length_a 12.507767
_cell_length_b 19.032095
_cell_length_c 12.326429
_cell_angle_alpha 90.000000
_cell_angle_beta 90.000000
_cell_angle_gamma 90.000000
_cell_volume 2934.294218
_symmetry_space_group_name_H-M "A B M 2"
_symmetry_group_IT_number 39
_symmetry_cell_setting 'orthorhombic'
loop_
_space_group_symop_operation_xyz
x,y,z
-x,-y,z
-x,1/2+y,z
x,1/2-y,z
x,1/2+y,1/2+z
-x,1/2-y,1/2+z
-x,y,1/2+z
x,-y,1/2+z
loop_
_atom_site_type_symbol
_atom_site_label
_atom_site_fract_x
_atom_site_fract_y
_atom_site_fract_z
Si Si1 0.687390 0.383972 0.855080
Si Si2 0.460101 0.250000 0.333958
Si Si3 0.925158 0.067849 0.353350
Si Si4 0.435540 0.073183 0.572398
Si Si5 0.901344 0.831819 0.278395
Si Si6 0.608248 0.859117 0.955306
Si Si7 0.845012 0.828218 0.029045
Si Si8 0.684754 0.965284 0.785267
O O1 0.629322 0.312921 0.818979
O O2 0.813371 0.367359 0.856223
O O3 0.666164 0.451318 0.779191
O O4 0.642301 0.409197 0.971560
O O5 0.548784 0.310042 0.369960
O O6 0.902100 0.108809 0.465442
O O7 0.811200 0.048078 0.300487
O O8 0.989796 0.124685 0.283293
O O9 0.000000 0.000000 0.366399
O O10 0.528068 0.131515 0.556616
O O11 0.366992 0.071585 0.681357
O O12 0.500000 0.000000 0.566625
O O13 0.916247 0.750000 0.304879
O O14 0.855384 0.836958 0.157117
O O15 0.721638 0.831578 0.993868
O O16 0.629409 0.931951 0.891673
O O17 0.887145 0.750000 0.000782
#
# Coordination Sequence:
#
# PCOD9361637 Si02
#       8
#     8   4   8   8   8   8   8   8
#     4  11  23  44  63  99 131 169 220 277 326 399
#     4  10  22  38  66  92 134 172 210 272 328 390
#     4  11  24  44  69  99 134 172 225 289 334 385
#     4  11  25  38  66  95 132 179 213 273 328 392
#     4  11  24  44  71  97 131 179 223 274 341 396
#     4  10  22  43  63  97 136 175 222 272 333 393
#     4  10  23  44  69  97 131 180 224 269 332 411
#     4  11  25  43  67  97 136 175 231 274 333 400
#
# _framework density 20.447846999999999
#
# number of rings (size 3 to 8) (size 9 to 14) (size 15 to 20)
#    0.000    1.333    4.000    0.400    5.600    1.600 
#    0.000    2.667    0.000    0.000    0.000    0.000 
#    0.000    0.000    0.000    0.000    0.000    0.000 
#
# Total GULP energy -167018.297545 kJ/mol
# GULP energy per Si atom -5567.276585 kJ/mol
# Density = 2.040131 g / cm^3
# Si number density = 20.447847 Si / 1000 Ang^3
#
#
#
# Elastic Constant Matrix: (Units=GPa)
#
#
# Indices 1 2 3 4 5 6 
#
# 1 108.2933 44.2100 39.2296 0.0000 0.0000 0.0000
# 2 44.2100 136.0815 24.8079 0.0000 0.0000 0.0000
# 3 39.2296 24.8079 67.5653 0.0000 0.0000 0.0000
# 4 0.0000 0.0000 0.0000 16.9647 0.0000 0.0000
# 5 0.0000 0.0000 0.0000 0.0000 22.6658 0.0000
# 6 0.0000 0.0000 0.0000 0.0000 0.0000 27.5759
#
#
#
# Elastic Compliance Matrix: (Units=1/GPa)
#
#
# Indices 1 2 3 4 5 6 
#
# 1 0.012736 -0.002990 -0.006297 0.000000 0.000000 0.000000
# 2 -0.002990 0.008578 -0.001414 0.000000 0.000000 0.000000
# 3 -0.006297 -0.001414 0.018976 0.000000 0.000000 0.000000
# 4 0.000000 0.000000 0.000000 0.058946 0.000000 0.000000
# 5 0.000000 0.000000 0.000000 0.000000 0.044119 0.000000
# 6 0.000000 0.000000 0.000000 0.000000 0.000000 0.036264
#
#
# Mechanical properties :
#
#
# Convention : Reuss Voigt Hill
#
# Bulk Modulus (GPa) = 52.94179 58.71501 55.82840
# Shear Modulus (GPa) = 24.11801 27.02080 25.56941
#
# Velocity S-wave (km/s) = 3.43809 3.63912 3.54003
# Velocity P-wave (km/s) = 6.45817 6.81428 6.63862
#
# Compressibility (1/GPa) = 0.01888867
#
# Stress axis : x y z
#
# Youngs Moduli (GPa) = 78.51911 116.58405 52.69928
#
# Poissons Ratio (x) = 0.34855 0.33184
# Poissons Ratio (y) = 0.23474 0.07449
# Poissons Ratio (z) = 0.49443 0.16480
#
# Static dielectric constant tensor:
#      x y z
#    x 1.737940 0.000000 0.000000 
#    y 0.000000 1.755970 0.000000 
#    z 0.000000 0.000000 1.717800 
# 
# From -- ./inp_files/6017.got.cif
#   From: 2010.05.17/outbox.cif.g08.bks.cpg/sg39_4_cif.got.tgz:6017.got - 2010.06.03 18:22:40.
