data_PCOD9361465
_publ_section_title
;
Structure prediction by ZEFSAII (Michael W. Deem and Ramdas Pophale) SiO2 
 PCOD9361465
Probable space group: A B M 2
;
_chemical_formula_sum "Si O2"
_cell_formula_units_Z 40
_cell_length_a 12.680720
_cell_length_b 15.001103
_cell_length_c 10.189601
_cell_angle_alpha 90.000000
_cell_angle_beta 90.000000
_cell_angle_gamma 90.000000
_cell_volume 1938.314678
_symmetry_space_group_name_H-M "A B M 2"
_symmetry_group_IT_number 39
_symmetry_cell_setting 'orthorhombic'
loop_
_space_group_symop_operation_xyz
x,y,z
-x,-y,z
-x,1/2+y,z
x,1/2-y,z
x,1/2+y,1/2+z
-x,1/2-y,1/2+z
-x,y,1/2+z
x,-y,1/2+z
loop_
_atom_site_type_symbol
_atom_site_label
_atom_site_fract_x
_atom_site_fract_y
_atom_site_fract_z
Si Si1 0.750520 0.994168 0.856280
Si Si2 0.583072 0.651811 0.943684
Si Si3 0.885396 0.847724 0.455410
Si Si4 0.048836 0.404945 0.731594
Si Si5 0.431226 0.412254 0.223608
O O1 0.664726 0.928792 0.920025
O O2 0.839312 0.930661 0.795122
O O3 0.806940 0.067794 0.947225
O O4 0.686730 0.053784 0.751025
O O5 0.624673 0.750000 0.907773
O O6 0.481694 0.631027 0.853562
O O7 0.558556 0.648915 0.097337
O O8 0.835561 0.750000 0.435344
O O9 0.937503 0.850474 0.598814
O O10 0.972312 0.863288 0.341434
O O11 0.000000 0.500000 0.691745
O O12 0.500000 0.500000 0.194666
#
# Coordination Sequence:
#
# PCOD9361465 Si02
#       5
#     8   8   8   8   8
#     4  10  22  40  62  88 120 158 198 244 294 352
#     4  11  23  39  62  90 120 157 199 245 296 350
#     4  11  23  39  62  90 120 157 199 245 296 350
#     4  10  21  40  62  86 120 157 196 244 296 352
#     4  10  21  40  62  86 120 157 196 244 296 352
#
# _framework density 20.636482000000001
#
# number of rings (size 3 to 8) (size 9 to 14) (size 15 to 20)
#    0.000    1.600    0.000    6.000    0.000    6.400 
#    0.000    0.000    0.000    0.000    0.000    0.000 
#    0.000    0.000    0.000    0.000    0.000    0.000 
#
# Total GULP energy -111671.831361 kJ/mol
# GULP energy per Si atom -5583.591568 kJ/mol
# Density = 2.058951 g / cm^3
# Si number density = 20.636482 Si / 1000 Ang^3
#
#
#
# Elastic Constant Matrix: (Units=GPa)
#
#
# Indices 1 2 3 4 5 6 
#
# 1 40.0085 6.4324 -7.6541 0.0000 0.0000 0.0000
# 2 6.4324 115.9941 32.1989 0.0000 0.0000 0.0000
# 3 -7.6541 32.1989 49.4012 0.0000 0.0000 0.0000
# 4 0.0000 0.0000 0.0000 -79.5810 0.0000 0.0000
# 5 0.0000 0.0000 0.0000 0.0000 11.4908 0.0000
# 6 0.0000 0.0000 0.0000 0.0000 0.0000 9.6599
#
#
#
# Elastic Compliance Matrix: (Units=1/GPa)
#
#
# Indices 1 2 3 4 5 6 
#
# 1 0.026703 -0.003210 0.006229 0.000000 0.000000 0.000000
# 2 -0.003210 0.010911 -0.007609 0.000000 0.000000 0.000000
# 3 0.006229 -0.007609 0.026167 0.000000 0.000000 0.000000
# 4 0.000000 0.000000 0.000000 -0.012566 0.000000 0.000000
# 5 0.000000 0.000000 0.000000 0.000000 0.087026 0.000000
# 6 0.000000 0.000000 0.000000 0.000000 0.000000 0.103521
#
#
# Mechanical properties :
#
#
# Convention : Reuss Voigt Hill
#
# Bulk Modulus (GPa) = 18.31446 29.70646 24.01046
# Shear Modulus (GPa) = 18.57752 -0.05762 9.25995
#
# Velocity S-wave (km/s) = 3.00363 -0.16728 2.12059
# Velocity P-wave (km/s) = 4.57418 3.79329 4.20192
#
# Compressibility (1/GPa) = 0.05460165
#
# Stress axis : x y z
#
# Youngs Moduli (GPa) = 37.44954 91.64741 38.21582
#
# Poissons Ratio (x) = 0.29419 -0.23807
# Poissons Ratio (y) = 0.12021 0.29079
# Poissons Ratio (z) = -0.23329 0.69736
#
# Static dielectric constant tensor:
#      x y z
#    x 1.747240 0.000000 0.000000 
#    y 0.000000 1.806420 0.000000 
#    z 0.000000 0.000000 1.737210 
# 
# From -- ./inp_files/2542.got.cif
#   From: 2010.05.17/outbox.cif.g08.bks.cpg/sg39_2_cif.got.tgz:2542.got - 2010.06.03 18:22:40.
