data_PCOD9361504
_publ_section_title
;
Structure prediction by ZEFSAII (Michael W. Deem and Ramdas Pophale) SiO2 
 PCOD9361504
Probable space group: A B M 2
;
_chemical_formula_sum "Si O2"
_cell_formula_units_Z 48
_cell_length_a 8.813293
_cell_length_b 17.069557
_cell_length_c 15.649415
_cell_angle_alpha 90.000000
_cell_angle_beta 90.000000
_cell_angle_gamma 90.000000
_cell_volume 2354.282456
_symmetry_space_group_name_H-M "A B M 2"
_symmetry_group_IT_number 39
_symmetry_cell_setting 'orthorhombic'
loop_
_space_group_symop_operation_xyz
x,y,z
-x,-y,z
-x,1/2+y,z
x,1/2-y,z
x,1/2+y,1/2+z
-x,1/2-y,1/2+z
-x,y,1/2+z
x,-y,1/2+z
loop_
_atom_site_type_symbol
_atom_site_label
_atom_site_fract_x
_atom_site_fract_y
_atom_site_fract_z
Si Si1 0.314635 0.078777 0.542400
Si Si2 0.824886 0.159682 0.385582
Si Si3 0.325168 0.343798 0.713400
Si Si4 0.317927 0.658151 0.730465
Si Si5 0.116032 0.575629 0.870382
Si Si6 0.340739 0.398483 0.049853
O O1 0.256001 0.124290 0.625475
O O2 0.218667 0.073837 0.455794
O O3 0.481955 0.116205 0.528032
O O4 0.332350 0.989566 0.572795
O O5 0.779823 0.250000 0.392041
O O6 0.761743 0.126970 0.296578
O O7 0.755514 0.116375 0.465981
O O8 0.003177 0.148401 0.382944
O O9 0.316586 0.250000 0.709922
O O10 0.502704 0.363752 0.727831
O O11 0.302790 0.750000 0.756873
O O12 0.222292 0.599038 0.789948
O O13 0.278887 0.649952 0.630086
O O14 0.000000 0.500000 0.863104
#
# Coordination Sequence:
#
# PCOD9361504 Si02
#       6
#     8   8   8   8   8   8
#     4  10  22  40  64  95 123 162 213 263 319 369
#     4  11  23  41  62  91 129 170 206 254 317 385
#     4   9  21  41  67  94 123 162 215 267 316 371
#     4  10  22  42  66  94 123 165 217 268 316 369
#     4  12  25  41  59  94 132 171 207 258 318 391
#     4  10  21  40  67  93 123 161 212 268 313 372
#
# _framework density 20.388377999999999
#
# number of rings (size 3 to 8) (size 9 to 14) (size 15 to 20)
#    0.000    1.667    1.667    2.000    2.333    3.333 
#    0.000    1.667    0.000    0.000    0.000    0.000 
#    0.000    0.000    0.000    0.000    0.000    0.000 
#
# Total GULP energy -133846.288260 kJ/mol
# GULP energy per Si atom -5576.928677 kJ/mol
# Density = 2.034197 g / cm^3
# Si number density = 20.388378 Si / 1000 Ang^3
#
#
#
# Elastic Constant Matrix: (Units=GPa)
#
#
# Indices 1 2 3 4 5 6 
#
# 1 60.1189 22.9210 58.5037 0.0000 0.0000 0.0000
# 2 22.9210 55.7195 44.4174 0.0000 0.0000 0.0000
# 3 58.5037 44.4174 140.3916 0.0000 0.0000 0.0000
# 4 0.0000 0.0000 0.0000 32.8759 0.0000 0.0000
# 5 0.0000 0.0000 0.0000 0.0000 390.3977 0.0000
# 6 0.0000 0.0000 0.0000 0.0000 0.0000 17.6478
#
#
#
# Elastic Compliance Matrix: (Units=1/GPa)
#
#
# Indices 1 2 3 4 5 6 
#
# 1 0.028351 -0.003002 -0.010865 0.000000 0.000000 0.000000
# 2 -0.003002 0.024318 -0.006443 0.000000 0.000000 0.000000
# 3 -0.010865 -0.006443 0.013689 0.000000 0.000000 0.000000
# 4 0.000000 0.000000 0.000000 0.030417 0.000000 0.000000
# 5 0.000000 0.000000 0.000000 0.000000 0.002561 0.000000
# 6 0.000000 0.000000 0.000000 0.000000 0.000000 0.056664
#
#
# Mechanical properties :
#
#
# Convention : Reuss Voigt Hill
#
# Bulk Modulus (GPa) = 38.85131 56.43492 47.64311
# Shear Modulus (GPa) = 24.36661 96.87679 60.62170
#
# Velocity S-wave (km/s) = 3.46081 6.90064 5.45876
# Velocity P-wave (km/s) = 5.92170 9.55154 7.94665
#
# Compressibility (1/GPa) = 0.02573916
#
# Stress axis : x y z
#
# Youngs Moduli (GPa) = 35.27232 41.12214 73.05223
#
# Poissons Ratio (x) = 0.12343 0.79369
# Poissons Ratio (y) = 0.10587 0.47067
# Poissons Ratio (z) = 0.38322 0.26495
#
# Static dielectric constant tensor:
#      x y z
#    x 1.721230 0.000000 0.000000 
#    y 0.000000 1.742430 0.000000 
#    z 0.000000 0.000000 1.723250 
# 
# From -- ./inp_files/8367.got.cif
#   From: 2010.05.17/outbox.cif.g08.bks.cpg/sg39_5_cif.got.tgz:8367.got - 2010.06.03 18:22:40.
