data_PCOD9361788
_publ_section_title
;
Structure prediction by ZEFSAII (Michael W. Deem and Ramdas Pophale) SiO2 
 PCOD9361788
Probable space group: A B M 2
;
_chemical_formula_sum "Si O2"
_cell_formula_units_Z 32
_cell_length_a 13.237329
_cell_length_b 10.186592
_cell_length_c 9.424802
_cell_angle_alpha 90.000000
_cell_angle_beta 90.000000
_cell_angle_gamma 90.000000
_cell_volume 1270.871118
_symmetry_space_group_name_H-M "A B M 2"
_symmetry_group_IT_number 39
_symmetry_cell_setting 'orthorhombic'
loop_
_space_group_symop_operation_xyz
x,y,z
-x,-y,z
-x,1/2+y,z
x,1/2-y,z
x,1/2+y,1/2+z
-x,1/2-y,1/2+z
-x,y,1/2+z
x,-y,1/2+z
loop_
_atom_site_type_symbol
_atom_site_label
_atom_site_fract_x
_atom_site_fract_y
_atom_site_fract_z
Si Si1 0.928471 0.750000 0.281271
Si Si2 0.119419 0.972179 0.574088
Si Si3 0.708925 0.602986 0.885841
Si Si4 0.403680 0.903385 0.688905
Si Si5 0.871022 0.750000 0.607062
O O1 0.878677 0.625099 0.206352
O O2 0.918656 0.750000 0.447946
O O3 0.042018 0.750000 0.224220
O O4 0.176108 0.911146 0.441100
O O5 0.176865 0.107408 0.610508
O O6 0.000000 0.000000 0.547049
O O7 0.695327 0.750000 0.822279
O O8 0.645427 0.601398 0.033077
O O9 0.669972 0.479328 0.797192
O O10 0.423732 0.750000 0.730418
O O11 0.500000 0.000000 0.684947
#
# Coordination Sequence:
#
# PCOD9361788 Si02
#       5
#     4   8   8   8   4
#     4  10  22  44  62  90 137 183 238 290 341 397
#     4  10  23  42  65  98 142 190 231 284 338 401
#     4  11  25  46  71 105 142 185 235 287 350 425
#     4  11  26  48  76 104 139 175 228 296 361 428
#     4  10  24  40  66  92 133 187 240 290 339 401
#
# _framework density 25.179580000000001
#
# number of rings (size 3 to 8) (size 9 to 14) (size 15 to 20)
#    0.000    1.500    1.250    1.500    5.250   13.000 
#    0.000    0.000    0.000    0.000    0.000    0.000 
#    0.000    0.000    0.000    0.000    0.000    0.000 
#
# Total GULP energy -89608.979242 kJ/mol
# GULP energy per Si atom -5600.561203 kJ/mol
# Density = 2.512227 g / cm^3
# Si number density = 25.179580 Si / 1000 Ang^3
#
#
#
# Elastic Constant Matrix: (Units=GPa)
#
#
# Indices 1 2 3 4 5 6 
#
# 1 122.5334 53.1758 45.5986 0.0000 0.0000 0.0000
# 2 53.1758 263.6994 61.2582 0.0000 0.0000 0.0000
# 3 45.5986 61.2582 102.5846 0.0000 0.0000 0.0000
# 4 0.0000 0.0000 0.0000 57.4606 0.0000 0.0000
# 5 0.0000 0.0000 0.0000 0.0000 18.9762 0.0000
# 6 0.0000 0.0000 0.0000 0.0000 0.0000 36.3438
#
#
#
# Elastic Compliance Matrix: (Units=1/GPa)
#
#
# Indices 1 2 3 4 5 6 
#
# 1 0.010070 -0.001150 -0.003789 0.000000 0.000000 0.000000
# 2 -0.001150 0.004534 -0.002196 0.000000 0.000000 0.000000
# 3 -0.003789 -0.002196 0.012744 0.000000 0.000000 0.000000
# 4 0.000000 0.000000 0.000000 0.017403 0.000000 0.000000
# 5 0.000000 0.000000 0.000000 0.000000 0.052698 0.000000
# 6 0.000000 0.000000 0.000000 0.000000 0.000000 0.027515
#
#
# Mechanical properties :
#
#
# Convention : Reuss Voigt Hill
#
# Bulk Modulus (GPa) = 76.47257 89.87584 83.17421
# Shear Modulus (GPa) = 34.82001 44.47510 39.64756
#
# Velocity S-wave (km/s) = 3.72273 4.20732 3.97242
# Velocity P-wave (km/s) = 6.99393 7.70542 7.35828
#
# Compressibility (1/GPa) = 0.01307658
#
# Stress axis : x y z
#
# Youngs Moduli (GPa) = 99.30076 220.53604 78.46883
#
# Poissons Ratio (x) = 0.25372 0.29734
# Poissons Ratio (y) = 0.11424 0.17234
# Poissons Ratio (z) = 0.37628 0.48437
#
# Static dielectric constant tensor:
#      x y z
#    x 2.029140 0.000000 0.000000 
#    y 0.000000 2.028140 0.000000 
#    z 0.000000 0.000000 1.966220 
# 
# From -- ./inp_files/2989.got.cif
#   From: 2010.05.17/outbox.cif.g08.bks.cpg/sg39_2_cif.got.tgz:2989.got - 2010.06.03 18:22:40.
