data_PCOD9361369
_publ_section_title
;
Structure prediction by ZEFSAII (Michael W. Deem and Ramdas Pophale) SiO2 
 PCOD9361369
Probable space group: A B M 2
;
_chemical_formula_sum "Si O2"
_cell_formula_units_Z 60
_cell_length_a 8.798163
_cell_length_b 23.526999
_cell_length_c 13.005632
_cell_angle_alpha 90.000000
_cell_angle_beta 90.000000
_cell_angle_gamma 90.000000
_cell_volume 2692.092630
_symmetry_space_group_name_H-M "A B M 2"
_symmetry_group_IT_number 39
_symmetry_cell_setting 'orthorhombic'
loop_
_space_group_symop_operation_xyz
x,y,z
-x,-y,z
-x,1/2+y,z
x,1/2-y,z
x,1/2+y,1/2+z
-x,1/2-y,1/2+z
-x,y,1/2+z
x,-y,1/2+z
loop_
_atom_site_type_symbol
_atom_site_label
_atom_site_fract_x
_atom_site_fract_y
_atom_site_fract_z
Si Si1 0.535253 0.184704 0.802670
Si Si2 0.582771 0.580139 0.427384
Si Si3 0.000000 0.000000 0.988810
Si Si4 0.714262 0.816855 0.114519
Si Si5 0.793008 0.815411 0.894393
Si Si6 0.730310 0.028566 0.349026
Si Si7 0.049712 0.817205 0.203058
Si Si8 0.777389 0.421942 0.121366
O O1 0.587477 0.250000 0.812357
O O2 0.603663 0.144036 0.888571
O O3 0.584789 0.161628 0.691300
O O4 0.355425 0.184413 0.821846
O O5 0.411889 0.560037 0.402738
O O6 0.686284 0.537892 0.358803
O O7 0.633418 0.575316 0.545172
O O8 0.904303 0.041424 0.061846
O O9 0.116629 0.033707 0.915100
O O10 0.675288 0.750000 0.098672
O O11 0.874877 0.821778 0.171715
O O12 0.743310 0.841945 0.002078
O O13 0.834714 0.750000 0.918932
O O14 0.925810 0.836814 0.821274
O O15 0.745918 0.051126 0.233304
O O16 0.090802 0.750000 0.194538
O O17 0.154658 0.858762 0.136217
#
# Coordination Sequence:
#
# PCOD9361369 Si02
#       8
#     8   8   4   8   8   8   8   8
#     4  10  21  38  62  95 131 166 209 259 318 391
#     4  10  24  42  65  95 128 168 213 261 320 384
#     4  10  24  44  68  96 122 162 218 272 320 376
#     4   9  20  38  59  85 124 173 214 256 314 375
#     4   9  19  37  57  82 123 167 206 251 305 373
#     4  10  23  45  66  91 127 164 216 270 315 375
#     4  10  22  39  61  92 129 168 214 264 319 391
#     4  11  24  43  67  94 127 170 212 262 329 382
#
# _framework density 22.287492
#
# number of rings (size 3 to 8) (size 9 to 14) (size 15 to 20)
#    0.000    2.133    0.000    1.200    0.000   13.333 
#    0.000    6.667    0.000    0.000    0.000    0.000 
#    0.000    0.000    0.000    0.000    0.000    0.000 
#
# Total GULP energy -167540.663153 kJ/mol
# GULP energy per Si atom -5584.688772 kJ/mol
# Density = 2.223676 g / cm^3
# Si number density = 22.287492 Si / 1000 Ang^3
#
#
#
# Elastic Constant Matrix: (Units=GPa)
#
#
# Indices 1 2 3 4 5 6 
#
# 1 82.2743 16.7723 74.0375 0.0000 0.0000 0.0000
# 2 16.7723 95.7716 27.9237 0.0000 0.0000 0.0000
# 3 74.0375 27.9237 151.8723 0.0000 0.0000 0.0000
# 4 0.0000 0.0000 0.0000 34.0005 0.0000 0.0000
# 5 0.0000 0.0000 0.0000 0.0000 40.3356 0.0000
# 6 0.0000 0.0000 0.0000 0.0000 0.0000 19.0224
#
#
#
# Elastic Compliance Matrix: (Units=1/GPa)
#
#
# Indices 1 2 3 4 5 6 
#
# 1 0.021706 -0.000757 -0.010442 0.000000 0.000000 0.000000
# 2 -0.000757 0.011059 -0.001665 0.000000 0.000000 0.000000
# 3 -0.010442 -0.001665 0.011981 0.000000 0.000000 0.000000
# 4 0.000000 0.000000 0.000000 0.029411 0.000000 0.000000
# 5 0.000000 0.000000 0.000000 0.000000 0.024792 0.000000
# 6 0.000000 0.000000 0.000000 0.000000 0.000000 0.052570
#
#
# Mechanical properties :
#
#
# Convention : Reuss Voigt Hill
#
# Bulk Modulus (GPa) = 52.57881 63.04281 57.81081
# Shear Modulus (GPa) = 27.23523 32.75069 29.99296
#
# Velocity S-wave (km/s) = 3.49950 3.83752 3.67240
# Velocity P-wave (km/s) = 6.32227 6.92698 6.63152
#
# Compressibility (1/GPa) = 0.01901907
#
# Stress axis : x y z
#
# Youngs Moduli (GPa) = 46.07096 90.42131 83.46436
#
# Poissons Ratio (x) = 0.06842 0.87156
# Poissons Ratio (y) = 0.03486 0.13893
# Poissons Ratio (z) = 0.48109 0.15051
#
# Static dielectric constant tensor:
#      x y z
#    x 1.821060 0.000000 0.000000 
#    y 0.000000 1.873300 0.000000 
#    z 0.000000 0.000000 1.827230 
# 
# From -- ./inp_files/5339.got.cif
#   From: 2010.05.17/outbox.cif.g08.bks.cpg/sg39_3_cif.got.tgz:5339.got - 2010.06.03 18:22:40.
