data_PCOD9361401
_publ_section_title
;
Structure prediction by ZEFSAII (Michael W. Deem and Ramdas Pophale) SiO2 
 PCOD9361401
Probable space group: A B M 2
;
_chemical_formula_sum "Si O2"
_cell_formula_units_Z 56
_cell_length_a 13.698185
_cell_length_b 15.504184
_cell_length_c 12.424654
_cell_angle_alpha 90.000000
_cell_angle_beta 90.000000
_cell_angle_gamma 90.000000
_cell_volume 2638.737837
_symmetry_space_group_name_H-M "A B M 2"
_symmetry_group_IT_number 39
_symmetry_cell_setting 'orthorhombic'
loop_
_space_group_symop_operation_xyz
x,y,z
-x,-y,z
-x,1/2+y,z
x,1/2-y,z
x,1/2+y,1/2+z
-x,1/2-y,1/2+z
-x,y,1/2+z
x,-y,1/2+z
loop_
_atom_site_type_symbol
_atom_site_label
_atom_site_fract_x
_atom_site_fract_y
_atom_site_fract_z
Si Si1 0.818518 0.937066 0.646960
Si Si2 0.623259 0.851436 0.695051
Si Si3 0.681482 0.437066 0.414995
Si Si4 0.250000 0.094130 0.280978
Si Si5 0.406053 0.651165 0.613570
Si Si6 0.093947 0.651165 0.948385
Si Si7 0.876741 0.351436 0.366904
O O1 0.707652 0.902867 0.632869
O O2 0.875967 0.916859 0.539387
O O3 0.864909 0.880828 0.743523
O O4 0.807839 0.031863 0.697232
O O5 0.643127 0.750000 0.685491
O O6 0.635092 0.880828 0.818431
O O7 0.514670 0.868035 0.654431
O O8 0.692160 0.531864 0.364723
O O9 0.624034 0.416859 0.522568
O O10 0.792348 0.402867 0.429085
O O11 0.329129 0.144635 0.211213
O O12 0.170871 0.144635 0.350741
O O13 0.403556 0.750000 0.571361
O O14 0.096445 0.750000 0.990595
O O15 0.985330 0.631967 0.907524
O O16 0.143128 0.250000 0.876463
#
# Coordination Sequence:
#
# PCOD9361401 Si02
#       7
#     8   8   8   8   8   8   8
#     4  10  21  39  61  82 118 159 194 234 289 356
#     4   9  19  36  59  87 117 154 197 237 286 352
#     4  10  21  39  61  82 118 159 194 234 289 356
#     4  10  23  40  57  90 122 152 192 242 291 344
#     4  11  22  38  62  89 118 153 195 245 292 336
#     4  11  22  38  62  89 118 153 195 245 292 336
#     4   9  19  36  59  87 117 154 197 237 286 352
#
# _framework density 21.222268
#
# number of rings (size 3 to 8) (size 9 to 14) (size 15 to 20)
#    0.000    2.286    0.000    4.714    0.000    6.857 
#    0.000    8.571    0.000    0.000    0.000    0.000 
#    0.000    0.000    0.000    0.000    0.000    0.000 
#
# Total GULP energy -156532.104158 kJ/mol
# GULP energy per Si atom -5590.432291 kJ/mol
# Density = 2.117396 g / cm^3
# Si number density = 21.222268 Si / 1000 Ang^3
#
#
#
# Elastic Constant Matrix: (Units=GPa)
#
#
# Indices 1 2 3 4 5 6 
#
# 1 86.1617 22.0421 36.0239 0.0000 0.0000 0.0000
# 2 22.0421 63.2424 21.9935 0.0000 0.0000 0.0000
# 3 36.0239 21.9935 63.8738 0.0000 0.0000 0.0000
# 4 0.0000 0.0000 0.0000 10.6989 0.0000 0.0000
# 5 0.0000 0.0000 0.0000 0.0000 15.1291 0.0000
# 6 0.0000 0.0000 0.0000 0.0000 0.0000 0.3177
#
#
#
# Elastic Compliance Matrix: (Units=1/GPa)
#
#
# Indices 1 2 3 4 5 6 
#
# 1 0.015582 -0.002698 -0.007859 0.000000 0.000000 0.000000
# 2 -0.002698 0.018430 -0.004825 0.000000 0.000000 0.000000
# 3 -0.007859 -0.004825 0.021750 0.000000 0.000000 0.000000
# 4 0.000000 0.000000 0.000000 0.093467 0.000000 0.000000
# 5 0.000000 0.000000 0.000000 0.000000 0.066098 0.000000
# 6 0.000000 0.000000 0.000000 0.000000 0.000000 3.147200
#
#
# Mechanical properties :
#
#
# Convention : Reuss Voigt Hill
#
# Bulk Modulus (GPa) = 40.00164 41.48853 40.74508
# Shear Modulus (GPa) = 1.46989 14.11037 7.79013
#
# Velocity S-wave (km/s) = 0.83314 2.58133 1.91799
# Velocity P-wave (km/s) = 4.45144 5.33632 4.91384
#
# Compressibility (1/GPa) = 0.02499898
#
# Stress axis : x y z
#
# Youngs Moduli (GPa) = 64.17609 54.25866 45.97788
#
# Poissons Ratio (x) = 0.14637 0.36135
# Poissons Ratio (y) = 0.17313 0.22182
# Poissons Ratio (z) = 0.50437 0.26177
#
# Static dielectric constant tensor:
#      x y z
#    x 1.731940 0.000000 0.000000 
#    y 0.000000 1.763420 0.000000 
#    z 0.000000 0.000000 1.757830 
# 
# From -- ./inp_files/6516.got.cif
#   From: 2010.05.17/outbox.cif.g08.bks.cpg/sg39_4_cif.got.tgz:6516.got - 2010.06.03 18:22:40.
