data_PCOD9361274
_publ_section_title
;
Structure prediction by ZEFSAII (Michael W. Deem and Ramdas Pophale) SiO2 
 PCOD9361274
Probable space group: A B M 2
;
_chemical_formula_sum "Si O2"
_cell_formula_units_Z 56
_cell_length_a 17.257297
_cell_length_b 14.371680
_cell_length_c 10.949046
_cell_angle_alpha 90.000000
_cell_angle_beta 90.000000
_cell_angle_gamma 90.000000
_cell_volume 2715.542427
_symmetry_space_group_name_H-M "A B M 2"
_symmetry_group_IT_number 39
_symmetry_cell_setting 'orthorhombic'
loop_
_space_group_symop_operation_xyz
x,y,z
-x,-y,z
-x,1/2+y,z
x,1/2-y,z
x,1/2+y,1/2+z
-x,1/2-y,1/2+z
-x,y,1/2+z
x,-y,1/2+z
loop_
_atom_site_type_symbol
_atom_site_label
_atom_site_fract_x
_atom_site_fract_y
_atom_site_fract_z
Si Si1 0.295748 0.354764 0.031220
Si Si2 0.452098 0.097484 0.348594
Si Si3 0.948033 0.851600 0.875456
Si Si4 0.526558 0.107138 0.582814
Si Si5 0.826788 0.993775 0.454588
Si Si6 0.277871 0.143748 0.317466
Si Si7 0.049558 0.407354 0.601874
O O1 0.288421 0.250000 0.979225
O O2 0.385820 0.383161 0.035208
O O3 0.270622 0.350943 0.172316
O O4 0.242929 0.434047 0.974409
O O5 0.474091 0.146191 0.474961
O O6 0.475515 0.144952 0.220574
O O7 0.359175 0.091206 0.343950
O O8 0.500000 0.000000 0.351751
O O9 0.911549 0.750000 0.901964
O O10 0.894428 0.941193 0.900228
O O11 0.963298 0.854211 0.729564
O O12 0.017457 0.861474 0.975434
O O13 0.500000 0.000000 0.597105
O O14 0.793677 0.912651 0.370508
O O15 0.863228 0.942493 0.573282
O O16 0.282878 0.250000 0.364336
O O17 0.000000 0.500000 0.618805
#
# Coordination Sequence:
#
# PCOD9361274 Si02
#       7
#     8   8   8   8   8   8   8
#     4  10  21  37  57  84 117 156 198 240 293 357
#     4   9  17  32  54  79 109 147 192 240 290 342
#     4  11  23  40  63  92 122 153 192 240 291 347
#     4   9  17  31  53  79 109 148 192 239 289 342
#     4  11  21  38  62  86 118 155 195 242 290 343
#     4  10  22  38  57  83 117 157 199 240 292 356
#     4  10  22  40  62  89 120 156 195 237 288 347
#
# _framework density 20.622032000000001
#
# number of rings (size 3 to 8) (size 9 to 14) (size 15 to 20)
#    0.000    2.000    0.000    4.714    0.000    2.857 
#    0.000    4.286    0.000    3.429    0.000    0.000 
#    0.000    0.000    0.000    0.000    0.000    0.000 
#
# Total GULP energy -155961.647694 kJ/mol
# GULP energy per Si atom -5570.058846 kJ/mol
# Density = 2.057510 g / cm^3
# Si number density = 20.622032 Si / 1000 Ang^3
#
#
#
# Elastic Constant Matrix: (Units=GPa)
#
#
# Indices 1 2 3 4 5 6 
#
# 1 22.7733 22.3166 6.8483 0.0000 0.0000 0.0000
# 2 22.3166 119.5397 7.3354 0.0000 0.0000 0.0000
# 3 6.8483 7.3354 108.8415 0.0000 0.0000 0.0000
# 4 0.0000 0.0000 0.0000 4.8123 0.0000 0.0000
# 5 0.0000 0.0000 0.0000 0.0000 17.9630 0.0000
# 6 0.0000 0.0000 0.0000 0.0000 0.0000 -62.4822
#
#
#
# Elastic Compliance Matrix: (Units=1/GPa)
#
#
# Indices 1 2 3 4 5 6 
#
# 1 0.054555 -0.010016 -0.002758 0.000000 0.000000 0.000000
# 2 -0.010016 0.010239 -0.000060 0.000000 0.000000 0.000000
# 3 -0.002758 -0.000060 0.009365 0.000000 0.000000 0.000000
# 4 0.000000 0.000000 0.000000 0.207800 0.000000 0.000000
# 5 0.000000 0.000000 0.000000 0.000000 0.055670 0.000000
# 6 0.000000 0.000000 0.000000 0.000000 0.000000 -0.016005
#
#
# Mechanical properties :
#
#
# Convention : Reuss Voigt Hill
#
# Bulk Modulus (GPa) = 20.62146 36.01721 28.31934
# Shear Modulus (GPa) = 13.75685 6.36890 10.06287
#
# Velocity S-wave (km/s) = 2.58562 1.75929 2.21139
# Velocity P-wave (km/s) = 4.35148 4.65082 4.50364
#
# Compressibility (1/GPa) = 0.04849317
#
# Stress axis : x y z
#
# Youngs Moduli (GPa) = 18.33008 97.66701 106.77808
#
# Poissons Ratio (x) = 0.97819 0.29445
# Poissons Ratio (y) = 0.18359 0.00639
# Poissons Ratio (z) = 0.05055 0.00585
#
# Static dielectric constant tensor:
#      x y z
#    x 1.738300 0.000000 0.000000 
#    y 0.000000 1.757850 0.000000 
#    z 0.000000 0.000000 1.776150 
# 
# From -- ./inp_files/6486.got.cif
#   From: 2010.05.17/outbox.cif.g08.bks.cpg/sg39_4_cif.got.tgz:6486.got - 2010.06.03 18:22:40.
