data_PCOD9361445
_publ_section_title
;
Structure prediction by ZEFSAII (Michael W. Deem and Ramdas Pophale) SiO2 
 PCOD9361445
Probable space group: A B M 2
;
_chemical_formula_sum "Si O2"
_cell_formula_units_Z 32
_cell_length_a 18.759712
_cell_length_b 13.940003
_cell_length_c 5.259662
_cell_angle_alpha 90.000000
_cell_angle_beta 90.000000
_cell_angle_gamma 90.000000
_cell_volume 1375.456532
_symmetry_space_group_name_H-M "A B M 2"
_symmetry_group_IT_number 39
_symmetry_cell_setting 'orthorhombic'
loop_
_space_group_symop_operation_xyz
x,y,z
-x,-y,z
-x,1/2+y,z
x,1/2-y,z
x,1/2+y,1/2+z
-x,1/2-y,1/2+z
-x,y,1/2+z
x,-y,1/2+z
loop_
_atom_site_type_symbol
_atom_site_label
_atom_site_fract_x
_atom_site_fract_y
_atom_site_fract_z
Si Si1 0.207840 0.750000 0.385350
Si Si2 0.883085 0.750000 0.386788
Si Si3 0.079580 0.959489 0.755602
Si Si4 0.453976 0.135228 0.870910
Si Si5 0.704447 0.942419 0.904619
O O1 0.178689 0.750000 0.673450
O O2 0.254505 0.655498 0.347251
O O3 0.145681 0.750000 0.173559
O O4 0.923951 0.651220 0.331470
O O5 0.114985 0.980944 0.484347
O O6 0.000000 0.000000 0.718618
O O7 0.439034 0.250000 0.876246
O O8 0.495515 0.114320 0.610658
O O9 0.379765 0.080409 0.889653
O O10 0.721228 0.980833 0.185590
#
# Coordination Sequence:
#
# PCOD9361445 Si02
#       5
#     4   4   8   8   8
#     4  12  28  48  65  99 138 178 238 272 330 398
#     4  12  26  44  73  97 136 186 216 274 336 400
#     4  10  23  42  69 104 139 170 216 268 324 399
#     4  10  21  39  65  95 132 172 219 284 347 406
#     4  12  26  44  69  96 133 180 229 286 340 397
#
# _framework density 23.265001999999999
#
# number of rings (size 3 to 8) (size 9 to 14) (size 15 to 20)
#    0.000    1.000    1.250    4.500    0.000   13.000 
#    0.000    0.000    0.000    0.000    0.000    0.000 
#    0.000    0.000    0.000    0.000    0.000    0.000 
#
# Total GULP energy -89688.710790 kJ/mol
# GULP energy per Si atom -5605.544424 kJ/mol
# Density = 2.321205 g / cm^3
# Si number density = 23.265002 Si / 1000 Ang^3
#
#
#
# Elastic Constant Matrix: (Units=GPa)
#
#
# Indices 1 2 3 4 5 6 
#
# 1 60.6790 13.0975 -10.3636 0.0000 0.0000 0.0000
# 2 13.0975 128.3510 -0.5628 0.0000 0.0000 0.0000
# 3 -10.3636 -0.5628 123.2868 0.0000 0.0000 0.0000
# 4 0.0000 0.0000 0.0000 21.7339 0.0000 0.0000
# 5 0.0000 0.0000 0.0000 0.0000 23.0953 0.0000
# 6 0.0000 0.0000 0.0000 0.0000 0.0000 -14.5939
#
#
#
# Elastic Compliance Matrix: (Units=1/GPa)
#
#
# Indices 1 2 3 4 5 6 
#
# 1 0.017100 -0.001739 0.001429 0.000000 0.000000 0.000000
# 2 -0.001739 0.007968 -0.000110 0.000000 0.000000 0.000000
# 3 0.001429 -0.000110 0.008231 0.000000 0.000000 0.000000
# 4 0.000000 0.000000 0.000000 0.046011 0.000000 0.000000
# 5 0.000000 0.000000 0.000000 0.000000 0.043299 0.000000
# 6 0.000000 0.000000 0.000000 0.000000 0.000000 -0.068522
#
#
# Mechanical properties :
#
#
# Convention : Reuss Voigt Hill
#
# Bulk Modulus (GPa) = 30.80659 35.18433 32.99546
# Shear Modulus (GPa) = 76.05172 26.72344 51.38758
#
# Velocity S-wave (km/s) = 5.72366 3.39286 4.70488
# Velocity P-wave (km/s) = 7.54657 5.52311 6.61270
#
# Compressibility (1/GPa) = 0.03246059
#
# Stress axis : x y z
#
# Youngs Moduli (GPa) = 58.48089 125.50086 121.49447
#
# Poissons Ratio (x) = 0.21820 -0.17367
# Poissons Ratio (y) = 0.10168 0.01334
# Poissons Ratio (z) = -0.08360 0.01378
#
# Static dielectric constant tensor:
#      x y z
#    x 1.963020 0.000000 0.000000 
#    y 0.000000 1.859180 0.000000 
#    z 0.000000 0.000000 1.887020 
# 
# From -- ./inp_files/701.got.cif
#   From: 2010.05.17/outbox.cif.g08.bks.cpg/sg39_1_cif.got.tgz:701.got - 2010.06.03 18:22:40.
