data_PCOD9361418
_publ_section_title
;
Structure prediction by ZEFSAII (Michael W. Deem and Ramdas Pophale) SiO2 
 PCOD9361418
Probable space group: A B M 2
;
_chemical_formula_sum "Si O2"
_cell_formula_units_Z 64
_cell_length_a 24.364779
_cell_length_b 8.569630
_cell_length_c 15.921951
_cell_angle_alpha 90.000000
_cell_angle_beta 90.000000
_cell_angle_gamma 90.000000
_cell_volume 3324.457849
_symmetry_space_group_name_H-M "A B M 2"
_symmetry_group_IT_number 39
_symmetry_cell_setting 'orthorhombic'
loop_
_space_group_symop_operation_xyz
x,y,z
-x,-y,z
-x,1/2+y,z
x,1/2-y,z
x,1/2+y,1/2+z
-x,1/2-y,1/2+z
-x,y,1/2+z
x,-y,1/2+z
loop_
_atom_site_type_symbol
_atom_site_label
_atom_site_fract_x
_atom_site_fract_y
_atom_site_fract_z
Si Si1 0.634347 0.061520 0.488840
Si Si2 0.938671 0.436174 0.333907
Si Si3 0.249240 0.562689 0.743896
Si Si4 0.243344 0.063727 0.932734
Si Si5 0.863601 0.938848 0.677766
Si Si6 0.561407 0.062922 0.836402
Si Si7 0.128174 0.564476 0.990622
Si Si8 0.368707 0.560234 0.676653
O O1 0.630241 0.250000 0.484513
O O2 0.698246 0.021423 0.473476
O O3 0.617584 0.009002 0.582303
O O4 0.597551 0.991363 0.415346
O O5 0.940460 0.250000 0.330657
O O6 0.902469 0.490482 0.254209
O O7 0.908559 0.486507 0.419220
O O8 0.000000 0.500000 0.330325
O O9 0.249090 0.750000 0.753434
O O10 0.245449 0.484927 0.835316
O O11 0.196457 0.510211 0.691648
O O12 0.306501 0.516135 0.700784
O O13 0.236052 0.250000 0.939595
O O14 0.191360 0.981130 0.974197
O O15 0.858915 0.750000 0.680721
O O16 0.885893 0.982307 0.585962
O O17 0.560417 0.250000 0.835109
O O18 0.590771 0.007189 0.750381
O O19 0.500000 0.000000 0.842438
O O20 0.122081 0.750000 0.982997
O O21 0.369971 0.750000 0.676047
#
# Coordination Sequence:
#
# PCOD9361418 Si02
#       8
#     8   8   8   8   8   8   8   8
#     4  10  21  39  62  88 120 157 196 240 295 355
#     4  11  24  43  64  87 120 160 204 255 304 354
#     4  11  20  35  62  91 122 161 199 239 297 361
#     4  11  21  35  59  91 127 161 196 244 300 356
#     4  10  23  41  61  90 126 158 197 248 299 356
#     4  11  23  41  61  84 116 153 200 249 297 351
#     4  11  23  40  63  92 124 161 202 247 299 359
#     4   9  20  38  60  87 120 154 194 241 291 352
#
# _framework density 19.251259000000001
#
# number of rings (size 3 to 8) (size 9 to 14) (size 15 to 20)
#    0.000    1.500    2.500    2.625    0.000    4.000 
#    0.000    5.000    0.000    0.000    0.000    0.000 
#    0.000    0.000    0.000    0.000    0.000    0.000 
#
# Total GULP energy -178858.750163 kJ/mol
# GULP energy per Si atom -5589.335943 kJ/mol
# Density = 1.920744 g / cm^3
# Si number density = 19.251259 Si / 1000 Ang^3
#
#
#
# Elastic Constant Matrix: (Units=GPa)
#
#
# Indices 1 2 3 4 5 6 
#
# 1 96.3244 15.9690 24.5389 0.0000 0.0000 0.0000
# 2 15.9690 19.8100 12.5165 0.0000 0.0000 0.0000
# 3 24.5389 12.5165 118.5153 0.0000 0.0000 0.0000
# 4 0.0000 0.0000 0.0000 21.3286 0.0000 0.0000
# 5 0.0000 0.0000 0.0000 0.0000 -0.4393 0.0000
# 6 0.0000 0.0000 0.0000 0.0000 0.0000 24.9268
#
#
#
# Elastic Compliance Matrix: (Units=1/GPa)
#
#
# Indices 1 2 3 4 5 6 
#
# 1 0.012260 -0.008871 -0.001602 0.000000 0.000000 0.000000
# 2 -0.008871 0.060508 -0.004553 0.000000 0.000000 0.000000
# 3 -0.001602 -0.004553 0.009250 0.000000 0.000000 0.000000
# 4 0.000000 0.000000 0.000000 0.046885 0.000000 0.000000
# 5 0.000000 0.000000 0.000000 0.000000 -2.276251 0.000000
# 6 0.000000 0.000000 0.000000 0.000000 0.000000 0.040117
#
#
# Mechanical properties :
#
#
# Convention : Reuss Voigt Hill
#
# Bulk Modulus (GPa) = 19.24348 37.85541 28.54944
# Shear Modulus (GPa) = -2.42735 21.27157 9.42211
#
# Velocity S-wave (km/s) = -1.12411 3.32768 2.21470
# Velocity P-wave (km/s) = 2.88666 5.87121 4.62623
#
# Compressibility (1/GPa) = 0.05196566
#
# Stress axis : x y z
#
# Youngs Moduli (GPa) = 81.56409 16.52683 108.10516
#
# Poissons Ratio (x) = 0.14661 0.17315
# Poissons Ratio (y) = 0.72357 0.49226
# Poissons Ratio (z) = 0.13064 0.07525
#
# Static dielectric constant tensor:
#      x y z
#    x 1.636500 0.000000 0.000000 
#    y 0.000000 1.659300 0.000000 
#    z 0.000000 0.000000 1.676420 
# 
# From -- ./inp_files/10679.got.cif
#   From: 2010.05.17/outbox.cif.g08.bks.cpg/sg39_6_cif.got.tgz:10679.got - 2010.06.03 18:22:40.
