data_PCOD9361121
_publ_section_title
;
Structure prediction by ZEFSAII (Michael W. Deem and Ramdas Pophale) SiO2 
 PCOD9361121
Probable space group: A B M 2
;
_chemical_formula_sum "Si O2"
_cell_formula_units_Z 64
_cell_length_a 5.238859
_cell_length_b 24.330099
_cell_length_c 22.713426
_cell_angle_alpha 90.000000
_cell_angle_beta 90.000000
_cell_angle_gamma 90.000000
_cell_volume 2895.097754
_symmetry_space_group_name_H-M "A B M 2"
_symmetry_group_IT_number 39
_symmetry_cell_setting 'orthorhombic'
loop_
_space_group_symop_operation_xyz
x,y,z
-x,-y,z
-x,1/2+y,z
x,1/2-y,z
x,1/2+y,1/2+z
-x,1/2-y,1/2+z
-x,y,1/2+z
x,-y,1/2+z
loop_
_atom_site_type_symbol
_atom_site_label
_atom_site_fract_x
_atom_site_fract_y
_atom_site_fract_z
Si Si1 0.095738 0.813052 0.320700
Si Si2 0.620319 0.120900 0.631454
Si Si3 0.910374 0.920879 0.483490
Si Si4 0.384782 0.688686 0.025385
Si Si5 0.705275 0.141816 0.433201
Si Si6 0.643122 0.557903 0.365632
Si Si7 0.607089 0.861595 0.268486
Si Si8 0.126488 0.946165 0.108273
O O1 0.175704 0.750000 0.321821
O O2 0.088023 0.835538 0.387616
O O3 0.314822 0.846033 0.284861
O O4 0.815773 0.819754 0.294239
O O5 0.515337 0.166332 0.585297
O O6 0.634900 0.139328 0.698687
O O7 0.398027 0.074251 0.631168
O O8 0.901054 0.099200 0.613434
O O9 0.794640 0.860594 0.500923
O O10 0.843612 0.945221 0.419477
O O11 0.829192 0.956605 0.538572
O O12 0.206201 0.905965 0.477783
O O13 0.275810 0.750000 0.032980
O O14 0.591597 0.688953 0.973036
O O15 0.516119 0.109420 0.390856
O O16 0.500000 0.500000 0.362107
O O17 0.696403 0.580757 0.299956
O O18 0.000000 0.000000 0.136106
#
# Coordination Sequence:
#
# PCOD9361121 Si02
#       8
#     8   8   8   8   8   8   8   8
#     4  11  23  41  68  95 126 172 215 265 330 384
#     4  11  24  45  64  94 132 170 220 272 309 379
#     4  10  21  39  59  93 129 159 206 268 322 382
#     4  10  22  38  61  91 127 169 211 261 329 385
#     4  10  20  40  59  93 128 160 208 267 324 385
#     4  10  23  38  62  92 128 173 211 266 327 388
#     4  11  24  45  64  93 134 169 222 273 312 378
#     4  11  24  41  69  95 127 171 213 262 328 382
#
# _framework density 22.106335999999999
#
# number of rings (size 3 to 8) (size 9 to 14) (size 15 to 20)
#    0.000    1.500    2.500    1.875    1.750    3.000 
#    0.000    0.000    0.000    0.000    0.000    0.000 
#    0.000    0.000    0.000    0.000    0.000    0.000 
#
# Total GULP energy -178311.188759 kJ/mol
# GULP energy per Si atom -5572.224649 kJ/mol
# Density = 2.205602 g / cm^3
# Si number density = 22.106336 Si / 1000 Ang^3
#
#
#
# Elastic Constant Matrix: (Units=GPa)
#
#
# Indices 1 2 3 4 5 6 
#
# 1 60.7234 -2.9556 8.4939 0.0000 0.0000 0.0000
# 2 -2.9556 87.2651 20.4028 0.0000 0.0000 0.0000
# 3 8.4939 20.4028 117.1050 0.0000 0.0000 0.0000
# 4 0.0000 0.0000 0.0000 2.5893 0.0000 0.0000
# 5 0.0000 0.0000 0.0000 0.0000 29.0904 0.0000
# 6 0.0000 0.0000 0.0000 0.0000 0.0000 25.6174
#
#
#
# Elastic Compliance Matrix: (Units=1/GPa)
#
#
# Indices 1 2 3 4 5 6 
#
# 1 0.016702 0.000885 -0.001366 0.000000 0.000000 0.000000
# 2 0.000885 0.011993 -0.002154 0.000000 0.000000 0.000000
# 3 -0.001366 -0.002154 0.009014 0.000000 0.000000 0.000000
# 4 0.000000 0.000000 0.000000 0.386201 0.000000 0.000000
# 5 0.000000 0.000000 0.000000 0.000000 0.034376 0.000000
# 6 0.000000 0.000000 0.000000 0.000000 0.000000 0.039036
#
#
# Mechanical properties :
#
#
# Convention : Reuss Voigt Hill
#
# Bulk Modulus (GPa) = 30.82609 35.21952 33.02280
# Shear Modulus (GPa) = 9.73893 27.40292 18.57093
#
# Velocity S-wave (km/s) = 2.10120 3.52461 2.90154
# Velocity P-wave (km/s) = 4.45662 5.70353 5.11819
#
# Compressibility (1/GPa) = 0.03244005
#
# Stress axis : x y z
#
# Youngs Moduli (GPa) = 59.87229 83.38311 110.94317
#
# Poissons Ratio (x) = -0.07379 0.15151
# Poissons Ratio (y) = -0.05299 0.23893
# Poissons Ratio (z) = 0.08176 0.17958
#
# Static dielectric constant tensor:
#      x y z
#    x 1.886180 0.000000 0.000000 
#    y 0.000000 1.852440 0.000000 
#    z 0.000000 0.000000 1.849700 
# 
# From -- ./inp_files/15384.got.cif
#   From: 2010.05.17/outbox.cif.g08.bks.cpg/sg39_8_cif.got.tgz:15384.got - 2010.06.03 18:22:40.
