data_PCOD9361737
_publ_section_title
;
Structure prediction by ZEFSAII (Michael W. Deem and Ramdas Pophale) SiO2 
 PCOD9361737
Probable space group: A B M 2
;
_chemical_formula_sum "Si O2"
_cell_formula_units_Z 40
_cell_length_a 7.838029
_cell_length_b 10.168498
_cell_length_c 25.786542
_cell_angle_alpha 90.000000
_cell_angle_beta 90.000000
_cell_angle_gamma 90.000000
_cell_volume 2055.212725
_symmetry_space_group_name_H-M "A B M 2"
_symmetry_group_IT_number 39
_symmetry_cell_setting 'orthorhombic'
loop_
_space_group_symop_operation_xyz
x,y,z
-x,-y,z
-x,1/2+y,z
x,1/2-y,z
x,1/2+y,1/2+z
-x,1/2-y,1/2+z
-x,y,1/2+z
x,-y,1/2+z
loop_
_atom_site_type_symbol
_atom_site_label
_atom_site_fract_x
_atom_site_fract_y
_atom_site_fract_z
Si Si1 0.339498 0.750000 0.551100
Si Si2 0.658156 0.596697 0.884468
Si Si3 0.976251 0.750000 0.125169
Si Si4 0.716376 0.750000 0.541053
Si Si5 0.804506 0.488932 0.486213
Si Si6 0.667585 0.407950 0.261988
Si Si7 0.000000 0.500000 0.199171
O O1 0.534055 0.750000 0.568998
O O2 0.296200 0.623877 0.516321
O O3 0.203828 0.750000 0.596579
O O4 0.500000 0.500000 0.894045
O O5 0.616885 0.750000 0.894371
O O6 0.796842 0.548786 0.925860
O O7 0.702614 0.585546 0.823894
O O8 0.128782 0.750000 0.082410
O O9 0.983171 0.875866 0.161684
O O10 0.724535 0.625588 0.503257
O O11 0.000000 0.500000 0.503531
O O12 0.500000 0.500000 0.251895
O O13 0.643853 0.250000 0.249508
O O14 0.831053 0.469108 0.232970
#
# Coordination Sequence:
#
# PCOD9361737 Si02
#       7
#     4   8   4   4   8   8   4
#     4  12  24  46  69  93 130 177 223 274 335 396
#     4  10  22  41  66 101 139 177 224 269 329 410
#     4  12  26  46  68 100 132 170 234 294 342 404
#     4  12  26  44  69  95 134 179 223 272 331 404
#     4  12  23  41  65 100 138 175 219 270 328 400
#     4  10  24  46  72 103 137 180 230 281 344 413
#     4  12  26  46  72  98 138 172 230 296 350 402
#
# _framework density 19.462706000000001
#
# number of rings (size 3 to 8) (size 9 to 14) (size 15 to 20)
#    0.000    0.800    4.000    3.000    4.200    1.600 
#    0.000    0.000    0.000    0.000    0.000    0.000 
#    0.000    0.000    0.000    0.000    0.000    0.000 
#
# Total GULP energy -111698.938817 kJ/mol
# GULP energy per Si atom -5584.946941 kJ/mol
# Density = 1.941841 g / cm^3
# Si number density = 19.462706 Si / 1000 Ang^3
#
#
#
# Elastic Constant Matrix: (Units=GPa)
#
#
# Indices 1 2 3 4 5 6 
#
# 1 131.3598 59.8196 51.6220 0.0000 0.0000 0.0000
# 2 59.8196 198.1362 69.1844 0.0000 0.0000 0.0000
# 3 51.6220 69.1844 83.0556 0.0000 0.0000 0.0000
# 4 0.0000 0.0000 0.0000 100.8806 0.0000 0.0000
# 5 0.0000 0.0000 0.0000 0.0000 12.7095 0.0000
# 6 0.0000 0.0000 0.0000 0.0000 0.0000 28.5626
#
#
#
# Elastic Compliance Matrix: (Units=1/GPa)
#
#
# Indices 1 2 3 4 5 6 
#
# 1 0.010282 -0.001231 -0.005365 0.000000 0.000000 0.000000
# 2 -0.001231 0.007264 -0.005286 0.000000 0.000000 0.000000
# 3 -0.005365 -0.005286 0.019778 0.000000 0.000000 0.000000
# 4 0.000000 0.000000 0.000000 0.009913 0.000000 0.000000
# 5 0.000000 0.000000 0.000000 0.000000 0.078681 0.000000
# 6 0.000000 0.000000 0.000000 0.000000 0.000000 0.035011
#
#
# Mechanical properties :
#
#
# Convention : Reuss Voigt Hill
#
# Bulk Modulus (GPa) = 73.74711 85.97817 79.86264
# Shear Modulus (GPa) = 26.42523 43.89226 35.15875
#
# Velocity S-wave (km/s) = 3.68875 4.75404 4.25487
# Velocity P-wave (km/s) = 7.49108 8.62591 8.07845
#
# Compressibility (1/GPa) = 0.01355985
#
# Stress axis : x y z
#
# Youngs Moduli (GPa) = 97.26164 137.65684 50.56079
#
# Poissons Ratio (x) = 0.16942 0.27127
# Poissons Ratio (y) = 0.11970 0.26728
# Poissons Ratio (z) = 0.52182 0.72769
#
# Static dielectric constant tensor:
#      x y z
#    x 1.676050 0.000000 0.000000 
#    y 0.000000 1.388060 0.000000 
#    z 0.000000 0.000000 1.673910 
# 
# From -- ./inp_files/15496.got.cif
#   From: 2010.05.17/outbox.cif.g08.bks.cpg/sg39_8_cif.got.tgz:15496.got - 2010.06.03 18:22:40.
