data_PCOD9361925
_publ_section_title
;
Structure prediction by ZEFSAII (Michael W. Deem and Ramdas Pophale) SiO2 
 PCOD9361925
Probable space group: A B M 2
;
_chemical_formula_sum "Si O2"
_cell_formula_units_Z 48
_cell_length_a 8.081232
_cell_length_b 23.947932
_cell_length_c 12.094630
_cell_angle_alpha 90.000000
_cell_angle_beta 90.000000
_cell_angle_gamma 90.000000
_cell_volume 2340.659163
_symmetry_space_group_name_H-M "A B M 2"
_symmetry_group_IT_number 39
_symmetry_cell_setting 'orthorhombic'
loop_
_space_group_symop_operation_xyz
x,y,z
-x,-y,z
-x,1/2+y,z
x,1/2-y,z
x,1/2+y,1/2+z
-x,1/2-y,1/2+z
-x,y,1/2+z
x,-y,1/2+z
loop_
_atom_site_type_symbol
_atom_site_label
_atom_site_fract_x
_atom_site_fract_y
_atom_site_fract_z
Si Si1 0.643852 0.750000 0.259711
Si Si2 0.687833 0.871150 0.994529
Si Si3 0.555842 0.750000 0.998950
Si Si4 0.812065 0.870019 0.228652
Si Si5 0.835507 0.077737 0.275528
Si Si6 0.318613 0.528530 0.847180
Si Si7 0.608830 0.554759 0.578605
O O1 0.565367 0.750000 0.386602
O O2 0.753787 0.806693 0.251424
O O3 0.533496 0.750000 0.140103
O O4 0.657491 0.806034 0.981596
O O5 0.749782 0.898133 0.883629
O O6 0.807859 0.880065 0.097718
O O7 0.518178 0.900825 0.029339
O O8 0.682409 0.912108 0.286900
O O9 0.990416 0.891295 0.267694
O O10 0.719163 0.084795 0.169267
O O11 0.817043 0.010874 0.290714
O O12 0.500000 0.500000 0.845172
O O13 0.278779 0.535001 0.976375
O O14 0.500000 0.500000 0.613385
#
# Coordination Sequence:
#
# PCOD9361925 Si02
#       7
#     4   8   4   8   8   8   8
#     4  10  24  49  75 105 139 190 238 304 342 428
#     4  11  24  44  67 101 133 179 237 289 338 420
#     4  10  24  43  75  99 133 176 248 294 344 404
#     4  11  26  45  68  99 148 178 229 285 363 422
#     4  12  25  41  69 100 141 186 218 287 363 414
#     4  11  22  42  68 101 135 180 234 289 339 416
#     4  11  23  40  69  98 134 175 238 284 339 415
#
# _framework density 20.507044
#
# number of rings (size 3 to 8) (size 9 to 14) (size 15 to 20)
#    0.000    1.000    3.333    4.000    7.000    0.667 
#    0.000    0.833    0.000    0.000    0.000    0.000 
#    0.000    0.000    0.000    0.000    0.000    0.000 
#
# Total GULP energy -133821.485642 kJ/mol
# GULP energy per Si atom -5575.895235 kJ/mol
# Density = 2.046037 g / cm^3
# Si number density = 20.507044 Si / 1000 Ang^3
#
#
#
# Elastic Constant Matrix: (Units=GPa)
#
#
# Indices 1 2 3 4 5 6 
#
# 1 85.0918 33.2914 49.4709 0.0000 0.0000 0.0000
# 2 33.2914 133.1124 37.2494 0.0000 0.0000 0.0000
# 3 49.4709 37.2494 150.4842 0.0000 0.0000 0.0000
# 4 0.0000 0.0000 0.0000 36.6849 0.0000 0.0000
# 5 0.0000 0.0000 0.0000 0.0000 11.9382 0.0000
# 6 0.0000 0.0000 0.0000 0.0000 0.0000 16.4491
#
#
#
# Elastic Compliance Matrix: (Units=1/GPa)
#
#
# Indices 1 2 3 4 5 6 
#
# 1 0.015325 -0.002603 -0.004394 0.000000 0.000000 0.000000
# 2 -0.002603 0.008514 -0.001252 0.000000 0.000000 0.000000
# 3 -0.004394 -0.001252 0.008399 0.000000 0.000000 0.000000
# 4 0.000000 0.000000 0.000000 0.027259 0.000000 0.000000
# 5 0.000000 0.000000 0.000000 0.000000 0.083765 0.000000
# 6 0.000000 0.000000 0.000000 0.000000 0.000000 0.060793
#
#
# Mechanical properties :
#
#
# Convention : Reuss Voigt Hill
#
# Bulk Modulus (GPa) = 63.52788 67.63462 65.58125
# Shear Modulus (GPa) = 22.14356 29.59290 25.86823
#
# Velocity S-wave (km/s) = 3.28960 3.80288 3.55552
# Velocity P-wave (km/s) = 6.74347 7.23432 6.99320
#
# Compressibility (1/GPa) = 0.01574112
#
# Stress axis : x y z
#
# Youngs Moduli (GPa) = 65.25335 117.45679 119.05625
#
# Poissons Ratio (x) = 0.30577 0.52308
# Poissons Ratio (y) = 0.16987 0.14901
# Poissons Ratio (z) = 0.28670 0.14701
#
# Static dielectric constant tensor:
#      x y z
#    x 1.755070 0.000000 0.000000 
#    y 0.000000 1.687470 0.000000 
#    z 0.000000 0.000000 1.814650 
# 
# From -- ./inp_files/5221.got.cif
#   From: 2010.05.17/outbox.cif.g08.bks.cpg/sg39_3_cif.got.tgz:5221.got - 2010.06.03 18:22:40.
