data_PCOD9361380
_publ_section_title
;
Structure prediction by ZEFSAII (Michael W. Deem and Ramdas Pophale) SiO2 
 PCOD9361380
Probable space group: A B M 2
;
_chemical_formula_sum "Si O2"
_cell_formula_units_Z 48
_cell_length_a 8.596619
_cell_length_b 29.409315
_cell_length_c 8.524719
_cell_angle_alpha 90.000000
_cell_angle_beta 90.000000
_cell_angle_gamma 90.000000
_cell_volume 2155.225221
_symmetry_space_group_name_H-M "A B M 2"
_symmetry_group_IT_number 39
_symmetry_cell_setting 'orthorhombic'
loop_
_space_group_symop_operation_xyz
x,y,z
-x,-y,z
-x,1/2+y,z
x,1/2-y,z
x,1/2+y,1/2+z
-x,1/2-y,1/2+z
-x,y,1/2+z
x,-y,1/2+z
loop_
_atom_site_type_symbol
_atom_site_label
_atom_site_fract_x
_atom_site_fract_y
_atom_site_fract_z
Si Si1 0.199247 0.196495 0.575390
Si Si2 0.758516 0.433126 0.882820
Si Si3 0.831135 0.989548 0.118936
Si Si4 0.982491 0.147736 0.826643
Si Si5 0.268273 0.400079 0.954194
Si Si6 0.432463 0.122410 0.625912
O O1 0.199444 0.250000 0.598838
O O2 0.072691 0.170824 0.683892
O O3 0.364913 0.173447 0.615986
O O4 0.140300 0.182258 0.402933
O O5 0.807510 0.463918 0.029185
O O6 0.716423 0.470960 0.753451
O O7 0.891753 0.400463 0.809689
O O8 0.637591 0.401065 0.969778
O O9 0.807319 0.948942 0.992729
O O10 0.000000 0.000000 0.193498
O O11 0.126752 0.134816 0.939558
O O12 0.358302 0.398389 0.785439
O O13 0.385510 0.384794 0.093663
#
# Coordination Sequence:
#
# PCOD9361380 Si02
#       6
#     8   8   8   8   8   8
#     4  10  21  40  65  97 126 163 215 270 329 400
#     4  11  23  39  61  95 126 169 214 267 322 374
#     4  12  23  36  63  93 127 163 220 266 306 383
#     4  10  21  38  65  91 129 166 206 268 328 387
#     4  11  22  42  62  90 127 171 218 260 328 380
#     4  10  24  42  64  89 130 174 212 270 332 391
#
# _framework density 22.271455
#
# number of rings (size 3 to 8) (size 9 to 14) (size 15 to 20)
#    0.000    1.333    1.667    4.000    4.667    2.000 
#    0.000    7.500    0.000    0.000    0.000    0.000 
#    0.000    0.000    0.000    0.000    0.000    0.000 
#
# Total GULP energy -133803.985657 kJ/mol
# GULP energy per Si atom -5575.166069 kJ/mol
# Density = 2.222076 g / cm^3
# Si number density = 22.271455 Si / 1000 Ang^3
#
#
#
# Elastic Constant Matrix: (Units=GPa)
#
#
# Indices 1 2 3 4 5 6 
#
# 1 90.9228 46.2066 21.1063 0.0000 0.0000 0.0000
# 2 46.2066 130.4952 32.5508 0.0000 0.0000 0.0000
# 3 21.1063 32.5508 67.5662 0.0000 0.0000 0.0000
# 4 0.0000 0.0000 0.0000 29.4543 0.0000 0.0000
# 5 0.0000 0.0000 0.0000 0.0000 42.5872 0.0000
# 6 0.0000 0.0000 0.0000 0.0000 0.0000 14.8023
#
#
#
# Elastic Compliance Matrix: (Units=1/GPa)
#
#
# Indices 1 2 3 4 5 6 
#
# 1 0.013695 -0.004299 -0.002207 0.000000 0.000000 0.000000
# 2 -0.004299 0.010059 -0.003503 0.000000 0.000000 0.000000
# 3 -0.002207 -0.003503 0.017177 0.000000 0.000000 0.000000
# 4 0.000000 0.000000 0.000000 0.033951 0.000000 0.000000
# 5 0.000000 0.000000 0.000000 0.000000 0.023481 0.000000
# 6 0.000000 0.000000 0.000000 0.000000 0.000000 0.067557
#
#
# Mechanical properties :
#
#
# Convention : Reuss Voigt Hill
#
# Bulk Modulus (GPa) = 47.81583 54.30129 51.05856
# Shear Modulus (GPa) = 25.91874 29.97679 27.94777
#
# Velocity S-wave (km/s) = 3.41510 3.67273 3.54626
# Velocity P-wave (km/s) = 6.08824 6.51305 6.30422
#
# Compressibility (1/GPa) = 0.02091357
#
# Stress axis : x y z
#
# Youngs Moduli (GPa) = 73.01767 99.41240 58.21575
#
# Poissons Ratio (x) = 0.42735 0.12849
# Poissons Ratio (y) = 0.31389 0.20394
# Poissons Ratio (z) = 0.16116 0.34827
#
# Static dielectric constant tensor:
#      x y z
#    x 1.879880 0.000000 0.000000 
#    y 0.000000 1.772650 0.000000 
#    z 0.000000 0.000000 1.935570 
# 
# From -- ./inp_files/2293.got.cif
#   From: 2010.05.17/outbox.cif.g08.bks.cpg/sg39_2_cif.got.tgz:2293.got - 2010.06.03 18:22:40.
