data_PCOD9361316
_publ_section_title
;
Structure prediction by ZEFSAII (Michael W. Deem and Ramdas Pophale) SiO2 
 PCOD9361316
Probable space group: A B M 2
;
_chemical_formula_sum "Si O2"
_cell_formula_units_Z 56
_cell_length_a 11.952441
_cell_length_b 15.022979
_cell_length_c 14.479025
_cell_angle_alpha 90.000000
_cell_angle_beta 90.000000
_cell_angle_gamma 90.000000
_cell_volume 2599.872119
_symmetry_space_group_name_H-M "A B M 2"
_symmetry_group_IT_number 39
_symmetry_cell_setting 'orthorhombic'
loop_
_space_group_symop_operation_xyz
x,y,z
-x,-y,z
-x,1/2+y,z
x,1/2-y,z
x,1/2+y,1/2+z
-x,1/2-y,1/2+z
-x,y,1/2+z
x,-y,1/2+z
loop_
_atom_site_type_symbol
_atom_site_label
_atom_site_fract_x
_atom_site_fract_y
_atom_site_fract_z
Si Si1 0.769279 0.842976 0.695170
Si Si2 0.958941 0.353735 0.976310
Si Si3 0.628140 0.998225 0.112337
Si Si4 0.979171 0.398214 0.672231
Si Si5 0.265380 0.855012 0.737697
Si Si6 0.266778 0.542340 0.930906
Si Si7 0.819182 0.152716 0.401141
O O1 0.728470 0.750000 0.652419
O O2 0.707409 0.929418 0.660870
O O3 0.757515 0.839009 0.804239
O O4 0.902446 0.849978 0.682869
O O5 0.935612 0.250000 0.990363
O O6 0.842335 0.403306 0.965840
O O7 0.046161 0.360299 0.891674
O O8 0.032540 0.391676 0.060994
O O9 0.500000 0.000000 0.142256
O O10 0.677905 0.904051 0.149285
O O11 0.635472 0.034672 0.006677
O O12 0.868567 0.361814 0.720337
O O13 0.000000 0.500000 0.700256
O O14 0.294402 0.750000 0.747398
O O15 0.292419 0.912922 0.831009
O O16 0.227314 0.440177 0.934518
O O17 0.806484 0.250000 0.449645
#
# Coordination Sequence:
#
# PCOD9361316 Si02
#       7
#     8   8   8   8   8   8   8
#     4  11  22  42  68  98 136 180 231 285 350 428
#     4  11  21  33  58 102 149 186 228 278 349 439
#     4  12  28  49  74  98 136 191 252 306 361 422
#     4  12  20  37  66 104 148 192 224 283 358 443
#     4  12  26  46  73 109 147 185 238 301 371 440
#     4  12  23  43  68 100 139 188 235 299 358 428
#     4  10  21  37  62  97 134 176 223 278 346 428
#
# _framework density 21.53952
#
# number of rings (size 3 to 8) (size 9 to 14) (size 15 to 20)
#    0.000    0.571    4.286    4.714    0.000    4.571 
#    0.000    0.000    0.000    0.000    0.000    0.000 
#    0.000    0.000    0.000    0.000    0.000    0.000 
#
# Total GULP energy -156114.906781 kJ/mol
# GULP energy per Si atom -5575.532385 kJ/mol
# Density = 2.149050 g / cm^3
# Si number density = 21.539520 Si / 1000 Ang^3
#
#
#
# Elastic Constant Matrix: (Units=GPa)
#
#
# Indices 1 2 3 4 5 6 
#
# 1 62.9425 14.0984 6.3675 0.0000 0.0000 0.0000
# 2 14.0984 138.9564 10.5677 0.0000 0.0000 0.0000
# 3 6.3675 10.5677 65.1772 0.0000 0.0000 0.0000
# 4 0.0000 0.0000 0.0000 -5.7387 0.0000 0.0000
# 5 0.0000 0.0000 0.0000 0.0000 10.2842 0.0000
# 6 0.0000 0.0000 0.0000 0.0000 0.0000 -10.0133
#
#
#
# Elastic Compliance Matrix: (Units=1/GPa)
#
#
# Indices 1 2 3 4 5 6 
#
# 1 0.016373 -0.001559 -0.001347 0.000000 0.000000 0.000000
# 2 -0.001559 0.007435 -0.001053 0.000000 0.000000 0.000000
# 3 -0.001347 -0.001053 0.015645 0.000000 0.000000 0.000000
# 4 0.000000 0.000000 0.000000 -0.174255 0.000000 0.000000
# 5 0.000000 0.000000 0.000000 0.000000 0.097236 0.000000
# 6 0.000000 0.000000 0.000000 0.000000 0.000000 -0.099867
#
#
# Mechanical properties :
#
#
# Convention : Reuss Voigt Hill
#
# Bulk Modulus (GPa) = 31.71050 36.57147 34.14099
# Shear Modulus (GPa) = -42.01541 14.64262 -13.68640
#
# Velocity S-wave (km/s) = -4.42137 2.61013 -2.52347
# Velocity P-wave (km/s) = 3.36315 5.10875 2.71925
#
# Compressibility (1/GPa) = 0.03153529
#
# Stress axis : x y z
#
# Youngs Moduli (GPa) = 61.07653 134.50362 63.91770
#
# Poissons Ratio (x) = 0.20966 0.08609
# Poissons Ratio (y) = 0.09520 0.06732
# Poissons Ratio (z) = 0.08226 0.14165
#
# Static dielectric constant tensor:
#      x y z
#    x 1.738960 0.000000 0.000000 
#    y 0.000000 1.949070 0.000000 
#    z 0.000000 0.000000 1.955740 
# 
# From -- ./inp_files/9308.got.cif
#   From: 2010.05.17/outbox.cif.g08.bks.cpg/sg39_5_cif.got.tgz:9308.got - 2010.06.03 18:22:40.
