data_PCOD9361254
_publ_section_title
;
Structure prediction by ZEFSAII (Michael W. Deem and Ramdas Pophale) SiO2 
 PCOD9361254
Probable space group: A B M 2
;
_chemical_formula_sum "Si O2"
_cell_formula_units_Z 64
_cell_length_a 11.216980
_cell_length_b 15.727011
_cell_length_c 18.208450
_cell_angle_alpha 90.000000
_cell_angle_beta 90.000000
_cell_angle_gamma 90.000000
_cell_volume 3212.144796
_symmetry_space_group_name_H-M "A B M 2"
_symmetry_group_IT_number 39
_symmetry_cell_setting 'orthorhombic'
loop_
_space_group_symop_operation_xyz
x,y,z
-x,-y,z
-x,1/2+y,z
x,1/2-y,z
x,1/2+y,1/2+z
-x,1/2-y,1/2+z
-x,y,1/2+z
x,-y,1/2+z
loop_
_atom_site_type_symbol
_atom_site_label
_atom_site_fract_x
_atom_site_fract_y
_atom_site_fract_z
Si Si1 0.863701 0.993773 0.672070
Si Si2 0.133798 0.991050 0.002748
Si Si3 0.478415 0.399185 0.035811
Si Si4 0.699092 0.342420 0.960211
Si Si5 0.703580 0.344069 0.659733
Si Si6 0.260436 0.849228 0.442352
Si Si7 0.583186 0.118647 0.807584
Si Si8 0.681476 0.572666 0.791451
O O1 0.809253 0.088236 0.663841
O O2 0.867615 0.961986 0.587869
O O3 0.771630 0.940921 0.723166
O O4 0.000000 0.000000 0.700101
O O5 0.210725 0.921147 0.960234
O O6 0.189769 0.084599 0.993532
O O7 0.000000 0.000000 0.975250
O O8 0.500000 0.500000 0.027703
O O9 0.403837 0.380005 0.109064
O O10 0.606671 0.356426 0.027177
O O11 0.395177 0.363667 0.970776
O O12 0.757445 0.250000 0.965717
O O13 0.620501 0.345811 0.886243
O O14 0.736265 0.250000 0.632443
O O15 0.654802 0.339392 0.741851
O O16 0.229203 0.750000 0.447280
O O17 0.251254 0.884925 0.359928
O O18 0.443708 0.123390 0.785759
O O19 0.630749 0.021256 0.809520
#
# Coordination Sequence:
#
# PCOD9361254 Si02
#       8
#     8   8   8   8   8   8   8   8
#     4  10  23  44  68  89 129 181 228 269 333 398
#     4  11  25  45  67  94 129 177 226 275 327 397
#     4  12  22  38  64  94 131 169 210 272 340 407
#     4  12  23  40  64  97 133 171 216 274 341 403
#     4  11  23  38  62  96 127 166 221 277 336 404
#     4  12  23  40  67  96 129 169 216 273 332 393
#     4  10  21  36  62  92 131 169 206 267 338 407
#     4  10  21  39  62  93 128 171 213 264 328 397
#
# _framework density 19.924382999999999
#
# number of rings (size 3 to 8) (size 9 to 14) (size 15 to 20)
#    0.000    1.000    5.000    1.500    5.250    1.500 
#    0.000    3.125    0.000    0.000    0.000    0.000 
#    0.000    0.000    0.000    0.000    0.000    0.000 
#
# Total GULP energy -178564.821477 kJ/mol
# GULP energy per Si atom -5580.150671 kJ/mol
# Density = 1.987903 g / cm^3
# Si number density = 19.924383 Si / 1000 Ang^3
#
#
#
# Elastic Constant Matrix: (Units=GPa)
#
#
# Indices 1 2 3 4 5 6 
#
# 1 124.4725 37.6216 35.9069 0.0000 0.0000 0.0000
# 2 37.6216 119.0991 24.2283 0.0000 0.0000 0.0000
# 3 35.9069 24.2283 75.4019 0.0000 0.0000 0.0000
# 4 0.0000 0.0000 0.0000 -19.8580 0.0000 0.0000
# 5 0.0000 0.0000 0.0000 0.0000 23.7821 0.0000
# 6 0.0000 0.0000 0.0000 0.0000 0.0000 2.9891
#
#
#
# Elastic Compliance Matrix: (Units=1/GPa)
#
#
# Indices 1 2 3 4 5 6 
#
# 1 0.009875 -0.002314 -0.003959 0.000000 0.000000 0.000000
# 2 -0.002314 0.009526 -0.001959 0.000000 0.000000 0.000000
# 3 -0.003959 -0.001959 0.015777 0.000000 0.000000 0.000000
# 4 0.000000 0.000000 0.000000 -0.050358 0.000000 0.000000
# 5 0.000000 0.000000 0.000000 0.000000 0.042048 0.000000
# 6 0.000000 0.000000 0.000000 0.000000 0.000000 0.334552
#
#
# Mechanical properties :
#
#
# Convention : Reuss Voigt Hill
#
# Bulk Modulus (GPa) = 53.43573 57.16524 55.30048
# Shear Modulus (GPa) = 13.01664 16.13041 14.57352
#
# Velocity S-wave (km/s) = 2.55875 2.84840 2.70745
# Velocity P-wave (km/s) = 5.96717 6.29057 6.13100
#
# Compressibility (1/GPa) = 0.01871407
#
# Stress axis : x y z
#
# Youngs Moduli (GPa) = 101.26119 104.97749 63.38305
#
# Poissons Ratio (x) = 0.24293 0.25095
# Poissons Ratio (y) = 0.23433 0.12416
# Poissons Ratio (z) = 0.40091 0.20564
#
# Static dielectric constant tensor:
#      x y z
#    x 1.708890 0.000000 0.000000 
#    y 0.000000 1.725170 0.000000 
#    z 0.000000 0.000000 1.733570 
# 
# From -- ./inp_files/12356.got.cif
#   From: 2010.05.17/outbox.cif.g08.bks.cpg/sg39_7_cif.got.tgz:12356.got - 2010.06.03 18:22:40.
