data_PCOD9361616
_publ_section_title
;
Structure prediction by ZEFSAII (Michael W. Deem and Ramdas Pophale) SiO2 
 PCOD9361616
Probable space group: A B M 2
;
_chemical_formula_sum "Si O2"
_cell_formula_units_Z 40
_cell_length_a 15.070601
_cell_length_b 13.487482
_cell_length_c 9.085979
_cell_angle_alpha 90.000000
_cell_angle_beta 90.000000
_cell_angle_gamma 90.000000
_cell_volume 1846.856612
_symmetry_space_group_name_H-M "A B M 2"
_symmetry_group_IT_number 39
_symmetry_cell_setting 'orthorhombic'
loop_
_space_group_symop_operation_xyz
x,y,z
-x,-y,z
-x,1/2+y,z
x,1/2-y,z
x,1/2+y,1/2+z
-x,1/2-y,1/2+z
-x,y,1/2+z
x,-y,1/2+z
loop_
_atom_site_type_symbol
_atom_site_label
_atom_site_fract_x
_atom_site_fract_y
_atom_site_fract_z
Si Si1 0.120784 0.750000 0.295740
Si Si2 0.393798 0.048478 0.007732
Si Si3 0.989483 0.750000 0.067948
Si Si4 0.806369 0.540518 0.908018
Si Si5 0.089650 0.549880 0.680733
Si Si6 0.536972 0.132882 0.192578
O O1 0.031153 0.750000 0.395570
O O2 0.170104 0.851022 0.340394
O O3 0.089325 0.750000 0.127401
O O4 0.289896 0.049591 0.976570
O O5 0.434890 0.116121 0.139245
O O6 0.437591 0.087582 0.852983
O O7 0.415785 0.937557 0.069537
O O8 0.939243 0.842546 0.135745
O O9 0.824231 0.462083 0.780435
O O10 0.878525 0.504783 0.026965
O O11 0.000000 0.500000 0.741214
O O12 0.558473 0.250000 0.188906
#
# Coordination Sequence:
#
# PCOD9361616 Si02
#       6
#     4   8   4   8   8   8
#     4  10  22  38  62  88 122 166 210 262 314 380
#     4  11  24  45  69 102 135 168 227 280 333 409
#     4  10  22  38  58  86 124 170 216 256 322 374
#     4  11  24  40  65  94 127 166 213 270 318 380
#     4  11  22  40  61  91 128 172 214 261 321 381
#     4  11  24  44  72  98 133 179 218 275 349 409
#
# _framework density 21.658421000000001
#
# number of rings (size 3 to 8) (size 9 to 14) (size 15 to 20)
#    0.000    1.200    2.000    4.800    5.600    0.000 
#    1.800    1.000    0.000    0.000    0.000    0.000 
#    0.000    0.000    0.000    0.000    0.000    0.000 
#
# Total GULP energy -111433.367225 kJ/mol
# GULP energy per Si atom -5571.668361 kJ/mol
# Density = 2.160913 g / cm^3
# Si number density = 21.658421 Si / 1000 Ang^3
#
#
#
# Elastic Constant Matrix: (Units=GPa)
#
#
# Indices 1 2 3 4 5 6 
#
# 1 79.0395 6.0763 36.0092 0.0000 0.0000 0.0000
# 2 6.0763 73.8492 34.9802 0.0000 0.0000 0.0000
# 3 36.0092 34.9802 105.6446 0.0000 0.0000 0.0000
# 4 0.0000 0.0000 0.0000 28.5293 0.0000 0.0000
# 5 0.0000 0.0000 0.0000 0.0000 26.9399 0.0000
# 6 0.0000 0.0000 0.0000 0.0000 0.0000 -5.4210
#
#
#
# Elastic Compliance Matrix: (Units=1/GPa)
#
#
# Indices 1 2 3 4 5 6 
#
# 1 0.015102 0.001418 -0.005617 0.000000 0.000000 0.000000
# 2 0.001418 0.016193 -0.005845 0.000000 0.000000 0.000000
# 3 -0.005617 -0.005845 0.013316 0.000000 0.000000 0.000000
# 4 0.000000 0.000000 0.000000 0.035052 0.000000 0.000000
# 5 0.000000 0.000000 0.000000 0.000000 0.037120 0.000000
# 6 0.000000 0.000000 0.000000 0.000000 0.000000 -0.184468
#
#
# Mechanical properties :
#
#
# Convention : Reuss Voigt Hill
#
# Bulk Modulus (GPa) = 40.77883 45.85161 43.31522
# Shear Modulus (GPa) = -126.82719 22.10746 -52.35986
#
# Velocity S-wave (km/s) = -7.66062 3.19836 -4.92217
# Velocity P-wave (km/s) = 7.70569 5.90386 3.50158
#
# Compressibility (1/GPa) = 0.02452253
#
# Stress axis : x y z
#
# Youngs Moduli (GPa) = 66.21665 61.75478 75.09951
#
# Poissons Ratio (x) = -0.08757 0.42184
# Poissons Ratio (y) = -0.09390 0.43896
# Poissons Ratio (z) = 0.37194 0.36096
#
# Static dielectric constant tensor:
#      x y z
#    x 1.815920 0.000000 0.000000 
#    y 0.000000 1.787620 0.000000 
#    z 0.000000 0.000000 1.849690 
# 
# From -- ./inp_files/3088.got.cif
#   From: 2010.05.17/outbox.cif.g08.bks.cpg/sg39_2_cif.got.tgz:3088.got - 2010.06.03 18:22:40.
