data_PCOD9361668
_publ_section_title
;
Structure prediction by ZEFSAII (Michael W. Deem and Ramdas Pophale) SiO2 
 PCOD9361668
Probable space group: A B M 2
;
_chemical_formula_sum "Si O2"
_cell_formula_units_Z 40
_cell_length_a 11.264377
_cell_length_b 14.558118
_cell_length_c 9.518992
_cell_angle_alpha 90.000000
_cell_angle_beta 90.000000
_cell_angle_gamma 90.000000
_cell_volume 1561.001693
_symmetry_space_group_name_H-M "A B M 2"
_symmetry_group_IT_number 39
_symmetry_cell_setting 'orthorhombic'
loop_
_space_group_symop_operation_xyz
x,y,z
-x,-y,z
-x,1/2+y,z
x,1/2-y,z
x,1/2+y,1/2+z
-x,1/2-y,1/2+z
-x,y,1/2+z
x,-y,1/2+z
loop_
_atom_site_type_symbol
_atom_site_label
_atom_site_fract_x
_atom_site_fract_y
_atom_site_fract_z
Si Si1 0.652444 0.250000 0.228550
Si Si2 0.479647 0.250000 0.459291
Si Si3 0.761879 0.059150 0.549178
Si Si4 0.141255 0.376143 0.632805
Si Si5 0.384843 0.937089 0.821712
Si Si6 0.982761 0.610459 0.896421
O O1 0.609508 0.250000 0.388107
O O2 0.735961 0.166128 0.183587
O O3 0.538715 0.250000 0.126309
O O4 0.420026 0.343788 0.402262
O O5 0.673576 0.089656 0.672121
O O6 0.857612 0.125504 0.477681
O O7 0.841448 0.984556 0.631655
O O8 0.694874 0.000597 0.426773
O O9 0.094528 0.351106 0.479691
O O10 0.039201 0.352874 0.742506
O O11 0.500000 0.000000 0.791648
O O12 0.000000 0.500000 0.891484
#
# Coordination Sequence:
#
# PCOD9361668 Si02
#       6
#     4   4   8   8   8   8
#     4  12  28  48  68 102 150 198 250 312 376 452
#     4  12  30  48  72 106 154 200 250 314 378 446
#     4  11  22  42  72 104 142 188 247 306 373 453
#     4  11  23  43  66 104 143 185 243 307 370 450
#     4  12  26  45  73 109 149 204 256 310 378 455
#     4  10  22  39  71 102 137 186 245 304 378 448
#
# _framework density 25.624572000000001
#
# number of rings (size 3 to 8) (size 9 to 14) (size 15 to 20)
#    0.000    0.800    4.000    3.600    5.600    0.800 
#    0.000    1.000    0.000    0.000    0.000    0.000 
#    0.000    0.000    0.000    0.000    0.000    0.000 
#
# Total GULP energy -111953.399766 kJ/mol
# GULP energy per Si atom -5597.669988 kJ/mol
# Density = 2.556625 g / cm^3
# Si number density = 25.624572 Si / 1000 Ang^3
#
#
#
# Elastic Constant Matrix: (Units=GPa)
#
#
# Indices 1 2 3 4 5 6 
#
# 1 102.0538 -5.3719 34.6291 0.0000 0.0000 0.0000
# 2 -5.3719 69.9209 -13.6464 0.0000 0.0000 0.0000
# 3 34.6291 -13.6464 103.0084 0.0000 0.0000 0.0000
# 4 0.0000 0.0000 0.0000 -14.0754 0.0000 0.0000
# 5 0.0000 0.0000 0.0000 0.0000 68.4010 0.0000
# 6 0.0000 0.0000 0.0000 0.0000 0.0000 721.5215
#
#
#
# Elastic Compliance Matrix: (Units=1/GPa)
#
#
# Indices 1 2 3 4 5 6 
#
# 1 0.011062 0.000127 -0.003702 0.000000 0.000000 0.000000
# 2 0.000127 0.014683 0.001902 0.000000 0.000000 0.000000
# 3 -0.003702 0.001902 0.011204 0.000000 0.000000 0.000000
# 4 0.000000 0.000000 0.000000 -0.071046 0.000000 0.000000
# 5 0.000000 0.000000 0.000000 0.000000 0.014620 0.000000
# 6 0.000000 0.000000 0.000000 0.000000 0.000000 0.001386
#
#
# Mechanical properties :
#
#
# Convention : Reuss Voigt Hill
#
# Bulk Modulus (GPa) = 29.75764 34.02274 31.89019
# Shear Modulus (GPa) = -1410.10598 172.46093 -618.82252
#
# Velocity S-wave (km/s) = -23.48380 8.21274 -15.55699
# Velocity P-wave (km/s) = 26.90131 10.16062 17.61310
#
# Compressibility (1/GPa) = 0.03360482
#
# Stress axis : x y z
#
# Youngs Moduli (GPa) = 90.40331 68.10627 89.25053
#
# Poissons Ratio (x) = -0.00867 0.33038
# Poissons Ratio (y) = -0.01151 -0.16979
# Poissons Ratio (z) = 0.33465 -0.12956
#
# Static dielectric constant tensor:
#      x y z
#    x 2.038640 0.000000 0.000000 
#    y 0.000000 2.076960 0.000000 
#    z 0.000000 0.000000 2.028710 
# 
# From -- ./inp_files/2557.got.cif
#   From: 2010.05.17/outbox.cif.g08.bks.cpg/sg39_2_cif.got.tgz:2557.got - 2010.06.03 18:22:40.
