data_PCOD9361826
_publ_section_title
;
Structure prediction by ZEFSAII (Michael W. Deem and Ramdas Pophale) SiO2 
 PCOD9361826
Probable space group: A B M 2
;
_chemical_formula_sum "Si O2"
_cell_formula_units_Z 56
_cell_length_a 8.066251
_cell_length_b 21.202030
_cell_length_c 16.601121
_cell_angle_alpha 90.000000
_cell_angle_beta 90.000000
_cell_angle_gamma 90.000000
_cell_volume 2839.138583
_symmetry_space_group_name_H-M "A B M 2"
_symmetry_group_IT_number 39
_symmetry_cell_setting 'orthorhombic'
loop_
_space_group_symop_operation_xyz
x,y,z
-x,-y,z
-x,1/2+y,z
x,1/2-y,z
x,1/2+y,1/2+z
-x,1/2-y,1/2+z
-x,y,1/2+z
x,-y,1/2+z
loop_
_atom_site_type_symbol
_atom_site_label
_atom_site_fract_x
_atom_site_fract_y
_atom_site_fract_z
Si Si1 0.683088 0.074644 0.105930
Si Si2 0.710274 0.568171 0.129066
Si Si3 0.708281 0.822474 0.736410
Si Si4 0.094581 0.562752 0.472001
Si Si5 0.665657 0.535214 0.430412
Si Si6 0.337912 0.364558 0.290700
Si Si7 0.993978 0.179842 0.866367
O O1 0.484537 0.076605 0.112857
O O2 0.745393 0.130661 0.162192
O O3 0.739048 0.006658 0.139751
O O4 0.719265 0.074156 0.010353
O O5 0.740326 0.607143 0.209145
O O6 0.809132 0.588379 0.049685
O O7 0.705344 0.750000 0.708884
O O8 0.522266 0.837342 0.771785
O O9 0.855312 0.828056 0.802175
O O10 0.214936 0.523859 0.411428
O O11 0.010723 0.619898 0.425433
O O12 0.000000 0.500000 0.502631
O O13 0.500000 0.500000 0.456547
O O14 0.637884 0.579185 0.354794
O O15 0.190034 0.322663 0.327640
O O16 0.015915 0.250000 0.903035
#
# Coordination Sequence:
#
# PCOD9361826 Si02
#       7
#     8   8   8   8   8   8   8
#     4   9  18  37  60  89 125 156 203 252 312 370
#     4   9  20  36  61  94 123 156 199 261 311 369
#     4  10  23  41  63  88 125 170 211 255 313 379
#     4  11  21  39  60  92 123 158 207 256 313 374
#     4  11  20  36  64  94 125 154 202 265 311 368
#     4  11  23  39  69  93 123 166 208 256 314 375
#     4  11  25  44  62  91 130 164 211 264 311 376
#
# _framework density 19.724291999999998
#
# number of rings (size 3 to 8) (size 9 to 14) (size 15 to 20)
#    0.000    1.714    4.286    1.286    6.000    2.286 
#    0.000    5.000    0.000    0.000    0.000    0.000 
#    0.000    0.000    0.000    0.000    0.000    0.000 
#
# Total GULP energy -155946.521906 kJ/mol
# GULP energy per Si atom -5569.518639 kJ/mol
# Density = 1.967940 g / cm^3
# Si number density = 19.724292 Si / 1000 Ang^3
#
#
#
# Elastic Constant Matrix: (Units=GPa)
#
#
# Indices 1 2 3 4 5 6 
#
# 1 68.7101 24.0687 11.5932 0.0000 0.0000 0.0000
# 2 24.0687 100.6732 52.3025 0.0000 0.0000 0.0000
# 3 11.5932 52.3025 57.2990 0.0000 0.0000 0.0000
# 4 0.0000 0.0000 0.0000 20.2358 0.0000 0.0000
# 5 0.0000 0.0000 0.0000 0.0000 25.3840 0.0000
# 6 0.0000 0.0000 0.0000 0.0000 0.0000 27.6477
#
#
#
# Elastic Compliance Matrix: (Units=1/GPa)
#
#
# Indices 1 2 3 4 5 6 
#
# 1 0.015891 -0.004049 0.000481 0.000000 0.000000 0.000000
# 2 -0.004049 0.019924 -0.017367 0.000000 0.000000 0.000000
# 3 0.000481 -0.017367 0.033208 0.000000 0.000000 0.000000
# 4 0.000000 0.000000 0.000000 0.049417 0.000000 0.000000
# 5 0.000000 0.000000 0.000000 0.000000 0.039395 0.000000
# 6 0.000000 0.000000 0.000000 0.000000 0.000000 0.036169
#
#
# Mechanical properties :
#
#
# Convention : Reuss Voigt Hill
#
# Bulk Modulus (GPa) = 36.83006 44.73457 40.78232
# Shear Modulus (GPa) = 20.41427 23.90135 22.15781
#
# Velocity S-wave (km/s) = 3.22060 3.48483 3.35532
# Velocity P-wave (km/s) = 5.70462 6.23869 5.97762
#
# Compressibility (1/GPa) = 0.02715173
#
# Stress axis : x y z
#
# Youngs Moduli (GPa) = 62.92830 50.19082 30.11323
#
# Poissons Ratio (x) = 0.20322 -0.01447
# Poissons Ratio (y) = 0.25479 0.52299
# Poissons Ratio (z) = -0.03024 0.87168
#
# Static dielectric constant tensor:
#      x y z
#    x 1.818540 0.000000 0.000000 
#    y 0.000000 1.700370 0.000000 
#    z 0.000000 0.000000 1.675480 
# 
# From -- ./inp_files/8640.got.cif
#   From: 2010.05.17/outbox.cif.g08.bks.cpg/sg39_5_cif.got.tgz:8640.got - 2010.06.03 18:22:40.
