data_PCOD9361308
_publ_section_title
;
Structure prediction by ZEFSAII (Michael W. Deem and Ramdas Pophale) SiO2 
 PCOD9361308
Probable space group: A B M 2
;
_chemical_formula_sum "Si O2"
_cell_formula_units_Z 64
_cell_length_a 15.222179
_cell_length_b 18.952274
_cell_length_c 11.250831
_cell_angle_alpha 90.000000
_cell_angle_beta 90.000000
_cell_angle_gamma 90.000000
_cell_volume 3245.807446
_symmetry_space_group_name_H-M "A B M 2"
_symmetry_group_IT_number 39
_symmetry_cell_setting 'orthorhombic'
loop_
_space_group_symop_operation_xyz
x,y,z
-x,-y,z
-x,1/2+y,z
x,1/2-y,z
x,1/2+y,1/2+z
-x,1/2-y,1/2+z
-x,y,1/2+z
x,-y,1/2+z
loop_
_atom_site_type_symbol
_atom_site_label
_atom_site_fract_x
_atom_site_fract_y
_atom_site_fract_z
Si Si1 0.141931 0.326911 0.355580
Si Si2 0.735517 0.328324 0.064580
Si Si3 0.683690 0.024137 0.984335
Si Si4 0.596881 0.531809 0.228792
Si Si5 0.861891 0.833906 0.763427
Si Si6 0.026671 0.580306 0.706230
Si Si7 0.823260 0.589795 0.007522
Si Si8 0.307661 0.168696 0.178408
O O1 0.102723 0.250000 0.324896
O O2 0.174286 0.325996 0.489280
O O3 0.077699 0.388640 0.320030
O O4 0.231890 0.333461 0.279661
O O5 0.695518 0.250000 0.056183
O O6 0.683609 0.392282 0.007873
O O7 0.768747 0.343952 0.196624
O O8 0.636434 0.995461 0.103379
O O9 0.644205 0.010199 0.853200
O O10 0.779529 0.986951 0.986264
O O11 0.500000 0.500000 0.236484
O O12 0.614171 0.616119 0.215842
O O13 0.876044 0.750000 0.774548
O O14 0.855386 0.873103 0.888651
O O15 0.941035 0.871379 0.693413
O O16 0.096329 0.585999 0.599291
O O17 0.000000 0.500000 0.722408
O O18 0.744983 0.637024 0.065447
O O19 0.333551 0.250000 0.161375
#
# Coordination Sequence:
#
# PCOD9361308 Si02
#       8
#     8   8   8   8   8   8   8   8
#     4   9  18  35  58  83 109 149 205 251 292 352
#     4  10  21  37  61  88 114 156 213 255 297 360
#     4  11  22  41  67  88 126 166 204 252 306 374
#     4  11  23  39  64  98 128 157 194 249 317 380
#     4  11  24  38  56  85 123 160 200 260 321 358
#     4  11  24  37  55  81 118 156 203 260 311 359
#     4  10  23  39  60  86 118 164 211 254 302 371
#     4   9  18  38  66  89 111 156 208 247 291 364
#
# _framework density 19.717744
#
# number of rings (size 3 to 8) (size 9 to 14) (size 15 to 20)
#    0.000    1.750    1.250    2.625    3.500    2.000 
#    0.000    0.625    0.000    6.750    0.000    0.000 
#    0.000    0.000    0.000    0.000    0.000    0.000 
#
# Total GULP energy -178449.139392 kJ/mol
# GULP energy per Si atom -5576.535606 kJ/mol
# Density = 1.967287 g / cm^3
# Si number density = 19.717744 Si / 1000 Ang^3
#
#
#
# Elastic Constant Matrix: (Units=GPa)
#
#
# Indices 1 2 3 4 5 6 
#
# 1 65.4172 41.4452 24.7867 0.0000 0.0000 0.0000
# 2 41.4452 125.7313 32.7766 0.0000 0.0000 0.0000
# 3 24.7867 32.7766 85.9763 0.0000 0.0000 0.0000
# 4 0.0000 0.0000 0.0000 14.8611 0.0000 0.0000
# 5 0.0000 0.0000 0.0000 0.0000 23.6930 0.0000
# 6 0.0000 0.0000 0.0000 0.0000 0.0000 20.4197
#
#
#
# Elastic Compliance Matrix: (Units=1/GPa)
#
#
# Indices 1 2 3 4 5 6 
#
# 1 0.020313 -0.005739 -0.003668 0.000000 0.000000 0.000000
# 2 -0.005739 0.010453 -0.002330 0.000000 0.000000 0.000000
# 3 -0.003668 -0.002330 0.013577 0.000000 0.000000 0.000000
# 4 0.000000 0.000000 0.000000 0.067290 0.000000 0.000000
# 5 0.000000 0.000000 0.000000 0.000000 0.042207 0.000000
# 6 0.000000 0.000000 0.000000 0.000000 0.000000 0.048972
#
#
# Mechanical properties :
#
#
# Convention : Reuss Voigt Hill
#
# Bulk Modulus (GPa) = 47.92279 52.79354 50.35817
# Shear Modulus (GPa) = 21.43694 23.66918 22.55306
#
# Velocity S-wave (km/s) = 3.30083 3.46844 3.38567
# Velocity P-wave (km/s) = 6.23574 6.54774 6.39364
#
# Compressibility (1/GPa) = 0.02086690
#
# Stress axis : x y z
#
# Youngs Moduli (GPa) = 49.23059 95.66755 73.65434
#
# Poissons Ratio (x) = 0.54908 0.27016
# Poissons Ratio (y) = 0.28256 0.17163
# Poissons Ratio (z) = 0.18058 0.22293
#
# Static dielectric constant tensor:
#      x y z
#    x 1.680460 0.000000 0.000000 
#    y 0.000000 1.717890 0.000000 
#    z 0.000000 0.000000 1.724150 
# 
# From -- ./inp_files/6625.got.cif
#   From: 2010.05.17/outbox.cif.g08.bks.cpg/sg39_4_cif.got.tgz:6625.got - 2010.06.03 18:22:40.
