data_PCOD9361976
_publ_section_title
;
Structure prediction by ZEFSAII (Michael W. Deem and Ramdas Pophale) SiO2 
 PCOD9361976
Probable space group: A B M 2
;
_chemical_formula_sum "Si O2"
_cell_formula_units_Z 64
_cell_length_a 16.874749
_cell_length_b 15.607252
_cell_length_c 12.735565
_cell_angle_alpha 90.000000
_cell_angle_beta 90.000000
_cell_angle_gamma 90.000000
_cell_volume 3354.146142
_symmetry_space_group_name_H-M "A B M 2"
_symmetry_group_IT_number 39
_symmetry_cell_setting 'orthorhombic'
loop_
_space_group_symop_operation_xyz
x,y,z
-x,-y,z
-x,1/2+y,z
x,1/2-y,z
x,1/2+y,1/2+z
-x,1/2-y,1/2+z
-x,y,1/2+z
x,-y,1/2+z
loop_
_atom_site_type_symbol
_atom_site_label
_atom_site_fract_x
_atom_site_fract_y
_atom_site_fract_z
Si Si1 0.176488 0.344355 0.503130
Si Si2 0.202719 0.912473 0.689971
Si Si3 0.702718 0.087528 0.153635
Si Si4 0.161003 0.655146 0.464011
Si Si5 0.407801 0.517754 0.969266
Si Si6 0.323513 0.655645 0.840473
Si Si7 0.338999 0.155146 0.879592
Si Si8 0.092199 0.517754 0.874338
O O1 0.140232 0.250000 0.493479
O O2 0.225764 0.353441 0.610207
O O3 0.250000 0.351691 0.421801
O O4 0.115947 0.419702 0.472301
O O5 0.165196 0.872951 0.585799
O O6 0.274237 0.853441 0.733396
O O7 0.135621 0.936360 0.775977
O O8 0.250001 0.000001 0.671807
O O9 0.665193 0.127053 0.257803
O O10 0.635622 0.063638 0.067627
O O11 0.123844 0.750000 0.452876
O O12 0.250001 0.661250 0.421801
O O13 0.125687 0.576221 0.399420
O O14 0.500000 0.500000 0.985024
O O15 0.384055 0.580299 0.871303
O O16 0.374314 0.423779 0.944181
O O17 0.359769 0.750000 0.850123
O O18 0.376159 0.250000 0.890732
O O19 0.000000 0.500000 0.858582
#
# Coordination Sequence:
#
# PCOD9361976 Si02
#       8
#     8   8   8   8   8   8   8   8
#     4   9  18  35  61  87 112 152 205 247 289 352
#     4  11  19  38  63  87 117 159 207 249 295 358
#     4  11  19  38  63  87 117 159 207 249 295 358
#     4  11  22  39  63  91 120 156 202 255 303 358
#     4  11  23  38  60  88 126 160 196 253 313 363
#     4   9  18  35  61  87 112 152 205 247 289 352
#     4  11  22  39  63  91 120 156 202 255 303 358
#     4  11  23  38  60  88 126 160 196 253 313 363
#
# _framework density 19.080862
#
# number of rings (size 3 to 8) (size 9 to 14) (size 15 to 20)
#    0.000    1.500    5.000    1.500    0.000    3.000 
#    0.000    0.000    0.000    0.000    0.000    0.000 
#    0.000    0.000    0.000    0.000    0.000    0.000 
#
# Total GULP energy -178252.009450 kJ/mol
# GULP energy per Si atom -5570.375295 kJ/mol
# Density = 1.903743 g / cm^3
# Si number density = 19.080862 Si / 1000 Ang^3
#
#
#
# Elastic Constant Matrix: (Units=GPa)
#
#
# Indices 1 2 3 4 5 6 
#
# 1 89.6794 40.9398 20.9209 0.0000 0.0000 0.0000
# 2 40.9398 146.2753 15.1643 0.0000 0.0000 0.0000
# 3 20.9209 15.1643 66.7045 0.0000 0.0000 0.0000
# 4 0.0000 0.0000 0.0000 35.5360 0.0000 0.0000
# 5 0.0000 0.0000 0.0000 0.0000 10.4651 0.0000
# 6 0.0000 0.0000 0.0000 0.0000 0.0000 1.1312
#
#
#
# Elastic Compliance Matrix: (Units=1/GPa)
#
#
# Indices 1 2 3 4 5 6 
#
# 1 0.013522 -0.003426 -0.003462 0.000000 0.000000 0.000000
# 2 -0.003426 0.007869 -0.000715 0.000000 0.000000 0.000000
# 3 -0.003462 -0.000715 0.016240 0.000000 0.000000 0.000000
# 4 0.000000 0.000000 0.000000 0.028140 0.000000 0.000000
# 5 0.000000 0.000000 0.000000 0.000000 0.095555 0.000000
# 6 0.000000 0.000000 0.000000 0.000000 0.000000 0.884010
#
#
# Mechanical properties :
#
#
# Convention : Reuss Voigt Hill
#
# Bulk Modulus (GPa) = 44.59039 50.74549 47.66794
# Shear Modulus (GPa) = 4.68157 24.46875 14.57516
#
# Velocity S-wave (km/s) = 1.56808 3.58491 2.76681
# Velocity P-wave (km/s) = 5.16705 6.61726 5.93660
#
# Compressibility (1/GPa) = 0.02242636
#
# Stress axis : x y z
#
# Youngs Moduli (GPa) = 73.95112 127.07604 61.57699
#
# Poissons Ratio (x) = 0.43533 0.21320
# Poissons Ratio (y) = 0.25334 0.04400
# Poissons Ratio (z) = 0.25604 0.09080
#
# Static dielectric constant tensor:
#      x y z
#    x 1.754580 0.000000 0.000000 
#    y 0.000000 1.726520 0.000000 
#    z 0.000000 0.000000 1.745540 
# 
# From -- ./inp_files/6911.got.cif
#   From: 2010.05.17/outbox.cif.g08.bks.cpg/sg39_4_cif.got.tgz:6911.got - 2010.06.03 18:22:40.
