data_PCOD9361359
_publ_section_title
;
Structure prediction by ZEFSAII (Michael W. Deem and Ramdas Pophale) SiO2 
 PCOD9361359
Probable space group: A B M 2
;
_chemical_formula_sum "Si O2"
_cell_formula_units_Z 52
_cell_length_a 8.769612
_cell_length_b 23.512866
_cell_length_c 13.812536
_cell_angle_alpha 90.000000
_cell_angle_beta 90.000000
_cell_angle_gamma 90.000000
_cell_volume 2848.127130
_symmetry_space_group_name_H-M "A B M 2"
_symmetry_group_IT_number 39
_symmetry_cell_setting 'orthorhombic'
loop_
_space_group_symop_operation_xyz
x,y,z
-x,-y,z
-x,1/2+y,z
x,1/2-y,z
x,1/2+y,1/2+z
-x,1/2-y,1/2+z
-x,y,1/2+z
x,-y,1/2+z
loop_
_atom_site_type_symbol
_atom_site_label
_atom_site_fract_x
_atom_site_fract_y
_atom_site_fract_z
Si Si1 0.666484 0.338496 0.936970
Si Si2 0.856305 0.542770 0.024102
Si Si3 0.357476 0.534047 0.901635
Si Si4 0.016453 0.358437 0.888722
Si Si5 0.232949 0.750000 0.390107
Si Si6 0.457050 0.250000 0.283814
Si Si7 0.896602 0.556463 0.241462
Si Si8 0.483885 0.750000 0.557114
O O1 0.605664 0.402808 0.938439
O O2 0.850915 0.342244 0.934436
O O3 0.615413 0.304344 0.839869
O O4 0.588747 0.303366 0.023750
O O5 0.837353 0.564674 0.133102
O O6 0.000000 0.500000 0.022518
O O7 0.717230 0.505559 0.983942
O O8 0.900643 0.594207 0.954042
O O9 0.500000 0.500000 0.862231
O O10 0.235898 0.543833 0.817438
O O11 0.983491 0.389191 0.785941
O O12 0.125284 0.304589 0.882449
O O13 0.363403 0.750000 0.308347
O O14 0.333595 0.750000 0.488900
O O15 0.438912 0.250000 0.169020
O O16 0.000000 0.500000 0.241651
#
# Coordination Sequence:
#
# PCOD9361359 Si02
#       8
#     8   8   8   8   4   4   8   4
#     4   9  21  41  61  86 119 165 196 254 308 356
#     4  11  21  39  62  92 121 161 201 250 308 368
#     4  11  22  39  61  89 129 161 201 251 307 367
#     4  11  20  42  63  88 122 157 207 258 304 359
#     4  10  24  36  66  90 110 164 208 253 300 365
#     4  10  23  43  59  85 127 156 206 247 312 361
#     4  10  21  38  62  89 121 160 198 248 306 363
#     4  10  23  43  61  87 125 162 202 254 304 364
#
# _framework density 18.257612999999999
#
# number of rings (size 3 to 8) (size 9 to 14) (size 15 to 20)
#    0.000    1.846    4.615    0.923    4.308    4.308 
#    2.769    2.308    0.000    0.000    0.000    0.000 
#    0.000    0.000    0.000    0.000    0.000    0.000 
#
# Total GULP energy -145061.339198 kJ/mol
# GULP energy per Si atom -5579.282277 kJ/mol
# Density = 1.821606 g / cm^3
# Si number density = 18.257613 Si / 1000 Ang^3
#
#
#
# Elastic Constant Matrix: (Units=GPa)
#
#
# Indices 1 2 3 4 5 6 
#
# 1 52.7262 52.0822 5.4656 0.0000 0.0000 0.0000
# 2 52.0822 146.6127 47.5374 0.0000 0.0000 0.0000
# 3 5.4656 47.5374 123.1720 0.0000 0.0000 0.0000
# 4 0.0000 0.0000 0.0000 3.8410 0.0000 0.0000
# 5 0.0000 0.0000 0.0000 0.0000 -4.2624 0.0000
# 6 0.0000 0.0000 0.0000 0.0000 0.0000 33.2506
#
#
#
# Elastic Compliance Matrix: (Units=1/GPa)
#
#
# Indices 1 2 3 4 5 6 
#
# 1 0.030290 -0.011801 0.003210 0.000000 0.000000 0.000000
# 2 -0.011801 0.012394 -0.004260 0.000000 0.000000 0.000000
# 3 0.003210 -0.004260 0.009620 0.000000 0.000000 0.000000
# 4 0.000000 0.000000 0.000000 0.260352 0.000000 0.000000
# 5 0.000000 0.000000 0.000000 0.000000 -0.234612 0.000000
# 6 0.000000 0.000000 0.000000 0.000000 0.000000 0.030075
#
#
# Mechanical properties :
#
#
# Convention : Reuss Voigt Hill
#
# Bulk Modulus (GPa) = 37.58882 59.18683 48.38782
# Shear Modulus (GPa) = 35.04159 21.06089 28.05124
#
# Velocity S-wave (km/s) = 4.38572 3.40007 3.92396
# Velocity P-wave (km/s) = 6.80285 6.92112 6.86224
#
# Compressibility (1/GPa) = 0.02660366
#
# Stress axis : x y z
#
# Youngs Moduli (GPa) = 33.01413 80.68389 103.94702
#
# Poissons Ratio (x) = 0.95216 -0.33372
# Poissons Ratio (y) = 0.38960 0.44279
# Poissons Ratio (z) = -0.10599 0.34369
#
# Static dielectric constant tensor:
#      x y z
#    x 1.636080 0.000000 0.000000 
#    y 0.000000 1.720540 0.000000 
#    z 0.000000 0.000000 1.621520 
# 
# From -- ./inp_files/8577.got.cif
#   From: 2010.05.17/outbox.cif.g08.bks.cpg/sg39_5_cif.got.tgz:8577.got - 2010.06.03 18:22:40.
