data_PCOD9361787
_publ_section_title
;
Structure prediction by ZEFSAII (Michael W. Deem and Ramdas Pophale) SiO2 
 PCOD9361787
Probable space group: A B M 2
;
_chemical_formula_sum "Si O2"
_cell_formula_units_Z 36
_cell_length_a 7.515316
_cell_length_b 18.979380
_cell_length_c 12.103500
_cell_angle_alpha 90.000000
_cell_angle_beta 90.000000
_cell_angle_gamma 90.000000
_cell_volume 1726.395288
_symmetry_space_group_name_H-M "A B M 2"
_symmetry_group_IT_number 39
_symmetry_cell_setting 'orthorhombic'
loop_
_space_group_symop_operation_xyz
x,y,z
-x,-y,z
-x,1/2+y,z
x,1/2-y,z
x,1/2+y,1/2+z
-x,1/2-y,1/2+z
-x,y,1/2+z
x,-y,1/2+z
loop_
_atom_site_type_symbol
_atom_site_label
_atom_site_fract_x
_atom_site_fract_y
_atom_site_fract_z
Si Si1 0.244368 0.600907 0.660220
Si Si2 0.130625 0.750000 0.896550
Si Si3 0.536443 0.829101 0.330476
Si Si4 0.064865 0.250000 0.136069
Si Si5 0.000000 0.000000 0.797053
Si Si6 0.663188 0.551526 0.932992
O O1 0.420061 0.619524 0.729830
O O2 0.173684 0.677693 0.625178
O O3 0.293928 0.550024 0.561310
O O4 0.089385 0.562131 0.726969
O O5 0.269756 0.684343 0.886610
O O6 0.025425 0.750000 0.774894
O O7 0.051692 0.750000 0.021003
O O8 0.479245 0.750000 0.297863
O O9 0.398772 0.869092 0.406288
O O10 0.839239 0.968784 0.868122
O O11 0.500000 0.500000 0.906180
#
# Coordination Sequence:
#
# PCOD9361787 Si02
#       6
#     8   4   8   4   4   8
#     4  11  25  45  70 106 144 187 249 304 368 447
#     4   8  20  41  69 109 146 189 239 306 375 440
#     4   9  22  47  69 101 145 184 244 299 371 436
#     4  10  22  43  73 105 150 185 249 312 367 448
#     4  12  28  50  68 106 146 198 238 308 378 448
#     4  12  27  45  77 102 144 192 245 299 373 455
#
# _framework density 20.852696999999999
#
# number of rings (size 3 to 8) (size 9 to 14) (size 15 to 20)
#    0.667    0.889    3.333    0.667   10.889    1.778 
#    2.000    0.000    0.000    0.000    0.000    0.000 
#    0.000    0.000    0.000    0.000    0.000    0.000 
#
# Total GULP energy -100221.878851 kJ/mol
# GULP energy per Si atom -5567.882158 kJ/mol
# Density = 2.080524 g / cm^3
# Si number density = 20.852697 Si / 1000 Ang^3
#
#
#
# Elastic Constant Matrix: (Units=GPa)
#
#
# Indices 1 2 3 4 5 6 
#
# 1 83.4330 29.7528 64.9008 0.0000 0.0000 0.0000
# 2 29.7528 88.7296 30.1387 0.0000 0.0000 0.0000
# 3 64.9008 30.1387 111.1654 0.0000 0.0000 0.0000
# 4 0.0000 0.0000 0.0000 -38.1788 0.0000 0.0000
# 5 0.0000 0.0000 0.0000 0.0000 -55.3538 0.0000
# 6 0.0000 0.0000 0.0000 0.0000 0.0000 -8.8400
#
#
#
# Elastic Compliance Matrix: (Units=1/GPa)
#
#
# Indices 1 2 3 4 5 6 
#
# 1 0.022879 -0.003453 -0.012421 0.000000 0.000000 0.000000
# 2 -0.003453 0.012934 -0.001491 0.000000 0.000000 0.000000
# 3 -0.012421 -0.001491 0.016652 0.000000 0.000000 0.000000
# 4 0.000000 0.000000 0.000000 -0.026193 0.000000 0.000000
# 5 0.000000 0.000000 0.000000 0.000000 -0.018066 0.000000
# 6 0.000000 0.000000 0.000000 0.000000 0.000000 -0.113122
#
#
# Mechanical properties :
#
#
# Convention : Reuss Voigt Hill
#
# Bulk Modulus (GPa) = 56.38466 59.21252 57.79859
# Shear Modulus (GPa) = -77.79266 -9.90549 -43.84907
#
# Velocity S-wave (km/s) = -6.11447 -2.18186 -4.59061
# Velocity P-wave (km/s) = 4.76978 4.70212 0.56611
#
# Compressibility (1/GPa) = 0.01773532
#
# Stress axis : x y z
#
# Youngs Moduli (GPa) = 43.70778 77.31326 60.05403
#
# Poissons Ratio (x) = 0.26694 0.74595
# Poissons Ratio (y) = 0.15091 0.08954
# Poissons Ratio (z) = 0.54291 0.11527
#
# Static dielectric constant tensor:
#      x y z
#    x 1.769530 0.000000 0.000000 
#    y 0.000000 1.734820 0.000000 
#    z 0.000000 0.000000 1.828400 
# 
# From -- ./inp_files/2058.got.cif
#   From: 2010.05.17/outbox.cif.g08.bks.cpg/sg39_2_cif.got.tgz:2058.got - 2010.06.03 18:22:40.
