data_PCOD9361245
_publ_section_title
;
Structure prediction by ZEFSAII (Michael W. Deem and Ramdas Pophale) SiO2 
 PCOD9361245
Probable space group: A B M 2
;
_chemical_formula_sum "Si O2"
_cell_formula_units_Z 40
_cell_length_a 11.681906
_cell_length_b 17.100951
_cell_length_c 9.209632
_cell_angle_alpha 90.000000
_cell_angle_beta 90.000000
_cell_angle_gamma 90.000000
_cell_volume 1839.823860
_symmetry_space_group_name_H-M "A B M 2"
_symmetry_group_IT_number 39
_symmetry_cell_setting 'orthorhombic'
loop_
_space_group_symop_operation_xyz
x,y,z
-x,-y,z
-x,1/2+y,z
x,1/2-y,z
x,1/2+y,1/2+z
-x,1/2-y,1/2+z
-x,y,1/2+z
x,-y,1/2+z
loop_
_atom_site_type_symbol
_atom_site_label
_atom_site_fract_x
_atom_site_fract_y
_atom_site_fract_z
Si Si1 0.367873 0.846035 0.830480
Si Si2 0.590893 0.338427 0.156564
Si Si3 0.153392 0.450803 0.260418
Si Si4 0.999072 0.880508 0.011608
Si Si5 0.837265 0.362229 0.263089
O O1 0.350176 0.750000 0.824341
O O2 0.483928 0.869521 0.746753
O O3 0.263422 0.894729 0.763756
O O4 0.380213 0.872391 0.998682
O O5 0.555183 0.250000 0.121547
O O6 0.707132 0.335825 0.248902
O O7 0.079558 0.430166 0.119528
O O8 0.173349 0.543089 0.263928
O O9 0.078391 0.427250 0.399679
O O10 0.088059 0.839085 0.121323
O O11 0.909320 0.838006 0.904588
#
# Coordination Sequence:
#
# PCOD9361245 Si02
#       5
#     8   8   8   8   8
#     4  10  23  43  62  83 116 156 197 243 295 346
#     4  10  23  43  62  83 116 156 197 243 295 346
#     4  11  20  37  61  89 118 154 194 237 286 348
#     4  10  21  36  59  88 125 156 185 232 297 350
#     4  11  20  37  61  89 118 154 194 237 286 348
#
# _framework density 21.741212999999998
#
# number of rings (size 3 to 8) (size 9 to 14) (size 15 to 20)
#    0.000    1.600    2.000    4.800    2.800    0.800 
#    0.000    8.000    0.000    0.000    0.000    0.000 
#    0.000    0.000    0.000    0.000    0.000    0.000 
#
# Total GULP energy -111655.052187 kJ/mol
# GULP energy per Si atom -5582.752609 kJ/mol
# Density = 2.169173 g / cm^3
# Si number density = 21.741213 Si / 1000 Ang^3
#
#
#
# Elastic Constant Matrix: (Units=GPa)
#
#
# Indices 1 2 3 4 5 6 
#
# 1 188.1390 40.9021 61.0235 0.0000 0.0000 0.0000
# 2 40.9021 93.9336 26.6164 0.0000 0.0000 0.0000
# 3 61.0235 26.6164 125.0519 0.0000 0.0000 0.0000
# 4 0.0000 0.0000 0.0000 -10.0417 0.0000 0.0000
# 5 0.0000 0.0000 0.0000 0.0000 28.8360 0.0000
# 6 0.0000 0.0000 0.0000 0.0000 0.0000 30.2332
#
#
#
# Elastic Compliance Matrix: (Units=1/GPa)
#
#
# Indices 1 2 3 4 5 6 
#
# 1 0.006687 -0.002115 -0.002813 0.000000 0.000000 0.000000
# 2 -0.002115 0.011998 -0.001522 0.000000 0.000000 0.000000
# 3 -0.002813 -0.001522 0.009693 0.000000 0.000000 0.000000
# 4 0.000000 0.000000 0.000000 -0.099584 0.000000 0.000000
# 5 0.000000 0.000000 0.000000 0.000000 0.034679 0.000000
# 6 0.000000 0.000000 0.000000 0.000000 0.000000 0.033076
#
#
# Mechanical properties :
#
#
# Convention : Reuss Voigt Hill
#
# Bulk Modulus (GPa) = 64.60269 73.80094 69.20181
# Shear Modulus (GPa) = 342.26410 28.37767 185.32088
#
# Velocity S-wave (km/s) = 12.56058 3.61674 9.24254
# Velocity P-wave (km/s) = 15.49634 7.17356 12.07469
#
# Compressibility (1/GPa) = 0.01547923
#
# Stress axis : x y z
#
# Youngs Moduli (GPa) = 149.53308 83.34821 103.16314
#
# Poissons Ratio (x) = 0.17627 0.29023
# Poissons Ratio (y) = 0.31624 0.15698
# Poissons Ratio (z) = 0.42068 0.12683
#
# Static dielectric constant tensor:
#      x y z
#    x 1.779200 0.000000 0.000000 
#    y 0.000000 1.837750 0.000000 
#    z 0.000000 0.000000 1.813920 
# 
# From -- ./inp_files/2111.got.cif
#   From: 2010.05.17/outbox.cif.g08.bks.cpg/sg39_2_cif.got.tgz:2111.got - 2010.06.03 18:22:40.
