data_PCOD9361903
_publ_section_title
;
Structure prediction by ZEFSAII (Michael W. Deem and Ramdas Pophale) SiO2 
 PCOD9361903
Probable space group: A B M 2
;
_chemical_formula_sum "Si O2"
_cell_formula_units_Z 40
_cell_length_a 14.399197
_cell_length_b 15.186409
_cell_length_c 8.649363
_cell_angle_alpha 90.000000
_cell_angle_beta 90.000000
_cell_angle_gamma 90.000000
_cell_volume 1891.374327
_symmetry_space_group_name_H-M "A B M 2"
_symmetry_group_IT_number 39
_symmetry_cell_setting 'orthorhombic'
loop_
_space_group_symop_operation_xyz
x,y,z
-x,-y,z
-x,1/2+y,z
x,1/2-y,z
x,1/2+y,1/2+z
-x,1/2-y,1/2+z
-x,y,1/2+z
x,-y,1/2+z
loop_
_atom_site_type_symbol
_atom_site_label
_atom_site_fract_x
_atom_site_fract_y
_atom_site_fract_z
Si Si1 0.284165 0.947125 0.680570
Si Si2 0.409746 0.557788 0.397645
Si Si3 0.379178 0.250000 0.874936
Si Si4 0.746138 0.750000 0.569445
Si Si5 0.700596 0.250000 0.731655
Si Si6 0.000000 0.000000 0.300157
Si Si7 0.130374 0.425019 0.558458
O O1 0.374709 0.939132 0.572556
O O2 0.255331 0.847892 0.723970
O O3 0.322994 0.011783 0.812147
O O4 0.201152 0.995938 0.595645
O O5 0.500000 0.500000 0.380167
O O6 0.429547 0.657514 0.345975
O O7 0.300352 0.250000 0.740164
O O8 0.349657 0.250000 0.058502
O O9 0.675233 0.750000 0.419531
O O10 0.810938 0.664003 0.557085
O O11 0.054149 0.930308 0.193946
O O12 0.925469 0.949129 0.404639
#
# Coordination Sequence:
#
# PCOD9361903 Si02
#       7
#     8   8   4   4   4   4   8
#     4  11  22  42  66  95 133 184 226 279 351 420
#     4  11  23  41  65  98 135 176 231 290 342 402
#     4  10  24  43  67 103 137 182 234 285 342 415
#     4  12  22  42  72 102 130 190 230 277 347 434
#     4  10  24  39  65 103 129 172 244 276 331 417
#     4  10  24  42  62 100 136 174 224 302 340 410
#     4  11  23  42  67  96 137 178 230 281 354 418
#
# _framework density 21.148644000000001
#
# number of rings (size 3 to 8) (size 9 to 14) (size 15 to 20)
#    0.000    1.200    2.000    4.200    2.800    1.600 
#    0.000    8.000    0.000    0.000    0.000    0.000 
#    0.000    0.000    0.000    0.000    0.000    0.000 
#
# Total GULP energy -111436.085206 kJ/mol
# GULP energy per Si atom -5571.804260 kJ/mol
# Density = 2.110051 g / cm^3
# Si number density = 21.148644 Si / 1000 Ang^3
#
#
#
# Elastic Constant Matrix: (Units=GPa)
#
#
# Indices 1 2 3 4 5 6 
#
# 1 80.3366 40.4011 37.9665 0.0000 0.0000 0.0000
# 2 40.4011 192.4481 27.6171 0.0000 0.0000 0.0000
# 3 37.9665 27.6171 107.0039 0.0000 0.0000 0.0000
# 4 0.0000 0.0000 0.0000 14.3095 0.0000 0.0000
# 5 0.0000 0.0000 0.0000 0.0000 25.5771 0.0000
# 6 0.0000 0.0000 0.0000 0.0000 0.0000 18.2544
#
#
#
# Elastic Compliance Matrix: (Units=1/GPa)
#
#
# Indices 1 2 3 4 5 6 
#
# 1 0.016178 -0.002671 -0.005051 0.000000 0.000000 0.000000
# 2 -0.002671 0.005837 -0.000559 0.000000 0.000000 0.000000
# 3 -0.005051 -0.000559 0.011282 0.000000 0.000000 0.000000
# 4 0.000000 0.000000 0.000000 0.069884 0.000000 0.000000
# 5 0.000000 0.000000 0.000000 0.000000 0.039097 0.000000
# 6 0.000000 0.000000 0.000000 0.000000 0.000000 0.054781
#
#
# Mechanical properties :
#
#
# Convention : Reuss Voigt Hill
#
# Bulk Modulus (GPa) = 59.75420 65.75090 62.75255
# Shear Modulus (GPa) = 22.81025 29.88179 26.34602
#
# Velocity S-wave (km/s) = 3.28772 3.76299 3.53335
# Velocity P-wave (km/s) = 6.53665 7.07372 6.81048
#
# Compressibility (1/GPa) = 0.01673522
#
# Stress axis : x y z
#
# Youngs Moduli (GPa) = 61.81216 171.31471 88.63908
#
# Poissons Ratio (x) = 0.45767 0.44769
# Poissons Ratio (y) = 0.16513 0.04952
# Poissons Ratio (z) = 0.31219 0.09571
#
# Static dielectric constant tensor:
#      x y z
#    x 1.750800 0.000000 0.000000 
#    y 0.000000 1.743510 0.000000 
#    z 0.000000 0.000000 1.858660 
# 
# From -- ./inp_files/3116.got.cif
#   From: 2010.05.17/outbox.cif.g08.bks.cpg/sg39_2_cif.got.tgz:3116.got - 2010.06.03 18:22:40.
