data_PCOD9361038
_publ_section_title
;
Structure prediction by ZEFSAII (Michael W. Deem and Ramdas Pophale) SiO2 
 PCOD9361038
Probable space group: A B M 2
;
_chemical_formula_sum "Si O2"
_cell_formula_units_Z 64
_cell_length_a 15.037707
_cell_length_b 16.469193
_cell_length_c 10.290385
_cell_angle_alpha 90.000000
_cell_angle_beta 90.000000
_cell_angle_gamma 90.000000
_cell_volume 2548.505418
_symmetry_space_group_name_H-M "A B M 2"
_symmetry_group_IT_number 39
_symmetry_cell_setting 'orthorhombic'
loop_
_space_group_symop_operation_xyz
x,y,z
-x,-y,z
-x,1/2+y,z
x,1/2-y,z
x,1/2+y,1/2+z
-x,1/2-y,1/2+z
-x,y,1/2+z
x,-y,1/2+z
loop_
_atom_site_type_symbol
_atom_site_label
_atom_site_fract_x
_atom_site_fract_y
_atom_site_fract_z
Si Si1 0.142114 0.836534 0.327230
Si Si2 0.917053 0.522093 0.673121
Si Si3 0.767025 0.062371 0.525131
Si Si4 0.964899 0.838937 0.489748
Si Si5 0.652262 0.659133 0.190283
Si Si6 0.236185 0.117787 0.434474
Si Si7 0.402712 0.847548 0.116381
Si Si8 0.479966 0.154922 0.871956
O O1 0.165034 0.750000 0.270538
O O2 0.147697 0.910198 0.230285
O O3 0.204467 0.858727 0.446076
O O4 0.040913 0.837264 0.380834
O O5 0.848687 0.455583 0.623316
O O6 0.973862 0.578728 0.572947
O O7 0.000000 0.500000 0.766618
O O8 0.674881 0.086911 0.591525
O O9 0.766112 0.980462 0.440597
O O10 0.975461 0.750000 0.557300
O O11 0.862717 0.847362 0.447456
O O12 0.654551 0.750000 0.133976
O O13 0.727095 0.651185 0.300144
O O14 0.563420 0.650944 0.273292
O O15 0.308071 0.139132 0.546261
O O16 0.414847 0.750000 0.124516
O O17 0.478806 0.876344 0.010025
O O18 0.407547 0.879423 0.266832
O O19 0.458731 0.250000 0.895356
#
# Coordination Sequence:
#
# PCOD9361038 Si02
#       8
#     8   8   8   8   8   8   8   8
#     4  11  24  39  57  81 112 152 199 244 287 346
#     4  11  23  37  57  78 112 148 189 239 299 342
#     4  11  23  39  58  84 117 153 192 242 307 349
#     4  10  21  37  56  83 112 147 196 244 288 343
#     4  10  20  38  61  87 114 152 201 244 289 359
#     4  10  21  35  59  87 118 154 195 245 301 359
#     4   9  16  33  58  90 121 157 203 250 303 368
#     4   8  16  31  57  87 119 153 198 249 299 362
#
# _framework density 25.112757999999999
#
# number of rings (size 3 to 8) (size 9 to 14) (size 15 to 20)
#    0.000    2.000    1.250    3.375    5.250    0.000 
#    0.000    4.375    0.000    7.500    0.000    0.000 
#    0.000    0.000    0.000    0.000    0.000    0.000 
#
# Total GULP energy -178502.272819 kJ/mol
# GULP energy per Si atom -5578.196026 kJ/mol
# Density = 2.505560 g / cm^3
# Si number density = 25.112758 Si / 1000 Ang^3
#
#
#
# Elastic Constant Matrix: (Units=GPa)
#
#
# Indices 1 2 3 4 5 6 
#
# 1 86.1021 -3.6524 14.5763 0.0000 0.0000 0.0000
# 2 -3.6524 59.8354 -5.3172 0.0000 0.0000 0.0000
# 3 14.5763 -5.3172 69.5606 0.0000 0.0000 0.0000
# 4 0.0000 0.0000 0.0000 -29.5436 0.0000 0.0000
# 5 0.0000 0.0000 0.0000 0.0000 33.4707 0.0000
# 6 0.0000 0.0000 0.0000 0.0000 0.0000 20.6670
#
#
#
# Elastic Compliance Matrix: (Units=1/GPa)
#
#
# Indices 1 2 3 4 5 6 
#
# 1 0.012057 0.000515 -0.002487 0.000000 0.000000 0.000000
# 2 0.000515 0.016849 0.001180 0.000000 0.000000 0.000000
# 3 -0.002487 0.001180 0.014987 0.000000 0.000000 0.000000
# 4 0.000000 0.000000 0.000000 -0.033848 0.000000 0.000000
# 5 0.000000 0.000000 0.000000 0.000000 0.029877 0.000000
# 6 0.000000 0.000000 0.000000 0.000000 0.000000 0.048386
#
#
# Mechanical properties :
#
#
# Convention : Reuss Voigt Hill
#
# Bulk Modulus (GPa) = 23.63576 25.19016 24.41296
# Shear Modulus (GPa) = 48.07897 18.91156 33.49526
#
# Velocity S-wave (km/s) = 4.38027 2.74718 3.65608
# Velocity P-wave (km/s) = 5.91732 4.48501 5.25024
#
# Compressibility (1/GPa) = 0.04230877
#
# Stress axis : x y z
#
# Youngs Moduli (GPa) = 82.93922 59.35136 66.72301
#
# Poissons Ratio (x) = -0.03056 0.16595
# Poissons Ratio (y) = -0.04271 -0.07873
# Poissons Ratio (z) = 0.20628 -0.07003
#
# Static dielectric constant tensor:
#      x y z
#    x 2.018560 0.000000 0.000000 
#    y 0.000000 2.104500 0.000000 
#    z 0.000000 0.000000 2.100660 
# 
# From -- ./inp_files/6678.got.cif
#   From: 2010.05.17/outbox.cif.g08.bks.cpg/sg39_4_cif.got.tgz:6678.got - 2010.06.03 18:22:40.
