data_PCOD9361983
_publ_section_title
;
Structure prediction by ZEFSAII (Michael W. Deem and Ramdas Pophale) SiO2 
 PCOD9361983
Probable space group: A B M 2
;
_chemical_formula_sum "Si O2"
_cell_formula_units_Z 40
_cell_length_a 4.977645
_cell_length_b 24.134694
_cell_length_c 16.257632
_cell_angle_alpha 90.000000
_cell_angle_beta 90.000000
_cell_angle_gamma 90.000000
_cell_volume 1953.093370
_symmetry_space_group_name_H-M "A B M 2"
_symmetry_group_IT_number 39
_symmetry_cell_setting 'orthorhombic'
loop_
_space_group_symop_operation_xyz
x,y,z
-x,-y,z
-x,1/2+y,z
x,1/2-y,z
x,1/2+y,1/2+z
-x,1/2-y,1/2+z
-x,y,1/2+z
x,-y,1/2+z
loop_
_atom_site_type_symbol
_atom_site_label
_atom_site_fract_x
_atom_site_fract_y
_atom_site_fract_z
Si Si1 0.456212 0.598078 0.354190
Si Si2 0.271485 0.029297 0.491269
Si Si3 0.043044 0.567542 0.749574
Si Si4 0.959711 0.365530 0.082952
Si Si5 0.524027 0.685570 0.995722
O O1 0.536542 0.553078 0.421547
O O2 0.159008 0.587119 0.321618
O O3 0.497323 0.654815 0.406381
O O4 0.658974 0.583585 0.280089
O O5 0.146127 0.081014 0.536079
O O6 0.500000 0.000000 0.547764
O O7 0.000000 0.000000 0.462405
O O8 0.983080 0.609534 0.674244
O O9 0.000000 0.500000 0.734824
O O10 0.738461 0.320820 0.053854
O O11 0.240278 0.345093 0.045929
O O12 0.584450 0.750000 0.983357
#
# Coordination Sequence:
#
# PCOD9361983 Si02
#       5
#     8   8   8   8   8
#     4  11  23  38  61  90 123 162 207 249 305 373
#     4  11  20  35  58  88 122 165 210 250 297 369
#     4  12  24  39  60  95 136 163 188 246 318 384
#     4  11  24  40  63  92 124 163 210 253 308 374
#     4  11  24  46  68  87 117 165 221 272 302 342
#
# _framework density 20.480333000000002
#
# number of rings (size 3 to 8) (size 9 to 14) (size 15 to 20)
#    0.000    0.800    0.000   10.800    0.000    1.600 
#    0.000    6.000    0.000    0.000    0.000    0.000 
#    0.000    0.000    0.000    0.000    0.000    0.000 
#
# Total GULP energy -111470.381225 kJ/mol
# GULP energy per Si atom -5573.519061 kJ/mol
# Density = 2.043372 g / cm^3
# Si number density = 20.480333 Si / 1000 Ang^3
#
#
#
# Elastic Constant Matrix: (Units=GPa)
#
#
# Indices 1 2 3 4 5 6 
#
# 1 91.0385 10.7549 -5.5730 0.0000 0.0000 0.0000
# 2 10.7549 118.6011 41.4248 0.0000 0.0000 0.0000
# 3 -5.5730 41.4248 51.2003 0.0000 0.0000 0.0000
# 4 0.0000 0.0000 0.0000 30.3940 0.0000 0.0000
# 5 0.0000 0.0000 0.0000 0.0000 11.0632 0.0000
# 6 0.0000 0.0000 0.0000 0.0000 0.0000 26.0949
#
#
#
# Elastic Compliance Matrix: (Units=1/GPa)
#
#
# Indices 1 2 3 4 5 6 
#
# 1 0.011403 -0.002046 0.002896 0.000000 0.000000 0.000000
# 2 -0.002046 0.012120 -0.010029 0.000000 0.000000 0.000000
# 3 0.002896 -0.010029 0.027960 0.000000 0.000000 0.000000
# 4 0.000000 0.000000 0.000000 0.032901 0.000000 0.000000
# 5 0.000000 0.000000 0.000000 0.000000 0.090390 0.000000
# 6 0.000000 0.000000 0.000000 0.000000 0.000000 0.038322
#
#
# Mechanical properties :
#
#
# Convention : Reuss Voigt Hill
#
# Bulk Modulus (GPa) = 30.18629 39.33926 34.76277
# Shear Modulus (GPa) = 20.61903 27.79264 24.20583
#
# Velocity S-wave (km/s) = 3.17641 3.68780 3.44162
# Velocity P-wave (km/s) = 5.31262 6.11418 5.72744
#
# Compressibility (1/GPa) = 0.03312762
#
# Stress axis : x y z
#
# Youngs Moduli (GPa) = 87.69368 82.50896 35.76508
#
# Poissons Ratio (x) = 0.16879 -0.10359
# Poissons Ratio (y) = 0.17939 0.35867
# Poissons Ratio (z) = -0.25399 0.82745
#
# Static dielectric constant tensor:
#      x y z
#    x 1.966580 0.000000 0.000000 
#    y 0.000000 1.856760 0.000000 
#    z 0.000000 0.000000 1.792200 
# 
# From -- ./inp_files/7409.got.cif
#   From: 2010.05.17/outbox.cif.g08.bks.cpg/sg39_4_cif.got.tgz:7409.got - 2010.06.03 18:22:40.
