data_PCOD9361058
_publ_section_title
;
Structure prediction by ZEFSAII (Michael W. Deem and Ramdas Pophale) SiO2 
 PCOD9361058
Probable space group: A B M 2
;
_chemical_formula_sum "Si O2"
_cell_formula_units_Z 64
_cell_length_a 24.440311
_cell_length_b 8.357400
_cell_length_c 15.970423
_cell_angle_alpha 90.000000
_cell_angle_beta 90.000000
_cell_angle_gamma 90.000000
_cell_volume 3262.077960
_symmetry_space_group_name_H-M "A B M 2"
_symmetry_group_IT_number 39
_symmetry_cell_setting 'orthorhombic'
loop_
_space_group_symop_operation_xyz
x,y,z
-x,-y,z
-x,1/2+y,z
x,1/2-y,z
x,1/2+y,1/2+z
-x,1/2-y,1/2+z
-x,y,1/2+z
x,-y,1/2+z
loop_
_atom_site_type_symbol
_atom_site_label
_atom_site_fract_x
_atom_site_fract_y
_atom_site_fract_z
Si Si1 0.865030 0.054072 0.240060
Si Si2 0.636557 0.556297 0.926319
Si Si3 0.438210 0.941231 0.580928
Si Si4 0.061845 0.559606 0.084345
Si Si5 0.871019 0.440123 0.425899
Si Si6 0.747083 0.055590 0.177827
Si Si7 0.628369 0.943465 0.739961
Si Si8 0.246155 0.941681 0.982366
O O1 0.864691 0.250000 0.239336
O O2 0.903222 0.998687 0.163980
O O3 0.884304 0.002796 0.331894
O O4 0.802511 0.001921 0.223125
O O5 0.638167 0.750000 0.928311
O O6 0.614914 0.507359 0.834851
O O7 0.698135 0.494776 0.938236
O O8 0.599338 0.499559 0.003611
O O9 0.437844 0.750000 0.578361
O O10 0.500000 0.000000 0.572722
O O11 0.411843 0.995765 0.668323
O O12 0.061352 0.750000 0.090232
O O13 0.000000 0.500000 0.085451
O O14 0.092512 0.513727 0.999003
O O15 0.878364 0.250000 0.428693
O O16 0.807687 0.480587 0.443438
O O17 0.746820 0.250000 0.180988
O O18 0.690158 0.001360 0.217984
O O19 0.749657 0.010414 0.080199
O O20 0.627948 0.750000 0.736890
O O21 0.240509 0.750000 0.978961
#
# Coordination Sequence:
#
# PCOD9361058 Si02
#       8
#     8   8   8   8   8   8   8   8
#     4   9  19  37  61  86 117 155 194 235 289 349
#     4  10  22  39  61  89 120 153 194 242 294 349
#     4  11  24  41  60  85 116 152 197 248 295 347
#     4  11  23  42  63  85 116 155 199 246 294 350
#     4  11  22  38  62  91 120 155 196 243 294 347
#     4   9  16  31  58  87 115 151 188 229 285 345
#     4  10  20  38  63  88 117 156 194 237 294 352
#     4  11  20  34  60  91 122 158 195 236 290 350
#
# _framework density 19.619395999999998
#
# number of rings (size 3 to 8) (size 9 to 14) (size 15 to 20)
#    0.000    1.750    2.500    2.250    0.000    4.000 
#    0.000    5.000    0.000    0.000    0.000    0.000 
#    0.000    0.000    0.000    0.000    0.000    0.000 
#
# Total GULP energy -178788.608639 kJ/mol
# GULP energy per Si atom -5587.144020 kJ/mol
# Density = 1.957474 g / cm^3
# Si number density = 19.619396 Si / 1000 Ang^3
#
#
#
# Elastic Constant Matrix: (Units=GPa)
#
#
# Indices 1 2 3 4 5 6 
#
# 1 101.7685 7.4949 27.2574 0.0000 0.0000 0.0000
# 2 7.4949 17.9330 15.0999 0.0000 0.0000 0.0000
# 3 27.2574 15.0999 122.3152 0.0000 0.0000 0.0000
# 4 0.0000 0.0000 0.0000 20.7858 0.0000 0.0000
# 5 0.0000 0.0000 0.0000 0.0000 -2.5162 0.0000
# 6 0.0000 0.0000 0.0000 0.0000 0.0000 15.1398
#
#
#
# Elastic Compliance Matrix: (Units=1/GPa)
#
#
# Indices 1 2 3 4 5 6 
#
# 1 0.010567 -0.002716 -0.002020 0.000000 0.000000 0.000000
# 2 -0.002716 0.062930 -0.007164 0.000000 0.000000 0.000000
# 3 -0.002020 -0.007164 0.009510 0.000000 0.000000 0.000000
# 4 0.000000 0.000000 0.000000 0.048110 0.000000 0.000000
# 5 0.000000 0.000000 0.000000 0.000000 -0.397426 0.000000
# 6 0.000000 0.000000 0.000000 0.000000 0.000000 0.066051
#
#
# Mechanical properties :
#
#
# Convention : Reuss Voigt Hill
#
# Bulk Modulus (GPa) = 16.88929 37.96902 27.42915
# Shear Modulus (GPa) = -31.90325 19.49286 -6.20519
#
# Velocity S-wave (km/s) = -4.03688 3.15548 -1.78035
# Velocity P-wave (km/s) = 3.61958 5.71585 3.12806
#
# Compressibility (1/GPa) = 0.05920911
#
# Stress axis : x y z
#
# Youngs Moduli (GPa) = 94.63284 15.89067 105.15254
#
# Poissons Ratio (x) = 0.04316 0.21236
# Poissons Ratio (y) = 0.25702 0.75326
# Poissons Ratio (z) = 0.19112 0.11383
#
# Static dielectric constant tensor:
#      x y z
#    x 1.652360 0.000000 0.000000 
#    y 0.000000 1.680150 0.000000 
#    z 0.000000 0.000000 1.697840 
# 
# From -- ./inp_files/10641.got.cif
#   From: 2010.05.17/outbox.cif.g08.bks.cpg/sg39_6_cif.got.tgz:10641.got - 2010.06.03 18:22:40.
