data_PCOD9361382
_publ_section_title
;
Structure prediction by ZEFSAII (Michael W. Deem and Ramdas Pophale) SiO2 
 PCOD9361382
Probable space group: A B M 2
;
_chemical_formula_sum "Si O2"
_cell_formula_units_Z 40
_cell_length_a 5.730877
_cell_length_b 23.315974
_cell_length_c 13.397011
_cell_angle_alpha 90.000000
_cell_angle_beta 90.000000
_cell_angle_gamma 90.000000
_cell_volume 1790.121727
_symmetry_space_group_name_H-M "A B M 2"
_symmetry_group_IT_number 39
_symmetry_cell_setting 'orthorhombic'
loop_
_space_group_symop_operation_xyz
x,y,z
-x,-y,z
-x,1/2+y,z
x,1/2-y,z
x,1/2+y,1/2+z
-x,1/2-y,1/2+z
-x,y,1/2+z
x,-y,1/2+z
loop_
_atom_site_type_symbol
_atom_site_label
_atom_site_fract_x
_atom_site_fract_y
_atom_site_fract_z
Si Si1 0.598012 0.684312 0.970030
Si Si2 0.067784 0.187000 0.791814
Si Si3 0.587469 0.372684 0.153755
Si Si4 0.245308 0.030389 0.519763
Si Si5 0.307559 0.598220 0.830291
O O1 0.516163 0.750000 0.977248
O O2 0.833478 0.685019 0.905078
O O3 0.429824 0.645252 0.902402
O O4 0.599888 0.655744 0.078680
O O5 0.960992 0.250000 0.775404
O O6 0.276036 0.176800 0.713307
O O7 0.905996 0.132199 0.782718
O O8 0.748487 0.411697 0.084482
O O9 0.479412 0.413154 0.239011
O O10 0.243578 0.046503 0.402214
O O11 0.500000 0.000000 0.536946
O O12 0.000000 0.000000 0.542979
#
# Coordination Sequence:
#
# PCOD9361382 Si02
#       5
#     8   8   8   8   8
#     4   9  19  37  61  93 137 179 218 270 341 415
#     4  10  21  38  66 101 138 180 220 278 353 422
#     4  10  23  41  66  99 134 175 231 289 339 418
#     4  11  28  49  73  99 136 184 238 293 353 401
#     4  10  23  41  66  93 139 173 229 286 347 411
#
# _framework density 22.344850999999998
#
# number of rings (size 3 to 8) (size 9 to 14) (size 15 to 20)
#    0.000    2.000    0.000    1.200   11.200    4.800 
#    0.000    4.000    0.000    0.000    0.000    0.000 
#    0.000    0.000    0.000    0.000    0.000    0.000 
#
# Total GULP energy -111575.300606 kJ/mol
# GULP energy per Si atom -5578.765030 kJ/mol
# Density = 2.229399 g / cm^3
# Si number density = 22.344851 Si / 1000 Ang^3
#
#
#
# Elastic Constant Matrix: (Units=GPa)
#
#
# Indices 1 2 3 4 5 6 
#
# 1 56.5566 12.0726 8.1923 0.0000 0.0000 0.0000
# 2 12.0726 41.1907 9.9044 0.0000 0.0000 0.0000
# 3 8.1923 9.9044 116.0685 0.0000 0.0000 0.0000
# 4 0.0000 0.0000 0.0000 14.9486 0.0000 0.0000
# 5 0.0000 0.0000 0.0000 0.0000 8.1758 0.0000
# 6 0.0000 0.0000 0.0000 0.0000 0.0000 12.2461
#
#
#
# Elastic Compliance Matrix: (Units=1/GPa)
#
#
# Indices 1 2 3 4 5 6 
#
# 1 0.018949 -0.005342 -0.000882 0.000000 0.000000 0.000000
# 2 -0.005342 0.026292 -0.001867 0.000000 0.000000 0.000000
# 3 -0.000882 -0.001867 0.008837 0.000000 0.000000 0.000000
# 4 0.000000 0.000000 0.000000 0.066896 0.000000 0.000000
# 5 0.000000 0.000000 0.000000 0.000000 0.122313 0.000000
# 6 0.000000 0.000000 0.000000 0.000000 0.000000 0.081659
#
#
# Mechanical properties :
#
#
# Convention : Reuss Voigt Hill
#
# Bulk Modulus (GPa) = 26.38649 30.46162 28.42405
# Shear Modulus (GPa) = 14.13394 19.31719 16.72557
#
# Velocity S-wave (km/s) = 2.51776 2.94343 2.73888
# Velocity P-wave (km/s) = 4.50406 5.02134 4.76971
#
# Compressibility (1/GPa) = 0.03789819
#
# Stress axis : x y z
#
# Youngs Moduli (GPa) = 52.77209 38.03468 113.15928
#
# Poissons Ratio (x) = 0.20318 0.09977
# Poissons Ratio (y) = 0.28190 0.21121
# Poissons Ratio (z) = 0.04653 0.07099
#
# Static dielectric constant tensor:
#      x y z
#    x 1.908250 0.000000 0.000000 
#    y 0.000000 1.852820 0.000000 
#    z 0.000000 0.000000 1.796890 
# 
# From -- ./inp_files/4509.got.cif
#   From: 2010.05.17/outbox.cif.g08.bks.cpg/sg39_3_cif.got.tgz:4509.got - 2010.06.03 18:22:40.
