data_PCOD9361758
_publ_section_title
;
Structure prediction by ZEFSAII (Michael W. Deem and Ramdas Pophale) SiO2 
 PCOD9361758
Probable space group: A B M 2
;
_chemical_formula_sum "Si O2"
_cell_formula_units_Z 48
_cell_length_a 13.151988
_cell_length_b 17.028827
_cell_length_c 8.782424
_cell_angle_alpha 90.000000
_cell_angle_beta 90.000000
_cell_angle_gamma 90.000000
_cell_volume 1966.937397
_symmetry_space_group_name_H-M "A B M 2"
_symmetry_group_IT_number 39
_symmetry_cell_setting 'orthorhombic'
loop_
_space_group_symop_operation_xyz
x,y,z
-x,-y,z
-x,1/2+y,z
x,1/2-y,z
x,1/2+y,1/2+z
-x,1/2-y,1/2+z
-x,y,1/2+z
x,-y,1/2+z
loop_
_atom_site_type_symbol
_atom_site_label
_atom_site_fract_x
_atom_site_fract_y
_atom_site_fract_z
Si Si1 0.701141 0.660105 0.525640
Si Si2 0.927445 0.067504 0.742999
Si Si3 0.391929 0.081268 0.012425
Si Si4 0.507619 0.337239 0.249066
Si Si5 0.707082 0.017733 0.785393
Si Si6 0.074728 0.660031 0.038575
O O1 0.705757 0.750000 0.463973
O O2 0.609149 0.658636 0.645252
O O3 0.692300 0.593689 0.395954
O O4 0.811514 0.647478 0.603870
O O5 0.817361 0.030895 0.712399
O O6 0.989705 0.103612 0.605098
O O7 0.914048 0.137364 0.862800
O O8 0.000000 0.000000 0.809008
O O9 0.415106 0.151584 0.129918
O O10 0.375273 0.016644 0.147326
O O11 0.478136 0.098643 0.884222
O O12 0.302185 0.056621 0.897544
O O13 0.503600 0.250000 0.317577
O O14 0.045979 0.750000 0.060671
#
# Coordination Sequence:
#
# PCOD9361758 Si02
#       6
#     8   8   8   8   8   8
#     4   9  21  43  69 100 143 189 242 303 367 436
#     4  11  25  41  71 102 147 192 243 308 366 439
#     4  12  27  45  70 103 145 187 246 300 365 451
#     4  11  25  46  73 103 140 189 244 304 365 434
#     4  11  27  43  68 103 148 191 243 299 374 442
#     4  10  22  42  67 100 140 194 248 303 367 433
#
# _framework density 24.403421999999999
#
# number of rings (size 3 to 8) (size 9 to 14) (size 15 to 20)
#    0.000    1.333    0.000    3.500    9.333    8.667 
#    0.000    1.667    0.000    0.000    0.000    0.000 
#    0.000    0.000    0.000    0.000    0.000    0.000 
#
# Total GULP energy -133716.680800 kJ/mol
# GULP energy per Si atom -5571.528367 kJ/mol
# Density = 2.434788 g / cm^3
# Si number density = 24.403422 Si / 1000 Ang^3
#
#
#
# Elastic Constant Matrix: (Units=GPa)
#
#
# Indices 1 2 3 4 5 6 
#
# 1 113.9676 50.3390 41.1583 0.0000 0.0000 0.0000
# 2 50.3390 111.7026 42.6189 0.0000 0.0000 0.0000
# 3 41.1583 42.6189 110.7884 0.0000 0.0000 0.0000
# 4 0.0000 0.0000 0.0000 34.7791 0.0000 0.0000
# 5 0.0000 0.0000 0.0000 0.0000 36.9144 0.0000
# 6 0.0000 0.0000 0.0000 0.0000 0.0000 29.7243
#
#
#
# Elastic Compliance Matrix: (Units=1/GPa)
#
#
# Indices 1 2 3 4 5 6 
#
# 1 0.011603 -0.004201 -0.002695 0.000000 0.000000 0.000000
# 2 -0.004201 0.012013 -0.003061 0.000000 0.000000 0.000000
# 3 -0.002695 -0.003061 0.011205 0.000000 0.000000 0.000000
# 4 0.000000 0.000000 0.000000 0.028753 0.000000 0.000000
# 5 0.000000 0.000000 0.000000 0.000000 0.027090 0.000000
# 6 0.000000 0.000000 0.000000 0.000000 0.000000 0.033642
#
#
# Mechanical properties :
#
#
# Convention : Reuss Voigt Hill
#
# Bulk Modulus (GPa) = 67.07487 67.18788 67.13138
# Shear Modulus (GPa) = 33.51481 33.77307 33.64394
#
# Velocity S-wave (km/s) = 3.70991 3.72418 3.71705
# Velocity P-wave (km/s) = 6.77472 6.78857 6.78165
#
# Compressibility (1/GPa) = 0.01490871
#
# Stress axis : x y z
#
# Youngs Moduli (GPa) = 86.18441 83.24147 89.24852
#
# Poissons Ratio (x) = 0.34968 0.24048
# Poissons Ratio (y) = 0.36205 0.27316
# Poissons Ratio (z) = 0.23223 0.25478
#
# Static dielectric constant tensor:
#      x y z
#    x 2.015460 0.000000 0.000000 
#    y 0.000000 1.940580 0.000000 
#    z 0.000000 0.000000 1.912690 
# 
# From -- ./inp_files/3253.got.cif
#   From: 2010.05.17/outbox.cif.g08.bks.cpg/sg39_2_cif.got.tgz:3253.got - 2010.06.03 18:22:40.
