data_PCOD9361994
_publ_section_title
;
Structure prediction by ZEFSAII (Michael W. Deem and Ramdas Pophale) SiO2 
 PCOD9361994
Probable space group: A B M 2
;
_chemical_formula_sum "Si O2"
_cell_formula_units_Z 48
_cell_length_a 14.347566
_cell_length_b 8.644962
_cell_length_c 20.763400
_cell_angle_alpha 90.000000
_cell_angle_beta 90.000000
_cell_angle_gamma 90.000000
_cell_volume 2575.370937
_symmetry_space_group_name_H-M "A B M 2"
_symmetry_group_IT_number 39
_symmetry_cell_setting 'orthorhombic'
loop_
_space_group_symop_operation_xyz
x,y,z
-x,-y,z
-x,1/2+y,z
x,1/2-y,z
x,1/2+y,1/2+z
-x,1/2-y,1/2+z
-x,y,1/2+z
x,-y,1/2+z
loop_
_atom_site_type_symbol
_atom_site_label
_atom_site_fract_x
_atom_site_fract_y
_atom_site_fract_z
Si Si1 0.395115 0.565145 0.639140
Si Si2 0.898898 0.435208 0.815033
Si Si3 0.715467 0.934373 0.517208
Si Si4 0.603844 0.565615 0.384806
Si Si5 0.100913 0.564898 0.459441
Si Si6 0.713018 0.065609 0.262529
O O1 0.500000 0.500000 0.637646
O O2 0.398641 0.750000 0.640734
O O3 0.339092 0.508089 0.576600
O O4 0.341812 0.502382 0.701840
O O5 0.900104 0.250000 0.816877
O O6 0.881092 0.497637 0.887628
O O7 0.816261 0.495674 0.770131
O O8 0.000000 0.500000 0.795797
O O9 0.723817 0.750000 0.526404
O O10 0.656938 0.961697 0.451854
O O11 0.816713 0.007686 0.505358
O O12 0.500000 0.500000 0.388741
O O13 0.602195 0.750000 0.372950
O O14 0.657856 0.483839 0.326786
O O15 0.098380 0.750000 0.455793
O O16 0.000000 0.500000 0.479315
O O17 0.717831 0.250000 0.257967
#
# Coordination Sequence:
#
# PCOD9361994 Si02
#       6
#     8   8   8   8   8   8
#     4  12  26  45  66  90 125 168 213 258 313 376
#     4  11  21  37  61  93 128 164 206 255 312 370
#     4  11  23  41  64  92 126 163 209 259 312 371
#     4  11  23  38  60  89 123 158 203 259 312 366
#     4  11  21  36  61  93 128 166 207 255 312 369
#     4  12  24  41  64  91 124 163 210 258 313 372
#
# _framework density 18.638093999999999
#
# number of rings (size 3 to 8) (size 9 to 14) (size 15 to 20)
#    0.000    0.667    1.667    9.000    0.000    3.333 
#    0.000    0.833    0.000    0.000    0.000    0.000 
#    0.000    0.000    0.000    0.000    0.000    0.000 
#
# Total GULP energy -134331.154369 kJ/mol
# GULP energy per Si atom -5597.131432 kJ/mol
# Density = 1.859567 g / cm^3
# Si number density = 18.638094 Si / 1000 Ang^3
#
#
#
# Elastic Constant Matrix: (Units=GPa)
#
#
# Indices 1 2 3 4 5 6 
#
# 1 195.1012 96.9602 84.2723 0.0000 0.0000 0.0000
# 2 96.9602 205.9484 90.7688 0.0000 0.0000 0.0000
# 3 84.2723 90.7688 111.3505 0.0000 0.0000 0.0000
# 4 0.0000 0.0000 0.0000 31.4367 0.0000 0.0000
# 5 0.0000 0.0000 0.0000 0.0000 30.1188 0.0000
# 6 0.0000 0.0000 0.0000 0.0000 0.0000 38.1476
#
#
#
# Elastic Compliance Matrix: (Units=1/GPa)
#
#
# Indices 1 2 3 4 5 6 
#
# 1 0.007983 -0.001710 -0.004648 0.000000 0.000000 0.000000
# 2 -0.001710 0.007944 -0.005182 0.000000 0.000000 0.000000
# 3 -0.004648 -0.005182 0.016722 0.000000 0.000000 0.000000
# 4 0.000000 0.000000 0.000000 0.031810 0.000000 0.000000
# 5 0.000000 0.000000 0.000000 0.000000 0.033202 0.000000
# 6 0.000000 0.000000 0.000000 0.000000 0.000000 0.026214
#
#
# Mechanical properties :
#
#
# Convention : Reuss Voigt Hill
#
# Bulk Modulus (GPa) = 104.48846 117.37809 110.93327
# Shear Modulus (GPa) = 33.30119 35.96721 34.63420
#
# Velocity S-wave (km/s) = 4.23156 4.39768 4.31542
# Velocity P-wave (km/s) = 8.94753 9.42870 9.19126
#
# Compressibility (1/GPa) = 0.00957043
#
# Stress axis : x y z
#
# Youngs Moduli (GPa) = 125.26809 125.87358 59.80033
#
# Poissons Ratio (x) = 0.21523 0.27794
# Poissons Ratio (y) = 0.21419 0.30988
# Poissons Ratio (z) = 0.58222 0.65227
#
# Static dielectric constant tensor:
#      x y z
#    x 1.639460 0.000000 0.000000 
#    y 0.000000 1.619850 0.000000 
#    z 0.000000 0.000000 1.612150 
# 
# From -- ./inp_files/12659.got.cif
#   From: 2010.05.17/outbox.cif.g08.bks.cpg/sg39_7_cif.got.tgz:12659.got - 2010.06.03 18:22:40.
