data_PCOD9361162
_publ_section_title
;
Structure prediction by ZEFSAII (Michael W. Deem and Ramdas Pophale) SiO2 
 PCOD9361162
Probable space group: A B M 2
;
_chemical_formula_sum "Si O2"
_cell_formula_units_Z 48
_cell_length_a 12.489562
_cell_length_b 21.948144
_cell_length_c 7.822787
_cell_angle_alpha 90.000000
_cell_angle_beta 90.000000
_cell_angle_gamma 90.000000
_cell_volume 2144.403535
_symmetry_space_group_name_H-M "A B M 2"
_symmetry_group_IT_number 39
_symmetry_cell_setting 'orthorhombic'
loop_
_space_group_symop_operation_xyz
x,y,z
-x,-y,z
-x,1/2+y,z
x,1/2-y,z
x,1/2+y,1/2+z
-x,1/2-y,1/2+z
-x,y,1/2+z
x,-y,1/2+z
loop_
_atom_site_type_symbol
_atom_site_label
_atom_site_fract_x
_atom_site_fract_y
_atom_site_fract_z
Si Si1 0.874976 0.010959 0.746230
Si Si2 0.211348 0.596645 0.448795
Si Si3 0.397022 0.679111 0.549746
Si Si4 0.640618 0.179827 0.955778
Si Si5 0.945714 0.178781 0.639047
Si Si6 0.857676 0.377783 0.983572
O O1 0.809719 0.051716 0.611292
O O2 0.875901 0.054164 0.915339
O O3 0.817643 0.947802 0.793343
O O4 0.000000 0.000000 0.704118
O O5 0.325479 0.629742 0.451258
O O6 0.128637 0.650951 0.490490
O O7 0.378305 0.750000 0.494842
O O8 0.366627 0.675041 0.749704
O O9 0.522811 0.666848 0.527567
O O10 0.666676 0.250000 0.998734
O O11 0.735296 0.137514 0.021641
O O12 0.960715 0.250000 0.618474
O O13 0.889089 0.163967 0.818061
O O14 0.056941 0.143453 0.622111
#
# Coordination Sequence:
#
# PCOD9361162 Si02
#       6
#     8   8   8   8   8   8
#     4  11  22  39  62  91 124 169 209 249 309 379
#     4  11  23  39  63  88 123 165 207 254 308 370
#     4  10  21  42  69  92 121 164 209 261 319 369
#     4  10  20  41  66  91 124 164 209 261 316 370
#     4  11  21  37  62  94 128 159 199 261 324 377
#     4  11  23  39  63  91 129 167 206 255 315 382
#
# _framework density 22.383845999999998
#
# number of rings (size 3 to 8) (size 9 to 14) (size 15 to 20)
#    0.000    1.333    5.000    2.500    2.333    0.000 
#    6.000    0.833    0.000    0.000    0.000    0.000 
#    0.000    0.000    0.000    0.000    0.000    0.000 
#
# Total GULP energy -134365.407803 kJ/mol
# GULP energy per Si atom -5598.558658 kJ/mol
# Density = 2.233290 g / cm^3
# Si number density = 22.383846 Si / 1000 Ang^3
#
#
#
# Elastic Constant Matrix: (Units=GPa)
#
#
# Indices 1 2 3 4 5 6 
#
# 1 159.6387 75.1709 18.9654 0.0000 0.0000 0.0000
# 2 75.1709 145.9504 6.9989 0.0000 0.0000 0.0000
# 3 18.9654 6.9989 44.9782 0.0000 0.0000 0.0000
# 4 0.0000 0.0000 0.0000 27.7644 0.0000 0.0000
# 5 0.0000 0.0000 0.0000 0.0000 32.2960 0.0000
# 6 0.0000 0.0000 0.0000 0.0000 0.0000 38.2966
#
#
#
# Elastic Compliance Matrix: (Units=1/GPa)
#
#
# Indices 1 2 3 4 5 6 
#
# 1 0.008648 -0.004311 -0.002976 0.000000 0.000000 0.000000
# 2 -0.004311 0.009053 0.000409 0.000000 0.000000 0.000000
# 3 -0.002976 0.000409 0.023424 0.000000 0.000000 0.000000
# 4 0.000000 0.000000 0.000000 0.036017 0.000000 0.000000
# 5 0.000000 0.000000 0.000000 0.000000 0.030964 0.000000
# 6 0.000000 0.000000 0.000000 0.000000 0.000000 0.026112
#
#
# Mechanical properties :
#
#
# Convention : Reuss Voigt Hill
#
# Bulk Modulus (GPa) = 36.53751 61.42643 48.98197
# Shear Modulus (GPa) = 31.82781 36.30020 34.06401
#
# Velocity S-wave (km/s) = 3.77491 4.03142 3.90527
# Velocity P-wave (km/s) = 5.94631 7.01225 6.50116
#
# Compressibility (1/GPa) = 0.02736913
#
# Stress axis : x y z
#
# Youngs Moduli (GPa) = 115.63701 110.46652 42.69128
#
# Poissons Ratio (x) = 0.47625 0.12703
# Poissons Ratio (y) = 0.49854 -0.01747
# Poissons Ratio (z) = 0.34408 -0.04521
#
# Static dielectric constant tensor:
#      x y z
#    x 1.784550 0.000000 0.000000 
#    y 0.000000 1.807960 0.000000 
#    z 0.000000 0.000000 1.980410 
# 
# From -- ./inp_files/2694.got.cif
#   From: 2010.05.17/outbox.cif.g08.bks.cpg/sg39_2_cif.got.tgz:2694.got - 2010.06.03 18:22:40.
