data_PCOD9361559
_publ_section_title
;
Structure prediction by ZEFSAII (Michael W. Deem and Ramdas Pophale) SiO2 
 PCOD9361559
Probable space group: A B M 2
;
_chemical_formula_sum "Si O2"
_cell_formula_units_Z 60
_cell_length_a 11.168834
_cell_length_b 21.935299
_cell_length_c 11.460302
_cell_angle_alpha 90.000000
_cell_angle_beta 90.000000
_cell_angle_gamma 90.000000
_cell_volume 2807.679022
_symmetry_space_group_name_H-M "A B M 2"
_symmetry_group_IT_number 39
_symmetry_cell_setting 'orthorhombic'
loop_
_space_group_symop_operation_xyz
x,y,z
-x,-y,z
-x,1/2+y,z
x,1/2-y,z
x,1/2+y,1/2+z
-x,1/2-y,1/2+z
-x,y,1/2+z
x,-y,1/2+z
loop_
_atom_site_type_symbol
_atom_site_label
_atom_site_fract_x
_atom_site_fract_y
_atom_site_fract_z
Si Si1 0.114884 0.819531 0.416260
Si Si2 0.000000 0.500000 0.985075
Si Si3 0.544592 0.437281 0.451552
Si Si4 0.503954 0.318512 0.108991
Si Si5 0.781221 0.927986 0.052964
Si Si6 0.642760 0.391390 0.777221
Si Si7 0.126340 0.879254 0.934237
Si Si8 0.215388 0.320881 0.662905
O O1 0.140183 0.750000 0.444953
O O2 0.163217 0.862915 0.518204
O O3 0.179252 0.835160 0.294756
O O4 0.973694 0.830521 0.397619
O O5 0.891378 0.526850 0.058844
O O6 0.940058 0.443978 0.915969
O O7 0.500000 0.500000 0.510698
O O8 0.521465 0.373729 0.519740
O O9 0.687662 0.444202 0.449647
O O10 0.464013 0.429426 0.336764
O O11 0.483302 0.250000 0.062879
O O12 0.418857 0.332428 0.219067
O O13 0.641860 0.323598 0.146989
O O14 0.706624 0.926253 0.171105
O O15 0.747876 0.376391 0.867933
O O16 0.154205 0.865392 0.069742
O O17 0.179164 0.250000 0.639617
#
# Coordination Sequence:
#
# PCOD9361559 Si02
#       8
#     8   4   8   8   8   8   8   8
#     4  10  23  42  65  95 134 175 228 281 337 415
#     4  10  24  46  66  96 142 174 238 282 346 414
#     4  11  23  44  67 100 138 181 233 285 350 429
#     4  10  23  42  67 100 137 180 232 291 354 423
#     4  10  24  43  67 100 132 181 223 285 352 405
#     4  11  24  41  68 101 137 177 229 287 356 422
#     4  11  23  42  65 100 131 181 227 285 342 418
#     4  10  21  42  69  94 130 181 223 280 350 411
#
# _framework density 21.369964
#
# number of rings (size 3 to 8) (size 9 to 14) (size 15 to 20)
#    0.000    1.600    1.333    2.000    3.733    6.400 
#    4.800    0.000    0.000    0.000    0.000    0.000 
#    0.000    0.000    0.000    0.000    0.000    0.000 
#
# Total GULP energy -167493.849650 kJ/mol
# GULP energy per Si atom -5583.128322 kJ/mol
# Density = 2.132132 g / cm^3
# Si number density = 21.369964 Si / 1000 Ang^3
#
#
#
# Elastic Constant Matrix: (Units=GPa)
#
#
# Indices 1 2 3 4 5 6 
#
# 1 121.3140 37.2528 32.8102 0.0000 0.0000 0.0000
# 2 37.2528 107.2801 33.2276 0.0000 0.0000 0.0000
# 3 32.8102 33.2276 64.3461 0.0000 0.0000 0.0000
# 4 0.0000 0.0000 0.0000 11.4587 0.0000 0.0000
# 5 0.0000 0.0000 0.0000 0.0000 23.6623 0.0000
# 6 0.0000 0.0000 0.0000 0.0000 0.0000 30.7292
#
#
#
# Elastic Compliance Matrix: (Units=1/GPa)
#
#
# Indices 1 2 3 4 5 6 
#
# 1 0.009999 -0.002253 -0.003935 0.000000 0.000000 0.000000
# 2 -0.002253 0.011604 -0.004843 0.000000 0.000000 0.000000
# 3 -0.003935 -0.004843 0.020048 0.000000 0.000000 0.000000
# 4 0.000000 0.000000 0.000000 0.087270 0.000000 0.000000
# 5 0.000000 0.000000 0.000000 0.000000 0.042261 0.000000
# 6 0.000000 0.000000 0.000000 0.000000 0.000000 0.032542
#
#
# Mechanical properties :
#
#
# Convention : Reuss Voigt Hill
#
# Bulk Modulus (GPa) = 51.05045 55.50239 53.27642
# Shear Modulus (GPa) = 21.52222 25.81335 23.66778
#
# Velocity S-wave (km/s) = 3.17697 3.47929 3.33156
# Velocity P-wave (km/s) = 6.11541 6.49378 6.30743
#
# Compressibility (1/GPa) = 0.01958847
#
# Stress axis : x y z
#
# Youngs Moduli (GPa) = 100.00691 86.17767 49.87942
#
# Poissons Ratio (x) = 0.19420 0.19628
# Poissons Ratio (y) = 0.22536 0.24157
# Poissons Ratio (z) = 0.39353 0.41737
#
# Static dielectric constant tensor:
#      x y z
#    x 1.777950 0.000000 0.000000 
#    y 0.000000 1.804720 0.000000 
#    z 0.000000 0.000000 1.788540 
# 
# From -- ./inp_files/6019.got.cif
#   From: 2010.05.17/outbox.cif.g08.bks.cpg/sg39_4_cif.got.tgz:6019.got - 2010.06.03 18:22:40.
