data_PCOD9361097
_publ_section_title
;
Structure prediction by ZEFSAII (Michael W. Deem and Ramdas Pophale) SiO2 
 PCOD9361097
Probable space group: A B M 2
;
_chemical_formula_sum "Si O2"
_cell_formula_units_Z 44
_cell_length_a 9.598864
_cell_length_b 18.467778
_cell_length_c 12.282796
_cell_angle_alpha 90.000000
_cell_angle_beta 90.000000
_cell_angle_gamma 90.000000
_cell_volume 2177.367432
_symmetry_space_group_name_H-M "A B M 2"
_symmetry_group_IT_number 39
_symmetry_cell_setting 'orthorhombic'
loop_
_space_group_symop_operation_xyz
x,y,z
-x,-y,z
-x,1/2+y,z
x,1/2-y,z
x,1/2+y,1/2+z
-x,1/2-y,1/2+z
-x,y,1/2+z
x,-y,1/2+z
loop_
_atom_site_type_symbol
_atom_site_label
_atom_site_fract_x
_atom_site_fract_y
_atom_site_fract_z
Si Si1 0.854249 0.250000 0.018760
Si Si2 0.500000 0.500000 0.652352
Si Si3 0.009044 0.623151 0.149399
Si Si4 0.894407 0.250000 0.774309
Si Si5 0.640849 0.250000 0.205469
Si Si6 0.728621 0.593387 0.025762
Si Si7 0.345442 0.750000 0.597323
Si Si8 0.270033 0.907912 0.274490
O O1 0.714946 0.250000 0.087889
O O2 0.937723 0.321249 0.056363
O O3 0.830757 0.250000 0.892127
O O4 0.393563 0.545456 0.577900
O O5 0.403682 0.449671 0.727800
O O6 0.978768 0.676821 0.251560
O O7 0.868418 0.589321 0.100425
O O8 0.137786 0.576843 0.195109
O O9 0.782636 0.250000 0.679743
O O10 0.479719 0.250000 0.174805
O O11 0.692526 0.177371 0.263806
O O12 0.671974 0.676270 0.030179
O O13 0.757943 0.573597 0.900350
#
# Coordination Sequence:
#
# PCOD9361097 Si02
#       8
#     4   4   8   4   4   8   4   8
#     4   9  17  31  57  92 124 153 193 257 314 362
#     4  12  26  44  60  94 132 164 222 252 300 398
#     4   9  20  37  60  90 124 156 216 252 302 382
#     4   9  17  31  57  92 124 153 193 257 314 362
#     4  10  20  39  61  97 126 156 210 255 304 385
#     4  11  23  43  67  92 128 168 204 263 319 364
#     4  10  20  39  61  97 126 156 210 255 304 385
#     4  11  23  43  67  92 128 168 204 263 319 364
#
# _framework density 20.207889999999999
#
# number of rings (size 3 to 8) (size 9 to 14) (size 15 to 20)
#    0.000    1.818    1.818    3.273    0.000    2.182 
#    0.000    7.273    0.000    0.000    0.000    0.000 
#    0.000    0.000    0.000    0.000    0.000    0.000 
#
# Total GULP energy -122808.532983 kJ/mol
# GULP energy per Si atom -5582.206045 kJ/mol
# Density = 2.016190 g / cm^3
# Si number density = 20.207890 Si / 1000 Ang^3
#
#
#
# Elastic Constant Matrix: (Units=GPa)
#
#
# Indices 1 2 3 4 5 6 
#
# 1 123.4701 40.9762 15.1698 0.0000 0.0000 0.0000
# 2 40.9762 86.9013 35.4102 0.0000 0.0000 0.0000
# 3 15.1698 35.4102 105.7251 0.0000 0.0000 0.0000
# 4 0.0000 0.0000 0.0000 7.6049 0.0000 0.0000
# 5 0.0000 0.0000 0.0000 0.0000 18.0312 0.0000
# 6 0.0000 0.0000 0.0000 0.0000 0.0000 20.4804
#
#
#
# Elastic Compliance Matrix: (Units=1/GPa)
#
#
# Indices 1 2 3 4 5 6 
#
# 1 0.009604 -0.004594 0.000161 0.000000 0.000000 0.000000
# 2 -0.004594 0.015523 -0.004540 0.000000 0.000000 0.000000
# 3 0.000161 -0.004540 0.010956 0.000000 0.000000 0.000000
# 4 0.000000 0.000000 0.000000 0.131495 0.000000 0.000000
# 5 0.000000 0.000000 0.000000 0.000000 0.055459 0.000000
# 6 0.000000 0.000000 0.000000 0.000000 0.000000 0.048827
#
#
# Mechanical properties :
#
#
# Convention : Reuss Voigt Hill
#
# Bulk Modulus (GPa) = 55.13696 55.46767 55.30231
# Shear Modulus (GPa) = 16.90005 24.19266 20.54635
#
# Velocity S-wave (km/s) = 2.89504 3.46380 3.19211
# Velocity P-wave (km/s) = 6.20638 6.59585 6.40408
#
# Compressibility (1/GPa) = 0.01813665
#
# Stress axis : x y z
#
# Youngs Moduli (GPa) = 104.12327 64.41861 91.27390
#
# Poissons Ratio (x) = 0.29594 -0.01466
# Poissons Ratio (y) = 0.47834 0.41439
# Poissons Ratio (z) = -0.01673 0.29247
#
# Static dielectric constant tensor:
#      x y z
#    x 1.740010 0.000000 0.000000 
#    y 0.000000 1.754930 0.000000 
#    z 0.000000 0.000000 1.657960 
# 
# From -- ./inp_files/5162.got.cif
#   From: 2010.05.17/outbox.cif.g08.bks.cpg/sg39_3_cif.got.tgz:5162.got - 2010.06.03 18:22:40.
