data_PCOD9361508
_publ_section_title
;
Structure prediction by ZEFSAII (Michael W. Deem and Ramdas Pophale) SiO2 
 PCOD9361508
Probable space group: A B M 2
;
_chemical_formula_sum "Si O2"
_cell_formula_units_Z 64
_cell_length_a 12.087654
_cell_length_b 17.621626
_cell_length_c 15.533638
_cell_angle_alpha 90.000000
_cell_angle_beta 90.000000
_cell_angle_gamma 90.000000
_cell_volume 3308.728862
_symmetry_space_group_name_H-M "A B M 2"
_symmetry_group_IT_number 39
_symmetry_cell_setting 'orthorhombic'
loop_
_space_group_symop_operation_xyz
x,y,z
-x,-y,z
-x,1/2+y,z
x,1/2-y,z
x,1/2+y,1/2+z
-x,1/2-y,1/2+z
-x,y,1/2+z
x,-y,1/2+z
loop_
_atom_site_type_symbol
_atom_site_label
_atom_site_fract_x
_atom_site_fract_y
_atom_site_fract_z
Si Si1 0.029760 0.911632 0.924610
Si Si2 0.012293 0.590718 0.231982
Si Si3 0.249255 0.161926 0.704232
Si Si4 0.623573 0.341762 0.570078
Si Si5 0.526691 0.660659 0.411660
Si Si6 0.119414 0.159168 0.070165
Si Si7 0.235482 0.334784 0.498537
Si Si8 0.487825 0.910177 0.230048
O O1 0.147796 0.895460 0.966896
O O2 0.033905 0.886255 0.825418
O O3 0.000000 0.000000 0.925613
O O4 0.939548 0.869310 0.983363
O O5 0.139460 0.617829 0.232634
O O6 0.000000 0.500000 0.222967
O O7 0.948205 0.627983 0.152102
O O8 0.249979 0.250000 0.734731
O O9 0.244933 0.163663 0.600848
O O10 0.361402 0.119004 0.728449
O O11 0.617751 0.250000 0.572798
O O12 0.565967 0.365474 0.480229
O O13 0.752032 0.364829 0.573855
O O14 0.554987 0.372567 0.651266
O O15 0.506767 0.750000 0.392843
O O16 0.644145 0.654317 0.458891
O O17 0.531315 0.616052 0.322874
O O18 0.115323 0.250000 0.072326
O O19 0.195160 0.250000 0.473581
O O20 0.500000 0.000000 0.221103
#
# Coordination Sequence:
#
# PCOD9361508 Si02
#       8
#     8   8   8   8   8   8   8   8
#     4  11  25  42  63  93 133 171 207 265 325 390
#     4  11  26  43  65  97 135 171 214 269 329 387
#     4  11  23  44  70  95 128 178 228 266 314 392
#     4  10  23  44  66  93 129 169 214 269 327 384
#     4  10  22  44  68  93 126 167 215 268 318 382
#     4  11  24  42  66  95 130 170 217 267 322 387
#     4  10  21  40  68  93 121 166 222 265 310 379
#     4  12  27  41  65  99 135 169 213 267 327 393
#
# _framework density 19.342775
#
# number of rings (size 3 to 8) (size 9 to 14) (size 15 to 20)
#    0.000    1.250    2.500    2.250    5.250    3.500 
#    0.000    0.000    0.000    0.000    0.000    0.000 
#    0.000    0.000    0.000    0.000    0.000    0.000 
#
# Total GULP energy -178863.746648 kJ/mol
# GULP energy per Si atom -5589.492083 kJ/mol
# Density = 1.929875 g / cm^3
# Si number density = 19.342775 Si / 1000 Ang^3
#
#
#
# Elastic Constant Matrix: (Units=GPa)
#
#
# Indices 1 2 3 4 5 6 
#
# 1 55.1052 24.5818 -23.5395 0.0000 0.0000 0.0000
# 2 24.5818 60.4474 9.6897 0.0000 0.0000 0.0000
# 3 -23.5395 9.6897 55.8214 0.0000 0.0000 0.0000
# 4 0.0000 0.0000 0.0000 55.5417 0.0000 0.0000
# 5 0.0000 0.0000 0.0000 0.0000 -11.5180 0.0000
# 6 0.0000 0.0000 0.0000 0.0000 0.0000 24.2791
#
#
#
# Elastic Compliance Matrix: (Units=1/GPa)
#
#
# Indices 1 2 3 4 5 6 
#
# 1 0.032058 -0.015639 0.016233 0.000000 0.000000 0.000000
# 2 -0.015639 0.024646 -0.010873 0.000000 0.000000 0.000000
# 3 0.016233 -0.010873 0.026647 0.000000 0.000000 0.000000
# 4 0.000000 0.000000 0.000000 0.018004 0.000000 0.000000
# 5 0.000000 0.000000 0.000000 0.000000 -0.086820 0.000000
# 6 0.000000 0.000000 0.000000 0.000000 0.000000 0.041188
#
#
# Mechanical properties :
#
#
# Convention : Reuss Voigt Hill
#
# Bulk Modulus (GPa) = 15.92517 21.42644 18.67581
# Shear Modulus (GPa) = 51.43418 24.37002 37.90210
#
# Velocity S-wave (km/s) = 5.16223 3.55336 4.43142
# Velocity P-wave (km/s) = 6.61684 5.28549 5.98828
#
# Compressibility (1/GPa) = 0.06279366
#
# Stress axis : x y z
#
# Youngs Moduli (GPa) = 31.19355 40.57441 37.52747
#
# Poissons Ratio (x) = 0.63454 -0.60919
# Poissons Ratio (y) = 0.48784 0.40804
# Poissons Ratio (z) = -0.50637 0.44117
#
# Static dielectric constant tensor:
#      x y z
#    x 1.668450 0.000000 0.000000 
#    y 0.000000 1.651600 0.000000 
#    z 0.000000 0.000000 1.647980 
# 
# From -- ./inp_files/9501.got.cif
#   From: 2010.05.17/outbox.cif.g08.bks.cpg/sg39_5_cif.got.tgz:9501.got - 2010.06.03 18:22:40.
