data_PCOD9361311
_publ_section_title
;
Structure prediction by ZEFSAII (Michael W. Deem and Ramdas Pophale) SiO2 
 PCOD9361311
Probable space group: A B M 2
;
_chemical_formula_sum "Si O2"
_cell_formula_units_Z 48
_cell_length_a 7.496166
_cell_length_b 9.672707
_cell_length_c 31.437027
_cell_angle_alpha 90.000000
_cell_angle_beta 90.000000
_cell_angle_gamma 90.000000
_cell_volume 2279.442786
_symmetry_space_group_name_H-M "A B M 2"
_symmetry_group_IT_number 39
_symmetry_cell_setting 'orthorhombic'
loop_
_space_group_symop_operation_xyz
x,y,z
-x,-y,z
-x,1/2+y,z
x,1/2-y,z
x,1/2+y,1/2+z
-x,1/2-y,1/2+z
-x,y,1/2+z
x,-y,1/2+z
loop_
_atom_site_type_symbol
_atom_site_label
_atom_site_fract_x
_atom_site_fract_y
_atom_site_fract_z
Si Si1 0.304403 0.750000 0.793781
Si Si2 0.794323 0.520785 0.754756
Si Si3 0.324449 0.591505 0.163151
Si Si4 0.689584 0.417906 0.070766
Si Si5 0.310875 0.917306 0.489201
Si Si6 0.000000 0.500000 0.925045
Si Si7 0.324816 0.250000 0.820208
Si Si8 0.973072 0.250000 0.866850
O O1 0.308759 0.620633 0.762573
O O2 0.464978 0.750000 0.827546
O O3 0.125329 0.750000 0.821674
O O4 0.782296 0.571318 0.706498
O O5 0.716904 0.622210 0.789742
O O6 0.000000 0.500000 0.764981
O O7 0.500000 0.500000 0.166794
O O8 0.382767 0.750000 0.160488
O O9 0.228411 0.563575 0.117904
O O10 0.500000 0.500000 0.074725
O O11 0.675495 0.250000 0.062774
O O12 0.767033 0.502412 0.030954
O O13 0.338691 0.750000 0.495288
O O14 0.500000 0.000000 0.480567
O O15 0.161821 0.940178 0.453212
O O16 0.075773 0.617416 0.894185
O O17 0.186156 0.250000 0.858482
#
# Coordination Sequence:
#
# PCOD9361311 Si02
#       8
#     4   8   8   8   8   4   4   4
#     4  12  26  44  74  97 127 180 221 273 334 400
#     4  12  23  42  64  96 138 178 219 276 328 387
#     4  10  21  37  61  97 135 177 230 271 319 387
#     4   9  18  35  63  96 137 179 221 276 322 386
#     4  11  24  44  73 105 137 180 225 275 340 412
#     4  12  28  46  74  98 140 176 216 282 348 412
#     4  12  24  46  72  95 131 172 221 271 336 400
#     4  12  26  48  70 102 132 168 222 286 344 406
#
# _framework density 21.057777999999999
#
# number of rings (size 3 to 8) (size 9 to 14) (size 15 to 20)
#    0.000    1.000    3.333    4.500    3.500    2.000 
#    1.500    0.000    0.000    0.000    0.000    0.000 
#    0.000    0.000    0.000    0.000    0.000    0.000 
#
# Total GULP energy -133869.917449 kJ/mol
# GULP energy per Si atom -5577.913227 kJ/mol
# Density = 2.100985 g / cm^3
# Si number density = 21.057778 Si / 1000 Ang^3
#
#
#
# Elastic Constant Matrix: (Units=GPa)
#
#
# Indices 1 2 3 4 5 6 
#
# 1 65.3044 7.8998 -3.0909 0.0000 0.0000 0.0000
# 2 7.8998 157.0772 35.2127 0.0000 0.0000 0.0000
# 3 -3.0909 35.2127 94.3189 0.0000 0.0000 0.0000
# 4 0.0000 0.0000 0.0000 33.1927 0.0000 0.0000
# 5 0.0000 0.0000 0.0000 0.0000 2.9127 0.0000
# 6 0.0000 0.0000 0.0000 0.0000 0.0000 -0.4543
#
#
#
# Elastic Compliance Matrix: (Units=1/GPa)
#
#
# Indices 1 2 3 4 5 6 
#
# 1 0.015472 -0.000973 0.000870 0.000000 0.000000 0.000000
# 2 -0.000973 0.007009 -0.002649 0.000000 0.000000 0.000000
# 3 0.000870 -0.002649 0.011620 0.000000 0.000000 0.000000
# 4 0.000000 0.000000 0.000000 0.030127 0.000000 0.000000
# 5 0.000000 0.000000 0.000000 0.000000 0.343325 0.000000
# 6 0.000000 0.000000 0.000000 0.000000 0.000000 -2.201275
#
#
# Mechanical properties :
#
#
# Convention : Reuss Voigt Hill
#
# Bulk Modulus (GPa) = 34.96801 44.08263 39.52532
# Shear Modulus (GPa) = -2.81106 25.57548 11.38221
#
# Velocity S-wave (km/s) = -1.15664 3.48880 2.32744
# Velocity P-wave (km/s) = 3.85461 6.09988 5.10228
#
# Compressibility (1/GPa) = 0.02859757
#
# Stress axis : x y z
#
# Youngs Moduli (GPa) = 64.63355 142.67381 86.06089
#
# Poissons Ratio (x) = 0.13885 -0.07490
# Poissons Ratio (y) = 0.06290 0.22794
# Poissons Ratio (z) = -0.05625 0.37789
#
# Static dielectric constant tensor:
#      x y z
#    x 1.758580 0.000000 0.000000 
#    y 0.000000 1.764890 0.000000 
#    z 0.000000 0.000000 1.768120 
# 
# From -- ./inp_files/17724.got.cif
#   From: 2010.05.17/outbox.cif.g08.bks.cpg/sg39_9_cif.got.tgz:17724.got - 2010.06.03 18:22:40.
