data_PCOD9361951
_publ_section_title
;
Structure prediction by ZEFSAII (Michael W. Deem and Ramdas Pophale) SiO2 
 PCOD9361951
Probable space group: A B M 2
;
_chemical_formula_sum "Si O2"
_cell_formula_units_Z 40
_cell_length_a 13.944109
_cell_length_b 16.123821
_cell_length_c 8.777631
_cell_angle_alpha 90.000000
_cell_angle_beta 90.000000
_cell_angle_gamma 90.000000
_cell_volume 1973.495120
_symmetry_space_group_name_H-M "A B M 2"
_symmetry_group_IT_number 39
_symmetry_cell_setting 'orthorhombic'
loop_
_space_group_symop_operation_xyz
x,y,z
-x,-y,z
-x,1/2+y,z
x,1/2-y,z
x,1/2+y,1/2+z
-x,1/2-y,1/2+z
-x,y,1/2+z
x,-y,1/2+z
loop_
_atom_site_type_symbol
_atom_site_label
_atom_site_fract_x
_atom_site_fract_y
_atom_site_fract_z
Si Si1 0.421816 0.250000 0.747781
Si Si2 0.730730 0.579702 0.429212
Si Si3 0.704159 0.908134 0.791126
Si Si4 0.061022 0.416250 0.286512
Si Si5 0.627769 0.750000 0.388453
Si Si6 0.893237 0.844454 0.961033
O O1 0.371524 0.166514 0.811813
O O2 0.403758 0.250000 0.566311
O O3 0.533169 0.250000 0.786870
O O4 0.720310 0.580739 0.610985
O O5 0.679965 0.497605 0.362344
O O6 0.842031 0.576011 0.382492
O O7 0.687804 0.665752 0.365487
O O8 0.803456 0.879401 0.867825
O O9 0.000000 0.500000 0.291409
O O10 0.988827 0.349764 0.358943
O O11 0.088798 0.395592 0.114204
O O12 0.872995 0.750000 0.003397
#
# Coordination Sequence:
#
# PCOD9361951 Si02
#       6
#     4   8   8   8   4   8
#     4  10  24  48  73 100 133 174 227 288 346 410
#     4  11  25  44  67 100 136 182 223 283 338 406
#     4  11  23  45  68  98 137 177 228 279 342 403
#     4  12  25  41  62  94 135 180 229 268 332 396
#     4  10  26  46  73 100 135 174 227 286 346 412
#     4  12  25  40  62  96 131 183 222 277 326 398
#
# _framework density 20.268606999999999
#
# number of rings (size 3 to 8) (size 9 to 14) (size 15 to 20)
#    0.000    0.800    3.000    3.600    2.800    4.000 
#    0.000    4.000    0.000    0.000    0.000    0.000 
#    0.000    0.000    0.000    0.000    0.000    0.000 
#
# Total GULP energy -111914.358331 kJ/mol
# GULP energy per Si atom -5595.717917 kJ/mol
# Density = 2.022248 g / cm^3
# Si number density = 20.268607 Si / 1000 Ang^3
#
#
#
# Elastic Constant Matrix: (Units=GPa)
#
#
# Indices 1 2 3 4 5 6 
#
# 1 89.0798 73.9311 32.2058 0.0000 0.0000 0.0000
# 2 73.9311 184.7873 38.2392 0.0000 0.0000 0.0000
# 3 32.2058 38.2392 70.3075 0.0000 0.0000 0.0000
# 4 0.0000 0.0000 0.0000 33.1569 0.0000 0.0000
# 5 0.0000 0.0000 0.0000 0.0000 35.7645 0.0000
# 6 0.0000 0.0000 0.0000 0.0000 0.0000 28.5556
#
#
#
# Elastic Compliance Matrix: (Units=1/GPa)
#
#
# Indices 1 2 3 4 5 6 
#
# 1 0.018208 -0.006264 -0.004934 0.000000 0.000000 0.000000
# 2 -0.006264 0.008253 -0.001619 0.000000 0.000000 0.000000
# 3 -0.004934 -0.001619 0.017364 0.000000 0.000000 0.000000
# 4 0.000000 0.000000 0.000000 0.030160 0.000000 0.000000
# 5 0.000000 0.000000 0.000000 0.000000 0.027961 0.000000
# 6 0.000000 0.000000 0.000000 0.000000 0.000000 0.035019
#
#
# Mechanical properties :
#
#
# Convention : Reuss Voigt Hill
#
# Bulk Modulus (GPa) = 54.97208 70.32520 62.64864
# Shear Modulus (GPa) = 29.64496 32.81531 31.23014
#
# Velocity S-wave (km/s) = 3.82855 4.02807 3.92958
# Velocity P-wave (km/s) = 6.83552 7.51038 7.18088
#
# Compressibility (1/GPa) = 0.01819105
#
# Stress axis : x y z
#
# Youngs Moduli (GPa) = 54.91968 121.17039 57.59050
#
# Poissons Ratio (x) = 0.75901 0.28414
# Poissons Ratio (y) = 0.34401 0.09325
# Poissons Ratio (z) = 0.27097 0.19621
#
# Static dielectric constant tensor:
#      x y z
#    x 1.671310 0.000000 0.000000 
#    y 0.000000 1.746060 0.000000 
#    z 0.000000 0.000000 1.690510 
# 
# From -- ./inp_files/2547.got.cif
#   From: 2010.05.17/outbox.cif.g08.bks.cpg/sg39_2_cif.got.tgz:2547.got - 2010.06.03 18:22:40.
