data_PCOD9361106
_publ_section_title
;
Structure prediction by ZEFSAII (Michael W. Deem and Ramdas Pophale) SiO2 
 PCOD9361106
Probable space group: A B M 2
;
_chemical_formula_sum "Si O2"
_cell_formula_units_Z 64
_cell_length_a 11.792290
_cell_length_b 16.428321
_cell_length_c 14.852295
_cell_angle_alpha 90.000000
_cell_angle_beta 90.000000
_cell_angle_gamma 90.000000
_cell_volume 2877.298358
_symmetry_space_group_name_H-M "A B M 2"
_symmetry_group_IT_number 39
_symmetry_cell_setting 'orthorhombic'
loop_
_space_group_symop_operation_xyz
x,y,z
-x,-y,z
-x,1/2+y,z
x,1/2-y,z
x,1/2+y,1/2+z
-x,1/2-y,1/2+z
-x,y,1/2+z
x,-y,1/2+z
loop_
_atom_site_type_symbol
_atom_site_label
_atom_site_fract_x
_atom_site_fract_y
_atom_site_fract_z
Si Si1 0.304012 0.343558 0.270170
Si Si2 0.323405 0.937564 0.108647
Si Si3 0.234560 0.080168 0.805687
Si Si4 0.475205 0.848324 0.358237
Si Si5 0.453162 0.104497 0.055417
Si Si6 0.214229 0.340352 0.091047
Si Si7 0.811833 0.419292 0.925581
Si Si8 0.942042 0.347450 0.426800
O O1 0.321499 0.250000 0.243951
O O2 0.429032 0.378926 0.287886
O O3 0.226465 0.379066 0.190187
O O4 0.243039 0.348455 0.365274
O O5 0.253251 0.936769 0.200407
O O6 0.432936 0.877381 0.111305
O O7 0.242787 0.922090 0.023812
O O8 0.389636 0.021713 0.085999
O O9 0.348823 0.127369 0.832619
O O10 0.127421 0.133835 0.835761
O O11 0.220514 0.998697 0.866048
O O12 0.485898 0.750000 0.367836
O O13 0.496256 0.893116 0.452995
O O14 0.345064 0.163341 0.059327
O O15 0.166592 0.250000 0.103688
O O16 0.138632 0.375330 0.010655
O O17 0.944272 0.399790 0.930033
O O18 0.962872 0.250000 0.432774
#
# Coordination Sequence:
#
# PCOD9361106 Si02
#       8
#     8   8   8   8   8   8   8   8
#     4  10  22  38  63 100 138 179 224 277 338 409
#     4  11  25  41  65 103 138 174 220 279 348 412
#     4  12  25  43  70  99 136 179 226 288 351 416
#     4  11  21  39  69 101 139 185 226 275 345 417
#     4  11  20  41  64  99 136 176 216 273 343 413
#     4  10  20  39  65  93 130 176 227 275 334 406
#     4  12  24  44  67  95 134 179 233 288 340 405
#     4  11  25  46  69  95 132 183 237 290 343 402
#
# _framework density 22.243088
#
# number of rings (size 3 to 8) (size 9 to 14) (size 15 to 20)
#    0.000    1.000    3.750    3.000    0.000    2.500 
#    0.000    8.125    0.000    0.000    0.000    0.000 
#    0.000    0.000    0.000    0.000    0.000    0.000 
#
# Total GULP energy -178593.382031 kJ/mol
# GULP energy per Si atom -5581.043188 kJ/mol
# Density = 2.219246 g / cm^3
# Si number density = 22.243088 Si / 1000 Ang^3
#
#
#
# Elastic Constant Matrix: (Units=GPa)
#
#
# Indices 1 2 3 4 5 6 
#
# 1 169.9287 29.0130 82.3636 0.0000 0.0000 0.0000
# 2 29.0130 41.2173 27.1498 0.0000 0.0000 0.0000
# 3 82.3636 27.1498 198.0412 0.0000 0.0000 0.0000
# 4 0.0000 0.0000 0.0000 21.7576 0.0000 0.0000
# 5 0.0000 0.0000 0.0000 0.0000 16.7100 0.0000
# 6 0.0000 0.0000 0.0000 0.0000 0.0000 23.4203
#
#
#
# Elastic Compliance Matrix: (Units=1/GPa)
#
#
# Indices 1 2 3 4 5 6 
#
# 1 0.007856 -0.003713 -0.002758 0.000000 0.000000 0.000000
# 2 -0.003713 0.028425 -0.002353 0.000000 0.000000 0.000000
# 3 -0.002758 -0.002353 0.006519 0.000000 0.000000 0.000000
# 4 0.000000 0.000000 0.000000 0.045961 0.000000 0.000000
# 5 0.000000 0.000000 0.000000 0.000000 0.059844 0.000000
# 6 0.000000 0.000000 0.000000 0.000000 0.000000 0.042698
#
#
# Mechanical properties :
#
#
# Convention : Reuss Voigt Hill
#
# Bulk Modulus (GPa) = 39.75777 76.24889 58.00333
# Shear Modulus (GPa) = 23.00608 30.42164 26.71386
#
# Velocity S-wave (km/s) = 3.21955 3.70224 3.46930
# Velocity P-wave (km/s) = 5.63326 7.25463 6.49474
#
# Compressibility (1/GPa) = 0.02515231
#
# Stress axis : x y z
#
# Youngs Moduli (GPa) = 127.29850 35.18048 153.39687
#
# Poissons Ratio (x) = 0.13062 0.42308
# Poissons Ratio (y) = 0.47264 0.36089
# Poissons Ratio (z) = 0.35110 0.08277
#
# Static dielectric constant tensor:
#      x y z
#    x 1.822210 0.000000 0.000000 
#    y 0.000000 1.935660 0.000000 
#    z 0.000000 0.000000 1.872020 
# 
# From -- ./inp_files/9502.got.cif
#   From: 2010.05.17/outbox.cif.g08.bks.cpg/sg39_5_cif.got.tgz:9502.got - 2010.06.03 18:22:40.
