data_PCOD9361672
_publ_section_title
;
Structure prediction by ZEFSAII (Michael W. Deem and Ramdas Pophale) SiO2 
 PCOD9361672
Probable space group: A B M 2
;
_chemical_formula_sum "Si O2"
_cell_formula_units_Z 56
_cell_length_a 24.266621
_cell_length_b 8.565003
_cell_length_c 14.575112
_cell_angle_alpha 90.000000
_cell_angle_beta 90.000000
_cell_angle_gamma 90.000000
_cell_volume 3029.344939
_symmetry_space_group_name_H-M "A B M 2"
_symmetry_group_IT_number 39
_symmetry_cell_setting 'orthorhombic'
loop_
_space_group_symop_operation_xyz
x,y,z
-x,-y,z
-x,1/2+y,z
x,1/2-y,z
x,1/2+y,1/2+z
-x,1/2-y,1/2+z
-x,y,1/2+z
x,-y,1/2+z
loop_
_atom_site_type_symbol
_atom_site_label
_atom_site_fract_x
_atom_site_fract_y
_atom_site_fract_z
Si Si1 0.061854 0.563051 0.309210
Si Si2 0.360062 0.435879 0.803661
Si Si3 0.147135 0.563182 0.956113
Si Si4 0.557843 0.564915 0.156598
Si Si5 0.768721 0.437582 0.309711
Si Si6 0.559871 0.435569 0.952860
Si Si7 0.852946 0.936912 0.162784
O O1 0.062523 0.750000 0.308815
O O2 0.095547 0.501836 0.397616
O O3 0.094932 0.500649 0.220451
O O4 0.000000 0.500000 0.309905
O O5 0.364700 0.250000 0.789297
O O6 0.392258 0.523858 0.723075
O O7 0.295716 0.476568 0.808170
O O8 0.392059 0.483829 0.895513
O O9 0.145225 0.750000 0.956717
O O10 0.200301 0.506637 0.898399
O O11 0.147497 0.499330 0.059298
O O12 0.500000 0.500000 0.195682
O O13 0.553011 0.750000 0.142628
O O14 0.565622 0.480234 0.059371
O O15 0.774911 0.250000 0.311050
O O16 0.800312 0.503449 0.220738
O O17 0.500000 0.500000 0.923573
O O18 0.561333 0.250000 0.940062
O O19 0.853937 0.750000 0.163131
#
# Coordination Sequence:
#
# PCOD9361672 Si02
#       7
#     8   8   8   8   8   8   8
#     4  11  22  39  61  90 124 155 193 238 285 336
#     4  11  23  39  59  84 114 148 189 234 285 340
#     4  11  22  39  62  87 117 155 195 236 285 338
#     4  11  22  38  59  83 113 147 186 231 284 342
#     4  10  22  40  60  84 114 149 191 240 286 336
#     4  11  22  38  59  83 113 147 186 231 284 342
#     4  11  22  39  62  87 117 155 195 236 285 338
#
# _framework density 18.485845000000001
#
# number of rings (size 3 to 8) (size 9 to 14) (size 15 to 20)
#    0.000    1.143    0.000   10.286    0.000    4.000 
#    0.000    2.857    0.000    0.000    0.000    0.000 
#    0.000    0.000    0.000    0.000    0.000    0.000 
#
# Total GULP energy -156593.013166 kJ/mol
# GULP energy per Si atom -5592.607613 kJ/mol
# Density = 1.844377 g / cm^3
# Si number density = 18.485845 Si / 1000 Ang^3
#
#
#
# Elastic Constant Matrix: (Units=GPa)
#
#
# Indices 1 2 3 4 5 6 
#
# 1 164.5176 58.0843 72.8857 0.0000 0.0000 0.0000
# 2 58.0843 133.1830 38.4058 0.0000 0.0000 0.0000
# 3 72.8857 38.4058 143.3556 0.0000 0.0000 0.0000
# 4 0.0000 0.0000 0.0000 36.0477 0.0000 0.0000
# 5 0.0000 0.0000 0.0000 0.0000 9.8305 0.0000
# 6 0.0000 0.0000 0.0000 0.0000 0.0000 33.1674
#
#
#
# Elastic Compliance Matrix: (Units=1/GPa)
#
#
# Indices 1 2 3 4 5 6 
#
# 1 0.008668 -0.002720 -0.003679 0.000000 0.000000 0.000000
# 2 -0.002720 0.008990 -0.001026 0.000000 0.000000 0.000000
# 3 -0.003679 -0.001026 0.009121 0.000000 0.000000 0.000000
# 4 0.000000 0.000000 0.000000 0.027741 0.000000 0.000000
# 5 0.000000 0.000000 0.000000 0.000000 0.101724 0.000000
# 6 0.000000 0.000000 0.000000 0.000000 0.000000 0.030150
#
#
# Mechanical properties :
#
#
# Convention : Reuss Voigt Hill
#
# Bulk Modulus (GPa) = 83.81303 86.64531 85.22917
# Shear Modulus (GPa) = 24.36407 33.92115 29.14261
#
# Velocity S-wave (km/s) = 3.63435 4.28831 3.97480
# Velocity P-wave (km/s) = 7.94032 8.45532 8.20186
#
# Compressibility (1/GPa) = 0.01193132
#
# Stress axis : x y z
#
# Youngs Moduli (GPa) = 115.36321 111.22990 109.63996
#
# Poissons Ratio (x) = 0.30251 0.40332
# Poissons Ratio (y) = 0.31375 0.11247
# Poissons Ratio (z) = 0.42437 0.11410
#
# Static dielectric constant tensor:
#      x y z
#    x 1.613680 0.000000 0.000000 
#    y 0.000000 1.614450 0.000000 
#    z 0.000000 0.000000 1.617710 
# 
# From -- ./inp_files/10399.got.cif
#   From: 2010.05.17/outbox.cif.g08.bks.cpg/sg39_6_cif.got.tgz:10399.got - 2010.06.03 18:22:40.
