data_PCOD9361678
_publ_section_title
;
Structure prediction by ZEFSAII (Michael W. Deem and Ramdas Pophale) SiO2 
 PCOD9361678
Probable space group: A B M 2
;
_chemical_formula_sum "Si O2"
_cell_formula_units_Z 40
_cell_length_a 12.479077
_cell_length_b 14.352120
_cell_length_c 10.266467
_cell_angle_alpha 90.000000
_cell_angle_beta 90.000000
_cell_angle_gamma 90.000000
_cell_volume 1838.736668
_symmetry_space_group_name_H-M "A B M 2"
_symmetry_group_IT_number 39
_symmetry_cell_setting 'orthorhombic'
loop_
_space_group_symop_operation_xyz
x,y,z
-x,-y,z
-x,1/2+y,z
x,1/2-y,z
x,1/2+y,1/2+z
-x,1/2-y,1/2+z
-x,y,1/2+z
x,-y,1/2+z
loop_
_atom_site_type_symbol
_atom_site_label
_atom_site_fract_x
_atom_site_fract_y
_atom_site_fract_z
Si Si1 0.883163 0.642600 0.870970
Si Si2 0.618614 0.849047 0.101723
Si Si3 0.453300 0.898729 0.877578
Si Si4 0.060840 0.642197 0.086359
Si Si5 0.248520 0.490471 0.489214
O O1 0.843898 0.750000 0.866000
O O2 0.953852 0.629616 0.741004
O O3 0.792568 0.563772 0.879700
O O4 0.955615 0.630271 0.999121
O O5 0.677765 0.750000 0.090492
O O6 0.559315 0.850181 0.239677
O O7 0.532979 0.856402 0.984557
O O8 0.694704 0.939013 0.090890
O O9 0.337189 0.918311 0.939068
O O10 0.500000 0.000000 0.847223
O O11 0.096000 0.750000 0.065541
O O12 0.150196 0.569299 0.042004
#
# Coordination Sequence:
#
# PCOD9361678 Si02
#       5
#     8   8   8   8   8
#     4  10  22  41  62  88 121 158 198 243 295 353
#     4  11  23  40  62  89 120 157 198 245 297 352
#     4  10  22  40  60  86 120 157 198 244 295 352
#     4  10  23  41  62  88 121 159 199 243 295 351
#     4  11  22  38  63  91 119 155 199 247 294 350
#
# _framework density 21.754066000000002
#
# number of rings (size 3 to 8) (size 9 to 14) (size 15 to 20)
#    0.000    1.600    0.000    4.800    0.000    8.000 
#    0.000    6.000    0.000    0.000    0.000    0.000 
#    0.000    0.000    0.000    0.000    0.000    0.000 
#
# Total GULP energy -111727.813285 kJ/mol
# GULP energy per Si atom -5586.390664 kJ/mol
# Density = 2.170455 g / cm^3
# Si number density = 21.754066 Si / 1000 Ang^3
#
#
#
# Elastic Constant Matrix: (Units=GPa)
#
#
# Indices 1 2 3 4 5 6 
#
# 1 27.8697 16.9858 -11.6620 0.0000 0.0000 0.0000
# 2 16.9858 99.9499 27.3669 0.0000 0.0000 0.0000
# 3 -11.6620 27.3669 50.6131 0.0000 0.0000 0.0000
# 4 0.0000 0.0000 0.0000 97.9968 0.0000 0.0000
# 5 0.0000 0.0000 0.0000 0.0000 27.3168 0.0000
# 6 0.0000 0.0000 0.0000 0.0000 0.0000 -21.1499
#
#
#
# Elastic Compliance Matrix: (Units=1/GPa)
#
#
# Indices 1 2 3 4 5 6 
#
# 1 0.053158 -0.014540 0.020110 0.000000 0.000000 0.000000
# 2 -0.014540 0.015721 -0.011851 0.000000 0.000000 0.000000
# 3 0.020110 -0.011851 0.030799 0.000000 0.000000 0.000000
# 4 0.000000 0.000000 0.000000 0.010204 0.000000 0.000000
# 5 0.000000 0.000000 0.000000 0.000000 0.036608 0.000000
# 6 0.000000 0.000000 0.000000 0.000000 0.000000 -0.047281
#
#
# Mechanical properties :
#
#
# Convention : Reuss Voigt Hill
#
# Bulk Modulus (GPa) = 11.47879 27.09046 19.28463
# Shear Modulus (GPa) = 35.50924 30.54887 33.02906
#
# Velocity S-wave (km/s) = 4.04456 3.75144 3.90076
# Velocity P-wave (km/s) = 5.20571 5.58968 5.40111
#
# Compressibility (1/GPa) = 0.08711718
#
# Stress axis : x y z
#
# Youngs Moduli (GPa) = 18.81181 63.61011 32.46844
#
# Poissons Ratio (x) = 0.92490 -0.65295
# Poissons Ratio (y) = 0.27353 0.38477
# Poissons Ratio (z) = -0.37831 0.75382
#
# Static dielectric constant tensor:
#      x y z
#    x 1.803780 0.000000 0.000000 
#    y 0.000000 1.584310 0.000000 
#    z 0.000000 0.000000 1.792770 
# 
# From -- ./inp_files/2521.got.cif
#   From: 2010.05.17/outbox.cif.g08.bks.cpg/sg39_2_cif.got.tgz:2521.got - 2010.06.03 18:22:40.
