data_PCOD9361448
_publ_section_title
;
Structure prediction by ZEFSAII (Michael W. Deem and Ramdas Pophale) SiO2 
 PCOD9361448
Probable space group: A B M 2
;
_chemical_formula_sum "Si O2"
_cell_formula_units_Z 56
_cell_length_a 11.728310
_cell_length_b 21.115339
_cell_length_c 9.415363
_cell_angle_alpha 90.000000
_cell_angle_beta 90.000000
_cell_angle_gamma 90.000000
_cell_volume 2331.688675
_symmetry_space_group_name_H-M "A B M 2"
_symmetry_group_IT_number 39
_symmetry_cell_setting 'orthorhombic'
loop_
_space_group_symop_operation_xyz
x,y,z
-x,-y,z
-x,1/2+y,z
x,1/2-y,z
x,1/2+y,1/2+z
-x,1/2-y,1/2+z
-x,y,1/2+z
x,-y,1/2+z
loop_
_atom_site_type_symbol
_atom_site_label
_atom_site_fract_x
_atom_site_fract_y
_atom_site_fract_z
Si Si1 0.235562 0.381601 0.458880
Si Si2 0.363316 0.391289 0.051990
Si Si3 0.896165 0.179162 0.197240
Si Si4 0.476186 0.576445 0.821229
Si Si5 0.800106 0.003922 0.627022
Si Si6 0.095952 0.948287 0.377164
Si Si7 0.846818 0.177356 0.670243
O O1 0.203797 0.330157 0.579974
O O2 0.362902 0.402820 0.412001
O O3 0.180932 0.441512 0.536538
O O4 0.172276 0.364052 0.312969
O O5 0.459240 0.387491 0.172312
O O6 0.315669 0.460939 0.092465
O O7 0.258124 0.344036 0.070937
O O8 0.416254 0.393199 0.899228
O O9 0.887063 0.250000 0.260775
O O10 0.903854 0.121688 0.311074
O O11 0.021447 0.175688 0.123041
O O12 0.500000 0.500000 0.814760
O O13 0.889807 0.050251 0.547319
O O14 0.801921 0.982192 0.788495
O O15 0.000000 0.000000 0.337788
O O16 0.825001 0.250000 0.711269
#
# Coordination Sequence:
#
# PCOD9361448 Si02
#       7
#     8   8   8   8   8   8   8
#     4  10  21  39  65  97 128 174 224 285 340 402
#     4  11  24  40  65  97 128 171 218 278 337 405
#     4  10  22  40  65  96 136 185 232 279 341 420
#     4  11  22  40  67  98 131 166 217 275 347 405
#     4  11  22  37  60  93 132 165 216 278 347 398
#     4  11  22  37  61  93 135 179 226 282 337 405
#     4  10  22  42  63  89 131 181 228 273 331 404
#
# _framework density 24.016926000000002
#
# number of rings (size 3 to 8) (size 9 to 14) (size 15 to 20)
#    0.000    1.429    1.429    4.714    0.000    4.571 
#    0.000    5.714    0.000    0.000    0.000    0.000 
#    0.000    0.000    0.000    0.000    0.000    0.000 
#
# Total GULP energy -156212.179825 kJ/mol
# GULP energy per Si atom -5579.006422 kJ/mol
# Density = 2.396226 g / cm^3
# Si number density = 24.016926 Si / 1000 Ang^3
#
#
#
# Elastic Constant Matrix: (Units=GPa)
#
#
# Indices 1 2 3 4 5 6 
#
# 1 63.7542 10.5378 24.0075 0.0000 0.0000 0.0000
# 2 10.5378 99.9801 18.3799 0.0000 0.0000 0.0000
# 3 24.0075 18.3799 77.0717 0.0000 0.0000 0.0000
# 4 0.0000 0.0000 0.0000 22.2411 0.0000 0.0000
# 5 0.0000 0.0000 0.0000 0.0000 44.4513 0.0000
# 6 0.0000 0.0000 0.0000 0.0000 0.0000 31.9139
#
#
#
# Elastic Compliance Matrix: (Units=1/GPa)
#
#
# Indices 1 2 3 4 5 6 
#
# 1 0.017846 -0.000898 -0.005345 0.000000 0.000000 0.000000
# 2 -0.000898 0.010506 -0.002226 0.000000 0.000000 0.000000
# 3 -0.005345 -0.002226 0.015171 0.000000 0.000000 0.000000
# 4 0.000000 0.000000 0.000000 0.044962 0.000000 0.000000
# 5 0.000000 0.000000 0.000000 0.000000 0.022497 0.000000
# 6 0.000000 0.000000 0.000000 0.000000 0.000000 0.031334
#
#
# Mechanical properties :
#
#
# Convention : Reuss Voigt Hill
#
# Bulk Modulus (GPa) = 37.61490 38.51736 38.06613
# Shear Modulus (GPa) = 29.74159 32.24665 30.99412
#
# Velocity S-wave (km/s) = 3.52285 3.66821 3.59627
# Velocity P-wave (km/s) = 5.67830 5.83211 5.75572
#
# Compressibility (1/GPa) = 0.02658521
#
# Stress axis : x y z
#
# Youngs Moduli (GPa) = 56.03365 95.18535 65.91710
#
# Poissons Ratio (x) = 0.08552 0.35232
# Poissons Ratio (y) = 0.05034 0.14670
# Poissons Ratio (z) = 0.29949 0.21184
#
# Static dielectric constant tensor:
#      x y z
#    x 2.022190 0.000000 0.000000 
#    y 0.000000 1.965680 0.000000 
#    z 0.000000 0.000000 2.015120 
# 
# From -- ./inp_files/5955.got.cif
#   From: 2010.05.17/outbox.cif.g08.bks.cpg/sg39_3_cif.got.tgz:5955.got - 2010.06.03 18:22:40.
