data_PCOD9361810
_publ_section_title
;
Structure prediction by ZEFSAII (Michael W. Deem and Ramdas Pophale) SiO2 
 PCOD9361810
Probable space group: A B M 2
;
_chemical_formula_sum "Si O2"
_cell_formula_units_Z 20
_cell_length_a 5.374078
_cell_length_b 15.941948
_cell_length_c 8.669790
_cell_angle_alpha 90.000000
_cell_angle_beta 90.000000
_cell_angle_gamma 90.000000
_cell_volume 742.769277
_symmetry_space_group_name_H-M "A B M 2"
_symmetry_group_IT_number 39
_symmetry_cell_setting 'orthorhombic'
loop_
_space_group_symop_operation_xyz
x,y,z
-x,-y,z
-x,1/2+y,z
x,1/2-y,z
x,1/2+y,1/2+z
-x,1/2-y,1/2+z
-x,y,1/2+z
x,-y,1/2+z
loop_
_atom_site_type_symbol
_atom_site_label
_atom_site_fract_x
_atom_site_fract_y
_atom_site_fract_z
Si Si1 0.747854 0.104372 0.797790
Si Si2 0.502720 0.250000 0.602370
Si Si3 0.500000 0.500000 0.064324
Si Si4 0.130251 0.750000 0.319054
O O1 0.590171 0.170371 0.699297
O O2 0.726127 0.027317 0.677554
O O3 0.985597 0.161361 0.838672
O O4 0.613698 0.070254 0.950460
O O5 0.644877 0.250000 0.442095
O O6 0.208955 0.250000 0.636430
#
# Coordination Sequence:
#
# PCOD9361810 Si02
#       4
#     8   4   4   4
#     4  10  24  47  77 108 149 198 243 308 379 443
#     4  11  24  48  72 103 144 197 262 308 354 445
#     4  10  22  48  78 116 156 186 242 308 380 464
#     4  11  26  48  76 105 148 203 256 308 368 435
#
# _framework density 26.926259999999999
#
# number of rings (size 3 to 8) (size 9 to 14) (size 15 to 20)
#    0.000    1.600    0.000    2.400    0.000   17.600 
#    0.000   42.000    0.000    0.000    0.000    0.000 
#    0.000    0.000    0.000    0.000    0.000    0.000 
#
# Total GULP energy -55851.946396 kJ/mol
# GULP energy per Si atom -5585.194640 kJ/mol
# Density = 2.686497 g / cm^3
# Si number density = 26.926260 Si / 1000 Ang^3
#
#
#
# Elastic Constant Matrix: (Units=GPa)
#
#
# Indices 1 2 3 4 5 6 
#
# 1 118.6122 59.9376 97.5572 0.0000 0.0000 0.0000
# 2 59.9376 109.9018 90.9502 0.0000 0.0000 0.0000
# 3 97.5572 90.9502 234.3562 0.0000 0.0000 0.0000
# 4 0.0000 0.0000 0.0000 80.5249 0.0000 0.0000
# 5 0.0000 0.0000 0.0000 0.0000 32.1385 0.0000
# 6 0.0000 0.0000 0.0000 0.0000 0.0000 6.7899
#
#
#
# Elastic Compliance Matrix: (Units=1/GPa)
#
#
# Indices 1 2 3 4 5 6 
#
# 1 0.013992 -0.004141 -0.004218 0.000000 0.000000 0.000000
# 2 -0.004141 0.014629 -0.003954 0.000000 0.000000 0.000000
# 3 -0.004218 -0.003954 0.007557 0.000000 0.000000 0.000000
# 4 0.000000 0.000000 0.000000 0.012419 0.000000 0.000000
# 5 0.000000 0.000000 0.000000 0.000000 0.031115 0.000000
# 6 0.000000 0.000000 0.000000 0.000000 0.000000 0.147277
#
#
# Mechanical properties :
#
#
# Convention : Reuss Voigt Hill
#
# Bulk Modulus (GPa) = 86.54701 106.64003 96.59352
# Shear Modulus (GPa) = 19.57218 38.18569 28.87893
#
# Velocity S-wave (km/s) = 2.69900 3.76993 3.27849
# Velocity P-wave (km/s) = 6.47494 7.65769 7.09102
#
# Compressibility (1/GPa) = 0.01155441
#
# Stress axis : x y z
#
# Youngs Moduli (GPa) = 71.46834 68.35680 132.32497
#
# Poissons Ratio (x) = 0.28303 0.55811
# Poissons Ratio (y) = 0.29592 0.52318
# Poissons Ratio (z) = 0.30144 0.27026
#
# Static dielectric constant tensor:
#      x y z
#    x 2.226050 0.000000 0.000000 
#    y 0.000000 0.626190 0.000000 
#    z 0.000000 0.000000 2.070920 
# 
# From -- ./inp_files/1602.got.cif
#   From: 2010.05.17/outbox.cif.g08.bks.cpg/sg39_1_cif.got.tgz:1602.got - 2010.06.03 18:22:40.
