data_PCOD9361241
_publ_section_title
;
Structure prediction by ZEFSAII (Michael W. Deem and Ramdas Pophale) SiO2 
 PCOD9361241
Probable space group: A B M 2
;
_chemical_formula_sum "Si O2"
_cell_formula_units_Z 64
_cell_length_a 11.935736
_cell_length_b 22.920324
_cell_length_c 10.848650
_cell_angle_alpha 90.000000
_cell_angle_beta 90.000000
_cell_angle_gamma 90.000000
_cell_volume 2967.875338
_symmetry_space_group_name_H-M "A B M 2"
_symmetry_group_IT_number 39
_symmetry_cell_setting 'orthorhombic'
loop_
_space_group_symop_operation_xyz
x,y,z
-x,-y,z
-x,1/2+y,z
x,1/2-y,z
x,1/2+y,1/2+z
-x,1/2-y,1/2+z
-x,y,1/2+z
x,-y,1/2+z
loop_
_atom_site_type_symbol
_atom_site_label
_atom_site_fract_x
_atom_site_fract_y
_atom_site_fract_z
Si Si1 0.981732 0.623256 0.385690
Si Si2 0.250745 0.417098 0.441161
Si Si3 0.329420 0.900647 0.384857
Si Si4 0.436584 0.591695 0.757361
Si Si5 0.088761 0.681026 0.627258
Si Si6 0.708848 0.990377 0.107321
Si Si7 0.651710 0.316891 0.582923
Si Si8 0.859494 0.973695 0.798260
O O1 0.055878 0.649767 0.497306
O O2 0.029424 0.559103 0.344254
O O3 0.858969 0.621720 0.449540
O O4 0.967181 0.655756 0.253099
O O5 0.343465 0.388484 0.356312
O O6 0.316703 0.446210 0.553689
O O7 0.193300 0.476053 0.383871
O O8 0.446004 0.915692 0.322353
O O9 0.305181 0.940767 0.504854
O O10 0.336949 0.836290 0.440535
O O11 0.226327 0.918409 0.299408
O O12 0.379847 0.532234 0.707284
O O13 0.434503 0.640302 0.651217
O O14 0.063884 0.750000 0.616924
O O15 0.223324 0.674037 0.638401
O O16 0.834667 0.996789 0.164742
O O17 0.620477 0.250000 0.595940
#
# Coordination Sequence:
#
# PCOD9361241 Si02
#       8
#     8   8   8   8   8   8   8   8
#     4  12  22  40  68  98 134 172 216 276 322 388
#     4  10  21  36  57  92 128 166 209 251 311 382
#     4  10  21  38  60  86 120 163 212 261 317 388
#     4  10  21  38  60  86 120 163 212 261 317 388
#     4  11  24  42  67  94 130 172 219 272 335 396
#     4   9  21  37  56  87 129 164 209 252 314 385
#     4  10  21  42  64  85 120 165 213 275 333 390
#     4  10  21  36  57  92 128 166 209 251 311 382
#
# _framework density 21.564247000000002
#
# number of rings (size 3 to 8) (size 9 to 14) (size 15 to 20)
#    0.000    1.750    2.500    1.500    0.000    8.000 
#    0.000    3.750    0.000    1.500    0.000    0.000 
#    0.000    0.000    0.000    0.000    0.000    0.000 
#
# Total GULP energy -178211.532046 kJ/mol
# GULP energy per Si atom -5569.110376 kJ/mol
# Density = 2.151517 g / cm^3
# Si number density = 21.564247 Si / 1000 Ang^3
#
#
#
# Elastic Constant Matrix: (Units=GPa)
#
#
# Indices 1 2 3 4 5 6 
#
# 1 73.5121 17.4081 3.9282 0.0000 0.0000 0.0000
# 2 17.4081 70.7057 42.0875 0.0000 0.0000 0.0000
# 3 3.9282 42.0875 81.2752 0.0000 0.0000 0.0000
# 4 0.0000 0.0000 0.0000 26.7012 0.0000 0.0000
# 5 0.0000 0.0000 0.0000 0.0000 25.1917 0.0000
# 6 0.0000 0.0000 0.0000 0.0000 0.0000 18.2612
#
#
#
# Elastic Compliance Matrix: (Units=1/GPa)
#
#
# Indices 1 2 3 4 5 6 
#
# 1 0.014601 -0.004589 0.001671 0.000000 0.000000 0.000000
# 2 -0.004589 0.021888 -0.011113 0.000000 0.000000 0.000000
# 3 0.001671 -0.011113 0.017978 0.000000 0.000000 0.000000
# 4 0.000000 0.000000 0.000000 0.037452 0.000000 0.000000
# 5 0.000000 0.000000 0.000000 0.000000 0.039696 0.000000
# 6 0.000000 0.000000 0.000000 0.000000 0.000000 0.054761
#
#
# Mechanical properties :
#
#
# Convention : Reuss Voigt Hill
#
# Bulk Modulus (GPa) = 37.87296 39.14895 38.51095
# Shear Modulus (GPa) = 22.39765 24.83543 23.61654
#
# Velocity S-wave (km/s) = 3.22630 3.39734 3.31293
# Velocity P-wave (km/s) = 5.61067 5.79510 5.70364
#
# Compressibility (1/GPa) = 0.02640407
#
# Stress axis : x y z
#
# Youngs Moduli (GPa) = 68.48987 45.68757 55.62467
#
# Poissons Ratio (x) = 0.20968 -0.09294
# Poissons Ratio (y) = 0.31432 0.61813
# Poissons Ratio (z) = -0.11444 0.50771
#
# Static dielectric constant tensor:
#      x y z
#    x 1.841910 0.000000 0.000000 
#    y 0.000000 1.816100 0.000000 
#    z 0.000000 0.000000 1.974020 
# 
# From -- ./inp_files/6095.got.cif
#   From: 2010.05.17/outbox.cif.g08.bks.cpg/sg39_4_cif.got.tgz:6095.got - 2010.06.03 18:22:40.
