data_PCOD9361327
_publ_section_title
;
Structure prediction by ZEFSAII (Michael W. Deem and Ramdas Pophale) SiO2 
 PCOD9361327
Probable space group: A B M 2
;
_chemical_formula_sum "Si O2"
_cell_formula_units_Z 48
_cell_length_a 17.967430
_cell_length_b 10.136320
_cell_length_c 13.822198
_cell_angle_alpha 90.000000
_cell_angle_beta 90.000000
_cell_angle_gamma 90.000000
_cell_volume 2517.348737
_symmetry_space_group_name_H-M "A B M 2"
_symmetry_group_IT_number 39
_symmetry_cell_setting 'orthorhombic'
loop_
_space_group_symop_operation_xyz
x,y,z
-x,-y,z
-x,1/2+y,z
x,1/2-y,z
x,1/2+y,1/2+z
-x,1/2-y,1/2+z
-x,y,1/2+z
x,-y,1/2+z
loop_
_atom_site_type_symbol
_atom_site_label
_atom_site_fract_x
_atom_site_fract_y
_atom_site_fract_z
Si Si1 0.302030 0.903671 0.752250
Si Si2 0.068312 0.599160 0.037045
Si Si3 0.813333 0.472057 0.401312
Si Si4 0.426592 0.909452 0.907415
Si Si5 0.679228 0.902982 0.033009
Si Si6 0.938643 0.107183 0.260567
O O1 0.284387 0.750000 0.746412
O O2 0.380686 0.918058 0.807095
O O3 0.306187 0.949845 0.642310
O O4 0.239647 0.965141 0.820209
O O5 0.043644 0.750000 0.023266
O O6 0.137526 0.568989 0.967823
O O7 0.000000 0.500000 0.018610
O O8 0.089410 0.582195 0.150728
O O9 0.756257 0.400949 0.473379
O O10 0.873691 0.394074 0.338685
O O11 0.437247 0.750000 0.927443
O O12 0.500000 0.000000 0.901575
O O13 0.374473 0.988536 0.983794
O O14 0.649903 0.750000 0.033344
O O15 0.975873 0.250000 0.259304
O O16 0.000000 0.000000 0.284523
#
# Coordination Sequence:
#
# PCOD9361327 Si02
#       6
#     8   8   8   8   8   8
#     4   9  20  37  57  84 117 149 183 223 275 332
#     4  10  22  38  56  78 109 146 189 238 289 341
#     4  11  20  34  58  84 110 145 187 234 282 334
#     4  10  21  39  62  88 117 150 186 225 269 323
#     4  10  21  38  59  86 117 149 185 228 275 329
#     4  10  22  38  54  78 109 145 188 236 287 339
#
# _framework density 19.067681
#
# number of rings (size 3 to 8) (size 9 to 14) (size 15 to 20)
#    0.000    2.000    0.000    3.000    0.000    5.333 
#    0.000   10.000    0.000    0.000    0.000    0.000 
#    0.000    0.000    0.000    0.000    0.000    0.000 
#
# Total GULP energy -133777.344011 kJ/mol
# GULP energy per Si atom -5574.056000 kJ/mol
# Density = 1.902428 g / cm^3
# Si number density = 19.067681 Si / 1000 Ang^3
#
#
#
# Elastic Constant Matrix: (Units=GPa)
#
#
# Indices 1 2 3 4 5 6 
#
# 1 96.6960 64.7297 50.6371 0.0000 0.0000 0.0000
# 2 64.7297 119.7008 53.7475 0.0000 0.0000 0.0000
# 3 50.6371 53.7475 145.3917 0.0000 0.0000 0.0000
# 4 0.0000 0.0000 0.0000 24.8189 0.0000 0.0000
# 5 0.0000 0.0000 0.0000 0.0000 9.0501 0.0000
# 6 0.0000 0.0000 0.0000 0.0000 0.0000 20.2954
#
#
#
# Elastic Compliance Matrix: (Units=1/GPa)
#
#
# Indices 1 2 3 4 5 6 
#
# 1 0.017285 -0.007966 -0.003075 0.000000 0.000000 0.000000
# 2 -0.007966 0.013688 -0.002286 0.000000 0.000000 0.000000
# 3 -0.003075 -0.002286 0.008794 0.000000 0.000000 0.000000
# 4 0.000000 0.000000 0.000000 0.040292 0.000000 0.000000
# 5 0.000000 0.000000 0.000000 0.000000 0.110496 0.000000
# 6 0.000000 0.000000 0.000000 0.000000 0.000000 0.049272
#
#
# Mechanical properties :
#
#
# Convention : Reuss Voigt Hill
#
# Bulk Modulus (GPa) = 76.26015 77.77969 77.01992
# Shear Modulus (GPa) = 18.46030 23.67782 21.06906
#
# Velocity S-wave (km/s) = 3.11488 3.52771 3.32770
# Velocity P-wave (km/s) = 7.28134 7.58109 7.43273
#
# Compressibility (1/GPa) = 0.01311301
#
# Stress axis : x y z
#
# Youngs Moduli (GPa) = 57.85478 73.05512 113.71478
#
# Poissons Ratio (x) = 0.58197 0.34968
# Poissons Ratio (y) = 0.46088 0.25992
# Poissons Ratio (z) = 0.17791 0.16699
#
# Static dielectric constant tensor:
#      x y z
#    x 1.649360 0.000000 0.000000 
#    y 0.000000 1.657860 0.000000 
#    z 0.000000 0.000000 1.694450 
# 
# From -- ./inp_files/9745.got.cif
#   From: 2010.05.17/outbox.cif.g08.bks.cpg/sg39_5_cif.got.tgz:9745.got - 2010.06.03 18:22:40.
