data_PCOD9361052
_publ_section_title
;
Structure prediction by ZEFSAII (Michael W. Deem and Ramdas Pophale) SiO2 
 PCOD9361052
Probable space group: A B M 2
;
_chemical_formula_sum "Si O2"
_cell_formula_units_Z 40
_cell_length_a 4.804225
_cell_length_b 16.308326
_cell_length_c 22.424329
_cell_angle_alpha 90.000000
_cell_angle_beta 90.000000
_cell_angle_gamma 90.000000
_cell_volume 1756.920781
_symmetry_space_group_name_H-M "A B M 2"
_symmetry_group_IT_number 39
_symmetry_cell_setting 'orthorhombic'
loop_
_space_group_symop_operation_xyz
x,y,z
-x,-y,z
-x,1/2+y,z
x,1/2-y,z
x,1/2+y,1/2+z
-x,1/2-y,1/2+z
-x,y,1/2+z
x,-y,1/2+z
loop_
_atom_site_type_symbol
_atom_site_label
_atom_site_fract_x
_atom_site_fract_y
_atom_site_fract_z
Si Si1 0.270106 0.443978 0.055300
Si Si2 0.096477 0.842088 0.744678
Si Si3 0.098854 0.094964 0.934436
Si Si4 0.572801 0.591977 0.677774
Si Si5 0.379930 0.655680 0.863901
O O1 0.500000 0.500000 0.022584
O O2 0.454530 0.409461 0.109852
O O3 0.000000 0.500000 0.074727
O O4 0.174476 0.384926 0.002983
O O5 0.991394 0.750000 0.755865
O O6 0.881053 0.889177 0.701594
O O7 0.382024 0.841568 0.708838
O O8 0.203637 0.878928 0.807503
O O9 0.348575 0.109409 0.887652
O O10 0.842187 0.150803 0.916298
O O11 0.000000 0.000000 0.933095
O O12 0.500000 0.500000 0.699011
O O13 0.454303 0.750000 0.849869
#
# Coordination Sequence:
#
# PCOD9361052 Si02
#       5
#     8   8   8   8   8
#     4  10  20  38  62  92 129 164 203 267 334 377
#     4  11  24  42  62  88 128 168 203 256 325 381
#     4  11  22  40  66  95 124 167 222 266 314 383
#     4  11  22  40  65  92 120 160 212 260 310 377
#     4  11  24  42  62  89 132 175 210 261 329 384
#
# _framework density 22.767108
#
# number of rings (size 3 to 8) (size 9 to 14) (size 15 to 20)
#    0.000    1.200    0.000    8.400    0.000    6.400 
#    0.000    7.000    0.000    0.000    0.000    0.000 
#    0.000    0.000    0.000    0.000    0.000    0.000 
#
# Total GULP energy -111468.996030 kJ/mol
# GULP energy per Si atom -5573.449801 kJ/mol
# Density = 2.271529 g / cm^3
# Si number density = 22.767108 Si / 1000 Ang^3
#
#
#
# Elastic Constant Matrix: (Units=GPa)
#
#
# Indices 1 2 3 4 5 6 
#
# 1 146.7753 23.0706 52.1781 0.0000 0.0000 0.0000
# 2 23.0706 57.6350 28.6567 0.0000 0.0000 0.0000
# 3 52.1781 28.6567 120.3542 0.0000 0.0000 0.0000
# 4 0.0000 0.0000 0.0000 58.2693 0.0000 0.0000
# 5 0.0000 0.0000 0.0000 0.0000 45.1444 0.0000
# 6 0.0000 0.0000 0.0000 0.0000 0.0000 27.3029
#
#
#
# Elastic Compliance Matrix: (Units=1/GPa)
#
#
# Indices 1 2 3 4 5 6 
#
# 1 0.008202 -0.001719 -0.003147 0.000000 0.000000 0.000000
# 2 -0.001719 0.020041 -0.004027 0.000000 0.000000 0.000000
# 3 -0.003147 -0.004027 0.010632 0.000000 0.000000 0.000000
# 4 0.000000 0.000000 0.000000 0.017162 0.000000 0.000000
# 5 0.000000 0.000000 0.000000 0.000000 0.022151 0.000000
# 6 0.000000 0.000000 0.000000 0.000000 0.000000 0.036626
#
#
# Mechanical properties :
#
#
# Convention : Reuss Voigt Hill
#
# Bulk Modulus (GPa) = 47.41472 59.17503 53.29487
# Shear Modulus (GPa) = 35.80968 40.86726 38.33847
#
# Velocity S-wave (km/s) = 3.97024 4.24136 4.10804
# Velocity P-wave (km/s) = 6.47212 7.07343 6.77944
#
# Compressibility (1/GPa) = 0.02109050
#
# Stress axis : x y z
#
# Youngs Moduli (GPa) = 121.92324 49.89871 94.05789
#
# Poissons Ratio (x) = 0.08576 0.29596
# Poissons Ratio (y) = 0.20954 0.37874
# Poissons Ratio (z) = 0.38365 0.20092
#
# Static dielectric constant tensor:
#      x y z
#    x 1.869340 0.000000 0.000000 
#    y 0.000000 1.894430 0.000000 
#    z 0.000000 0.000000 1.939020 
# 
# From -- ./inp_files/13446.got.cif
#   From: 2010.05.17/outbox.cif.g08.bks.cpg/sg39_7_cif.got.tgz:13446.got - 2010.06.03 18:22:40.
