data_PCOD9361049
_publ_section_title
;
Structure prediction by ZEFSAII (Michael W. Deem and Ramdas Pophale) SiO2 
 PCOD9361049
Probable space group: A B M 2
;
_chemical_formula_sum "Si O2"
_cell_formula_units_Z 64
_cell_length_a 10.054081
_cell_length_b 27.691202
_cell_length_c 9.659513
_cell_angle_alpha 90.000000
_cell_angle_beta 90.000000
_cell_angle_gamma 90.000000
_cell_volume 2689.301034
_symmetry_space_group_name_H-M "A B M 2"
_symmetry_group_IT_number 39
_symmetry_cell_setting 'orthorhombic'
loop_
_space_group_symop_operation_xyz
x,y,z
-x,-y,z
-x,1/2+y,z
x,1/2-y,z
x,1/2+y,1/2+z
-x,1/2-y,1/2+z
-x,y,1/2+z
x,-y,1/2+z
loop_
_atom_site_type_symbol
_atom_site_label
_atom_site_fract_x
_atom_site_fract_y
_atom_site_fract_z
Si Si1 0.761872 0.525773 0.935400
Si Si2 0.842755 0.135349 0.416246
Si Si3 0.231972 0.195245 0.371384
Si Si4 0.780518 0.553456 0.233101
Si Si5 0.972393 0.646622 0.187800
Si Si6 0.385734 0.863199 0.070367
Si Si7 0.629477 0.695477 0.087942
Si Si8 0.484678 0.578098 0.324986
O O1 0.829929 0.577681 0.916502
O O2 0.821348 0.479810 0.860479
O O3 0.614665 0.535049 0.871047
O O4 0.772308 0.519322 0.098928
O O5 0.958724 0.151432 0.523756
O O6 0.716199 0.160046 0.490574
O O7 0.885675 0.147158 0.261115
O O8 0.233651 0.250000 0.424911
O O9 0.105809 0.187641 0.271751
O O10 0.256460 0.154355 0.486706
O O11 0.344236 0.188150 0.251641
O O12 0.883306 0.597858 0.217298
O O13 0.626747 0.569626 0.250766
O O14 0.475402 0.815173 0.070278
O O15 0.397906 0.888222 0.220492
O O16 0.465669 0.899036 0.968487
O O17 0.666311 0.750000 0.052482
#
# Coordination Sequence:
#
# PCOD9361049 Si02
#       8
#     8   8   8   8   8   8   8   8
#     4  11  25  41  62  91 124 160 204 254 310 370
#     4  10  22  42  62  86 118 160 206 257 311 364
#     4  10  21  38  62  92 125 163 204 252 310 367
#     4  11  24  41  60  91 124 161 203 254 311 367
#     4  10  22  42  63  84 119 160 206 257 311 364
#     4  12  20  38  63  90 126 166 200 244 304 366
#     4  10  20  38  62  89 125 165 203 253 309 365
#     4  12  22  38  64  89 127 163 200 245 302 369
#
# _framework density 23.798003999999999
#
# number of rings (size 3 to 8) (size 9 to 14) (size 15 to 20)
#    0.000    1.250    5.000    1.500    1.750    4.000 
#    0.000    2.500    0.000    0.000    0.000    0.000 
#    0.000    0.000    0.000    0.000    0.000    0.000 
#
# Total GULP energy -178616.075459 kJ/mol
# GULP energy per Si atom -5581.752358 kJ/mol
# Density = 2.374384 g / cm^3
# Si number density = 23.798004 Si / 1000 Ang^3
#
#
#
# Elastic Constant Matrix: (Units=GPa)
#
#
# Indices 1 2 3 4 5 6 
#
# 1 41.1023 -17.4715 4.5407 0.0000 0.0000 0.0000
# 2 -17.4715 56.4146 9.6650 0.0000 0.0000 0.0000
# 3 4.5407 9.6650 112.5836 0.0000 0.0000 0.0000
# 4 0.0000 0.0000 0.0000 33.3650 0.0000 0.0000
# 5 0.0000 0.0000 0.0000 0.0000 31.7898 0.0000
# 6 0.0000 0.0000 0.0000 0.0000 0.0000 0.8107
#
#
#
# Elastic Compliance Matrix: (Units=1/GPa)
#
#
# Indices 1 2 3 4 5 6 
#
# 1 0.028425 0.009134 -0.001931 0.000000 0.000000 0.000000
# 2 0.009134 0.020926 -0.002165 0.000000 0.000000 0.000000
# 3 -0.001931 -0.002165 0.009146 0.000000 0.000000 0.000000
# 4 0.000000 0.000000 0.000000 0.029972 0.000000 0.000000
# 5 0.000000 0.000000 0.000000 0.000000 0.031457 0.000000
# 6 0.000000 0.000000 0.000000 0.000000 0.000000 1.233566
#
#
# Mechanical properties :
#
#
# Convention : Reuss Voigt Hill
#
# Bulk Modulus (GPa) = 14.58270 22.61876 18.60073
# Shear Modulus (GPa) = 3.65959 27.41752 15.53856
#
# Velocity S-wave (km/s) = 1.24142 3.39793 2.55803
# Velocity P-wave (km/s) = 2.86283 4.99196 4.06912
#
# Compressibility (1/GPa) = 0.06857441
#
# Stress axis : x y z
#
# Youngs Moduli (GPa) = 35.17974 47.78838 109.33747
#
# Poissons Ratio (x) = -0.43650 0.21108
# Poissons Ratio (y) = -0.32133 0.23669
# Poissons Ratio (z) = 0.06792 0.10345
#
# Static dielectric constant tensor:
#      x y z
#    x 2.076350 0.000000 0.000000 
#    y 0.000000 1.878410 0.000000 
#    z 0.000000 0.000000 1.917700 
# 
# From -- ./inp_files/2913.got.cif
#   From: 2010.05.17/outbox.cif.g08.bks.cpg/sg39_2_cif.got.tgz:2913.got - 2010.06.03 18:22:40.
