data_PCOD9361430
_publ_section_title
;
Structure prediction by ZEFSAII (Michael W. Deem and Ramdas Pophale) SiO2 
 PCOD9361430
Probable space group: A B M 2
;
_chemical_formula_sum "Si O2"
_cell_formula_units_Z 48
_cell_length_a 4.993266
_cell_length_b 16.919733
_cell_length_c 28.048993
_cell_angle_alpha 90.000000
_cell_angle_beta 90.000000
_cell_angle_gamma 90.000000
_cell_volume 2369.711531
_symmetry_space_group_name_H-M "A B M 2"
_symmetry_group_IT_number 39
_symmetry_cell_setting 'orthorhombic'
loop_
_space_group_symop_operation_xyz
x,y,z
-x,-y,z
-x,1/2+y,z
x,1/2-y,z
x,1/2+y,1/2+z
-x,1/2-y,1/2+z
-x,y,1/2+z
x,-y,1/2+z
loop_
_atom_site_type_symbol
_atom_site_label
_atom_site_fract_x
_atom_site_fract_y
_atom_site_fract_z
Si Si1 0.419597 0.659425 0.905940
Si Si2 0.064262 0.090655 0.241881
Si Si3 0.935740 0.909344 0.854392
Si Si4 0.246949 0.556713 0.994841
Si Si5 0.580405 0.340575 0.190334
Si Si6 0.753050 0.556713 0.601433
O O1 0.504165 0.750000 0.911099
O O2 0.644522 0.612555 0.875305
O O3 0.340293 0.620969 0.956559
O O4 0.144638 0.650636 0.877372
O O5 0.355481 0.112555 0.220969
O O6 0.999999 0.094977 0.298137
O O7 0.855366 0.150636 0.218901
O O8 0.000000 0.000000 0.228003
O O9 0.000000 0.000000 0.868270
O O10 0.500000 0.500000 0.998719
O O11 0.000000 0.500000 0.979999
O O12 0.182911 0.588348 0.048137
O O13 0.495837 0.250000 0.185175
O O14 0.659705 0.379031 0.139714
O O15 0.500000 0.500000 0.597555
O O16 0.000000 0.500000 0.616275
#
# Coordination Sequence:
#
# PCOD9361430 Si02
#       6
#     8   8   8   8   8   8
#     4  12  24  38  61  92 125 158 197 256 320 372
#     4  11  24  42  63  86 117 162 211 254 303 373
#     4  11  24  42  63  86 117 162 211 254 303 373
#     4  10  21  39  63  88 118 160 206 249 297 363
#     4  12  24  38  61  92 125 158 197 256 320 372
#     4  10  21  39  63  88 118 160 206 249 297 363
#
# _framework density 20.25563
#
# number of rings (size 3 to 8) (size 9 to 14) (size 15 to 20)
#    0.000    1.000    0.000    8.000    0.000    7.333 
#    0.000    0.000    0.000   10.000    0.000    0.000 
#    0.000    0.000    0.000    0.000    0.000    0.000 
#
# Total GULP energy -133956.477363 kJ/mol
# GULP energy per Si atom -5581.519890 kJ/mol
# Density = 2.020953 g / cm^3
# Si number density = 20.255630 Si / 1000 Ang^3
#
#
#
# Elastic Constant Matrix: (Units=GPa)
#
#
# Indices 1 2 3 4 5 6 
#
# 1 107.8507 9.4751 13.8118 0.0000 0.0000 0.0000
# 2 9.4751 105.5579 44.9964 0.0000 0.0000 0.0000
# 3 13.8118 44.9964 151.2838 0.0000 0.0000 0.0000
# 4 0.0000 0.0000 0.0000 -75.0952 0.0000 0.0000
# 5 0.0000 0.0000 0.0000 0.0000 29.0445 0.0000
# 6 0.0000 0.0000 0.0000 0.0000 0.0000 29.2355
#
#
#
# Elastic Compliance Matrix: (Units=1/GPa)
#
#
# Indices 1 2 3 4 5 6 
#
# 1 0.009409 -0.000548 -0.000696 0.000000 0.000000 0.000000
# 2 -0.000548 0.010881 -0.003186 0.000000 0.000000 0.000000
# 3 -0.000696 -0.003186 0.007621 0.000000 0.000000 0.000000
# 4 0.000000 0.000000 0.000000 -0.013316 0.000000 0.000000
# 5 0.000000 0.000000 0.000000 0.000000 0.034430 0.000000
# 6 0.000000 0.000000 0.000000 0.000000 0.000000 0.034205
#
#
# Mechanical properties :
#
#
# Convention : Reuss Voigt Hill
#
# Bulk Modulus (GPa) = 52.49051 55.69544 54.09297
# Shear Modulus (GPa) = 50.79185 16.39755 33.59470
#
# Velocity S-wave (km/s) = 5.01297 2.84831 4.07693
# Velocity P-wave (km/s) = 7.71212 6.19461 6.99464
#
# Compressibility (1/GPa) = 0.01905106
#
# Stress axis : x y z
#
# Youngs Moduli (GPa) = 106.27724 91.90436 131.21050
#
# Poissons Ratio (x) = 0.05035 0.09133
# Poissons Ratio (y) = 0.05823 0.41807
# Poissons Ratio (z) = 0.07398 0.29283
#
# Static dielectric constant tensor:
#      x y z
#    x 1.783630 0.000000 0.000000 
#    y 0.000000 1.710920 0.000000 
#    z 0.000000 0.000000 1.832310 
# 
# From -- ./inp_files/16499.got.cif
#   From: 2010.05.17/outbox.cif.g08.bks.cpg/sg39_9_cif.got.tgz:16499.got - 2010.06.03 18:22:40.
