data_PCOD9361324
_publ_section_title
;
Structure prediction by ZEFSAII (Michael W. Deem and Ramdas Pophale) SiO2 
 PCOD9361324
Probable space group: A B M 2
;
_chemical_formula_sum "Si O2"
_cell_formula_units_Z 64
_cell_length_a 11.858046
_cell_length_b 25.683752
_cell_length_c 11.260942
_cell_angle_alpha 90.000000
_cell_angle_beta 90.000000
_cell_angle_gamma 90.000000
_cell_volume 3429.622503
_symmetry_space_group_name_H-M "A B M 2"
_symmetry_group_IT_number 39
_symmetry_cell_setting 'orthorhombic'
loop_
_space_group_symop_operation_xyz
x,y,z
-x,-y,z
-x,1/2+y,z
x,1/2-y,z
x,1/2+y,1/2+z
-x,1/2-y,1/2+z
-x,y,1/2+z
x,-y,1/2+z
loop_
_atom_site_type_symbol
_atom_site_label
_atom_site_fract_x
_atom_site_fract_y
_atom_site_fract_z
Si Si1 0.882598 0.891702 0.241430
Si Si2 0.732968 0.628858 0.010575
Si Si3 0.368664 0.514446 0.511904
Si Si4 0.690929 0.810095 0.631739
Si Si5 0.754620 0.998770 0.266059
Si Si6 0.441516 0.188414 0.154019
Si Si7 0.266390 0.690875 0.856118
Si Si8 0.851219 0.615201 0.768389
O O1 0.822916 0.876043 0.117474
O O2 0.828488 0.852057 0.335999
O O3 0.015832 0.884686 0.246361
O O4 0.842979 0.951069 0.261780
O O5 0.637255 0.670033 0.046212
O O6 0.662371 0.575377 0.000302
O O7 0.805366 0.637759 0.893208
O O8 0.500000 0.500000 0.513650
O O9 0.314723 0.491206 0.389776
O O10 0.316109 0.500854 0.642007
O O11 0.705477 0.750000 0.675892
O O12 0.567845 0.832641 0.664316
O O13 0.694076 0.807749 0.490183
O O14 0.786917 0.849112 0.673984
O O15 0.813413 0.054956 0.269118
O O16 0.455743 0.250000 0.144238
O O17 0.370202 0.176016 0.271240
O O18 0.230181 0.750000 0.822120
#
# Coordination Sequence:
#
# PCOD9361324 Si02
#       8
#     8   8   8   8   8   8   8   8
#     4  10  22  41  63  81 121 162 202 249 296 350
#     4   9  22  39  56  90 117 149 199 243 293 361
#     4  10  21  38  58  86 124 153 198 247 299 359
#     4  10  23  38  59  92 119 150 201 249 301 362
#     4  10  23  39  58  91 119 164 205 242 304 365
#     4   9  19  38  62  85 118 155 189 243 306 364
#     4   9  20  39  61  88 115 153 202 241 300 363
#     4  11  24  38  61  89 120 156 206 249 295 353
#
# _framework density 18.660945999999999
#
# number of rings (size 3 to 8) (size 9 to 14) (size 15 to 20)
#    0.000    2.250    0.000    0.750    7.000    1.000 
#    4.500    3.750    0.000    0.000    0.000    0.000 
#    0.000    0.000    0.000    0.000    0.000    0.000 
#
# Total GULP energy -178363.573106 kJ/mol
# GULP energy per Si atom -5573.861660 kJ/mol
# Density = 1.861847 g / cm^3
# Si number density = 18.660946 Si / 1000 Ang^3
#
#
#
# Elastic Constant Matrix: (Units=GPa)
#
#
# Indices 1 2 3 4 5 6 
#
# 1 173.2980 58.5668 39.7583 0.0000 0.0000 0.0000
# 2 58.5668 46.5208 15.9373 0.0000 0.0000 0.0000
# 3 39.7583 15.9373 77.0739 0.0000 0.0000 0.0000
# 4 0.0000 0.0000 0.0000 25.8754 0.0000 0.0000
# 5 0.0000 0.0000 0.0000 0.0000 12.5735 0.0000
# 6 0.0000 0.0000 0.0000 0.0000 0.0000 20.0753
#
#
#
# Elastic Compliance Matrix: (Units=1/GPa)
#
#
# Indices 1 2 3 4 5 6 
#
# 1 0.010621 -0.012371 -0.002921 0.000000 0.000000 0.000000
# 2 -0.012371 0.037543 -0.001382 0.000000 0.000000 0.000000
# 3 -0.002921 -0.001382 0.014767 0.000000 0.000000 0.000000
# 4 0.000000 0.000000 0.000000 0.038647 0.000000 0.000000
# 5 0.000000 0.000000 0.000000 0.000000 0.079533 0.000000
# 6 0.000000 0.000000 0.000000 0.000000 0.000000 0.049813
#
#
# Mechanical properties :
#
#
# Convention : Reuss Voigt Hill
#
# Bulk Modulus (GPa) = 33.80140 58.37972 46.09056
# Shear Modulus (GPa) = 18.23938 23.88019 21.05979
#
# Velocity S-wave (km/s) = 3.12975 3.58115 3.36303
# Velocity P-wave (km/s) = 5.58688 6.96074 6.31130
#
# Compressibility (1/GPa) = 0.02958457
#
# Stress axis : x y z
#
# Youngs Moduli (GPa) = 94.15015 26.63589 67.71853
#
# Poissons Ratio (x) = 0.32951 0.19780
# Poissons Ratio (y) = 1.16472 0.09357
# Poissons Ratio (z) = 0.27500 0.03680
#
# Static dielectric constant tensor:
#      x y z
#    x 1.621740 0.000000 0.000000 
#    y 0.000000 1.651120 0.000000 
#    z 0.000000 0.000000 1.669670 
# 
# From -- ./inp_files/6096.got.cif
#   From: 2010.05.17/outbox.cif.g08.bks.cpg/sg39_4_cif.got.tgz:6096.got - 2010.06.03 18:22:40.
