data_PCOD9362023
_publ_section_title
;
Structure prediction by ZEFSAII (Michael W. Deem and Ramdas Pophale) SiO2 
 PCOD9362023
Probable space group: A B M 2
;
_chemical_formula_sum "Si O2"
_cell_formula_units_Z 56
_cell_length_a 5.181380
_cell_length_b 21.982036
_cell_length_c 22.653700
_cell_angle_alpha 90.000000
_cell_angle_beta 90.000000
_cell_angle_gamma 90.000000
_cell_volume 2580.194850
_symmetry_space_group_name_H-M "A B M 2"
_symmetry_group_IT_number 39
_symmetry_cell_setting 'orthorhombic'
loop_
_space_group_symop_operation_xyz
x,y,z
-x,-y,z
-x,1/2+y,z
x,1/2-y,z
x,1/2+y,1/2+z
-x,1/2-y,1/2+z
-x,y,1/2+z
x,-y,1/2+z
loop_
_atom_site_type_symbol
_atom_site_label
_atom_site_fract_x
_atom_site_fract_y
_atom_site_fract_z
Si Si1 0.913710 0.569351 0.691590
Si Si2 0.507932 0.681311 0.904957
Si Si3 0.556801 0.250000 0.183373
Si Si4 0.062309 0.250000 0.266379
Si Si5 0.160221 0.415047 0.429607
Si Si6 0.097094 0.122322 0.819970
Si Si7 0.335680 0.597482 0.494537
Si Si8 0.420248 0.879324 0.631353
O O1 0.152489 0.608309 0.665507
O O2 0.000000 0.500000 0.689901
O O3 0.856854 0.590840 0.757849
O O4 0.653103 0.579541 0.655282
O O5 0.518045 0.750000 0.887016
O O6 0.225127 0.657396 0.922237
O O7 0.641117 0.639636 0.855013
O O8 0.662149 0.664707 0.964542
O O9 0.336163 0.250000 0.233717
O O10 0.512821 0.310491 0.144661
O O11 0.831524 0.250000 0.217358
O O12 0.032051 0.312200 0.303906
O O13 0.429182 0.434420 0.458903
O O14 0.061369 0.423773 0.362939
O O15 0.933828 0.430044 0.474364
O O16 0.378196 0.604118 0.563166
#
# Coordination Sequence:
#
# PCOD9362023 Si02
#       8
#     8   8   4   4   8   8   8   8
#     4  12  28  47  69  96 132 185 241 288 340 400
#     4   9  20  34  57  94 136 175 208 256 334 413
#     4  12  24  40  60 103 135 180 214 270 362 414
#     4  12  24  36  60  95 147 172 216 270 338 428
#     4   9  21  35  58  93 127 172 210 258 326 398
#     4  11  22  38  65  93 137 175 218 277 334 408
#     4   9  21  38  59  91 131 170 216 263 322 409
#     4  12  24  45  69  98 139 177 225 288 347 414
#
# _framework density 21.703789
#
# number of rings (size 3 to 8) (size 9 to 14) (size 15 to 20)
#    0.857    0.571    3.571    1.286    6.000    0.571 
#    0.000    0.000    0.000   11.143    0.000    0.000 
#    0.000    0.000    0.000    0.000    0.000    0.000 
#
# Total GULP energy -156156.302734 kJ/mol
# GULP energy per Si atom -5577.010812 kJ/mol
# Density = 2.165439 g / cm^3
# Si number density = 21.703789 Si / 1000 Ang^3
#
#
#
# Elastic Constant Matrix: (Units=GPa)
#
#
# Indices 1 2 3 4 5 6 
#
# 1 130.6204 16.8944 57.9083 0.0000 0.0000 0.0000
# 2 16.8944 62.7772 48.2124 0.0000 0.0000 0.0000
# 3 57.9083 48.2124 168.5805 0.0000 0.0000 0.0000
# 4 0.0000 0.0000 0.0000 -48.3708 0.0000 0.0000
# 5 0.0000 0.0000 0.0000 0.0000 19.0422 0.0000
# 6 0.0000 0.0000 0.0000 0.0000 0.0000 13.2280
#
#
#
# Elastic Compliance Matrix: (Units=1/GPa)
#
#
# Indices 1 2 3 4 5 6 
#
# 1 0.009031 -0.000061 -0.003085 0.000000 0.000000 0.000000
# 2 -0.000061 0.020413 -0.005817 0.000000 0.000000 0.000000
# 3 -0.003085 -0.005817 0.008655 0.000000 0.000000 0.000000
# 4 0.000000 0.000000 0.000000 -0.020674 0.000000 0.000000
# 5 0.000000 0.000000 0.000000 0.000000 0.052515 0.000000
# 6 0.000000 0.000000 0.000000 0.000000 0.000000 0.075597
#
#
# Mechanical properties :
#
#
# Convention : Reuss Voigt Hill
#
# Bulk Modulus (GPa) = 49.56997 67.55648 58.56322
# Shear Modulus (GPa) = 29.37916 12.71073 21.04494
#
# Velocity S-wave (km/s) = 3.68318 2.42264 3.11729
# Velocity P-wave (km/s) = 6.40130 6.24658 6.32441
#
# Compressibility (1/GPa) = 0.02017350
#
# Stress axis : x y z
#
# Youngs Moduli (GPa) = 110.72636 48.98786 115.53906
#
# Poissons Ratio (x) = 0.00301 0.35641
# Poissons Ratio (y) = 0.00680 0.67208
# Poissons Ratio (z) = 0.34156 0.28496
#
# Static dielectric constant tensor:
#      x y z
#    x 1.848070 0.000000 0.000000 
#    y 0.000000 1.832160 0.000000 
#    z 0.000000 0.000000 1.766860 
# 
# From -- ./inp_files/13646.got.cif
#   From: 2010.05.17/outbox.cif.g08.bks.cpg/sg39_7_cif.got.tgz:13646.got - 2010.06.03 18:22:40.
