data_PCOD9362145
_publ_section_title
;
Structure prediction by ZEFSAII (Michael W. Deem and Ramdas Pophale) SiO2 
 PCOD9362145
Probable space group: A B M 2
;
_chemical_formula_sum "Si O2"
_cell_formula_units_Z 40
_cell_length_a 6.199171
_cell_length_b 28.829975
_cell_length_c 9.866515
_cell_angle_alpha 90.000000
_cell_angle_beta 90.000000
_cell_angle_gamma 90.000000
_cell_volume 1763.362751
_symmetry_space_group_name_H-M "A B M 2"
_symmetry_group_IT_number 39
_symmetry_cell_setting 'orthorhombic'
loop_
_space_group_symop_operation_xyz
x,y,z
-x,-y,z
-x,1/2+y,z
x,1/2-y,z
x,1/2+y,1/2+z
-x,1/2-y,1/2+z
-x,y,1/2+z
x,-y,1/2+z
loop_
_atom_site_type_symbol
_atom_site_label
_atom_site_fract_x
_atom_site_fract_y
_atom_site_fract_z
Si Si1 0.621904 0.834002 0.449140
Si Si2 0.991463 0.610696 0.596752
Si Si3 0.623654 0.546977 0.054735
Si Si4 0.627185 0.591985 0.788720
Si Si5 0.710721 0.198985 0.660597
O O1 0.434494 0.863047 0.374034
O O2 0.515810 0.809673 0.580130
O O3 0.695396 0.802293 0.324023
O O4 0.809995 0.869965 0.492932
O O5 0.126788 0.564425 0.558694
O O6 0.137553 0.655917 0.621682
O O7 0.866415 0.596657 0.733408
O O8 0.500000 0.500000 0.096756
O O9 0.518737 0.584079 0.157396
O O10 0.576713 0.552309 0.896184
O O11 0.791167 0.250000 0.618361
#
# Coordination Sequence:
#
# PCOD9362145 Si02
#       5
#     8   8   8   8   8
#     4  12  23  49  73 103 150 194 244 305 371 434
#     4  12  24  46  80 103 146 201 242 309 377 442
#     4  12  27  46  75 110 146 185 247 303 370 451
#     4  12  23  49  73 102 151 189 238 304 371 433
#     4  12  27  44  72 108 148 197 251 307 366 445
#
# _framework density 22.68393
#
# number of rings (size 3 to 8) (size 9 to 14) (size 15 to 20)
#    0.000    0.000    8.000    2.400    0.000    2.400 
#    0.000    2.000    0.000    0.000    0.000    0.000 
#    0.000    0.000    0.000    0.000    0.000    0.000 
#
# Total GULP energy -111478.824732 kJ/mol
# GULP energy per Si atom -5573.941237 kJ/mol
# Density = 2.263230 g / cm^3
# Si number density = 22.683930 Si / 1000 Ang^3
#
#
#
# Elastic Constant Matrix: (Units=GPa)
#
#
# Indices 1 2 3 4 5 6 
#
# 1 65.0772 12.8973 48.5023 0.0000 0.0000 0.0000
# 2 12.8973 88.5122 29.5566 0.0000 0.0000 0.0000
# 3 48.5023 29.5566 139.3731 0.0000 0.0000 0.0000
# 4 0.0000 0.0000 0.0000 27.2582 0.0000 0.0000
# 5 0.0000 0.0000 0.0000 0.0000 45.8844 0.0000
# 6 0.0000 0.0000 0.0000 0.0000 0.0000 11.1579
#
#
#
# Elastic Compliance Matrix: (Units=1/GPa)
#
#
# Indices 1 2 3 4 5 6 
#
# 1 0.020783 -0.000660 -0.007093 0.000000 0.000000 0.000000
# 2 -0.000660 0.012180 -0.002353 0.000000 0.000000 0.000000
# 3 -0.007093 -0.002353 0.010142 0.000000 0.000000 0.000000
# 4 0.000000 0.000000 0.000000 0.036686 0.000000 0.000000
# 5 0.000000 0.000000 0.000000 0.000000 0.021794 0.000000
# 6 0.000000 0.000000 0.000000 0.000000 0.000000 0.089622
#
#
# Mechanical properties :
#
#
# Convention : Reuss Voigt Hill
#
# Bulk Modulus (GPa) = 43.68023 52.76387 48.22205
# Shear Modulus (GPa) = 22.82571 30.32719 26.57645
#
# Velocity S-wave (km/s) = 3.17559 3.66039 3.42657
# Velocity P-wave (km/s) = 5.72220 6.41682 6.07944
#
# Compressibility (1/GPa) = 0.02289365
#
# Stress axis : x y z
#
# Youngs Moduli (GPa) = 48.11528 82.10272 98.59652
#
# Poissons Ratio (x) = 0.05418 0.69932
# Poissons Ratio (y) = 0.03175 0.23203
# Poissons Ratio (z) = 0.34127 0.19321
#
# Static dielectric constant tensor:
#      x y z
#    x 1.899930 0.000000 0.000000 
#    y 0.000000 1.923340 0.000000 
#    z 0.000000 0.000000 1.847570 
# 
# From -- ./inp_files/4603.got.cif
#   From: 2010.05.17/outbox.cif.g08.bks.cpg/sg39_3_cif.got.tgz:4603.got - 2010.06.03 18:22:40.
