data_PCOD9362379
_publ_section_title
;
Structure prediction by ZEFSAII (Michael W. Deem and Ramdas Pophale) SiO2 
 PCOD9362379
Probable space group: A M A 2
;
_chemical_formula_sum "Si O2"
_cell_formula_units_Z 64
_cell_length_a 8.566117
_cell_length_b 19.125097
_cell_length_c 27.320831
_cell_angle_alpha 90.000000
_cell_angle_beta 90.000000
_cell_angle_gamma 90.000000
_cell_volume 4475.912143
_symmetry_space_group_name_H-M "A M A 2"
_symmetry_group_IT_number 40
_symmetry_cell_setting 'orthorhombic'
loop_
_space_group_symop_operation_xyz
x,y,z
-x,-y,z
1/2-x,y,z
1/2+x,-y,z
x,1/2+y,1/2+z
-x,1/2-y,1/2+z
1/2-x,1/2+y,1/2+z
1/2+x,1/2-y,1/2+z
loop_
_atom_site_type_symbol
_atom_site_label
_atom_site_fract_x
_atom_site_fract_y
_atom_site_fract_z
Si Si1 0.563098 0.285654 0.378920
Si Si2 0.939406 0.160650 0.734635
Si Si3 0.437495 0.422032 0.138884
Si Si4 0.935840 0.922718 0.828889
Si Si5 0.434490 0.205881 0.285760
Si Si6 0.564508 0.922124 0.532163
Si Si7 0.936345 0.158182 0.440316
Si Si8 0.061376 0.078154 0.344263
O O1 0.750000 0.277250 0.369213
O O2 0.528175 0.367604 0.372681
O O3 0.467575 0.248511 0.335654
O O4 0.529816 0.239397 0.426775
O O5 0.750000 0.160490 0.736421
O O6 0.987494 0.128838 0.682738
O O7 0.995697 0.240236 0.744868
O O8 0.997842 0.111646 0.778985
O O9 0.500000 0.500000 0.149092
O O10 0.250000 0.424322 0.137416
O O11 0.499292 0.401587 0.085414
O O12 0.750000 0.926605 0.823911
O O13 0.000000 0.000000 0.836558
O O14 0.250000 0.198935 0.277466
O O15 0.493332 0.128644 0.299539
O O16 0.750000 0.926270 0.534458
O O17 0.511821 0.869883 0.489719
O O18 0.500000 0.000000 0.521105
O O19 0.750000 0.149564 0.443350
O O20 0.998204 0.112258 0.394578
O O21 0.250000 0.078610 0.346090
O O22 0.000000 0.000000 0.339319
#
# Coordination Sequence:
#
# PCOD9362379 Si02
#       8
#     8   8   8   8   8   8   8   8
#     4   8  16  28  41  57  78 104 133 165 197 233
#     4   9  17  29  44  60  79 106 138 169 201 236
#     4  10  19  30  43  59  80 105 134 167 201 234
#     4  10  18  27  40  60  84 110 138 165 196 233
#     4   8  15  27  41  57  78 104 133 165 198 233
#     4  11  21  32  44  59  80 105 135 168 202 237
#     4  10  18  30  45  59  78 105 137 169 202 237
#     4  10  18  27  40  59  83 109 137 166 197 235
#
# _framework density 14.298761000000001
#
# number of rings (size 3 to 8) (size 9 to 14) (size 15 to 20)
#    0.000    2.500    0.000    4.125    0.000    3.500 
#    0.000    0.000    0.000    0.000    0.000    0.000 
#    0.000    1.000    0.000    3.750    0.000    2.875 
#
# Total GULP energy -178164.644396 kJ/mol
# GULP energy per Si atom -5567.645137 kJ/mol
# Density = 1.426622 g / cm^3
# Si number density = 14.298761 Si / 1000 Ang^3
#
#
#
# Elastic Constant Matrix: (Units=GPa)
#
#
# Indices 1 2 3 4 5 6 
#
# 1 40.4400 23.1720 25.3467 0.0000 0.0000 0.0000
# 2 23.1720 117.2359 62.3847 0.0000 0.0000 0.0000
# 3 25.3467 62.3847 93.4146 0.0000 0.0000 0.0000
# 4 0.0000 0.0000 0.0000 42.0937 0.0000 0.0000
# 5 0.0000 0.0000 0.0000 0.0000 16.5745 0.0000
# 6 0.0000 0.0000 0.0000 0.0000 0.0000 11.2011
#
#
#
# Elastic Compliance Matrix: (Units=1/GPa)
#
#
# Indices 1 2 3 4 5 6 
#
# 1 0.030260 -0.002500 -0.006541 0.000000 0.000000 0.000000
# 2 -0.002500 0.013439 -0.008296 0.000000 0.000000 0.000000
# 3 -0.006541 -0.008296 0.018020 0.000000 0.000000 0.000000
# 4 0.000000 0.000000 0.000000 0.023757 0.000000 0.000000
# 5 0.000000 0.000000 0.000000 0.000000 0.060334 0.000000
# 6 0.000000 0.000000 0.000000 0.000000 0.000000 0.089277
#
#
# Mechanical properties :
#
#
# Convention : Reuss Voigt Hill
#
# Bulk Modulus (GPa) = 36.97661 52.54416 44.76039
# Shear Modulus (GPa) = 17.93555 23.31968 20.62762
#
# Velocity S-wave (km/s) = 3.54551 4.04281 3.80230
# Velocity P-wave (km/s) = 6.53277 7.65634 7.11676
#
# Compressibility (1/GPa) = 0.02704412
#
# Stress axis : x y z
#
# Youngs Moduli (GPa) = 33.04657 74.41177 55.49337
#
# Poissons Ratio (x) = 0.18607 0.36297
# Poissons Ratio (y) = 0.08263 0.46039
# Poissons Ratio (z) = 0.21615 0.61734
#
# Static dielectric constant tensor:
#      x y z
#    x 1.489470 0.000000 0.000000 
#    y 0.000000 1.450040 0.000000 
#    z 0.000000 0.000000 1.458700 
# 
# From -- ./inp_files/24425.got.cif
#   From: 2010.05.17/outbox.cif.g08.bks.cpg/sg40_13_cif.got.tgz:24425.got - 2010.06.03 18:35:42.
