data_PCOD9362526
_publ_section_title
;
Structure prediction by ZEFSAII (Michael W. Deem and Ramdas Pophale) SiO2 
 PCOD9362526
Probable space group: A M A 2
;
_chemical_formula_sum "Si O2"
_cell_formula_units_Z 56
_cell_length_a 8.476001
_cell_length_b 18.904341
_cell_length_c 21.445046
_cell_angle_alpha 90.000000
_cell_angle_beta 90.000000
_cell_angle_gamma 90.000000
_cell_volume 3436.208628
_symmetry_space_group_name_H-M "A M A 2"
_symmetry_group_IT_number 40
_symmetry_cell_setting 'orthorhombic'
loop_
_space_group_symop_operation_xyz
x,y,z
-x,-y,z
1/2-x,y,z
1/2+x,-y,z
x,1/2+y,1/2+z
-x,1/2-y,1/2+z
1/2-x,1/2+y,1/2+z
1/2+x,1/2-y,1/2+z
loop_
_atom_site_type_symbol
_atom_site_label
_atom_site_fract_x
_atom_site_fract_y
_atom_site_fract_z
Si Si1 0.937593 0.158722 0.862200
Si Si2 0.563880 0.206919 0.051569
Si Si3 0.939693 0.920754 0.482288
Si Si4 0.436600 0.784824 0.430072
Si Si5 0.058130 0.153982 0.611808
Si Si6 0.063426 0.578402 0.484692
Si Si7 0.440043 0.580205 0.239807
O O1 0.750000 0.166088 0.862453
O O2 0.017025 0.235526 0.872212
O O3 0.987634 0.110504 0.921515
O O4 0.995326 0.121410 0.799610
O O5 0.750000 0.194413 0.058943
O O6 0.507914 0.264229 0.102525
O O7 0.532784 0.249458 0.987208
O O8 0.478942 0.132655 0.040400
O O9 0.750000 0.918378 0.479328
O O10 0.990048 0.891375 0.550917
O O11 0.011780 0.866167 0.432140
O O12 0.000000 0.000000 0.474322
O O13 0.250000 0.778564 0.441731
O O14 0.250000 0.154765 0.611155
O O15 0.006960 0.118090 0.675776
O O16 0.250000 0.576997 0.475770
O O17 0.000000 0.500000 0.495808
O O18 0.500000 0.500000 0.240668
O O19 0.250000 0.580363 0.241627
#
# Coordination Sequence:
#
# PCOD9362526 Si02
#       7
#     8   8   8   8   8   8   8
#     4  11  21  34  48  66  92 125 159 196 234 277
#     4   9  16  30  48  68  92 121 153 191 233 278
#     4  10  18  30  47  71  98 126 156 193 235 278
#     4  10  18  30  47  68  91 121 155 192 234 281
#     4   8  17  31  48  67  94 127 159 191 229 272
#     4  11  20  31  47  70  95 123 154 192 236 281
#     4  11  21  34  48  68  95 127 162 195 227 269
#
# _framework density 16.297032000000002
#
# number of rings (size 3 to 8) (size 9 to 14) (size 15 to 20)
#    0.000    2.000    0.000    8.571    0.000    0.000 
#    0.000    7.857    0.000    0.000    0.000    1.000 
#    0.000    2.286    0.000    0.000    0.000    0.000 
#
# Total GULP energy -156148.607604 kJ/mol
# GULP energy per Si atom -5576.735986 kJ/mol
# Density = 1.625994 g / cm^3
# Si number density = 16.297032 Si / 1000 Ang^3
#
#
#
# Elastic Constant Matrix: (Units=GPa)
#
#
# Indices 1 2 3 4 5 6 
#
# 1 60.7675 25.4374 14.2531 0.0000 0.0000 0.0000
# 2 25.4374 157.5947 60.7878 0.0000 0.0000 0.0000
# 3 14.2531 60.7878 70.5659 0.0000 0.0000 0.0000
# 4 0.0000 0.0000 0.0000 27.6505 0.0000 0.0000
# 5 0.0000 0.0000 0.0000 0.0000 -138.6015 0.0000
# 6 0.0000 0.0000 0.0000 0.0000 0.0000 29.7385
#
#
#
# Elastic Compliance Matrix: (Units=1/GPa)
#
#
# Indices 1 2 3 4 5 6 
#
# 1 0.017780 -0.002223 -0.001676 0.000000 0.000000 0.000000
# 2 -0.002223 0.009781 -0.007977 0.000000 0.000000 0.000000
# 3 -0.001676 -0.007977 0.021381 0.000000 0.000000 0.000000
# 4 0.000000 0.000000 0.000000 0.036166 0.000000 0.000000
# 5 0.000000 0.000000 0.000000 0.000000 -0.007215 0.000000
# 6 0.000000 0.000000 0.000000 0.000000 0.000000 0.033626
#
#
# Mechanical properties :
#
#
# Convention : Reuss Voigt Hill
#
# Bulk Modulus (GPa) = 39.69815 54.43163 47.06489
# Shear Modulus (GPa) = 34.80249 -3.67918 15.56166
#
# Velocity S-wave (km/s) = 4.62617 -1.50415 3.09346
# Velocity P-wave (km/s) = 7.27649 5.51866 6.45767
#
# Compressibility (1/GPa) = 0.02519009
#
# Stress axis : x y z
#
# Youngs Moduli (GPa) = 56.24302 102.23868 46.77055
#
# Poissons Ratio (x) = 0.22732 0.07838
# Poissons Ratio (y) = 0.12505 0.37307
# Poissons Ratio (z) = 0.09426 0.81552
#
# Static dielectric constant tensor:
#      x y z
#    x 1.545850 0.000000 0.000000 
#    y 0.000000 1.576090 0.000000 
#    z 0.000000 0.000000 1.538740 
# 
# From -- ./inp_files/24349.got.cif
#   From: 2010.05.17/outbox.cif.g08.bks.cpg/sg40_13_cif.got.tgz:24349.got - 2010.06.03 18:35:42.
