data_PCOD9362693
_publ_section_title
;
Structure prediction by ZEFSAII (Michael W. Deem and Ramdas Pophale) SiO2 
 PCOD9362693
Probable space group: A M A 2
;
_chemical_formula_sum "Si O2"
_cell_formula_units_Z 64
_cell_length_a 8.643470
_cell_length_b 14.767055
_cell_length_c 24.980195
_cell_angle_alpha 90.000000
_cell_angle_beta 90.000000
_cell_angle_gamma 90.000000
_cell_volume 3188.437040
_symmetry_space_group_name_H-M "A M A 2"
_symmetry_group_IT_number 40
_symmetry_cell_setting 'orthorhombic'
loop_
_space_group_symop_operation_xyz
x,y,z
-x,-y,z
1/2-x,y,z
1/2+x,-y,z
x,1/2+y,1/2+z
-x,1/2-y,1/2+z
1/2-x,1/2+y,1/2+z
1/2+x,1/2-y,1/2+z
loop_
_atom_site_type_symbol
_atom_site_label
_atom_site_fract_x
_atom_site_fract_y
_atom_site_fract_z
Si Si1 0.564232 0.597797 0.066500
Si Si2 0.565455 0.272630 0.629661
Si Si3 0.934982 0.899544 0.230725
Si Si4 0.929536 0.596671 0.338495
Si Si5 0.073476 0.337833 0.950203
Si Si6 0.563363 0.700741 0.833480
Si Si7 0.571028 0.082433 0.057253
Si Si8 0.578309 0.378097 0.447540
O O1 0.500000 0.500000 0.079477
O O2 0.750000 0.595980 0.062041
O O3 0.530955 0.668980 0.114212
O O4 0.505366 0.625552 0.006270
O O5 0.750000 0.286644 0.618678
O O6 0.534309 0.321278 0.686162
O O7 0.460752 0.326678 0.588256
O O8 0.750000 0.906815 0.235887
O O9 0.008632 0.861830 0.285274
O O10 0.000000 0.000000 0.218490
O O11 0.750000 0.600127 0.324272
O O12 0.000000 0.500000 0.318912
O O13 0.006432 0.694727 0.324715
O O14 0.955477 0.596106 0.402733
O O15 0.250000 0.373778 0.946866
O O16 0.004064 0.342939 0.890095
O O17 0.080728 0.229482 0.955605
O O18 0.750000 0.704748 0.837058
O O19 0.750000 0.070655 0.045570
O O20 0.500000 0.000000 0.091099
O O21 0.466238 0.085739 0.004790
O O22 0.750000 0.406275 0.429545
#
# Coordination Sequence:
#
# PCOD9362693 Si02
#       8
#     8   8   8   8   8   8   8   8
#     4  10  20  38  61  89 122 159 198 246 301 367
#     4  10  22  42  64  84 117 159 202 252 311 366
#     4  11  24  43  67  93 120 159 205 260 317 376
#     4  11  21  35  55  85 123 164 209 255 306 366
#     4   8  16  33  58  83 117 160 199 240 298 356
#     4  10  21  39  63  92 124 165 209 258 312 372
#     4  12  23  33  51  81 115 152 198 246 302 365
#     4  10  18  33  53  77 115 161 203 246 299 360
#
# _framework density 20.072528999999999
#
# number of rings (size 3 to 8) (size 9 to 14) (size 15 to 20)
#    0.000    1.750    1.250    4.875    0.000    3.000 
#    0.000    3.125    0.000    1.500    0.000    0.000 
#    0.000    0.000    0.000    0.000    0.000    0.000 
#
# Total GULP energy -178313.806208 kJ/mol
# GULP energy per Si atom -5572.306444 kJ/mol
# Density = 2.002684 g / cm^3
# Si number density = 20.072529 Si / 1000 Ang^3
#
#
#
# Elastic Constant Matrix: (Units=GPa)
#
#
# Indices 1 2 3 4 5 6 
#
# 1 38.0501 30.0150 26.8030 0.0000 0.0000 0.0000
# 2 30.0150 128.4634 56.9386 0.0000 0.0000 0.0000
# 3 26.8030 56.9386 95.8869 0.0000 0.0000 0.0000
# 4 0.0000 0.0000 0.0000 -8.9632 0.0000 0.0000
# 5 0.0000 0.0000 0.0000 0.0000 6.2603 0.0000
# 6 0.0000 0.0000 0.0000 0.0000 0.0000 34.6024
#
#
#
# Elastic Compliance Matrix: (Units=1/GPa)
#
#
# Indices 1 2 3 4 5 6 
#
# 1 0.035140 -0.005234 -0.006714 0.000000 0.000000 0.000000
# 2 -0.005234 0.011345 -0.005273 0.000000 0.000000 0.000000
# 3 -0.006714 -0.005273 0.015437 0.000000 0.000000 0.000000
# 4 0.000000 0.000000 0.000000 -0.111567 0.000000 0.000000
# 5 0.000000 0.000000 0.000000 0.000000 0.159736 0.000000
# 6 0.000000 0.000000 0.000000 0.000000 0.000000 0.028900
#
#
# Mechanical properties :
#
#
# Convention : Reuss Voigt Hill
#
# Bulk Modulus (GPa) = 36.39340 54.43482 45.41411
# Shear Modulus (GPa) = 27.38331 16.28950 21.83641
#
# Velocity S-wave (km/s) = 3.69754 2.85183 3.30187
# Velocity P-wave (km/s) = 6.03319 6.16619 6.10005
#
# Compressibility (1/GPa) = 0.02747751
#
# Stress axis : x y z
#
# Youngs Moduli (GPa) = 28.45776 88.14755 64.77857
#
# Poissons Ratio (x) = 0.46139 0.43495
# Poissons Ratio (y) = 0.14896 0.34160
# Poissons Ratio (z) = 0.19108 0.46484
#
# Static dielectric constant tensor:
#      x y z
#    x 1.696690 0.000000 0.000000 
#    y 0.000000 1.772480 0.000000 
#    z 0.000000 0.000000 1.745860 
# 
# From -- ./inp_files/24318.got.cif
#   From: 2010.05.17/outbox.cif.g08.bks.cpg/sg40_13_cif.got.tgz:24318.got - 2010.06.03 18:35:42.
