data_PCOD9362364
_publ_section_title
;
Structure prediction by ZEFSAII (Michael W. Deem and Ramdas Pophale) SiO2 
 PCOD9362364
Probable space group: A M A 2
;
_chemical_formula_sum "Si O2"
_cell_formula_units_Z 44
_cell_length_a 13.900110
_cell_length_b 9.997540
_cell_length_c 15.756426
_cell_angle_alpha 90.000000
_cell_angle_beta 90.000000
_cell_angle_gamma 90.000000
_cell_volume 2189.621767
_symmetry_space_group_name_H-M "A M A 2"
_symmetry_group_IT_number 40
_symmetry_cell_setting 'orthorhombic'
loop_
_space_group_symop_operation_xyz
x,y,z
-x,-y,z
1/2-x,y,z
1/2+x,-y,z
x,1/2+y,1/2+z
-x,1/2-y,1/2+z
1/2-x,1/2+y,1/2+z
1/2+x,1/2-y,1/2+z
loop_
_atom_site_type_symbol
_atom_site_label
_atom_site_fract_x
_atom_site_fract_y
_atom_site_fract_z
Si Si1 0.750000 0.010409 0.794020
Si Si2 0.250000 0.222869 0.192979
Si Si3 0.250000 0.075970 0.549511
Si Si4 0.086775 0.104006 0.693507
Si Si5 0.750000 0.229402 0.492365
Si Si6 0.250000 0.369286 0.480737
Si Si7 0.959781 0.861256 0.186901
Si Si8 0.589102 0.927895 0.996104
O O1 0.750000 0.126093 0.723735
O O2 0.750000 0.084586 0.883042
O O3 0.845154 0.927531 0.773407
O O4 0.250000 0.226561 0.091248
O O5 0.148414 0.161719 0.220451
O O6 0.156683 0.089682 0.611385
O O7 0.250000 0.211244 0.493403
O O8 0.250000 0.932914 0.498964
O O9 0.034755 0.244761 0.704583
O O10 0.000000 0.000000 0.685509
O O11 0.655527 0.308723 0.457654
O O12 0.341039 0.447673 0.518887
O O13 0.951259 0.869785 0.084325
O O14 0.000000 0.000000 0.219613
O O15 0.500000 0.000000 0.948285
#
# Coordination Sequence:
#
# PCOD9362364 Si02
#       8
#     4   4   4   8   4   4   8   8
#     4  11  23  39  58  85 125 176 205 242 307 396
#     4  10  17  36  55  82 119 156 194 259 310 354
#     4  11  20  33  57  91 118 153 208 274 306 357
#     4  11  20  36  62  90 116 157 219 262 302 369
#     4   9  16  31  58  84 113 141 203 267 315 342
#     4  11  24  37  56  86 129 164 198 240 324 397
#     4  10  19  32  61  92 117 146 201 273 319 346
#     4   9  18  35  55  84 116 155 194 251 317 372
#
# _framework density 20.094794
#
# number of rings (size 3 to 8) (size 9 to 14) (size 15 to 20)
#    0.000    1.818    3.636    3.818    0.000    2.182 
#    0.000    0.000    8.000    1.091    0.000    0.000 
#    0.000    0.000    0.000    0.000    0.000    0.000 
#
# Total GULP energy -122612.701508 kJ/mol
# GULP energy per Si atom -5573.304614 kJ/mol
# Density = 2.004906 g / cm^3
# Si number density = 20.094794 Si / 1000 Ang^3
#
#
#
# Elastic Constant Matrix: (Units=GPa)
#
#
# Indices 1 2 3 4 5 6 
#
# 1 176.4369 100.1517 33.3798 0.0000 0.0000 0.0000
# 2 100.1517 210.0823 28.3002 0.0000 0.0000 0.0000
# 3 33.3798 28.3002 52.9444 0.0000 0.0000 0.0000
# 4 0.0000 0.0000 0.0000 20.8966 0.0000 0.0000
# 5 0.0000 0.0000 0.0000 0.0000 -6.2400 0.0000
# 6 0.0000 0.0000 0.0000 0.0000 0.0000 31.5071
#
#
#
# Elastic Compliance Matrix: (Units=1/GPa)
#
#
# Indices 1 2 3 4 5 6 
#
# 1 0.008289 -0.003500 -0.003355 0.000000 0.000000 0.000000
# 2 -0.003500 0.006607 -0.001325 0.000000 0.000000 0.000000
# 3 -0.003355 -0.001325 0.021712 0.000000 0.000000 0.000000
# 4 0.000000 0.000000 0.000000 0.047855 0.000000 0.000000
# 5 0.000000 0.000000 0.000000 0.000000 -0.160257 0.000000
# 6 0.000000 0.000000 0.000000 0.000000 0.000000 0.031739
#
#
# Mechanical properties :
#
#
# Convention : Reuss Voigt Hill
#
# Bulk Modulus (GPa) = 49.38949 84.79186 67.09067
# Shear Modulus (GPa) = -238.70045 27.74153 -105.47946
#
# Velocity S-wave (km/s) = -10.91078 3.71958 -7.25292
# Velocity P-wave (km/s) = 11.57995 7.79324 6.05642
#
# Compressibility (1/GPa) = 0.02024722
#
# Stress axis : x y z
#
# Youngs Moduli (GPa) = 120.64125 151.35681 46.05846
#
# Poissons Ratio (x) = 0.52969 0.15454
# Poissons Ratio (y) = 0.42220 0.06104
# Poissons Ratio (z) = 0.40479 0.20057
#
# Static dielectric constant tensor:
#      x y z
#    x 1.807460 0.000000 0.000000 
#    y 0.000000 1.700440 0.000000 
#    z 0.000000 0.000000 1.793020 
# 
# From -- ./inp_files/20512.got.cif
#   From: 2010.05.17/outbox.cif.g08.bks.cpg/sg40_11_cif.got.tgz:20512.got - 2010.06.03 18:35:42.
