data_PCOD9362922
_publ_section_title
;
Structure prediction by ZEFSAII (Michael W. Deem and Ramdas Pophale) SiO2 
 PCOD9362922
Probable space group: A M A 2
;
_chemical_formula_sum "Si O2"
_cell_formula_units_Z 48
_cell_length_a 8.445855
_cell_length_b 14.197897
_cell_length_c 24.688816
_cell_angle_alpha 90.000000
_cell_angle_beta 90.000000
_cell_angle_gamma 90.000000
_cell_volume 2960.519359
_symmetry_space_group_name_H-M "A M A 2"
_symmetry_group_IT_number 40
_symmetry_cell_setting 'orthorhombic'
loop_
_space_group_symop_operation_xyz
x,y,z
-x,-y,z
1/2-x,y,z
1/2+x,-y,z
x,1/2+y,1/2+z
-x,1/2-y,1/2+z
1/2-x,1/2+y,1/2+z
1/2+x,1/2-y,1/2+z
loop_
_atom_site_type_symbol
_atom_site_label
_atom_site_fract_x
_atom_site_fract_y
_atom_site_fract_z
Si Si1 0.060089 0.604627 0.037180
Si Si2 0.939399 0.104788 0.991766
Si Si3 0.558680 0.605806 0.827480
Si Si4 0.441627 0.394125 0.705167
Si Si5 0.057280 0.286910 0.599755
Si Si6 0.439927 0.285185 0.932891
O O1 0.250000 0.604390 0.035446
O O2 0.008236 0.682253 0.081648
O O3 0.000000 0.500000 0.047542
O O4 0.998764 0.643950 0.979719
O O5 0.750000 0.104960 0.991412
O O6 0.992061 0.143266 0.050999
O O7 0.000000 0.000000 0.982145
O O8 0.998560 0.182122 0.948945
O O9 0.500000 0.500000 0.838868
O O10 0.750000 0.604438 0.827917
O O11 0.507045 0.631111 0.766326
O O12 0.505585 0.676073 0.874700
O O13 0.500000 0.500000 0.694004
O O14 0.250000 0.394745 0.704560
O O15 0.497566 0.324950 0.657636
O O16 0.250000 0.287319 0.600545
O O17 0.250000 0.283988 0.933671
#
# Coordination Sequence:
#
# PCOD9362922 Si02
#       6
#     8   8   8   8   8   8
#     4  10  19  31  46  67  91 119 151 186 226 269
#     4  10  19  31  47  69  93 120 150 184 223 266
#     4   9  18  29  45  67  91 118 149 181 220 264
#     4   9  16  29  46  66  90 117 145 179 219 263
#     4   8  16  29  46  66  90 117 147 180 220 264
#     4  10  19  31  46  67  92 121 152 184 221 266
#
# _framework density 16.213370999999999
#
# number of rings (size 3 to 8) (size 9 to 14) (size 15 to 20)
#    0.000    2.667    0.000    3.500    0.000    2.667 
#    0.000    4.167    0.000    1.000    0.000    2.333 
#    0.000    0.000    0.000    0.000    0.000    0.000 
#
# Total GULP energy -133784.586903 kJ/mol
# GULP energy per Si atom -5574.357788 kJ/mol
# Density = 1.617647 g / cm^3
# Si number density = 16.213371 Si / 1000 Ang^3
#
#
#
# Elastic Constant Matrix: (Units=GPa)
#
#
# Indices 1 2 3 4 5 6 
#
# 1 27.6684 25.1088 23.7848 0.0000 0.0000 0.0000
# 2 25.1088 151.6426 102.7989 0.0000 0.0000 0.0000
# 3 23.7848 102.7989 143.2817 0.0000 0.0000 0.0000
# 4 0.0000 0.0000 0.0000 29.0716 0.0000 0.0000
# 5 0.0000 0.0000 0.0000 0.0000 13.4834 0.0000
# 6 0.0000 0.0000 0.0000 0.0000 0.0000 26.0000
#
#
#
# Elastic Compliance Matrix: (Units=1/GPa)
#
#
# Indices 1 2 3 4 5 6 
#
# 1 0.043688 -0.004512 -0.004015 0.000000 0.000000 0.000000
# 2 -0.004512 0.013305 -0.008797 0.000000 0.000000 0.000000
# 3 -0.004015 -0.008797 0.013957 0.000000 0.000000 0.000000
# 4 0.000000 0.000000 0.000000 0.034398 0.000000 0.000000
# 5 0.000000 0.000000 0.000000 0.000000 0.074165 0.000000
# 6 0.000000 0.000000 0.000000 0.000000 0.000000 0.038462
#
#
# Mechanical properties :
#
#
# Convention : Reuss Voigt Hill
#
# Bulk Modulus (GPa) = 27.54616 69.55309 48.54963
# Shear Modulus (GPa) = 18.88761 25.10433 21.99597
#
# Velocity S-wave (km/s) = 3.41682 3.93920 3.68728
# Velocity P-wave (km/s) = 5.70902 7.98007 6.93810
#
# Compressibility (1/GPa) = 0.03630269
#
# Stress axis : x y z
#
# Youngs Moduli (GPa) = 22.88934 75.16045 71.64844
#
# Poissons Ratio (x) = 0.33913 0.28767
# Poissons Ratio (y) = 0.10328 0.63027
# Poissons Ratio (z) = 0.09190 0.66116
#
# Static dielectric constant tensor:
#      x y z
#    x 1.552870 0.000000 0.000000 
#    y 0.000000 1.511480 0.000000 
#    z 0.000000 0.000000 1.556710 
# 
# From -- ./inp_files/21996.got.cif
#   From: 2010.05.17/outbox.cif.g08.bks.cpg/sg40_11_cif.got.tgz:21996.got - 2010.06.03 18:35:42.
