data_PCOD9362785
_publ_section_title
;
Structure prediction by ZEFSAII (Michael W. Deem and Ramdas Pophale) SiO2 
 PCOD9362785
Probable space group: A M A 2
;
_chemical_formula_sum "Si O2"
_cell_formula_units_Z 52
_cell_length_a 19.470377
_cell_length_b 9.106719
_cell_length_c 16.716781
_cell_angle_alpha 90.000000
_cell_angle_beta 90.000000
_cell_angle_gamma 90.000000
_cell_volume 2964.073371
_symmetry_space_group_name_H-M "A M A 2"
_symmetry_group_IT_number 40
_symmetry_cell_setting 'orthorhombic'
loop_
_space_group_symop_operation_xyz
x,y,z
-x,-y,z
1/2-x,y,z
1/2+x,-y,z
x,1/2+y,1/2+z
-x,1/2-y,1/2+z
1/2-x,1/2+y,1/2+z
1/2+x,1/2-y,1/2+z
loop_
_atom_site_type_symbol
_atom_site_label
_atom_site_fract_x
_atom_site_fract_y
_atom_site_fract_z
Si Si1 0.171667 0.524281 0.953770
Si Si2 0.500000 0.500000 0.189048
Si Si3 0.507670 0.752841 0.314439
Si Si4 0.081024 0.006834 0.121441
Si Si5 0.079370 0.832589 0.564066
Si Si6 0.890350 0.517040 0.791736
Si Si7 0.439542 0.276413 0.483219
O O1 0.250000 0.546513 0.978349
O O2 0.167432 0.493327 0.858673
O O3 0.122619 0.663837 0.970201
O O4 0.135208 0.394043 0.003100
O O5 0.488158 0.638973 0.245875
O O6 0.436622 0.451265 0.133179
O O7 0.443924 0.862647 0.325464
O O8 0.532028 0.676350 0.396362
O O9 0.570159 0.860272 0.290139
O O10 0.123081 0.951173 0.198449
O O11 0.098703 0.173761 0.099341
O O12 0.083125 0.905144 0.042945
O O13 0.000000 0.000000 0.146135
O O14 0.005077 0.805822 0.522502
#
# Coordination Sequence:
#
# PCOD9362785 Si02
#       7
#     8   4   8   8   8   8   8
#     4  11  23  38  57  78 111 154 194 232 281 338
#     4  12  20  30  56  92 114 142 180 236 286 332
#     4  10  19  30  53  86 113 141 176 230 282 330
#     4  10  19  33  59  91 113 140 183 239 282 335
#     4  11  20  36  56  87 114 145 186 229 288 330
#     4  10  18  36  52  77 115 144 184 223 279 332
#     4  10  20  36  59  85 112 146 186 232 280 338
#
# _framework density 17.543424999999999
#
# number of rings (size 3 to 8) (size 9 to 14) (size 15 to 20)
#    0.000    1.538    6.154    0.923    3.231    0.000 
#    0.000    2.308    0.000    0.000    0.000    0.000 
#    0.000    0.000    0.000    0.000    0.000    0.000 
#
# Total GULP energy -144934.260926 kJ/mol
# GULP energy per Si atom -5574.394651 kJ/mol
# Density = 1.750350 g / cm^3
# Si number density = 17.543425 Si / 1000 Ang^3
#
#
#
# Elastic Constant Matrix: (Units=GPa)
#
#
# Indices 1 2 3 4 5 6 
#
# 1 70.5419 22.3536 26.5455 0.0000 0.0000 0.0000
# 2 22.3536 65.7663 42.4445 0.0000 0.0000 0.0000
# 3 26.5455 42.4445 132.9374 0.0000 0.0000 0.0000
# 4 0.0000 0.0000 0.0000 31.7226 0.0000 0.0000
# 5 0.0000 0.0000 0.0000 0.0000 9.8953 0.0000
# 6 0.0000 0.0000 0.0000 0.0000 0.0000 4.6919
#
#
#
# Elastic Compliance Matrix: (Units=1/GPa)
#
#
# Indices 1 2 3 4 5 6 
#
# 1 0.016246 -0.004318 -0.001865 0.000000 0.000000 0.000000
# 2 -0.004318 0.020299 -0.005619 0.000000 0.000000 0.000000
# 3 -0.001865 -0.005619 0.009689 0.000000 0.000000 0.000000
# 4 0.000000 0.000000 0.000000 0.031523 0.000000 0.000000
# 5 0.000000 0.000000 0.000000 0.000000 0.101058 0.000000
# 6 0.000000 0.000000 0.000000 0.000000 0.000000 0.213133
#
#
# Mechanical properties :
#
#
# Convention : Reuss Voigt Hill
#
# Bulk Modulus (GPa) = 44.18998 50.21477 47.20237
# Shear Modulus (GPa) = 11.81763 21.12210 16.46986
#
# Velocity S-wave (km/s) = 2.59824 3.47362 3.06732
# Velocity P-wave (km/s) = 5.85190 6.69129 6.28562
#
# Compressibility (1/GPa) = 0.02262956
#
# Stress axis : x y z
#
# Youngs Moduli (GPa) = 61.55254 49.26233 103.21111
#
# Poissons Ratio (x) = 0.21272 0.19253
# Poissons Ratio (y) = 0.26579 0.57994
# Poissons Ratio (z) = 0.11482 0.27681
#
# Static dielectric constant tensor:
#      x y z
#    x 1.544250 0.000000 0.000000 
#    y 0.000000 1.610140 0.000000 
#    z 0.000000 0.000000 1.674070 
# 
# From -- ./inp_files/21068.got.cif
#   From: 2010.05.17/outbox.cif.g08.bks.cpg/sg40_11_cif.got.tgz:21068.got - 2010.06.03 18:35:42.
