data_PCOD9362651
_publ_section_title
;
Structure prediction by ZEFSAII (Michael W. Deem and Ramdas Pophale) SiO2 
 PCOD9362651
Probable space group: A M A 2
;
_chemical_formula_sum "Si O2"
_cell_formula_units_Z 64
_cell_length_a 7.671718
_cell_length_b 21.348151
_cell_length_c 20.461989
_cell_angle_alpha 90.000000
_cell_angle_beta 90.000000
_cell_angle_gamma 90.000000
_cell_volume 3351.203056
_symmetry_space_group_name_H-M "A M A 2"
_symmetry_group_IT_number 40
_symmetry_cell_setting 'orthorhombic'
loop_
_space_group_symop_operation_xyz
x,y,z
-x,-y,z
1/2-x,y,z
1/2+x,-y,z
x,1/2+y,1/2+z
-x,1/2-y,1/2+z
1/2-x,1/2+y,1/2+z
1/2+x,1/2-y,1/2+z
loop_
_atom_site_type_symbol
_atom_site_label
_atom_site_fract_x
_atom_site_fract_y
_atom_site_fract_z
Si Si1 0.959479 0.762738 0.940780
Si Si2 0.958206 0.688658 0.579161
Si Si3 0.036966 0.382846 0.942250
Si Si4 0.041616 0.691578 0.159733
Si Si5 0.959386 0.069393 0.159570
Si Si6 0.037881 0.737611 0.296882
Si Si7 0.543985 0.569081 0.079029
Si Si8 0.038240 0.884907 0.297840
O O1 0.750000 0.761446 0.938890
O O2 0.014832 0.690205 0.950643
O O3 0.022346 0.782936 0.868856
O O4 0.010290 0.804241 0.002309
O O5 0.750000 0.688537 0.588278
O O6 0.027204 0.751197 0.615174
O O7 0.025248 0.625786 0.613841
O O8 0.250000 0.384347 0.941314
O O9 0.978090 0.404721 0.870265
O O10 0.972090 0.419875 0.005530
O O11 0.250000 0.699266 0.162909
O O12 0.975110 0.700105 0.233667
O O13 0.009802 0.625386 0.126039
O O14 0.750000 0.074995 0.162319
O O15 0.025493 0.078790 0.234016
O O16 0.000000 0.000000 0.135654
O O17 0.250000 0.734593 0.297632
O O18 0.994676 0.811280 0.289289
O O19 0.500000 0.500000 0.103055
O O20 0.750000 0.573329 0.073348
O O21 0.250000 0.888497 0.298501
#
# Coordination Sequence:
#
# PCOD9362651 Si02
#       8
#     8   8   8   8   8   8   8   8
#     4   9  16  29  51  77 100 126 163 206 246 292
#     4  10  19  31  50  75 102 131 164 205 254 297
#     4   8  15  27  46  71  99 130 164 199 238 285
#     4  10  18  32  54  77  98 128 168 210 251 299
#     4  10  20  33  49  71 100 135 170 204 244 291
#     4   8  14  27  51  77  98 125 164 203 245 297
#     4  11  22  35  49  72 103 137 170 206 249 296
#     4   8  13  26  47  70  97 131 166 198 235 287
#
# _framework density 19.097618000000001
#
# number of rings (size 3 to 8) (size 9 to 14) (size 15 to 20)
#    0.000    2.750    2.500    1.875    0.000    1.000 
#    0.000    0.625    0.000    4.500    0.000    1.750 
#    0.000    0.000    0.000    0.000    0.000    0.000 
#
# Total GULP energy -178446.667160 kJ/mol
# GULP energy per Si atom -5576.458349 kJ/mol
# Density = 1.905415 g / cm^3
# Si number density = 19.097618 Si / 1000 Ang^3
#
#
#
# Elastic Constant Matrix: (Units=GPa)
#
#
# Indices 1 2 3 4 5 6 
#
# 1 32.1041 -0.4261 5.9076 0.0000 0.0000 0.0000
# 2 -0.4261 112.9352 81.5116 0.0000 0.0000 0.0000
# 3 5.9076 81.5116 140.6904 0.0000 0.0000 0.0000
# 4 0.0000 0.0000 0.0000 27.2292 0.0000 0.0000
# 5 0.0000 0.0000 0.0000 0.0000 14.9299 0.0000
# 6 0.0000 0.0000 0.0000 0.0000 0.0000 8.5457
#
#
#
# Elastic Compliance Matrix: (Units=1/GPa)
#
#
# Indices 1 2 3 4 5 6 
#
# 1 0.031615 0.001852 -0.002400 0.000000 0.000000 0.000000
# 2 0.001852 0.015327 -0.008958 0.000000 0.000000 0.000000
# 3 -0.002400 -0.008958 0.012398 0.000000 0.000000 0.000000
# 4 0.000000 0.000000 0.000000 0.036725 0.000000 0.000000
# 5 0.000000 0.000000 0.000000 0.000000 0.066980 0.000000
# 6 0.000000 0.000000 0.000000 0.000000 0.000000 0.117018
#
#
# Mechanical properties :
#
#
# Convention : Reuss Voigt Hill
#
# Bulk Modulus (GPa) = 24.79688 51.07954 37.93821
# Shear Modulus (GPa) = 15.99904 23.39005 19.69454
#
# Velocity S-wave (km/s) = 2.89753 3.50346 3.21480
# Velocity P-wave (km/s) = 4.92003 6.57041 5.80418
#
# Compressibility (1/GPa) = 0.04032765
#
# Stress axis : x y z
#
# Youngs Moduli (GPa) = 31.63064 65.24487 80.65564
#
# Poissons Ratio (x) = -0.12082 0.19360
# Poissons Ratio (y) = -0.05857 0.72249
# Poissons Ratio (z) = 0.07592 0.58444
#
# Static dielectric constant tensor:
#      x y z
#    x 1.716520 0.000000 0.000000 
#    y 0.000000 1.626570 0.000000 
#    z 0.000000 0.000000 1.701490 
# 
# From -- ./inp_files/22548.got.cif
#   From: 2010.05.17/outbox.cif.g08.bks.cpg/sg40_12_cif.got.tgz:22548.got - 2010.06.03 18:35:42.
