data_PCOD9362066
_publ_section_title
;
Structure prediction by ZEFSAII (Michael W. Deem and Ramdas Pophale) SiO2 
 PCOD9362066
Probable space group: A B M 2
;
_chemical_formula_sum "Si O2"
_cell_formula_units_Z 48
_cell_length_a 19.220127
_cell_length_b 8.638358
_cell_length_c 15.312029
_cell_angle_alpha 90.000000
_cell_angle_beta 90.000000
_cell_angle_gamma 90.000000
_cell_volume 2542.261348
_symmetry_space_group_name_H-M "A B M 2"
_symmetry_group_IT_number 39
_symmetry_cell_setting 'orthorhombic'
loop_
_space_group_symop_operation_xyz
x,y,z
-x,-y,z
-x,1/2+y,z
x,1/2-y,z
x,1/2+y,1/2+z
-x,1/2-y,1/2+z
-x,y,1/2+z
x,-y,1/2+z
loop_
_atom_site_type_symbol
_atom_site_label
_atom_site_fract_x
_atom_site_fract_y
_atom_site_fract_z
Si Si1 0.325664 0.935275 0.200660
Si Si2 0.329236 0.935189 0.507800
Si Si3 0.821554 0.435359 0.952628
Si Si4 0.577614 0.064845 0.854417
Si Si5 0.922228 0.435285 0.602244
Si Si6 0.166953 0.564615 0.260383
O O1 0.334237 0.750000 0.196543
O O2 0.245516 0.967014 0.226929
O O3 0.340249 0.008696 0.106576
O O4 0.375503 0.004233 0.274435
O O5 0.329188 0.750000 0.503033
O O6 0.254368 0.998074 0.476342
O O7 0.386854 0.002713 0.442776
O O8 0.819141 0.250000 0.956569
O O9 0.840775 0.492216 0.855960
O O10 0.875983 0.498847 0.023107
O O11 0.577007 0.250000 0.854802
O O12 0.500000 0.000000 0.846343
O O13 0.922461 0.250000 0.599281
O O14 0.886259 0.493069 0.691341
O O15 0.000000 0.500000 0.596420
O O16 0.158182 0.750000 0.264474
#
# Coordination Sequence:
#
# PCOD9362066 Si02
#       6
#     8   8   8   8   8   8
#     4  11  23  41  68  99 132 171 220 270 322 386
#     4  12  24  41  67  99 132 172 221 270 324 387
#     4  12  24  41  67  99 132 172 221 270 324 387
#     4  12  26  45  68  97 135 174 217 271 331 389
#     4  12  26  45  68  97 135 174 217 271 331 389
#     4  11  23  41  68  99 132 171 220 270 322 386
#
# _framework density 18.880828999999999
#
# number of rings (size 3 to 8) (size 9 to 14) (size 15 to 20)
#    0.000    0.333    3.333    7.000    0.000    2.667 
#    0.000    6.667    0.000    0.000    0.000    0.000 
#    0.000    0.000    0.000    0.000    0.000    0.000 
#
# Total GULP energy -134411.489082 kJ/mol
# GULP energy per Si atom -5600.478712 kJ/mol
# Density = 1.883786 g / cm^3
# Si number density = 18.880829 Si / 1000 Ang^3
#
#
#
# Elastic Constant Matrix: (Units=GPa)
#
#
# Indices 1 2 3 4 5 6 
#
# 1 49.4497 19.7781 -22.9266 0.0000 0.0000 0.0000
# 2 19.7781 131.5332 9.2184 0.0000 0.0000 0.0000
# 3 -22.9266 9.2184 73.7127 0.0000 0.0000 0.0000
# 4 0.0000 0.0000 0.0000 39.9467 0.0000 0.0000
# 5 0.0000 0.0000 0.0000 0.0000 32.7854 0.0000
# 6 0.0000 0.0000 0.0000 0.0000 0.0000 33.5885
#
#
#
# Elastic Compliance Matrix: (Units=1/GPa)
#
#
# Indices 1 2 3 4 5 6 
#
# 1 0.026051 -0.004525 0.008669 0.000000 0.000000 0.000000
# 2 -0.004525 0.008456 -0.002465 0.000000 0.000000 0.000000
# 3 0.008669 -0.002465 0.016571 0.000000 0.000000 0.000000
# 4 0.000000 0.000000 0.000000 0.025033 0.000000 0.000000
# 5 0.000000 0.000000 0.000000 0.000000 0.030501 0.000000
# 6 0.000000 0.000000 0.000000 0.000000 0.000000 0.029772
#
#
# Mechanical properties :
#
#
# Convention : Reuss Voigt Hill
#
# Bulk Modulus (GPa) = 18.37032 29.64838 24.00935
# Shear Modulus (GPa) = 33.07497 37.83917 35.45707
#
# Velocity S-wave (km/s) = 4.18996 4.48158 4.33822
# Velocity P-wave (km/s) = 5.75834 6.52046 6.15121
#
# Compressibility (1/GPa) = 0.05443562
#
# Stress axis : x y z
#
# Youngs Moduli (GPa) = 38.38571 118.26265 60.34797
#
# Poissons Ratio (x) = 0.53511 -0.52313
# Poissons Ratio (y) = 0.17369 0.14874
# Poissons Ratio (z) = -0.33275 0.29149
#
# Static dielectric constant tensor:
#      x y z
#    x 1.619020 0.000000 0.000000 
#    y 0.000000 1.626910 0.000000 
#    z 0.000000 0.000000 1.624740 
# 
# From -- ./inp_files/10049.got.cif
#   From: 2010.05.17/outbox.cif.g08.bks.cpg/sg39_6_cif.got.tgz:10049.got - 2010.06.03 18:22:40.
