data_PCOD9362186
_publ_section_title
;
Structure prediction by ZEFSAII (Michael W. Deem and Ramdas Pophale) SiO2 
 PCOD9362186
Probable space group: A B M 2
;
_chemical_formula_sum "Si O2"
_cell_formula_units_Z 32
_cell_length_a 12.000000
_cell_length_b 15.000000
_cell_length_c 18.000000
_cell_angle_alpha 90.000000
_cell_angle_beta 90.000000
_cell_angle_gamma 90.000000
_cell_volume 3240.000000
_symmetry_space_group_name_H-M "A B M 2"
_symmetry_group_IT_number 39
_symmetry_cell_setting 'orthorhombic'
loop_
_space_group_symop_operation_xyz
x,y,z
-x,-y,z
-x,1/2+y,z
x,1/2-y,z
x,1/2+y,1/2+z
-x,1/2-y,1/2+z
-x,y,1/2+z
x,-y,1/2+z
loop_
_atom_site_type_symbol
_atom_site_label
_atom_site_fract_x
_atom_site_fract_y
_atom_site_fract_z
Si Si1 0.795972 0.347977 0.430270
Si Si2 0.798291 0.355141 0.012235
Si Si3 0.962487 0.400770 0.882887
Si Si4 0.825970 0.651301 0.236503
Si Si5 0.631991 0.988849 0.272146
Si Si6 0.774954 0.350104 0.252307
Si Si7 0.633216 0.490697 0.952989
Si Si8 0.966723 0.899208 0.646440
O O1 0.771743 0.250000 0.461522
O O2 0.775218 0.346646 0.341443
O O3 0.714800 0.422928 0.464230
O O4 0.929616 0.362173 0.426690
O O5 0.777083 0.250000 0.002306
O O6 0.882365 0.365751 0.082338
O O7 0.866037 0.395622 0.943150
O O8 0.685204 0.412956 0.005079
O O9 0.906240 0.359537 0.809324
O O10 0.000000 0.500000 0.862764
O O11 0.778382 0.750000 0.237403
O O12 0.721776 0.583253 0.240405
O O13 0.913505 0.642975 0.167774
O O14 0.642116 0.976290 0.362598
O O15 0.500000 0.000000 0.257916
O O16 0.679218 0.080259 0.237374
O O17 0.760292 0.250000 0.223397
O O18 0.889485 0.388605 0.219661
O O19 0.500000 0.500000 0.967472
O O20 0.000000 0.000000 0.629379
#
# Coordination Sequence:
#
# PCOD9362186 Si02
#       8
#     8   8   8   8   8   8   8   8
#     4  10  19  33  59  91 121 155 202 261 317 374
#     4  12  25  40  60  93 130 169 213 265 327 393
#     4  12  20  36  60  92 130 162 202 260 324 388
#     4  12  22  37  64  98 130 167 212 263 323 389
#     4  10  21  38  60  94 131 168 212 261 314 373
#     4  10  19  36  59  86 118 160 207 254 311 377
#     4  10  22  40  62  89 126 173 220 262 313 379
#     4  12  24  40  62  91 128 164 206 268 329 393
#
# _framework density 9.8765429999999999
#
# number of rings (size 3 to 8) (size 9 to 14) (size 15 to 20)
#    0.000    1.000    5.000    3.750    0.000    1.000 
#    0.000    3.125    0.000    0.000    0.000    0.000 
#    0.000    0.000    0.000    0.000    0.000    0.000 
#
# Total GULP energy -178244.835249 kJ/mol
# GULP energy per Si atom -5570.151102 kJ/mol
# Density = 0.985406 g / cm^3
# Si number density = 9.876543 Si / 1000 Ang^3
#
#
#
# Elastic Constant Matrix: (Units=GPa)
#
#
# Indices 1 2 3 4 5 6 
#
# 1 166.3754 48.4891 16.2864 0.0000 0.0000 0.0000
# 2 48.4891 24.2132 17.5981 0.0000 0.0000 0.0000
# 3 16.2864 17.5981 31.1253 0.0000 0.0000 0.0000
# 4 0.0000 0.0000 0.0000 102.5228 0.0000 0.0000
# 5 0.0000 0.0000 0.0000 0.0000 26.9774 0.0000
# 6 0.0000 0.0000 0.0000 0.0000 0.0000 10.8781
#
#
#
# Elastic Compliance Matrix: (Units=1/GPa)
#
#
# Indices 1 2 3 4 5 6 
#
# 1 0.020131 -0.055440 0.020812 0.000000 0.000000 0.000000
# 2 -0.055440 0.222792 -0.096957 0.000000 0.000000 0.000000
# 3 0.020812 -0.096957 0.076057 0.000000 0.000000 0.000000
# 4 0.000000 0.000000 0.000000 0.009754 0.000000 0.000000
# 5 0.000000 0.000000 0.000000 0.000000 0.037068 0.000000
# 6 0.000000 0.000000 0.000000 0.000000 0.000000 0.091928
#
#
# Mechanical properties :
#
#
# Convention : Reuss Voigt Hill
#
# Bulk Modulus (GPa) = 17.91771 42.94013 30.42892
# Shear Modulus (GPa) = 6.76130 37.36500 22.06315
#
# Velocity S-wave (km/s) = 1.85212 4.35397 3.34570
# Velocity P-wave (km/s) = 3.69653 6.86016 5.51027
#
# Compressibility (1/GPa) = 0.05581070
#
# Stress axis : x y z
#
# Youngs Moduli (GPa) = 49.67461 4.48849 13.14801
#
# Poissons Ratio (x) = 0.24884 -0.27364
# Poissons Ratio (y) = 2.75398 1.27479
# Poissons Ratio (z) = -1.03384 0.43519
#
# Static dielectric constant tensor:
#      x y z
#    x 1.736370 0.000000 0.000000 
#    y 0.000000 1.746740 0.000000 
#    z 0.000000 0.000000 1.726340 
# 
# From -- ./inp_files/12333.got.cif
#   From: 2010.05.17/outbox.ucp.g08.bks.cvg/sg39_7_cif.got.tgz:12333.got - 2010.06.11 10:41:16.
