data_PCOD9362146
_publ_section_title
;
Structure prediction by ZEFSAII (Michael W. Deem and Ramdas Pophale) SiO2 
 PCOD9362146
Probable space group: A B M 2
;
_chemical_formula_sum "Si O2"
_cell_formula_units_Z 40
_cell_length_a 11.192458
_cell_length_b 19.068270
_cell_length_c 7.566652
_cell_angle_alpha 90.000000
_cell_angle_beta 90.000000
_cell_angle_gamma 90.000000
_cell_volume 1614.881007
_symmetry_space_group_name_H-M "A B M 2"
_symmetry_group_IT_number 39
_symmetry_cell_setting 'orthorhombic'
loop_
_space_group_symop_operation_xyz
x,y,z
-x,-y,z
-x,1/2+y,z
x,1/2-y,z
x,1/2+y,1/2+z
-x,1/2-y,1/2+z
-x,y,1/2+z
x,-y,1/2+z
loop_
_atom_site_type_symbol
_atom_site_label
_atom_site_fract_x
_atom_site_fract_y
_atom_site_fract_z
Si Si1 0.677304 0.750000 0.080781
Si Si2 0.696260 0.615001 0.644947
Si Si3 0.070390 0.665796 0.010707
Si Si4 0.580777 0.750000 0.481526
Si Si5 0.172096 0.379966 0.132019
Si Si6 0.359526 0.982526 0.478688
O O1 0.639764 0.750000 0.288158
O O2 0.560069 0.750000 0.965055
O O3 0.754096 0.682617 0.044814
O O4 0.830707 0.643949 0.655481
O O5 0.617330 0.681022 0.589451
O O6 0.691349 0.560858 0.480881
O O7 0.648203 0.568211 0.807923
O O8 0.044916 0.750000 0.023217
O O9 0.131309 0.649107 0.823126
O O10 0.954926 0.616847 0.033561
O O11 0.264258 0.444002 0.109607
O O12 0.500000 0.000000 0.519663
#
# Coordination Sequence:
#
# PCOD9362146 Si02
#       6
#     4   8   8   4   8   8
#     4  12  26  47  75 118 162 211 278 342 414 485
#     4  12  26  49  77 114 161 214 268 341 409 486
#     4  12  23  49  81 123 168 210 280 350 410 500
#     4  12  28  47  81 112 162 215 286 338 402 495
#     4  12  25  48  80 117 166 220 269 344 421 489
#     4  12  29  49  76 113 163 219 275 332 415 496
#
# _framework density 24.769625000000001
#
# number of rings (size 3 to 8) (size 9 to 14) (size 15 to 20)
#    0.000    0.000    5.000    4.200    5.600    0.800 
#    0.000    5.000    0.000    0.000    0.000    0.000 
#    0.000    0.000    0.000    0.000    0.000    0.000 
#
# Total GULP energy -111799.638965 kJ/mol
# GULP energy per Si atom -5589.981948 kJ/mol
# Density = 2.471325 g / cm^3
# Si number density = 24.769625 Si / 1000 Ang^3
#
#
#
# Elastic Constant Matrix: (Units=GPa)
#
#
# Indices 1 2 3 4 5 6 
#
# 1 171.2496 37.9785 35.2284 0.0000 0.0000 0.0000
# 2 37.9785 159.4795 31.1592 0.0000 0.0000 0.0000
# 3 35.2284 31.1592 122.5763 0.0000 0.0000 0.0000
# 4 0.0000 0.0000 0.0000 30.5624 0.0000 0.0000
# 5 0.0000 0.0000 0.0000 0.0000 30.9109 0.0000
# 6 0.0000 0.0000 0.0000 0.0000 0.0000 105.6819
#
#
#
# Elastic Compliance Matrix: (Units=1/GPa)
#
#
# Indices 1 2 3 4 5 6 
#
# 1 0.006428 -0.001231 -0.001535 0.000000 0.000000 0.000000
# 2 -0.001231 0.006834 -0.001383 0.000000 0.000000 0.000000
# 3 -0.001535 -0.001383 0.008951 0.000000 0.000000 0.000000
# 4 0.000000 0.000000 0.000000 0.032720 0.000000 0.000000
# 5 0.000000 0.000000 0.000000 0.000000 0.032351 0.000000
# 6 0.000000 0.000000 0.000000 0.000000 0.000000 0.009462
#
#
# Mechanical properties :
#
#
# Convention : Reuss Voigt Hill
#
# Bulk Modulus (GPa) = 71.86477 73.55972 72.71224
# Shear Modulus (GPa) = 45.58622 56.69367 51.13995
#
# Velocity S-wave (km/s) = 4.29465 4.78937 4.54874
# Velocity P-wave (km/s) = 7.32587 7.76828 7.55031
#
# Compressibility (1/GPa) = 0.01391502
#
# Stress axis : x y z
#
# Youngs Moduli (GPa) = 155.56704 146.33080 111.72098
#
# Poissons Ratio (x) = 0.18013 0.17144
# Poissons Ratio (y) = 0.19150 0.15455
# Poissons Ratio (z) = 0.23872 0.20243
#
# Static dielectric constant tensor:
#      x y z
#    x 2.023250 0.000000 0.000000 
#    y 0.000000 1.917760 0.000000 
#    z 0.000000 0.000000 2.092630 
# 
# From -- ./inp_files/2570.got.cif
#   From: 2010.05.17/outbox.cif.g08.bks.cpg/sg39_2_cif.got.tgz:2570.got - 2010.06.03 18:22:40.
