data_PCOD9362191
_publ_section_title
;
Structure prediction by ZEFSAII (Michael W. Deem and Ramdas Pophale) SiO2 
 PCOD9362191
Probable space group: A B M 2
;
_chemical_formula_sum "Si O2"
_cell_formula_units_Z 28
_cell_length_a 15.000000
_cell_length_b 9.000000
_cell_length_c 21.000000
_cell_angle_alpha 90.000000
_cell_angle_beta 90.000000
_cell_angle_gamma 90.000000
_cell_volume 2835.000000
_symmetry_space_group_name_H-M "A B M 2"
_symmetry_group_IT_number 39
_symmetry_cell_setting 'orthorhombic'
loop_
_space_group_symop_operation_xyz
x,y,z
-x,-y,z
-x,1/2+y,z
x,1/2-y,z
x,1/2+y,1/2+z
-x,1/2-y,1/2+z
-x,y,1/2+z
x,-y,1/2+z
loop_
_atom_site_type_symbol
_atom_site_label
_atom_site_fract_x
_atom_site_fract_y
_atom_site_fract_z
Si Si1 0.088319 0.078560 0.721940
Si Si2 0.588916 0.571483 0.447817
Si Si3 0.732396 0.928406 0.551398
Si Si4 0.288235 0.428385 0.691534
Si Si5 0.154176 0.422474 0.861146
Si Si6 0.333534 0.573726 0.817607
Si Si7 0.092271 0.926503 0.503651
O O1 0.084496 0.250000 0.702874
O O2 0.184915 0.020902 0.700056
O O3 0.091563 0.070864 0.799148
O O4 0.000000 0.000000 0.698021
O O5 0.500000 0.500000 0.474079
O O6 0.583747 0.750000 0.449046
O O7 0.671628 0.527310 0.491847
O O8 0.602785 0.523283 0.374797
O O9 0.745316 0.750000 0.549775
O O10 0.687152 0.964046 0.619120
O O11 0.826594 0.006970 0.543433
O O12 0.289308 0.250000 0.700028
O O13 0.343490 0.498883 0.748943
O O14 0.185745 0.250000 0.864826
O O15 0.236418 0.528044 0.844466
O O16 0.110848 0.460647 0.928595
O O17 0.339581 0.750000 0.810898
O O18 0.088245 0.750000 0.510235
O O19 0.000000 0.000000 0.522622
#
# Coordination Sequence:
#
# PCOD9362191 Si02
#       7
#     8   8   8   8   8   8   8
#     4   9  17  29  45  70 101 139 187 232 276 326
#     4  10  22  39  63  92 117 148 189 238 296 353
#     4  10  21  41  61  82 117 157 199 243 290 347
#     4   9  20  37  57  78 110 155 192 231 288 347
#     4   9  18  32  50  75 108 147 191 235 288 342
#     4  10  19  34  58  87 114 141 183 238 287 340
#     4  11  22  34  53  82 117 159 202 245 292 343
#
# _framework density 9.8765429999999999
#
# number of rings (size 3 to 8) (size 9 to 14) (size 15 to 20)
#    0.000    2.286    1.429    2.143    0.000    5.714 
#    0.000    2.143    0.000    3.429    0.000    0.000 
#    0.000    0.000    0.000    0.000    0.000    0.000 
#
# Total GULP energy -156180.558728 kJ/mol
# GULP energy per Si atom -5577.877097 kJ/mol
# Density = 0.985406 g / cm^3
# Si number density = 9.876543 Si / 1000 Ang^3
#
#
#
# Elastic Constant Matrix: (Units=GPa)
#
#
# Indices 1 2 3 4 5 6 
#
# 1 61.3861 21.8240 23.9308 0.0000 0.0000 0.0000
# 2 21.8240 11.1929 33.1691 0.0000 0.0000 0.0000
# 3 23.9308 33.1691 115.6077 0.0000 0.0000 0.0000
# 4 0.0000 0.0000 0.0000 24.5458 0.0000 0.0000
# 5 0.0000 0.0000 0.0000 0.0000 -0.4888 0.0000
# 6 0.0000 0.0000 0.0000 0.0000 0.0000 21.7161
#
#
#
# Elastic Compliance Matrix: (Units=1/GPa)
#
#
# Indices 1 2 3 4 5 6 
#
# 1 -0.012980 0.115824 -0.030544 0.000000 0.000000 0.000000
# 2 0.115824 -0.436975 0.101397 0.000000 0.000000 0.000000
# 3 -0.030544 0.101397 -0.014119 0.000000 0.000000 0.000000
# 4 0.000000 0.000000 0.000000 0.040740 0.000000 0.000000
# 5 0.000000 0.000000 0.000000 0.000000 -2.045830 0.000000
# 6 0.000000 0.000000 0.000000 0.000000 0.000000 0.046049
#
#
# Mechanical properties :
#
#
# Convention : Reuss Voigt Hill
#
# Bulk Modulus (GPa) = -11.02292 38.44828 13.71268
# Shear Modulus (GPa) = -1.76884 16.43881 7.33499
#
# Velocity S-wave (km/s) = -0.94732 2.88794 1.92909
# Velocity P-wave (km/s) = 2.60558 5.53417 3.45239
#
# Compressibility (1/GPa) = -0.09072010
#
# Stress axis : x y z
#
# Youngs Moduli (GPa) = -77.04149 -2.28846 -70.82490
#
# Poissons Ratio (x) = 0.26506 -2.16330
# Poissons Ratio (y) = 8.92328 7.18145
# Poissons Ratio (z) = -2.35318 0.23204
#
# Static dielectric constant tensor:
#      x y z
#    x 1.687890 0.000000 0.000000 
#    y 0.000000 1.659420 0.000000 
#    z 0.000000 0.000000 1.719080 
# 
# From -- ./inp_files/14737.got.cif
#   From: 2010.05.17/outbox.ucp.g08.bks.cvg/sg39_8_cif.got.tgz:14737.got - 2010.06.11 10:41:16.
