data_PCOD9362887
_publ_section_title
;
Structure prediction by ZEFSAII (Michael W. Deem and Ramdas Pophale) SiO2 
 PCOD9362887
Probable space group: A M A 2
;
_chemical_formula_sum "Si O2"
_cell_formula_units_Z 64
_cell_length_a 8.818246
_cell_length_b 18.679213
_cell_length_c 27.294654
_cell_angle_alpha 90.000000
_cell_angle_beta 90.000000
_cell_angle_gamma 90.000000
_cell_volume 4495.917960
_symmetry_space_group_name_H-M "A M A 2"
_symmetry_group_IT_number 40
_symmetry_cell_setting 'orthorhombic'
loop_
_space_group_symop_operation_xyz
x,y,z
-x,-y,z
1/2-x,y,z
1/2+x,-y,z
x,1/2+y,1/2+z
-x,1/2-y,1/2+z
1/2-x,1/2+y,1/2+z
1/2+x,1/2-y,1/2+z
loop_
_atom_site_type_symbol
_atom_site_label
_atom_site_fract_x
_atom_site_fract_y
_atom_site_fract_z
Si Si1 0.567121 0.836143 0.514750
Si Si2 0.570104 0.421685 0.628580
Si Si3 0.067551 0.421384 0.926339
Si Si4 0.430126 0.921754 0.606925
Si Si5 0.567878 0.077575 0.313609
Si Si6 0.933854 0.165247 0.219883
Si Si7 0.424763 0.198411 0.666203
Si Si8 0.924493 0.699370 0.569919
O O1 0.750000 0.840675 0.516112
O O2 0.502157 0.865216 0.464081
O O3 0.500703 0.885872 0.558059
O O4 0.525233 0.753833 0.527388
O O5 0.500000 0.500000 0.622502
O O6 0.750000 0.426213 0.632666
O O7 0.503111 0.385337 0.677864
O O8 0.523177 0.368831 0.584228
O O9 0.250000 0.423468 0.930808
O O10 0.026424 0.405050 0.869738
O O11 0.000000 0.500000 0.937615
O O12 0.250000 0.925665 0.601762
O O13 0.476061 0.869467 0.651629
O O14 0.500000 0.000000 0.613344
O O15 0.750000 0.071812 0.311995
O O16 0.521913 0.135036 0.272803
O O17 0.500000 0.000000 0.301348
O O18 0.750000 0.162393 0.215169
O O19 0.977537 0.247460 0.208646
O O20 0.250000 0.176485 0.674597
O O21 0.425020 0.249685 0.618145
O O22 0.750000 0.677345 0.561660
#
# Coordination Sequence:
#
# PCOD9362887 Si02
#       8
#     8   8   8   8   8   8   8   8
#     4  10  19  31  45  60  81 109 139 170 208 247
#     4  11  20  28  41  61  85 111 140 171 203 241
#     4  10  19  30  43  60  83 109 141 176 207 240
#     4  11  20  29  42  60  83 109 139 171 203 242
#     4   9  18  30  43  60  82 110 141 174 207 238
#     4   9  17  30  45  60  82 111 141 171 206 244
#     4   8  15  28  43  59  81 107 134 167 205 243
#     4   8  16  30  44  58  79 106 135 168 204 243
#
# _framework density 14.235135
#
# number of rings (size 3 to 8) (size 9 to 14) (size 15 to 20)
#    0.000    2.500    0.000    5.250    0.000    7.000 
#    0.000    0.000    0.000    0.000    0.000    0.000 
#    0.000    1.000    0.000    8.750    0.000    3.125 
#
# Total GULP energy -178325.883066 kJ/mol
# GULP energy per Si atom -5572.683846 kJ/mol
# Density = 1.420274 g / cm^3
# Si number density = 14.235135 Si / 1000 Ang^3
#
#
#
# Elastic Constant Matrix: (Units=GPa)
#
#
# Indices 1 2 3 4 5 6 
#
# 1 60.2276 43.0722 24.2447 0.0000 0.0000 0.0000
# 2 43.0722 91.5343 44.6600 0.0000 0.0000 0.0000
# 3 24.2447 44.6600 73.3045 0.0000 0.0000 0.0000
# 4 0.0000 0.0000 0.0000 27.9781 0.0000 0.0000
# 5 0.0000 0.0000 0.0000 0.0000 56.4282 0.0000
# 6 0.0000 0.0000 0.0000 0.0000 0.0000 23.0579
#
#
#
# Elastic Compliance Matrix: (Units=1/GPa)
#
#
# Indices 1 2 3 4 5 6 
#
# 1 0.025153 -0.011066 -0.001577 0.000000 0.000000 0.000000
# 2 -0.011066 0.020415 -0.008777 0.000000 0.000000 0.000000
# 3 -0.001577 -0.008777 0.019511 0.000000 0.000000 0.000000
# 4 0.000000 0.000000 0.000000 0.035742 0.000000 0.000000
# 5 0.000000 0.000000 0.000000 0.000000 0.017722 0.000000
# 6 0.000000 0.000000 0.000000 0.000000 0.000000 0.043369
#
#
# Mechanical properties :
#
#
# Convention : Reuss Voigt Hill
#
# Bulk Modulus (GPa) = 44.97036 49.89113 47.43075
# Shear Modulus (GPa) = 23.56657 29.03214 26.29936
#
# Velocity S-wave (km/s) = 4.07322 4.52095 4.30291
# Velocity P-wave (km/s) = 7.33357 7.89784 7.62093
#
# Compressibility (1/GPa) = 0.02223687
#
# Stress axis : x y z
#
# Youngs Moduli (GPa) = 39.75716 48.98404 51.25372
#
# Poissons Ratio (x) = 0.54208 0.08082
# Poissons Ratio (y) = 0.43997 0.44987
# Poissons Ratio (z) = 0.06269 0.42995
#
# Static dielectric constant tensor:
#      x y z
#    x 1.474870 0.000000 0.000000 
#    y 0.000000 1.465590 0.000000 
#    z 0.000000 0.000000 1.474790 
# 
# From -- ./inp_files/25542.got.cif
#   From: 2010.05.17/outbox.cif.g08.bks.cpg/sg40_13_cif.got.tgz:25542.got - 2010.06.03 18:35:42.
