data_PCOD9362165
_publ_section_title
;
Structure prediction by ZEFSAII (Michael W. Deem and Ramdas Pophale) SiO2 
 PCOD9362165
Probable space group: A B M 2
;
_chemical_formula_sum "Si O2"
_cell_formula_units_Z 32
_cell_length_a 14.337236
_cell_length_b 9.967797
_cell_length_c 9.237536
_cell_angle_alpha 90.000000
_cell_angle_beta 90.000000
_cell_angle_gamma 90.000000
_cell_volume 1320.142348
_symmetry_space_group_name_H-M "A B M 2"
_symmetry_group_IT_number 39
_symmetry_cell_setting 'orthorhombic'
loop_
_space_group_symop_operation_xyz
x,y,z
-x,-y,z
-x,1/2+y,z
x,1/2-y,z
x,1/2+y,1/2+z
-x,1/2-y,1/2+z
-x,y,1/2+z
x,-y,1/2+z
loop_
_atom_site_type_symbol
_atom_site_label
_atom_site_fract_x
_atom_site_fract_y
_atom_site_fract_z
Si Si1 0.500000 0.500000 0.791481
Si Si2 0.335851 0.526154 0.982717
Si Si3 0.531790 0.250000 0.130924
Si Si4 0.874025 0.750000 0.778942
Si Si5 0.063634 0.250000 0.114966
Si Si6 0.206615 0.957436 0.730226
O O1 0.412719 0.447413 0.887026
O O2 0.469492 0.630430 0.705498
O O3 0.260321 0.588272 0.873395
O O4 0.398506 0.633970 0.064936
O O5 0.275917 0.442413 0.095343
O O6 0.814892 0.885094 0.755340
O O7 0.956498 0.750000 0.660783
O O8 0.916628 0.750000 0.942436
O O9 0.114042 0.377616 0.188987
#
# Coordination Sequence:
#
# PCOD9362165 Si02
#       6
#     4   8   4   4   4   8
#     4  12  28  48  76 112 158 206 266 332 398 458
#     4  12  26  49  77 114 154 206 267 323 391 459
#     4  12  26  50  74 108 151 208 258 330 388 460
#     4  12  29  51  79 120 162 202 266 323 403 476
#     4  12  29  51  79 120 159 206 258 329 403 476
#     4  12  27  50  84 113 161 211 264 329 390 475
#
# _framework density 24.239811
#
# number of rings (size 3 to 8) (size 9 to 14) (size 15 to 20)
#    0.000    0.000    5.000    3.750    3.500    3.000 
#    0.000    1.250    0.000    0.000    0.000    0.000 
#    0.000    0.000    0.000    0.000    0.000    0.000 
#
# Total GULP energy -89125.227904 kJ/mol
# GULP energy per Si atom -5570.326744 kJ/mol
# Density = 2.418464 g / cm^3
# Si number density = 24.239811 Si / 1000 Ang^3
#
#
#
# Elastic Constant Matrix: (Units=GPa)
#
#
# Indices 1 2 3 4 5 6 
#
# 1 101.3846 12.7917 26.3929 0.0000 0.0000 0.0000
# 2 12.7917 137.6334 5.6773 0.0000 0.0000 0.0000
# 3 26.3929 5.6773 101.9081 0.0000 0.0000 0.0000
# 4 0.0000 0.0000 0.0000 -16.6789 0.0000 0.0000
# 5 0.0000 0.0000 0.0000 0.0000 46.7606 0.0000
# 6 0.0000 0.0000 0.0000 0.0000 0.0000 41.6905
#
#
#
# Elastic Compliance Matrix: (Units=1/GPa)
#
#
# Indices 1 2 3 4 5 6 
#
# 1 0.010682 -0.000881 -0.002717 0.000000 0.000000 0.000000
# 2 -0.000881 0.007355 -0.000182 0.000000 0.000000 0.000000
# 3 -0.002717 -0.000182 0.010527 0.000000 0.000000 0.000000
# 4 0.000000 0.000000 0.000000 -0.059956 0.000000 0.000000
# 5 0.000000 0.000000 0.000000 0.000000 0.021386 0.000000
# 6 0.000000 0.000000 0.000000 0.000000 0.000000 0.023986
#
#
# Mechanical properties :
#
#
# Convention : Reuss Voigt Hill
#
# Bulk Modulus (GPa) = 47.60979 47.84999 47.72989
# Shear Modulus (GPa) = 175.18928 34.09202 104.64065
#
# Velocity S-wave (km/s) = 8.51060 3.75433 6.57743
# Velocity P-wave (km/s) = 10.78228 6.21099 8.79869
#
# Compressibility (1/GPa) = 0.02100408
#
# Stress axis : x y z
#
# Youngs Moduli (GPa) = 93.61574 135.96145 94.99682
#
# Poissons Ratio (x) = 0.11974 0.25815
# Poissons Ratio (y) = 0.08245 0.01726
# Poissons Ratio (z) = 0.25439 0.02470
#
# Static dielectric constant tensor:
#      x y z
#    x 1.859970 0.000000 0.000000 
#    y 0.000000 1.886900 0.000000 
#    z 0.000000 0.000000 2.047940 
# 
# From -- ./inp_files/3021.got.cif
#   From: 2010.05.17/outbox.cif.g08.bks.cpg/sg39_2_cif.got.tgz:3021.got - 2010.06.03 18:22:40.
