data_PCOD9362808
_publ_section_title
;
Structure prediction by ZEFSAII (Michael W. Deem and Ramdas Pophale) SiO2 
 PCOD9362808
Probable space group: A M A 2
;
_chemical_formula_sum "Si O2"
_cell_formula_units_Z 44
_cell_length_a 19.422580
_cell_length_b 8.786968
_cell_length_c 11.150066
_cell_angle_alpha 90.000000
_cell_angle_beta 90.000000
_cell_angle_gamma 90.000000
_cell_volume 1902.932581
_symmetry_space_group_name_H-M "A M A 2"
_symmetry_group_IT_number 40
_symmetry_cell_setting 'orthorhombic'
loop_
_space_group_symop_operation_xyz
x,y,z
-x,-y,z
1/2-x,y,z
1/2+x,-y,z
x,1/2+y,1/2+z
-x,1/2-y,1/2+z
1/2-x,1/2+y,1/2+z
1/2+x,1/2-y,1/2+z
loop_
_atom_site_type_symbol
_atom_site_label
_atom_site_fract_x
_atom_site_fract_y
_atom_site_fract_z
Si Si1 0.370757 0.813416 0.506260
Si Si2 0.174896 0.431383 0.246313
Si Si3 0.546802 0.267456 0.803976
Si Si4 0.110334 0.755338 0.247247
Si Si5 0.000000 0.000000 0.498419
Si Si6 0.924208 0.485489 0.577578
O O1 0.321229 0.861161 0.611936
O O2 0.364338 0.849735 0.365272
O O3 0.377977 0.630315 0.503527
O O4 0.440386 0.898268 0.555114
O O5 0.250000 0.410799 0.304359
O O6 0.110482 0.347730 0.311025
O O7 0.156437 0.608057 0.232108
O O8 0.469302 0.208745 0.776356
O O9 0.538878 0.372528 0.920390
O O10 0.561871 0.387129 0.697988
O O11 0.106560 0.859232 0.128463
O O12 0.000000 0.500000 0.519572
#
# Coordination Sequence:
#
# PCOD9362808 Si02
#       6
#     8   8   8   8   4   8
#     4  10  22  36  64  92 124 159 208 263 319 381
#     4  11  25  40  60  94 131 174 213 257 331 396
#     4   9  17  38  64  91 125 152 215 268 308 371
#     4  10  20  41  62  91 123 164 211 270 307 377
#     4  10  18  36  68 102 118 162 220 276 336 374
#     4   9  17  33  58  92 122 151 199 257 315 366
#
# _framework density 23.122207
#
# number of rings (size 3 to 8) (size 9 to 14) (size 15 to 20)
#    0.000    2.182    4.545    0.545    7.636    3.636 
#    0.000    4.545    0.000    0.000    0.000    0.000 
#    0.000    0.000    0.000    0.000    0.000    0.000 
#
# Total GULP energy -122773.974900 kJ/mol
# GULP energy per Si atom -5580.635223 kJ/mol
# Density = 2.306958 g / cm^3
# Si number density = 23.122207 Si / 1000 Ang^3
#
#
#
# Elastic Constant Matrix: (Units=GPa)
#
#
# Indices 1 2 3 4 5 6 
#
# 1 98.3123 46.3073 5.4662 0.0000 0.0000 0.0000
# 2 46.3073 94.8950 9.0874 0.0000 0.0000 0.0000
# 3 5.4662 9.0874 52.6479 0.0000 0.0000 0.0000
# 4 0.0000 0.0000 0.0000 29.8097 0.0000 0.0000
# 5 0.0000 0.0000 0.0000 0.0000 17.0313 0.0000
# 6 0.0000 0.0000 0.0000 0.0000 0.0000 0.3465
#
#
#
# Elastic Compliance Matrix: (Units=1/GPa)
#
#
# Indices 1 2 3 4 5 6 
#
# 1 0.013211 -0.006422 -0.000263 0.000000 0.000000 0.000000
# 2 -0.006422 0.013836 -0.001722 0.000000 0.000000 0.000000
# 3 -0.000263 -0.001722 0.019319 0.000000 0.000000 0.000000
# 4 0.000000 0.000000 0.000000 0.033546 0.000000 0.000000
# 5 0.000000 0.000000 0.000000 0.000000 0.058715 0.000000
# 6 0.000000 0.000000 0.000000 0.000000 0.000000 2.885840
#
#
# Mechanical properties :
#
#
# Convention : Reuss Voigt Hill
#
# Bulk Modulus (GPa) = 33.83709 40.84188 37.33948
# Shear Modulus (GPa) = 1.63874 21.77045 11.70459
#
# Velocity S-wave (km/s) = 0.84277 3.07178 2.25234
# Velocity P-wave (km/s) = 3.95131 5.50299 4.79039
#
# Compressibility (1/GPa) = 0.02955337
#
# Stress axis : x y z
#
# Youngs Moduli (GPa) = 75.69445 72.27291 51.76360
#
# Poissons Ratio (x) = 0.46410 0.01363
# Poissons Ratio (y) = 0.48608 0.08911
# Poissons Ratio (z) = 0.01993 0.12442
#
# Static dielectric constant tensor:
#      x y z
#    x 1.857210 0.000000 0.000000 
#    y 0.000000 1.905270 0.000000 
#    z 0.000000 0.000000 1.939290 
# 
# From -- ./inp_files/17547.got.cif
#   From: 2010.05.17/outbox.cif.g08.bks.cpg/sg40_9_cif.got.tgz:17547.got - 2010.06.03 18:35:42.
