data_PCOD9362201
_publ_section_title
;
Structure prediction by ZEFSAII (Michael W. Deem and Ramdas Pophale) SiO2 
 PCOD9362201
Probable space group: A B M 2
;
_chemical_formula_sum "Si O2"
_cell_formula_units_Z 32
_cell_length_a 24.000000
_cell_length_b 9.000000
_cell_length_c 15.000000
_cell_angle_alpha 90.000000
_cell_angle_beta 90.000000
_cell_angle_gamma 90.000000
_cell_volume 3240.000000
_symmetry_space_group_name_H-M "A B M 2"
_symmetry_group_IT_number 39
_symmetry_cell_setting 'orthorhombic'
loop_
_space_group_symop_operation_xyz
x,y,z
-x,-y,z
-x,1/2+y,z
x,1/2-y,z
x,1/2+y,1/2+z
-x,1/2-y,1/2+z
-x,y,1/2+z
x,-y,1/2+z
loop_
_atom_site_type_symbol
_atom_site_label
_atom_site_fract_x
_atom_site_fract_y
_atom_site_fract_z
Si Si1 0.180966 0.428308 0.807190
Si Si2 0.639409 0.069972 0.539393
Si Si3 0.558912 0.072426 0.898931
Si Si4 0.441668 0.572734 0.690515
Si Si5 0.830831 0.078914 0.640578
Si Si6 0.944251 0.927339 0.070742
Si Si7 0.245158 0.577561 0.472933
Si Si8 0.942317 0.427794 0.359257
O O1 0.179446 0.250000 0.814543
O O2 0.200887 0.481325 0.711636
O O3 0.221415 0.490709 0.883124
O O4 0.116989 0.480153 0.820841
O O5 0.639421 0.250000 0.542234
O O6 0.608702 0.019696 0.629010
O O7 0.701435 0.013613 0.521940
O O8 0.604138 0.009514 0.457517
O O9 0.558438 0.250000 0.913041
O O10 0.568295 0.042212 0.794338
O O11 0.500000 0.000000 0.923028
O O12 0.500000 0.500000 0.663189
O O13 0.447552 0.750000 0.680908
O O14 0.832657 0.250000 0.671667
O O15 0.892039 0.015718 0.625168
O O16 0.803902 0.079826 0.543969
O O17 0.945722 0.750000 0.079233
O O18 0.938547 0.959359 0.965543
O O19 0.000000 0.000000 0.104159
O O20 0.259173 0.750000 0.452021
O O21 0.946293 0.250000 0.347667
O O22 0.000000 0.500000 0.326748
#
# Coordination Sequence:
#
# PCOD9362201 Si02
#       8
#     8   8   8   8   8   8   8   8
#     4  10  20  36  56  77 103 138 177 220 268 319
#     4  10  20  35  57  81 105 142 186 221 261 314
#     4  10  20  35  55  82 116 146 175 217 264 311
#     4   9  19  34  53  79 110 141 173 210 256 307
#     4  10  20  36  57  78 102 138 180 220 265 321
#     4   9  17  31  52  76 102 134 171 212 264 323
#     4   9  19  38  58  74 103 145 182 216 263 322
#     4   9  17  31  52  75 102 134 170 212 264 323
#
# _framework density 9.8765429999999999
#
# number of rings (size 3 to 8) (size 9 to 14) (size 15 to 20)
#    0.000    2.500    1.250    0.750    0.000    4.500 
#    0.000    5.625    0.000    0.000    0.000    0.000 
#    0.000    0.000    0.000    0.000    0.000    0.000 
#
# Total GULP energy -178283.808803 kJ/mol
# GULP energy per Si atom -5571.369025 kJ/mol
# Density = 0.985406 g / cm^3
# Si number density = 9.876543 Si / 1000 Ang^3
#
#
#
# Elastic Constant Matrix: (Units=GPa)
#
#
# Indices 1 2 3 4 5 6 
#
# 1 21.7375 -16.7109 -18.6348 0.0000 0.0000 0.0000
# 2 -16.7109 -20.0889 -6.8438 0.0000 0.0000 0.0000
# 3 -18.6348 -6.8438 18.2632 0.0000 0.0000 0.0000
# 4 0.0000 0.0000 0.0000 82.3224 0.0000 0.0000
# 5 0.0000 0.0000 0.0000 0.0000 -10.8598 0.0000
# 6 0.0000 0.0000 0.0000 0.0000 0.0000 12.3251
#
#
#
# Elastic Compliance Matrix: (Units=1/GPa)
#
#
# Indices 1 2 3 4 5 6 
#
# 1 0.036356 -0.038026 0.022846 0.000000 0.000000 0.000000
# 2 -0.038026 -0.004371 -0.040437 0.000000 0.000000 0.000000
# 3 0.022846 -0.040437 0.062913 0.000000 0.000000 0.000000
# 4 0.000000 0.000000 0.000000 0.012147 0.000000 0.000000
# 5 0.000000 0.000000 0.000000 0.000000 -0.092082 0.000000
# 6 0.000000 0.000000 0.000000 0.000000 0.000000 0.081135
#
#
# Mechanical properties :
#
#
# Convention : Reuss Voigt Hill
#
# Bulk Modulus (GPa) = -61.21364 -7.16301 -34.18833
# Shear Modulus (GPa) = 24.76644 20.89764 22.83204
#
# Velocity S-wave (km/s) = 3.54475 3.25613 3.40350
# Velocity P-wave (km/s) = 3.78194 3.24074 1.37852
#
# Compressibility (1/GPa) = -0.01633623
#
# Stress axis : x y z
#
# Youngs Moduli (GPa) = 27.50575 -228.77652 15.89504
#
# Poissons Ratio (x) = -8.69940 -0.36314
# Poissons Ratio (y) = 1.04593 0.64275
# Poissons Ratio (z) = -0.62840 -9.25113
#
# Static dielectric constant tensor:
#      x y z
#    x 5.234740 0.000000 0.000000 
#    y 0.000000 1.592410 0.000000 
#    z 0.000000 0.000000 1.719100 
# 
# From -- ./inp_files/10628.got.cif
#   From: 2010.05.17/outbox.ucp.g08.bks.cvg/sg39_6_cif.got.tgz:10628.got - 2010.06.11 10:41:16.
