data_PCOD9362829
_publ_section_title
;
Structure prediction by ZEFSAII (Michael W. Deem and Ramdas Pophale) SiO2 
 PCOD9362829
Probable space group: A M A 2
;
_chemical_formula_sum "Si O2"
_cell_formula_units_Z 36
_cell_length_a 9.995922
_cell_length_b 25.728993
_cell_length_c 6.801343
_cell_angle_alpha 90.000000
_cell_angle_beta 90.000000
_cell_angle_gamma 90.000000
_cell_volume 1749.203448
_symmetry_space_group_name_H-M "A M A 2"
_symmetry_group_IT_number 40
_symmetry_cell_setting 'orthorhombic'
loop_
_space_group_symop_operation_xyz
x,y,z
-x,-y,z
1/2-x,y,z
1/2+x,-y,z
x,1/2+y,1/2+z
-x,1/2-y,1/2+z
1/2-x,1/2+y,1/2+z
1/2+x,1/2-y,1/2+z
loop_
_atom_site_type_symbol
_atom_site_label
_atom_site_fract_x
_atom_site_fract_y
_atom_site_fract_z
Si Si1 0.012822 0.056297 0.513500
Si Si2 0.250000 0.536879 0.708451
Si Si3 0.040223 0.156047 0.754957
Si Si4 0.750000 0.789317 0.489132
Si Si5 0.750000 0.167380 0.920341
Si Si6 0.250000 0.921163 0.258380
Si Si7 0.750000 0.850217 0.077302
O O1 0.879505 0.076441 0.401609
O O2 0.120913 0.045372 0.344875
O O3 0.062972 0.099053 0.664621
O O4 0.000000 0.000000 0.614356
O O5 0.250000 0.476870 0.642145
O O6 0.250000 0.587073 0.572808
O O7 0.115602 0.193719 0.603818
O O8 0.883522 0.160142 0.792420
O O9 0.117774 0.165135 0.958216
O O10 0.750000 0.727613 0.478385
O O11 0.750000 0.822150 0.286805
O O12 0.750000 0.126590 0.104255
#
# Coordination Sequence:
#
# PCOD9362829 Si02
#       7
#     8   4   8   4   4   4   4
#     4  10  20  39  66  97 138 176 213 275 345 405
#     4  10  18  38  68  93 131 182 212 266 333 411
#     4  11  25  44  68 102 127 176 230 274 337 408
#     4  11  27  48  67  91 137 181 227 280 337 394
#     4  12  28  42  67 103 135 174 230 290 333 397
#     4  10  23  38  62 101 138 173 215 271 351 392
#     4  11  22  44  72  96 129 174 232 269 326 414
#
# _framework density 20.580797
#
# number of rings (size 3 to 8) (size 9 to 14) (size 15 to 20)
#    0.000    1.333    2.222    2.667    3.111    1.778 
#    4.000    0.000    0.000    0.000    0.000    0.000 
#    0.000    0.000    0.000    0.000    0.000    0.000 
#
# Total GULP energy -100476.112296 kJ/mol
# GULP energy per Si atom -5582.006239 kJ/mol
# Density = 2.053395 g / cm^3
# Si number density = 20.580797 Si / 1000 Ang^3
#
#
#
# Elastic Constant Matrix: (Units=GPa)
#
#
# Indices 1 2 3 4 5 6 
#
# 1 112.5243 11.9666 23.5184 0.0000 0.0000 0.0000
# 2 11.9666 152.5253 48.1475 0.0000 0.0000 0.0000
# 3 23.5184 48.1475 80.7118 0.0000 0.0000 0.0000
# 4 0.0000 0.0000 0.0000 3.1042 0.0000 0.0000
# 5 0.0000 0.0000 0.0000 0.0000 -1.1921 0.0000
# 6 0.0000 0.0000 0.0000 0.0000 0.0000 -16.9060
#
#
#
# Elastic Compliance Matrix: (Units=1/GPa)
#
#
# Indices 1 2 3 4 5 6 
#
# 1 0.009466 0.000158 -0.002852 0.000000 0.000000 0.000000
# 2 0.000158 0.008080 -0.004866 0.000000 0.000000 0.000000
# 3 -0.002852 -0.004866 0.016124 0.000000 0.000000 0.000000
# 4 0.000000 0.000000 0.000000 0.322147 0.000000 0.000000
# 5 0.000000 0.000000 0.000000 0.000000 -0.838835 0.000000
# 6 0.000000 0.000000 0.000000 0.000000 0.000000 -0.059151
#
#
# Mechanical properties :
#
#
# Convention : Reuss Voigt Hill
#
# Bulk Modulus (GPa) = 53.91241 57.00294 55.45767
# Shear Modulus (GPa) = -9.59941 14.47647 2.43853
#
# Velocity S-wave (km/s) = -2.16203 2.65504 1.08969
# Velocity P-wave (km/s) = 4.47435 6.09559 5.34678
#
# Compressibility (1/GPa) = 0.01854861
#
# Stress axis : x y z
#
# Youngs Moduli (GPa) = 105.63699 123.76324 62.02069
#
# Poissons Ratio (x) = -0.01952 0.17691
# Poissons Ratio (y) = -0.01666 0.30179
# Poissons Ratio (z) = 0.30133 0.60223
#
# Static dielectric constant tensor:
#      x y z
#    x 1.756540 0.000000 0.000000 
#    y 0.000000 1.794360 0.000000 
#    z 0.000000 0.000000 1.720690 
# 
# From -- ./inp_files/765.got.cif
#   From: 2010.05.17/outbox.cif.g08.bks.cpg/sg40_1_cif.got.tgz:765.got - 2010.06.03 18:35:42.
