data_PCOD9362450
_publ_section_title
;
Structure prediction by ZEFSAII (Michael W. Deem and Ramdas Pophale) SiO2 
 PCOD9362450
Probable space group: A M A 2
;
_chemical_formula_sum "Si O2"
_cell_formula_units_Z 56
_cell_length_a 9.020141
_cell_length_b 18.852965
_cell_length_c 21.221256
_cell_angle_alpha 90.000000
_cell_angle_beta 90.000000
_cell_angle_gamma 90.000000
_cell_volume 3608.810453
_symmetry_space_group_name_H-M "A M A 2"
_symmetry_group_IT_number 40
_symmetry_cell_setting 'orthorhombic'
loop_
_space_group_symop_operation_xyz
x,y,z
-x,-y,z
1/2-x,y,z
1/2+x,-y,z
x,1/2+y,1/2+z
-x,1/2-y,1/2+z
1/2-x,1/2+y,1/2+z
1/2+x,1/2-y,1/2+z
loop_
_atom_site_type_symbol
_atom_site_label
_atom_site_fract_x
_atom_site_fract_y
_atom_site_fract_z
Si Si1 0.073211 0.718940 0.793170
Si Si2 0.073229 0.577014 0.485791
Si Si3 0.571698 0.337385 0.611709
Si Si4 0.926093 0.924472 0.237884
Si Si5 0.075354 0.852637 0.866362
Si Si6 0.573806 0.790950 0.672800
Si Si7 0.572981 0.576789 0.229128
O O1 0.250000 0.727902 0.777119
O O2 0.043064 0.635208 0.791231
O O3 0.047322 0.769077 0.853002
O O4 0.975675 0.751964 0.737466
O O5 0.250000 0.569079 0.484693
O O6 0.033368 0.623643 0.546970
O O7 0.000000 0.500000 0.490093
O O8 0.018634 0.615248 0.422511
O O9 0.750000 0.327338 0.614869
O O10 0.530456 0.388035 0.671063
O O11 0.492694 0.261771 0.620428
O O12 0.750000 0.934872 0.235535
O O13 0.000000 0.000000 0.247204
O O14 0.250000 0.861903 0.880167
O O15 0.045498 0.892747 0.800009
O O16 0.750000 0.796661 0.668072
O O17 0.498313 0.867654 0.680124
O O18 0.500000 0.500000 0.223650
O O19 0.750000 0.573870 0.220902
#
# Coordination Sequence:
#
# PCOD9362450 Si02
#       7
#     8   8   8   8   8   8   8
#     4   8  16  31  46  61  87 122 152 183 227 275
#     4  11  22  33  47  67  93 124 157 191 226 265
#     4   9  19  34  46  60  89 126 155 183 222 268
#     4   9  16  27  44  65  89 115 145 180 223 269
#     4   9  18  32  48  64  88 123 158 190 225 266
#     4  10  18  28  46  69  89 114 150 190 229 271
#     4  10  19  31  47  68  95 124 152 187 230 274
#
# _framework density 15.517579
#
# number of rings (size 3 to 8) (size 9 to 14) (size 15 to 20)
#    0.000    2.571    0.000    4.714    0.000    7.429 
#    0.000    0.000    0.000    0.000    0.000    1.000 
#    0.000    4.571    0.000    0.000    0.000    0.000 
#
# Total GULP energy -155993.035959 kJ/mol
# GULP energy per Si atom -5571.179856 kJ/mol
# Density = 1.548226 g / cm^3
# Si number density = 15.517579 Si / 1000 Ang^3
#
#
#
# Elastic Constant Matrix: (Units=GPa)
#
#
# Indices 1 2 3 4 5 6 
#
# 1 60.8960 69.1188 42.4247 0.0000 0.0000 0.0000
# 2 69.1188 166.1425 60.4102 0.0000 0.0000 0.0000
# 3 42.4247 60.4102 67.2874 0.0000 0.0000 0.0000
# 4 0.0000 0.0000 0.0000 22.2629 0.0000 0.0000
# 5 0.0000 0.0000 0.0000 0.0000 11.0125 0.0000
# 6 0.0000 0.0000 0.0000 0.0000 0.0000 30.6842
#
#
#
# Elastic Compliance Matrix: (Units=1/GPa)
#
#
# Indices 1 2 3 4 5 6 
#
# 1 0.039150 -0.010856 -0.014938 0.000000 0.000000 0.000000
# 2 -0.010856 0.011946 -0.003881 0.000000 0.000000 0.000000
# 3 -0.014938 -0.003881 0.027764 0.000000 0.000000 0.000000
# 4 0.000000 0.000000 0.000000 0.044918 0.000000 0.000000
# 5 0.000000 0.000000 0.000000 0.000000 0.090806 0.000000
# 6 0.000000 0.000000 0.000000 0.000000 0.000000 0.032590
#
#
# Mechanical properties :
#
#
# Convention : Reuss Voigt Hill
#
# Bulk Modulus (GPa) = 51.25158 70.91481 61.08319
# Shear Modulus (GPa) = 15.97316 20.95009 18.46162
#
# Velocity S-wave (km/s) = 3.21184 3.67834 3.45298
# Velocity P-wave (km/s) = 6.84502 7.98994 7.43954
#
# Compressibility (1/GPa) = 0.01951160
#
# Stress axis : x y z
#
# Youngs Moduli (GPa) = 25.54302 83.70896 36.01805
#
# Poissons Ratio (x) = 0.90872 0.53803
# Poissons Ratio (y) = 0.27729 0.13977
# Poissons Ratio (z) = 0.38155 0.32485
#
# Static dielectric constant tensor:
#      x y z
#    x 1.515440 0.000000 0.000000 
#    y 0.000000 1.534250 0.000000 
#    z 0.000000 0.000000 1.506100 
# 
# From -- ./inp_files/22289.got.cif
#   From: 2010.05.17/outbox.cif.g08.bks.cpg/sg40_12_cif.got.tgz:22289.got - 2010.06.03 18:35:42.
