data_PCOD9362936
_publ_section_title
;
Structure prediction by ZEFSAII (Michael W. Deem and Ramdas Pophale) SiO2 
 PCOD9362936
Probable space group: A M A 2
;
_chemical_formula_sum "Si O2"
_cell_formula_units_Z 64
_cell_length_a 14.058092
_cell_length_b 8.015587
_cell_length_c 22.292679
_cell_angle_alpha 90.000000
_cell_angle_beta 90.000000
_cell_angle_gamma 90.000000
_cell_volume 2512.025108
_symmetry_space_group_name_H-M "A M A 2"
_symmetry_group_IT_number 40
_symmetry_cell_setting 'orthorhombic'
loop_
_space_group_symop_operation_xyz
x,y,z
-x,-y,z
1/2-x,y,z
1/2+x,-y,z
x,1/2+y,1/2+z
-x,1/2-y,1/2+z
1/2-x,1/2+y,1/2+z
1/2+x,1/2-y,1/2+z
loop_
_atom_site_type_symbol
_atom_site_label
_atom_site_fract_x
_atom_site_fract_y
_atom_site_fract_z
Si Si1 0.137223 0.397403 0.890870
Si Si2 0.636035 0.554640 0.505838
Si Si3 0.138649 0.438272 0.142730
Si Si4 0.362661 0.342340 0.763807
Si Si5 0.049226 0.823246 0.889342
Si Si6 0.862967 0.674842 0.016632
Si Si7 0.636026 0.546558 0.272761
Si Si8 0.861065 0.160444 0.135258
O O1 0.250000 0.328436 0.890945
O O2 0.131952 0.461303 0.822013
O O3 0.035484 0.305579 0.888562
O O4 0.129003 0.452501 0.960642
O O5 0.750000 0.559260 0.506962
O O6 0.607492 0.672708 0.450971
O O7 0.607884 0.360549 0.495855
O O8 0.598534 0.605448 0.571348
O O9 0.250000 0.387771 0.144803
O O10 0.094423 0.369121 0.081336
O O11 0.098268 0.392467 0.207971
O O12 0.137079 0.638681 0.138330
O O13 0.250000 0.323408 0.752414
O O14 0.402050 0.397975 0.699360
O O15 0.393764 0.150333 0.779811
O O16 0.109824 0.838996 0.828784
O O17 0.000000 0.000000 0.890144
O O18 0.750000 0.683689 0.027177
O O19 0.750000 0.542736 0.269729
O O20 0.750000 0.105389 0.132698
#
# Coordination Sequence:
#
# PCOD9362936 Si02
#       8
#     8   8   8   8   8   8   8   8
#     4  10  19  31  48  70  97 128 170 217 253 291
#     4  10  19  31  49  77 108 134 163 208 255 298
#     4   8  15  29  51  75 102 137 173 203 244 302
#     4   8  13  25  45  67  91 122 159 202 244 286
#     4  12  20  28  48  73 102 132 171 207 257 305
#     4   9  16  28  48  73 100 134 170 206 248 296
#     4   9  16  28  47  72  99 126 163 213 256 293
#     4   8  15  28  48  73 102 132 164 205 254 299
#
# _framework density 25.477450999999999
#
# number of rings (size 3 to 8) (size 9 to 14) (size 15 to 20)
#    0.000    2.750    2.500    1.875    0.000    0.000 
#    0.000    1.250    0.000    1.500    0.000    8.750 
#    0.000    0.000    0.000    0.000    0.000    0.000 
#
# Total GULP energy -178162.056755 kJ/mol
# GULP energy per Si atom -5567.564274 kJ/mol
# Density = 2.541946 g / cm^3
# Si number density = 25.477451 Si / 1000 Ang^3
#
#
#
# Elastic Constant Matrix: (Units=GPa)
#
#
# Indices 1 2 3 4 5 6 
#
# 1 74.0615 21.9574 40.5779 0.0000 0.0000 0.0000
# 2 21.9574 68.8623 46.2803 0.0000 0.0000 0.0000
# 3 40.5779 46.2803 295.7714 0.0000 0.0000 0.0000
# 4 0.0000 0.0000 0.0000 7.9074 0.0000 0.0000
# 5 0.0000 0.0000 0.0000 0.0000 -7.4135 0.0000
# 6 0.0000 0.0000 0.0000 0.0000 0.0000 8.5851
#
#
#
# Elastic Compliance Matrix: (Units=1/GPa)
#
#
# Indices 1 2 3 4 5 6 
#
# 1 0.015494 -0.003925 -0.001512 0.000000 0.000000 0.000000
# 2 -0.003925 0.017222 -0.002156 0.000000 0.000000 0.000000
# 3 -0.001512 -0.002156 0.003926 0.000000 0.000000 0.000000
# 4 0.000000 0.000000 0.000000 0.126463 0.000000 0.000000
# 5 0.000000 0.000000 0.000000 0.000000 -0.134889 0.000000
# 6 0.000000 0.000000 0.000000 0.000000 0.000000 0.116481
#
#
# Mechanical properties :
#
#
# Convention : Reuss Voigt Hill
#
# Bulk Modulus (GPa) = 46.60460 72.92517 59.76489
# Shear Modulus (GPa) = 29.93392 23.80778 26.87085
#
# Velocity S-wave (km/s) = 3.43143 3.06022 3.25112
# Velocity P-wave (km/s) = 5.83368 6.41655 6.13204
#
# Compressibility (1/GPa) = 0.02145711
#
# Stress axis : x y z
#
# Youngs Moduli (GPa) = 64.54112 58.06404 254.72558
#
# Poissons Ratio (x) = 0.22787 0.38504
# Poissons Ratio (y) = 0.25329 0.54930
# Poissons Ratio (z) = 0.09756 0.12521
#
# Static dielectric constant tensor:
#      x y z
#    x 2.245430 0.000000 0.000000 
#    y 0.000000 2.104220 0.000000 
#    z 0.000000 0.000000 2.110300 
# 
# From -- ./inp_files/24816.got.cif
#   From: 2010.05.17/outbox.cif.g08.bks.cpg/sg40_13_cif.got.tgz:24816.got - 2010.06.03 18:35:42.
