data_PCOD9362484
_publ_section_title
;
Structure prediction by ZEFSAII (Michael W. Deem and Ramdas Pophale) SiO2 
 PCOD9362484
Probable space group: A M A 2
;
_chemical_formula_sum "Si O2"
_cell_formula_units_Z 56
_cell_length_a 8.466564
_cell_length_b 18.933472
_cell_length_c 21.547489
_cell_angle_alpha 90.000000
_cell_angle_beta 90.000000
_cell_angle_gamma 90.000000
_cell_volume 3454.093783
_symmetry_space_group_name_H-M "A M A 2"
_symmetry_group_IT_number 40
_symmetry_cell_setting 'orthorhombic'
loop_
_space_group_symop_operation_xyz
x,y,z
-x,-y,z
1/2-x,y,z
1/2+x,-y,z
x,1/2+y,1/2+z
-x,1/2-y,1/2+z
1/2-x,1/2+y,1/2+z
1/2+x,1/2-y,1/2+z
loop_
_atom_site_type_symbol
_atom_site_label
_atom_site_fract_x
_atom_site_fract_y
_atom_site_fract_z
Si Si1 0.936484 0.714726 0.996560
Si Si2 0.937682 0.420874 0.048372
Si Si3 0.441221 0.840622 0.928507
Si Si4 0.440430 0.920992 0.054852
Si Si5 0.938163 0.649589 0.174640
Si Si6 0.559254 0.579892 0.303638
Si Si7 0.563821 0.214661 0.120729
O O1 0.750000 0.721324 0.008537
O O2 0.985509 0.763251 0.938928
O O3 0.984524 0.633047 0.999088
O O4 0.033336 0.748881 0.053819
O O5 0.750000 0.418740 0.042334
O O6 0.000000 0.500000 0.041778
O O7 0.984568 0.391578 0.116748
O O8 0.250000 0.835043 0.929474
O O9 0.491280 0.877420 0.864797
O O10 0.489384 0.889071 0.987707
O O11 0.250000 0.920948 0.055212
O O12 0.492235 0.865341 0.108116
O O13 0.500000 0.000000 0.062932
O O14 0.750000 0.640835 0.169013
O O15 0.992122 0.617308 0.239865
O O16 0.978818 0.732508 0.167826
O O17 0.500000 0.500000 0.305886
O O18 0.750000 0.579122 0.303732
O O19 0.750000 0.214508 0.133945
#
# Coordination Sequence:
#
# PCOD9362484 Si02
#       7
#     8   8   8   8   8   8   8
#     4  10  18  29  46  68  89 115 151 189 227 272
#     4  11  20  31  47  68  94 123 151 188 232 275
#     4   9  18  33  46  62  91 125 154 184 222 268
#     4   9  17  27  43  65  89 115 146 181 224 269
#     4  10  19  31  46  67  92 123 159 193 227 270
#     4  10  21  33  47  67  94 125 159 192 225 264
#     4   9  17  30  45  63  88 120 151 185 229 276
#
# _framework density 16.212645999999999
#
# number of rings (size 3 to 8) (size 9 to 14) (size 15 to 20)
#    0.000    2.286    0.000    6.857    0.000    5.714 
#    0.000    0.000    0.000    0.000    0.000    1.000 
#    0.000    2.286    0.000    0.000    0.000    0.000 
#
# Total GULP energy -156071.902501 kJ/mol
# GULP energy per Si atom -5573.996518 kJ/mol
# Density = 1.617575 g / cm^3
# Si number density = 16.212646 Si / 1000 Ang^3
#
#
#
# Elastic Constant Matrix: (Units=GPa)
#
#
# Indices 1 2 3 4 5 6 
#
# 1 23.6481 14.7411 11.9354 0.0000 0.0000 0.0000
# 2 14.7411 154.3144 62.0817 0.0000 0.0000 0.0000
# 3 11.9354 62.0817 75.1563 0.0000 0.0000 0.0000
# 4 0.0000 0.0000 0.0000 28.3609 0.0000 0.0000
# 5 0.0000 0.0000 0.0000 0.0000 15.6329 0.0000
# 6 0.0000 0.0000 0.0000 0.0000 0.0000 29.6145
#
#
#
# Elastic Compliance Matrix: (Units=1/GPa)
#
#
# Indices 1 2 3 4 5 6 
#
# 1 0.046465 -0.002202 -0.005560 0.000000 0.000000 0.000000
# 2 -0.002202 0.009810 -0.007754 0.000000 0.000000 0.000000
# 3 -0.005560 -0.007754 0.020593 0.000000 0.000000 0.000000
# 4 0.000000 0.000000 0.000000 0.035260 0.000000 0.000000
# 5 0.000000 0.000000 0.000000 0.000000 0.063968 0.000000
# 6 0.000000 0.000000 0.000000 0.000000 0.000000 0.033767
#
#
# Mechanical properties :
#
#
# Convention : Reuss Voigt Hill
#
# Bulk Modulus (GPa) = 21.81628 47.84834 34.83231
# Shear Modulus (GPa) = 19.51794 25.67903 22.59848
#
# Velocity S-wave (km/s) = 3.47345 3.98413 3.73752
# Velocity P-wave (km/s) = 5.43802 7.12330 6.33693
#
# Compressibility (1/GPa) = 0.04583734
#
# Stress axis : x y z
#
# Youngs Moduli (GPa) = 21.52135 101.93711 48.55905
#
# Poissons Ratio (x) = 0.22443 0.27001
# Poissons Ratio (y) = 0.04738 0.37651
# Poissons Ratio (z) = 0.11967 0.79039
#
# Static dielectric constant tensor:
#      x y z
#    x 1.548610 0.000000 0.000000 
#    y 0.000000 1.570160 0.000000 
#    z 0.000000 0.000000 1.538600 
# 
# From -- ./inp_files/22313.got.cif
#   From: 2010.05.17/outbox.cif.g08.bks.cpg/sg40_12_cif.got.tgz:22313.got - 2010.06.03 18:35:42.
