data_PCOD9362760
_publ_section_title
;
Structure prediction by ZEFSAII (Michael W. Deem and Ramdas Pophale) SiO2 
 PCOD9362760
Probable space group: A M A 2
;
_chemical_formula_sum "Si O2"
_cell_formula_units_Z 56
_cell_length_a 19.975502
_cell_length_b 6.568506
_cell_length_c 22.233748
_cell_angle_alpha 90.000000
_cell_angle_beta 90.000000
_cell_angle_gamma 90.000000
_cell_volume 2917.272393
_symmetry_space_group_name_H-M "A M A 2"
_symmetry_group_IT_number 40
_symmetry_cell_setting 'orthorhombic'
loop_
_space_group_symop_operation_xyz
x,y,z
-x,-y,z
1/2-x,y,z
1/2+x,-y,z
x,1/2+y,1/2+z
-x,1/2-y,1/2+z
1/2-x,1/2+y,1/2+z
1/2+x,1/2-y,1/2+z
loop_
_atom_site_type_symbol
_atom_site_label
_atom_site_fract_x
_atom_site_fract_y
_atom_site_fract_z
Si Si1 0.674677 0.657269 0.114330
Si Si2 0.928596 0.386269 0.412292
Si Si3 0.000000 0.500000 0.203936
Si Si4 0.606868 0.748644 0.650519
Si Si5 0.000000 0.500000 0.872656
Si Si6 0.176779 0.051664 0.230528
Si Si7 0.406498 0.328049 0.307048
Si Si8 0.079943 0.054906 0.046551
O O1 0.750000 0.660669 0.086767
O O2 0.655921 0.436071 0.138969
O O3 0.677697 0.804005 0.172024
O O4 0.612733 0.738042 0.073638
O O5 0.893243 0.490831 0.354724
O O6 0.898578 0.443875 0.476790
O O7 0.000000 0.500000 0.411266
O O8 0.947304 0.146393 0.407784
O O9 0.967905 0.328618 0.162252
O O10 0.942178 0.580780 0.247927
O O11 0.626152 0.623825 0.710336
O O12 0.610324 0.613099 0.590949
O O13 0.958439 0.336902 0.834172
O O14 0.250000 0.962489 0.239940
O O15 0.155248 0.193067 0.285429
O O16 0.000000 0.000000 0.047703
#
# Coordination Sequence:
#
# PCOD9362760 Si02
#       8
#     8   8   4   8   4   8   8   8
#     4  10  21  38  57  82 116 159 196 234 291 358
#     4   9  20  36  55  84 112 152 188 234 294 343
#     4  12  20  34  59  92 117 144 186 246 310 344
#     4  11  22  35  58  85 117 153 187 247 298 354
#     4  10  18  34  61  84 113 148 188 234 296 338
#     4  10  22  37  55  82 118 158 194 232 285 361
#     4  11  20  35  57  86 114 147 186 239 289 353
#     4  10  22  38  58  87 118 148 197 248 293 347
#
# _framework density 19.196014000000002
#
# number of rings (size 3 to 8) (size 9 to 14) (size 15 to 20)
#    0.000    1.714    3.571    2.143    2.000    4.000 
#    0.000    1.429    0.000    2.571    0.000    0.000 
#    0.000    0.000    0.000    0.000    0.000    0.000 
#
# Total GULP energy -155918.922442 kJ/mol
# GULP energy per Si atom -5568.532944 kJ/mol
# Density = 1.915232 g / cm^3
# Si number density = 19.196014 Si / 1000 Ang^3
#
#
#
# Elastic Constant Matrix: (Units=GPa)
#
#
# Indices 1 2 3 4 5 6 
#
# 1 54.4351 11.9642 21.2373 0.0000 0.0000 0.0000
# 2 11.9642 91.0168 31.2675 0.0000 0.0000 0.0000
# 3 21.2373 31.2675 87.4572 0.0000 0.0000 0.0000
# 4 0.0000 0.0000 0.0000 16.6423 0.0000 0.0000
# 5 0.0000 0.0000 0.0000 0.0000 12.6285 0.0000
# 6 0.0000 0.0000 0.0000 0.0000 0.0000 21.5575
#
#
#
# Elastic Compliance Matrix: (Units=1/GPa)
#
#
# Indices 1 2 3 4 5 6 
#
# 1 0.020392 -0.001117 -0.004553 0.000000 0.000000 0.000000
# 2 -0.001117 0.012586 -0.004229 0.000000 0.000000 0.000000
# 3 -0.004553 -0.004229 0.014052 0.000000 0.000000 0.000000
# 4 0.000000 0.000000 0.000000 0.060088 0.000000 0.000000
# 5 0.000000 0.000000 0.000000 0.000000 0.079186 0.000000
# 6 0.000000 0.000000 0.000000 0.000000 0.000000 0.046388
#
#
# Mechanical properties :
#
#
# Convention : Reuss Voigt Hill
#
# Bulk Modulus (GPa) = 36.71854 40.20523 38.46188
# Shear Modulus (GPa) = 19.11568 21.39500 20.25534
#
# Velocity S-wave (km/s) = 3.15908 3.34212 3.25188
# Velocity P-wave (km/s) = 5.69878 5.99024 5.84633
#
# Compressibility (1/GPa) = 0.02723420
#
# Stress axis : x y z
#
# Youngs Moduli (GPa) = 49.03868 79.45035 71.16662
#
# Poissons Ratio (x) = 0.08871 0.32399
# Poissons Ratio (y) = 0.05475 0.30095
# Poissons Ratio (z) = 0.22325 0.33598
#
# Static dielectric constant tensor:
#      x y z
#    x 1.703000 0.000000 0.000000 
#    y 0.000000 1.707120 0.000000 
#    z 0.000000 0.000000 1.695090 
# 
# From -- ./inp_files/24983.got.cif
#   From: 2010.05.17/outbox.cif.g08.bks.cpg/sg40_13_cif.got.tgz:24983.got - 2010.06.03 18:35:42.
