data_PCOD9362280
_publ_section_title
;
Structure prediction by ZEFSAII (Michael W. Deem and Ramdas Pophale) SiO2 
 PCOD9362280
Probable space group: A M A 2
;
_chemical_formula_sum "Si O2"
_cell_formula_units_Z 56
_cell_length_a 8.645867
_cell_length_b 22.656984
_cell_length_c 18.449654
_cell_angle_alpha 90.000000
_cell_angle_beta 90.000000
_cell_angle_gamma 90.000000
_cell_volume 3614.089259
_symmetry_space_group_name_H-M "A M A 2"
_symmetry_group_IT_number 40
_symmetry_cell_setting 'orthorhombic'
loop_
_space_group_symop_operation_xyz
x,y,z
-x,-y,z
1/2-x,y,z
1/2+x,-y,z
x,1/2+y,1/2+z
-x,1/2-y,1/2+z
1/2-x,1/2+y,1/2+z
1/2+x,1/2-y,1/2+z
loop_
_atom_site_type_symbol
_atom_site_label
_atom_site_fract_x
_atom_site_fract_y
_atom_site_fract_z
Si Si1 0.935279 0.720106 0.895000
Si Si2 0.929267 0.176444 0.705089
Si Si3 0.437834 0.282163 0.057053
Si Si4 0.437285 0.349916 0.359562
Si Si5 0.065450 0.565804 0.482659
Si Si6 0.933683 0.653853 0.599867
Si Si7 0.928853 0.315667 0.748494
O O1 0.750000 0.723829 0.888897
O O2 0.003753 0.786130 0.886845
O O3 0.000347 0.681896 0.828582
O O4 0.975415 0.698168 0.975709
O O5 0.750000 0.158233 0.699477
O O6 0.994626 0.176869 0.623643
O O7 0.993716 0.143779 0.775911
O O8 0.933281 0.245828 0.727402
O O9 0.250000 0.277747 0.062690
O O10 0.504567 0.216735 0.069986
O O11 0.250000 0.349098 0.360028
O O12 0.499286 0.399532 0.412980
O O13 0.250000 0.565142 0.479440
O O14 0.000000 0.500000 0.485127
O O15 0.010834 0.602789 0.552604
O O16 0.750000 0.651615 0.591573
O O17 0.980600 0.651877 0.684388
O O18 0.750000 0.333570 0.748386
#
# Coordination Sequence:
#
# PCOD9362280 Si02
#       7
#     8   8   8   8   8   8   8
#     4  10  17  25  42  67  94 123 156 188 222 268
#     4   7  13  25  41  60  84 116 149 180 218 266
#     4   9  16  27  43  65  93 124 153 184 223 267
#     4  10  18  30  46  63  87 120 155 190 232 273
#     4  12  24  37  50  66  88 117 156 198 237 276
#     4  11  20  31  47  65  87 116 153 191 233 277
#     4   9  17  29  43  60  87 120 153 187 227 271
#
# _framework density 15.494913
#
# number of rings (size 3 to 8) (size 9 to 14) (size 15 to 20)
#    0.000    2.286    1.429    5.571    0.000    0.571 
#    0.000    0.714    0.000    0.000    0.000    0.000 
#    0.000    1.143    0.000    5.714    0.000    4.286 
#
# Total GULP energy -155974.804032 kJ/mol
# GULP energy per Si atom -5570.528715 kJ/mol
# Density = 1.545965 g / cm^3
# Si number density = 15.494913 Si / 1000 Ang^3
#
#
#
# Elastic Constant Matrix: (Units=GPa)
#
#
# Indices 1 2 3 4 5 6 
#
# 1 66.0964 13.0459 34.7707 0.0000 0.0000 0.0000
# 2 13.0459 42.3291 34.7255 0.0000 0.0000 0.0000
# 3 34.7707 34.7255 160.2803 0.0000 0.0000 0.0000
# 4 0.0000 0.0000 0.0000 12.1929 0.0000 0.0000
# 5 0.0000 0.0000 0.0000 0.0000 22.5257 0.0000
# 6 0.0000 0.0000 0.0000 0.0000 0.0000 14.5932
#
#
#
# Elastic Compliance Matrix: (Units=1/GPa)
#
#
# Indices 1 2 3 4 5 6 
#
# 1 0.017337 -0.002746 -0.003166 0.000000 0.000000 0.000000
# 2 -0.002746 0.029166 -0.005723 0.000000 0.000000 0.000000
# 3 -0.003166 -0.005723 0.008166 0.000000 0.000000 0.000000
# 4 0.000000 0.000000 0.000000 0.082015 0.000000 0.000000
# 5 0.000000 0.000000 0.000000 0.000000 0.044394 0.000000
# 6 0.000000 0.000000 0.000000 0.000000 0.000000 0.068525
#
#
# Mechanical properties :
#
#
# Convention : Reuss Voigt Hill
#
# Bulk Modulus (GPa) = 31.84897 48.19890 40.02394
# Shear Modulus (GPa) = 17.64669 22.27326 19.95998
#
# Velocity S-wave (km/s) = 3.37838 3.79549 3.59299
# Velocity P-wave (km/s) = 5.98473 7.09799 6.56500
#
# Compressibility (1/GPa) = 0.03139819
#
# Stress axis : x y z
#
# Youngs Moduli (GPa) = 57.68027 34.28665 122.46069
#
# Poissons Ratio (x) = 0.09415 0.38772
# Poissons Ratio (y) = 0.15838 0.70087
# Poissons Ratio (z) = 0.18262 0.19623
#
# Static dielectric constant tensor:
#      x y z
#    x 1.524640 0.000000 0.000000 
#    y 0.000000 1.468080 0.000000 
#    z 0.000000 0.000000 1.579550 
# 
# From -- ./inp_files/19462.got.cif
#   From: 2010.05.17/outbox.cif.g08.bks.cpg/sg40_10_cif.got.tgz:19462.got - 2010.06.03 18:35:42.
