data_PCOD9362009
_publ_section_title
;
Structure prediction by ZEFSAII (Michael W. Deem and Ramdas Pophale) SiO2 
 PCOD9362009
Probable space group: A B M 2
;
_chemical_formula_sum "Si O2"
_cell_formula_units_Z 48
_cell_length_a 11.728674
_cell_length_b 21.501307
_cell_length_c 9.716056
_cell_angle_alpha 90.000000
_cell_angle_beta 90.000000
_cell_angle_gamma 90.000000
_cell_volume 2450.212689
_symmetry_space_group_name_H-M "A B M 2"
_symmetry_group_IT_number 39
_symmetry_cell_setting 'orthorhombic'
loop_
_space_group_symop_operation_xyz
x,y,z
-x,-y,z
-x,1/2+y,z
x,1/2-y,z
x,1/2+y,1/2+z
-x,1/2-y,1/2+z
-x,y,1/2+z
x,-y,1/2+z
loop_
_atom_site_type_symbol
_atom_site_label
_atom_site_fract_x
_atom_site_fract_y
_atom_site_fract_z
Si Si1 0.617712 0.750000 0.195850
Si Si2 0.119253 0.250000 0.640775
Si Si3 0.971277 0.750000 0.379520
Si Si4 0.100435 0.084801 0.999493
Si Si5 0.169842 0.442766 0.512803
Si Si6 0.384095 0.250000 0.865221
Si Si7 0.228434 0.860177 0.244043
Si Si8 0.799663 0.646762 0.270830
O O1 0.500717 0.750000 0.279760
O O2 0.691207 0.689785 0.240269
O O3 0.601977 0.750000 0.030307
O O4 0.012107 0.250000 0.542051
O O5 0.187068 0.312650 0.623872
O O6 0.086691 0.250000 0.798782
O O7 0.896512 0.691555 0.334355
O O8 0.151527 0.120838 0.128611
O O9 0.136495 0.119208 0.858830
O O10 0.964425 0.077976 0.020853
O O11 0.158085 0.016675 0.996602
O O12 0.240549 0.421657 0.648698
O O13 0.219605 0.409140 0.377880
O O14 0.319524 0.314750 0.819808
#
# Coordination Sequence:
#
# PCOD9362009 Si02
#       8
#     4   4   4   8   8   4   8   8
#     4  11  26  46  71  92 116 155 207 274 338 381
#     4  11  22  32  53  83 121 163 199 251 309 363
#     4  11  22  32  53  83 121 163 199 251 309 363
#     4  11  22  39  59  92 136 175 216 238 289 365
#     4  11  22  37  63  92 130 185 206 240 291 371
#     4  11  26  46  71  92 116 155 207 274 338 381
#     4  11  23  39  59  92 126 158 213 260 307 368
#     4  11  23  39  59  92 126 158 213 260 307 368
#
# _framework density 19.590136000000001
#
# number of rings (size 3 to 8) (size 9 to 14) (size 15 to 20)
#    0.000    1.000    3.333    4.000    4.667    2.667 
#    0.000    0.000    0.000    6.000    0.000    0.000 
#    0.000    0.000    0.000    0.000    0.000    0.000 
#
# Total GULP energy -133846.432198 kJ/mol
# GULP energy per Si atom -5576.934675 kJ/mol
# Density = 1.954555 g / cm^3
# Si number density = 19.590136 Si / 1000 Ang^3
#
#
#
# Elastic Constant Matrix: (Units=GPa)
#
#
# Indices 1 2 3 4 5 6 
#
# 1 77.1005 37.5335 27.6130 0.0000 0.0000 0.0000
# 2 37.5335 127.3755 38.8672 0.0000 0.0000 0.0000
# 3 27.6130 38.8672 110.1703 0.0000 0.0000 0.0000
# 4 0.0000 0.0000 0.0000 27.6438 0.0000 0.0000
# 5 0.0000 0.0000 0.0000 0.0000 28.5378 0.0000
# 6 0.0000 0.0000 0.0000 0.0000 0.0000 19.2888
#
#
#
# Elastic Compliance Matrix: (Units=1/GPa)
#
#
# Indices 1 2 3 4 5 6 
#
# 1 0.015777 -0.003858 -0.002593 0.000000 0.000000 0.000000
# 2 -0.003858 0.009741 -0.002470 0.000000 0.000000 0.000000
# 3 -0.002593 -0.002470 0.010598 0.000000 0.000000 0.000000
# 4 0.000000 0.000000 0.000000 0.036174 0.000000 0.000000
# 5 0.000000 0.000000 0.000000 0.000000 0.035041 0.000000
# 6 0.000000 0.000000 0.000000 0.000000 0.000000 0.051844
#
#
# Mechanical properties :
#
#
# Convention : Reuss Voigt Hill
#
# Bulk Modulus (GPa) = 54.72036 58.07486 56.39761
# Shear Modulus (GPa) = 27.30624 29.13625 28.22125
#
# Velocity S-wave (km/s) = 3.73752 3.86073 3.79962
# Velocity P-wave (km/s) = 6.82778 7.04151 6.93547
#
# Compressibility (1/GPa) = 0.01827473
#
# Stress axis : x y z
#
# Youngs Moduli (GPa) = 63.38417 102.65760 94.35599
#
# Poissons Ratio (x) = 0.39601 0.24470
# Poissons Ratio (y) = 0.24451 0.23303
# Poissons Ratio (z) = 0.16438 0.25354
#
# Static dielectric constant tensor:
#      x y z
#    x 1.669400 0.000000 0.000000 
#    y 0.000000 1.723000 0.000000 
#    z 0.000000 0.000000 1.717440 
# 
# From -- ./inp_files/2747.got.cif
#   From: 2010.05.17/outbox.cif.g08.bks.cpg/sg39_2_cif.got.tgz:2747.got - 2010.06.03 18:22:40.
