data_PCOD9362905
_publ_section_title
;
Structure prediction by ZEFSAII (Michael W. Deem and Ramdas Pophale) SiO2 
 PCOD9362905
Probable space group: A M A 2
;
_chemical_formula_sum "Si O2"
_cell_formula_units_Z 64
_cell_length_a 24.302669
_cell_length_b 22.983312
_cell_length_c 5.166167
_cell_angle_alpha 90.000000
_cell_angle_beta 90.000000
_cell_angle_gamma 90.000000
_cell_volume 2885.592666
_symmetry_space_group_name_H-M "A M A 2"
_symmetry_group_IT_number 40
_symmetry_cell_setting 'orthorhombic'
loop_
_space_group_symop_operation_xyz
x,y,z
-x,-y,z
1/2-x,y,z
1/2+x,-y,z
x,1/2+y,1/2+z
-x,1/2-y,1/2+z
1/2-x,1/2+y,1/2+z
1/2+x,1/2-y,1/2+z
loop_
_atom_site_type_symbol
_atom_site_label
_atom_site_fract_x
_atom_site_fract_y
_atom_site_fract_z
Si Si1 0.313359 0.822521 0.142750
Si Si2 0.123364 0.741987 0.488944
Si Si3 0.191397 0.553213 0.597355
Si Si4 0.583339 0.863275 0.689749
Si Si5 0.189280 0.673990 0.855606
Si Si6 0.512290 0.714817 0.020173
Si Si7 0.814885 0.098581 0.650602
Si Si8 0.366646 0.520965 0.102904
O O1 0.250000 0.803489 0.130001
O O2 0.351198 0.768893 0.229303
O O3 0.317864 0.867870 0.380161
O O4 0.326128 0.857510 0.884506
O O5 0.093065 0.679377 0.437752
O O6 0.171786 0.730038 0.690744
O O7 0.076808 0.786576 0.584630
O O8 0.250000 0.526448 0.673429
O O9 0.193426 0.621456 0.649796
O O10 0.180983 0.543661 0.297012
O O11 0.146558 0.529267 0.799321
O O12 0.637952 0.845991 0.528273
O O13 0.527169 0.839971 0.562597
O O14 0.585709 0.933686 0.693505
O O15 0.250000 0.677753 0.978368
O O16 0.509792 0.737323 0.725625
O O17 0.750000 0.078962 0.680251
O O18 0.860261 0.047406 0.654439
#
# Coordination Sequence:
#
# PCOD9362905 Si02
#       8
#     8   8   8   8   8   8   8   8
#     4  10  23  38  56  81 116 158 202 239 281 347
#     4  11  21  38  58  84 118 160 200 242 298 354
#     4  10  19  30  47  78 112 148 180 221 285 348
#     4  10  22  37  56  92 118 152 194 247 308 359
#     4  10  20  32  50  83 126 154 183 230 295 363
#     4  10  21  37  61  83 119 156 196 241 292 358
#     4  10  21  38  55  78 112 158 200 235 284 350
#     4  11  20  34  57  79 113 146 190 246 289 345
#
# _framework density 22.179152999999999
#
# number of rings (size 3 to 8) (size 9 to 14) (size 15 to 20)
#    0.000    1.750    2.500    2.250    1.750    3.000 
#    0.000    0.000    0.000    0.750    0.000    1.750 
#    0.000    0.000    0.000    0.000    0.000    0.000 
#
# Total GULP energy -178418.633349 kJ/mol
# GULP energy per Si atom -5575.582292 kJ/mol
# Density = 2.212867 g / cm^3
# Si number density = 22.179153 Si / 1000 Ang^3
#
#
#
# Elastic Constant Matrix: (Units=GPa)
#
#
# Indices 1 2 3 4 5 6 
#
# 1 52.3098 -7.2279 1.8658 0.0000 0.0000 0.0000
# 2 -7.2279 87.3667 13.4352 0.0000 0.0000 0.0000
# 3 1.8658 13.4352 66.3207 0.0000 0.0000 0.0000
# 4 0.0000 0.0000 0.0000 31.0672 0.0000 0.0000
# 5 0.0000 0.0000 0.0000 0.0000 21.0856 0.0000
# 6 0.0000 0.0000 0.0000 0.0000 0.0000 21.1401
#
#
#
# Elastic Compliance Matrix: (Units=1/GPa)
#
#
# Indices 1 2 3 4 5 6 
#
# 1 0.019390 0.001742 -0.000898 0.000000 0.000000 0.000000
# 2 0.001742 0.011971 -0.002474 0.000000 0.000000 0.000000
# 3 -0.000898 -0.002474 0.015605 0.000000 0.000000 0.000000
# 4 0.000000 0.000000 0.000000 0.032188 0.000000 0.000000
# 5 0.000000 0.000000 0.000000 0.000000 0.047426 0.000000
# 6 0.000000 0.000000 0.000000 0.000000 0.000000 0.047304
#
#
# Mechanical properties :
#
#
# Convention : Reuss Voigt Hill
#
# Bulk Modulus (GPa) = 22.88086 24.68260 23.78173
# Shear Modulus (GPa) = 26.08091 27.85351 26.96721
#
# Velocity S-wave (km/s) = 3.43289 3.54763 3.49073
# Velocity P-wave (km/s) = 5.10409 5.28524 5.19546
#
# Compressibility (1/GPa) = 0.04370466
#
# Stress axis : x y z
#
# Youngs Moduli (GPa) = 51.57383 83.53796 64.08321
#
# Poissons Ratio (x) = -0.14555 0.05757
# Poissons Ratio (y) = -0.08986 0.15854
# Poissons Ratio (z) = 0.04634 0.20667
#
# Static dielectric constant tensor:
#      x y z
#    x 1.870830 0.000000 0.000000 
#    y 0.000000 1.890280 0.000000 
#    z 0.000000 0.000000 1.846190 
# 
# From -- ./inp_files/2886.got.cif
#   From: 2010.05.17/outbox.cif.g08.bks.cpg/sg40_2_cif.got.tgz:2886.got - 2010.06.03 18:35:42.
