data_PCOD9362611
_publ_section_title
;
Structure prediction by ZEFSAII (Michael W. Deem and Ramdas Pophale) SiO2 
 PCOD9362611
Probable space group: A M A 2
;
_chemical_formula_sum "Si O2"
_cell_formula_units_Z 64
_cell_length_a 8.328508
_cell_length_b 25.813189
_cell_length_c 15.607875
_cell_angle_alpha 90.000000
_cell_angle_beta 90.000000
_cell_angle_gamma 90.000000
_cell_volume 3355.464487
_symmetry_space_group_name_H-M "A M A 2"
_symmetry_group_IT_number 40
_symmetry_cell_setting 'orthorhombic'
loop_
_space_group_symop_operation_xyz
x,y,z
-x,-y,z
1/2-x,y,z
1/2+x,-y,z
x,1/2+y,1/2+z
-x,1/2-y,1/2+z
1/2-x,1/2+y,1/2+z
1/2+x,1/2-y,1/2+z
loop_
_atom_site_type_symbol
_atom_site_label
_atom_site_fract_x
_atom_site_fract_y
_atom_site_fract_z
Si Si1 0.441193 0.852930 0.369080
Si Si2 0.941086 0.942953 0.492043
Si Si3 0.946316 0.637603 0.494413
Si Si4 0.940837 0.240341 0.898702
Si Si5 0.054750 0.835123 0.175813
Si Si6 0.944019 0.893814 0.667784
Si Si7 0.944205 0.280128 0.207790
Si Si8 0.442474 0.941190 0.847669
O O1 0.250000 0.857705 0.366834
O O2 0.510455 0.899601 0.423848
O O3 0.483989 0.796988 0.408916
O O4 0.501288 0.852052 0.270153
O O5 0.750000 0.944229 0.497196
O O6 0.004220 0.925624 0.585829
O O7 0.000000 0.000000 0.469384
O O8 0.750000 0.636815 0.493264
O O9 0.995836 0.694311 0.460551
O O10 0.998912 0.632854 0.593004
O O11 0.000713 0.594348 0.426935
O O12 0.750000 0.245841 0.908293
O O13 0.982481 0.221666 0.802704
O O14 0.250000 0.837205 0.177698
O O15 0.011625 0.774396 0.164670
O O16 0.750000 0.895318 0.667410
O O17 0.992662 0.833357 0.662580
O O18 0.000609 0.917249 0.757634
O O19 0.750000 0.280356 0.215978
O O20 0.250000 0.940316 0.848004
O O21 0.500000 0.000000 0.855517
#
# Coordination Sequence:
#
# PCOD9362611 Si02
#       8
#     8   8   8   8   8   8   8   8
#     4  10  21  38  59  83 113 150 190 238 287 336
#     4  11  24  41  61  84 111 148 193 241 290 344
#     4   9  18  32  54  82 112 146 188 232 279 333
#     4  10  18  31  54  83 115 149 186 228 276 334
#     4   8  16  32  55  80 111 149 185 224 275 336
#     4  10  21  36  57  85 115 150 186 229 283 341
#     4   9  17  31  53  80 113 148 185 223 273 334
#     4  11  22  37  56  81 112 151 191 234 282 333
#
# _framework density 19.073366
#
# number of rings (size 3 to 8) (size 9 to 14) (size 15 to 20)
#    0.000    2.250    1.250    2.625    1.750    2.000 
#    0.000    0.625    0.000   11.250    0.000    0.000 
#    0.000    0.000    0.000    0.000    0.000    0.000 
#
# Total GULP energy -178578.697167 kJ/mol
# GULP energy per Si atom -5580.584286 kJ/mol
# Density = 1.902995 g / cm^3
# Si number density = 19.073366 Si / 1000 Ang^3
#
#
#
# Elastic Constant Matrix: (Units=GPa)
#
#
# Indices 1 2 3 4 5 6 
#
# 1 19.0382 19.0177 11.3656 0.0000 0.0000 0.0000
# 2 19.0177 135.4311 79.6463 0.0000 0.0000 0.0000
# 3 11.3656 79.6463 112.9138 0.0000 0.0000 0.0000
# 4 0.0000 0.0000 0.0000 -5.8056 0.0000 0.0000
# 5 0.0000 0.0000 0.0000 0.0000 18.6995 0.0000
# 6 0.0000 0.0000 0.0000 0.0000 0.0000 24.1305
#
#
#
# Elastic Compliance Matrix: (Units=1/GPa)
#
#
# Indices 1 2 3 4 5 6 
#
# 1 0.061098 -0.008481 -0.000168 0.000000 0.000000 0.000000
# 2 -0.008481 0.013795 -0.008877 0.000000 0.000000 0.000000
# 3 -0.000168 -0.008877 0.015135 0.000000 0.000000 0.000000
# 4 0.000000 0.000000 0.000000 -0.172248 0.000000 0.000000
# 5 0.000000 0.000000 0.000000 0.000000 0.053477 0.000000
# 6 0.000000 0.000000 0.000000 0.000000 0.000000 0.041441
#
#
# Mechanical properties :
#
#
# Convention : Reuss Voigt Hill
#
# Bulk Modulus (GPa) = 18.18956 54.16026 36.17491
# Shear Modulus (GPa) = 75.66981 17.89510 46.78245
#
# Velocity S-wave (km/s) = 6.30549 3.06637 4.95791
# Velocity P-wave (km/s) = 7.91009 6.40267 7.19596
#
# Compressibility (1/GPa) = 0.05497660
#
# Stress axis : x y z
#
# Youngs Moduli (GPa) = 16.36711 72.48787 66.07222
#
# Poissons Ratio (x) = 0.61477 0.01108
# Poissons Ratio (y) = 0.13881 0.58654
# Poissons Ratio (z) = 0.00275 0.64349
#
# Static dielectric constant tensor:
#      x y z
#    x 1.658410 0.000000 0.000000 
#    y 0.000000 1.655730 0.000000 
#    z 0.000000 0.000000 1.679140 
# 
# From -- ./inp_files/15651.got.cif
#   From: 2010.05.17/outbox.cif.g08.bks.cpg/sg40_8_cif.got.tgz:15651.got - 2010.06.03 18:35:42.
