data_PCOD9362586
_publ_section_title
;
Structure prediction by ZEFSAII (Michael W. Deem and Ramdas Pophale) SiO2 
 PCOD9362586
Probable space group: A M A 2
;
_chemical_formula_sum "Si O2"
_cell_formula_units_Z 48
_cell_length_a 8.397683
_cell_length_b 13.963496
_cell_length_c 18.208191
_cell_angle_alpha 90.000000
_cell_angle_beta 90.000000
_cell_angle_gamma 90.000000
_cell_volume 2135.110921
_symmetry_space_group_name_H-M "A M A 2"
_symmetry_group_IT_number 40
_symmetry_cell_setting 'orthorhombic'
loop_
_space_group_symop_operation_xyz
x,y,z
-x,-y,z
1/2-x,y,z
1/2+x,-y,z
x,1/2+y,1/2+z
-x,1/2-y,1/2+z
1/2-x,1/2+y,1/2+z
1/2+x,1/2-y,1/2+z
loop_
_atom_site_type_symbol
_atom_site_label
_atom_site_fract_x
_atom_site_fract_y
_atom_site_fract_z
Si Si1 0.562323 0.307190 0.946720
Si Si2 0.568439 0.637147 0.096959
Si Si3 0.937211 0.161655 0.132865
Si Si4 0.934151 0.400374 0.250442
Si Si5 0.440186 0.096835 0.985257
Si Si6 0.558777 0.687408 0.792975
O O1 0.750000 0.298159 0.958183
O O2 0.487850 0.199429 0.950225
O O3 0.522585 0.348111 0.866761
O O4 0.491803 0.369600 0.013687
O O5 0.750000 0.604869 0.104494
O O6 0.552212 0.750188 0.113691
O O7 0.460842 0.597218 0.162365
O O8 0.750000 0.192056 0.132545
O O9 0.971984 0.132093 0.216432
O O10 0.967943 0.095719 0.063582
O O11 0.750000 0.397794 0.267735
O O12 0.998588 0.297656 0.277886
O O13 0.000000 0.500000 0.279548
O O14 0.250000 0.094708 0.993049
O O15 0.500000 0.000000 0.946195
O O16 0.750000 0.688355 0.804206
#
# Coordination Sequence:
#
# PCOD9362586 Si02
#       6
#     8   8   8   8   8   8
#     4  11  21  33  51  75 103 133 168 207 249 296
#     4  10  18  31  51  72  97 130 169 207 245 291
#     4   9  17  32  52  73  98 128 166 207 245 290
#     4  10  20  34  52  75 103 133 167 206 249 297
#     4  11  21  34  52  74 102 133 168 206 249 298
#     4   9  19  34  51  73 103 135 166 203 247 296
#
# _framework density 22.481266999999999
#
# number of rings (size 3 to 8) (size 9 to 14) (size 15 to 20)
#    0.000    2.000    0.000    8.500    0.000    4.667 
#    0.000    1.667    0.000    1.000    0.000    2.333 
#    0.000    0.000    0.000    0.000    0.000    0.000 
#
# Total GULP energy -133899.144701 kJ/mol
# GULP energy per Si atom -5579.131029 kJ/mol
# Density = 2.243010 g / cm^3
# Si number density = 22.481267 Si / 1000 Ang^3
#
#
#
# Elastic Constant Matrix: (Units=GPa)
#
#
# Indices 1 2 3 4 5 6 
#
# 1 85.6533 -15.0353 6.6100 0.0000 0.0000 0.0000
# 2 -15.0353 22.3308 -15.4928 0.0000 0.0000 0.0000
# 3 6.6100 -15.4928 150.0479 0.0000 0.0000 0.0000
# 4 0.0000 0.0000 0.0000 -2.1295 0.0000 0.0000
# 5 0.0000 0.0000 0.0000 0.0000 24.0918 0.0000
# 6 0.0000 0.0000 0.0000 0.0000 0.0000 31.9714
#
#
#
# Elastic Compliance Matrix: (Units=1/GPa)
#
#
# Indices 1 2 3 4 5 6 
#
# 1 0.013258 0.009179 0.000364 0.000000 0.000000 0.000000
# 2 0.009179 0.054592 0.005232 0.000000 0.000000 0.000000
# 3 0.000364 0.005232 0.007189 0.000000 0.000000 0.000000
# 4 0.000000 0.000000 0.000000 -0.469604 0.000000 0.000000
# 5 0.000000 0.000000 0.000000 0.000000 0.041508 0.000000
# 6 0.000000 0.000000 0.000000 0.000000 0.000000 0.031278
#
#
# Mechanical properties :
#
#
# Convention : Reuss Voigt Hill
#
# Bulk Modulus (GPa) = 9.56127 23.35509 16.45818
# Shear Modulus (GPa) = -15.79941 29.58342 6.89200
#
# Velocity S-wave (km/s) = -2.65388 3.63149 1.75280
# Velocity P-wave (km/s) = 2.26463 5.29102 3.38130
#
# Compressibility (1/GPa) = 0.10458858
#
# Stress axis : x y z
#
# Youngs Moduli (GPa) = 75.42526 18.31787 139.10582
#
# Poissons Ratio (x) = -0.16814 -0.05059
# Poissons Ratio (y) = -0.69233 -0.72785
# Poissons Ratio (z) = -0.02743 -0.09585
#
# Static dielectric constant tensor:
#      x y z
#    x 1.762140 0.000000 0.000000 
#    y 0.000000 1.910170 0.000000 
#    z 0.000000 0.000000 1.873420 
# 
# From -- ./inp_files/21997.got.cif
#   From: 2010.05.17/outbox.cif.g08.bks.cpg/sg40_11_cif.got.tgz:21997.got - 2010.06.03 18:35:42.
