data_PCOD9362595
_publ_section_title
;
Structure prediction by ZEFSAII (Michael W. Deem and Ramdas Pophale) SiO2 
 PCOD9362595
Probable space group: A M A 2
;
_chemical_formula_sum "Si O2"
_cell_formula_units_Z 48
_cell_length_a 8.616520
_cell_length_b 9.602924
_cell_length_c 31.968514
_cell_angle_alpha 90.000000
_cell_angle_beta 90.000000
_cell_angle_gamma 90.000000
_cell_volume 2645.195904
_symmetry_space_group_name_H-M "A M A 2"
_symmetry_group_IT_number 40
_symmetry_cell_setting 'orthorhombic'
loop_
_space_group_symop_operation_xyz
x,y,z
-x,-y,z
1/2-x,y,z
1/2+x,-y,z
x,1/2+y,1/2+z
-x,1/2-y,1/2+z
1/2-x,1/2+y,1/2+z
1/2+x,1/2-y,1/2+z
loop_
_atom_site_type_symbol
_atom_site_label
_atom_site_fract_x
_atom_site_fract_y
_atom_site_fract_z
Si Si1 0.937012 0.345151 0.705590
Si Si2 0.936497 0.842699 0.361864
Si Si3 0.064638 0.841701 0.449363
Si Si4 0.562673 0.155728 0.782395
Si Si5 0.935058 0.843107 0.536245
Si Si6 0.436648 0.155598 0.110288
O O1 0.750000 0.351917 0.707226
O O2 0.990447 0.236789 0.740645
O O3 0.980225 0.304961 0.658075
O O4 0.000000 0.500000 0.713994
O O5 0.750000 0.850026 0.364447
O O6 0.982237 0.746944 0.322823
O O7 0.002184 0.783107 0.405588
O O8 0.000000 0.000000 0.356226
O O9 0.250000 0.843446 0.449667
O O10 0.001160 0.780442 0.492734
O O11 0.000000 0.000000 0.449297
O O12 0.750000 0.150693 0.781614
O O13 0.500000 0.000000 0.784336
O O14 0.750000 0.848067 0.533852
O O15 0.991191 0.755943 0.575858
O O16 0.000000 0.000000 0.539991
O O17 0.250000 0.156843 0.106993
O O18 0.500000 0.000000 0.103654
#
# Coordination Sequence:
#
# PCOD9362595 Si02
#       6
#     8   8   8   8   8   8
#     4   9  19  36  57  80 105 137 178 220 260 310
#     4  10  19  33  54  79 105 136 177 219 261 311
#     4  10  18  31  52  78 106 137 176 219 264 312
#     4  10  22  37  53  77 109 141 174 215 263 314
#     4  11  21  35  55  80 110 143 180 222 269 317
#     4  10  20  36  56  80 110 142 179 221 267 318
#
# _framework density 18.146104000000001
#
# number of rings (size 3 to 8) (size 9 to 14) (size 15 to 20)
#    0.000    2.000    0.000    6.500    0.000    3.333 
#    0.000    2.500    0.000    2.000    0.000    0.000 
#    0.000    0.000    0.000    0.000    0.000    0.000 
#
# Total GULP energy -133960.792085 kJ/mol
# GULP energy per Si atom -5581.699670 kJ/mol
# Density = 1.810480 g / cm^3
# Si number density = 18.146104 Si / 1000 Ang^3
#
#
#
# Elastic Constant Matrix: (Units=GPa)
#
#
# Indices 1 2 3 4 5 6 
#
# 1 95.2745 36.1456 64.6165 0.0000 0.0000 0.0000
# 2 36.1456 87.8075 102.8961 0.0000 0.0000 0.0000
# 3 64.6165 102.8961 199.5104 0.0000 0.0000 0.0000
# 4 0.0000 0.0000 0.0000 26.6465 0.0000 0.0000
# 5 0.0000 0.0000 0.0000 0.0000 26.7388 0.0000
# 6 0.0000 0.0000 0.0000 0.0000 0.0000 30.0418
#
#
#
# Elastic Compliance Matrix: (Units=1/GPa)
#
#
# Indices 1 2 3 4 5 6 
#
# 1 0.013492 -0.001095 -0.003805 0.000000 0.000000 0.000000
# 2 -0.001095 0.028874 -0.014537 0.000000 0.000000 0.000000
# 3 -0.003805 -0.014537 0.013742 0.000000 0.000000 0.000000
# 4 0.000000 0.000000 0.000000 0.037528 0.000000 0.000000
# 5 0.000000 0.000000 0.000000 0.000000 0.037399 0.000000
# 6 0.000000 0.000000 0.000000 0.000000 0.000000 0.033287
#
#
# Mechanical properties :
#
#
# Convention : Reuss Voigt Hill
#
# Bulk Modulus (GPa) = 58.02464 87.76764 72.89614
# Shear Modulus (GPa) = 23.93012 28.61438 26.27225
#
# Velocity S-wave (km/s) = 3.63540 3.97531 3.80915
# Velocity P-wave (km/s) = 7.04750 8.33925 7.72044
#
# Compressibility (1/GPa) = 0.01723406
#
# Stress axis : x y z
#
# Youngs Moduli (GPa) = 74.11790 34.63264 72.76982
#
# Poissons Ratio (x) = 0.03793 0.27688
# Poissons Ratio (y) = 0.08118 1.05786
# Poissons Ratio (z) = 0.28201 0.50346
#
# Static dielectric constant tensor:
#      x y z
#    x 1.611660 0.000000 0.000000 
#    y 0.000000 1.604250 0.000000 
#    z 0.000000 0.000000 1.659460 
# 
# From -- ./inp_files/26154.got.cif
#   From: 2010.05.17/outbox.cif.g08.bks.cpg/sg40_14_cif.got.tgz:26154.got - 2010.06.03 18:35:42.
