data_PCOD9362584
_publ_section_title
;
Structure prediction by ZEFSAII (Michael W. Deem and Ramdas Pophale) SiO2 
 PCOD9362584
Probable space group: A M A 2
;
_chemical_formula_sum "Si O2"
_cell_formula_units_Z 64
_cell_length_a 8.652476
_cell_length_b 20.233383
_cell_length_c 21.237633
_cell_angle_alpha 90.000000
_cell_angle_beta 90.000000
_cell_angle_gamma 90.000000
_cell_volume 3718.048216
_symmetry_space_group_name_H-M "A M A 2"
_symmetry_group_IT_number 40
_symmetry_cell_setting 'orthorhombic'
loop_
_space_group_symop_operation_xyz
x,y,z
-x,-y,z
1/2-x,y,z
1/2+x,-y,z
x,1/2+y,1/2+z
-x,1/2-y,1/2+z
1/2-x,1/2+y,1/2+z
1/2+x,1/2-y,1/2+z
loop_
_atom_site_type_symbol
_atom_site_label
_atom_site_fract_x
_atom_site_fract_y
_atom_site_fract_z
Si Si1 0.935088 0.569066 0.076960
Si Si2 0.065146 0.070792 0.817975
Si Si3 0.936221 0.711779 0.127694
Si Si4 0.564902 0.206244 0.011453
Si Si5 0.561914 0.289336 0.888497
Si Si6 0.063097 0.793735 0.768184
Si Si7 0.064322 0.069434 0.435027
Si Si8 0.934726 0.429173 0.465781
O O1 0.750000 0.564503 0.073348
O O2 0.977385 0.635067 0.114605
O O3 0.000000 0.500000 0.103126
O O4 0.002165 0.576455 0.006383
O O5 0.250000 0.070263 0.813992
O O6 0.997299 0.132669 0.780964
O O7 0.020448 0.079192 0.891912
O O8 0.000000 0.000000 0.796939
O O9 0.750000 0.716705 0.122947
O O10 0.983609 0.729378 0.198653
O O11 0.008631 0.757113 0.073977
O O12 0.750000 0.204479 0.010506
O O13 0.500419 0.132596 0.003835
O O14 0.511998 0.248287 0.950144
O O15 0.750000 0.288363 0.888189
O O16 0.509170 0.253431 0.824956
O O17 0.515363 0.365500 0.896863
O O18 0.250000 0.795718 0.769741
O O19 0.250000 0.066767 0.437299
O O20 0.000000 0.000000 0.410102
O O21 0.750000 0.429868 0.469171
O O22 0.000000 0.500000 0.486509
#
# Coordination Sequence:
#
# PCOD9362584 Si02
#       8
#     8   8   8   8   8   8   8   8
#     4  10  19  31  47  71 101 136 173 209 252 304
#     4  10  20  33  51  77 108 143 179 219 263 316
#     4  10  22  36  52  76 107 143 179 220 268 319
#     4  11  20  34  57  81 106 140 179 225 269 316
#     4   9  18  32  54  78 101 134 176 218 265 314
#     4  10  20  37  55  74 105 143 182 221 267 322
#     4  10  18  31  50  77 103 131 167 210 261 308
#     4  10  20  34  54  82 112 140 176 222 270 322
#
# _framework density 17.213332000000001
#
# number of rings (size 3 to 8) (size 9 to 14) (size 15 to 20)
#    0.000    2.000    2.500    2.625    0.000    2.500 
#    0.000    2.500    0.000    0.750    0.000    1.750 
#    0.000    0.000    0.000    0.000    0.000    0.000 
#
# Total GULP energy -178615.558350 kJ/mol
# GULP energy per Si atom -5581.736198 kJ/mol
# Density = 1.717415 g / cm^3
# Si number density = 17.213332 Si / 1000 Ang^3
#
#
#
# Elastic Constant Matrix: (Units=GPa)
#
#
# Indices 1 2 3 4 5 6 
#
# 1 31.7026 33.0079 29.6883 0.0000 0.0000 0.0000
# 2 33.0079 142.4401 75.5594 0.0000 0.0000 0.0000
# 3 29.6883 75.5594 114.4385 0.0000 0.0000 0.0000
# 4 0.0000 0.0000 0.0000 22.5998 0.0000 0.0000
# 5 0.0000 0.0000 0.0000 0.0000 16.5518 0.0000
# 6 0.0000 0.0000 0.0000 0.0000 0.0000 26.7513
#
#
#
# Elastic Compliance Matrix: (Units=1/GPa)
#
#
# Indices 1 2 3 4 5 6 
#
# 1 0.045333 -0.006566 -0.007425 0.000000 0.000000 0.000000
# 2 -0.006566 0.011756 -0.006059 0.000000 0.000000 0.000000
# 3 -0.007425 -0.006059 0.014665 0.000000 0.000000 0.000000
# 4 0.000000 0.000000 0.000000 0.044248 0.000000 0.000000
# 5 0.000000 0.000000 0.000000 0.000000 0.060416 0.000000
# 6 0.000000 0.000000 0.000000 0.000000 0.000000 0.037381
#
#
# Mechanical properties :
#
#
# Convention : Reuss Voigt Hill
#
# Bulk Modulus (GPa) = 31.59158 62.78805 47.18981
# Shear Modulus (GPa) = 18.90707 23.20228 21.05467
#
# Velocity S-wave (km/s) = 3.31780 3.67539 3.50117
# Velocity P-wave (km/s) = 5.75064 7.38694 6.61955
#
# Compressibility (1/GPa) = 0.03165400
#
# Stress axis : x y z
#
# Youngs Moduli (GPa) = 22.05887 85.06301 68.19066
#
# Poissons Ratio (x) = 0.55856 0.50632
# Poissons Ratio (y) = 0.14485 0.41314
# Poissons Ratio (z) = 0.16379 0.51536
#
# Static dielectric constant tensor:
#      x y z
#    x 1.580120 0.000000 0.000000 
#    y 0.000000 1.579130 0.000000 
#    z 0.000000 0.000000 1.577580 
# 
# From -- ./inp_files/19568.got.cif
#   From: 2010.05.17/outbox.cif.g08.bks.cpg/sg40_10_cif.got.tgz:19568.got - 2010.06.03 18:35:42.
