data_PCOD9362373
_publ_section_title
;
Structure prediction by ZEFSAII (Michael W. Deem and Ramdas Pophale) SiO2 
 PCOD9362373
Probable space group: A M A 2
;
_chemical_formula_sum "Si O2"
_cell_formula_units_Z 64
_cell_length_a 8.952421
_cell_length_b 18.644797
_cell_length_c 27.373726
_cell_angle_alpha 90.000000
_cell_angle_beta 90.000000
_cell_angle_gamma 90.000000
_cell_volume 4569.114825
_symmetry_space_group_name_H-M "A M A 2"
_symmetry_group_IT_number 40
_symmetry_cell_setting 'orthorhombic'
loop_
_space_group_symop_operation_xyz
x,y,z
-x,-y,z
1/2-x,y,z
1/2+x,-y,z
x,1/2+y,1/2+z
-x,1/2-y,1/2+z
1/2-x,1/2+y,1/2+z
1/2+x,1/2-y,1/2+z
loop_
_atom_site_type_symbol
_atom_site_label
_atom_site_fract_x
_atom_site_fract_y
_atom_site_fract_z
Si Si1 0.929698 0.826198 0.448360
Si Si2 0.069884 0.577447 0.858067
Si Si3 0.431117 0.663227 0.651652
Si Si4 0.577738 0.299388 0.502265
Si Si5 0.927295 0.922259 0.542847
Si Si6 0.070603 0.077013 0.246503
Si Si7 0.571167 0.078352 0.060715
Si Si8 0.921591 0.198970 0.599273
O O1 0.750000 0.816716 0.449156
O O2 0.974507 0.863095 0.397584
O O3 0.967810 0.881884 0.492085
O O4 0.007024 0.750918 0.460805
O O5 0.250000 0.571001 0.860288
O O6 0.027126 0.595571 0.802180
O O7 0.000000 0.500000 0.869928
O O8 0.250000 0.658277 0.644982
O O9 0.470166 0.634120 0.705072
O O10 0.508770 0.613933 0.610753
O O11 0.472128 0.746032 0.641307
O O12 0.750000 0.317552 0.492165
O O13 0.484285 0.369167 0.517370
O O14 0.575673 0.249361 0.550911
O O15 0.750000 0.929136 0.544087
O O16 0.982045 0.869981 0.586086
O O17 0.000000 0.000000 0.545088
O O18 0.250000 0.069774 0.245635
O O19 0.000000 0.000000 0.234520
O O20 0.750000 0.074834 0.062202
O O21 0.500000 0.000000 0.055582
O O22 0.750000 0.177475 0.607869
#
# Coordination Sequence:
#
# PCOD9362373 Si02
#       8
#     8   8   8   8   8   8   8   8
#     4   9  17  28  41  58  80 108 139 168 200 238
#     4   9  17  28  41  58  82 110 141 175 207 239
#     4   9  17  29  43  59  80 108 141 172 205 243
#     4   9  17  29  43  59  79 104 134 167 202 239
#     4  10  18  26  38  56  78 103 132 163 195 234
#     4   9  17  28  41  58  81 109 140 174 207 238
#     4  11  20  29  42  60  83 109 137 168 202 241
#     4   8  15  27  40  54  75 101 129 163 199 236
#
# _framework density 14.007089000000001
#
# number of rings (size 3 to 8) (size 9 to 14) (size 15 to 20)
#    0.000    2.750    0.000    3.375    0.000    5.500 
#    0.000    0.000    0.000    0.000    0.000    0.000 
#    0.000    1.000    0.000    5.500    0.000    2.875 
#
# Total GULP energy -178248.705606 kJ/mol
# GULP energy per Si atom -5570.272050 kJ/mol
# Density = 1.397521 g / cm^3
# Si number density = 14.007089 Si / 1000 Ang^3
#
#
#
# Elastic Constant Matrix: (Units=GPa)
#
#
# Indices 1 2 3 4 5 6 
#
# 1 47.0016 44.9369 25.2369 0.0000 0.0000 0.0000
# 2 44.9369 93.1599 45.0588 0.0000 0.0000 0.0000
# 3 25.2369 45.0588 74.8247 0.0000 0.0000 0.0000
# 4 0.0000 0.0000 0.0000 27.2567 0.0000 0.0000
# 5 0.0000 0.0000 0.0000 0.0000 14.1062 0.0000
# 6 0.0000 0.0000 0.0000 0.0000 0.0000 24.3120
#
#
#
# Elastic Compliance Matrix: (Units=1/GPa)
#
#
# Indices 1 2 3 4 5 6 
#
# 1 0.039850 -0.017949 -0.002632 0.000000 0.000000 0.000000
# 2 -0.017949 0.023230 -0.007935 0.000000 0.000000 0.000000
# 3 -0.002632 -0.007935 0.019031 0.000000 0.000000 0.000000
# 4 0.000000 0.000000 0.000000 0.036688 0.000000 0.000000
# 5 0.000000 0.000000 0.000000 0.000000 0.070891 0.000000
# 6 0.000000 0.000000 0.000000 0.000000 0.000000 0.041132
#
#
# Mechanical properties :
#
#
# Convention : Reuss Voigt Hill
#
# Bulk Modulus (GPa) = 39.87467 49.49460 44.68463
# Shear Modulus (GPa) = 16.87973 19.78520 18.33246
#
# Velocity S-wave (km/s) = 3.47520 3.76242 3.62166
# Velocity P-wave (km/s) = 6.68072 7.36794 7.03273
#
# Compressibility (1/GPa) = 0.02507858
#
# Stress axis : x y z
#
# Youngs Moduli (GPa) = 25.09436 43.04733 52.54671
#
# Poissons Ratio (x) = 0.77266 0.13829
# Poissons Ratio (y) = 0.45042 0.41697
# Poissons Ratio (z) = 0.06604 0.34159
#
# Static dielectric constant tensor:
#      x y z
#    x 1.470170 0.000000 0.000000 
#    y 0.000000 1.446810 0.000000 
#    z 0.000000 0.000000 1.464160 
# 
# From -- ./inp_files/25543.got.cif
#   From: 2010.05.17/outbox.cif.g08.bks.cpg/sg40_13_cif.got.tgz:25543.got - 2010.06.03 18:35:42.
