data_PCOD9362401
_publ_section_title
;
Structure prediction by ZEFSAII (Michael W. Deem and Ramdas Pophale) SiO2 
 PCOD9362401
Probable space group: A M A 2
;
_chemical_formula_sum "Si O2"
_cell_formula_units_Z 64
_cell_length_a 8.668052
_cell_length_b 27.165048
_cell_length_c 19.016468
_cell_angle_alpha 90.000000
_cell_angle_beta 90.000000
_cell_angle_gamma 90.000000
_cell_volume 4477.770612
_symmetry_space_group_name_H-M "A M A 2"
_symmetry_group_IT_number 40
_symmetry_cell_setting 'orthorhombic'
loop_
_space_group_symop_operation_xyz
x,y,z
-x,-y,z
1/2-x,y,z
1/2+x,-y,z
x,1/2+y,1/2+z
-x,1/2-y,1/2+z
1/2-x,1/2+y,1/2+z
1/2+x,1/2-y,1/2+z
loop_
_atom_site_type_symbol
_atom_site_label
_atom_site_fract_x
_atom_site_fract_y
_atom_site_fract_z
Si Si1 0.065507 0.759119 0.264550
Si Si2 0.571678 0.803810 0.052739
Si Si3 0.565453 0.349442 0.011257
Si Si4 0.562617 0.243466 0.426847
Si Si5 0.434514 0.446206 0.772127
Si Si6 0.064588 0.053385 0.427874
Si Si7 0.063560 0.644823 0.687552
Si Si8 0.927685 0.201465 0.641329
O O1 0.250000 0.764797 0.260813
O O2 0.020630 0.751106 0.345552
O O3 0.988516 0.809086 0.235503
O O4 0.013943 0.715086 0.213082
O O5 0.750000 0.817909 0.040912
O O6 0.506300 0.843067 0.108039
O O7 0.570097 0.752539 0.096546
O O8 0.505097 0.787793 0.977523
O O9 0.750000 0.345232 0.011552
O O10 0.503055 0.337927 0.089140
O O11 0.498945 0.307464 0.959378
O O12 0.523059 0.402856 0.981020
O O13 0.750000 0.242257 0.431886
O O14 0.500000 0.500000 0.753513
O O15 0.250000 0.447267 0.773107
O O16 0.496132 0.435151 0.850795
O O17 0.495711 0.404573 0.719897
O O18 0.250000 0.050789 0.422056
O O19 0.000000 0.000000 0.448867
O O20 0.250000 0.643242 0.687104
O O21 0.750000 0.189311 0.655232
#
# Coordination Sequence:
#
# PCOD9362401 Si02
#       8
#     8   8   8   8   8   8   8   8
#     4  10  18  27  42  64  88 113 144 178 208 246
#     4   7  13  26  41  56  76 105 138 168 199 240
#     4  10  19  29  43  62  83 109 143 179 211 248
#     4   9  17  28  42  61  85 114 143 170 206 250
#     4  11  21  32  45  61  83 110 142 179 215 251
#     4  10  20  32  45  62  84 110 141 177 214 251
#     4  10  18  29  44  60  82 113 146 176 210 252
#     4   9  17  29  43  58  81 112 142 173 211 252
#
# _framework density 14.292827000000001
#
# number of rings (size 3 to 8) (size 9 to 14) (size 15 to 20)
#    0.000    2.500    0.000    6.000    0.000    5.000 
#    0.000    0.625    0.000    0.000    0.000    0.000 
#    0.000    1.000    0.000    6.250    0.000    3.875 
#
# Total GULP energy -178266.867189 kJ/mol
# GULP energy per Si atom -5570.839600 kJ/mol
# Density = 1.426030 g / cm^3
# Si number density = 14.292827 Si / 1000 Ang^3
#
#
#
# Elastic Constant Matrix: (Units=GPa)
#
#
# Indices 1 2 3 4 5 6 
#
# 1 55.0633 32.2518 33.5978 0.0000 0.0000 0.0000
# 2 32.2518 90.3541 60.9818 0.0000 0.0000 0.0000
# 3 33.5978 60.9818 111.6638 0.0000 0.0000 0.0000
# 4 0.0000 0.0000 0.0000 28.2214 0.0000 0.0000
# 5 0.0000 0.0000 0.0000 0.0000 19.4452 0.0000
# 6 0.0000 0.0000 0.0000 0.0000 0.0000 20.8138
#
#
#
# Elastic Compliance Matrix: (Units=1/GPa)
#
#
# Indices 1 2 3 4 5 6 
#
# 1 0.024058 -0.005863 -0.004037 0.000000 0.000000 0.000000
# 2 -0.005863 0.018957 -0.008589 0.000000 0.000000 0.000000
# 3 -0.004037 -0.008589 0.014861 0.000000 0.000000 0.000000
# 4 0.000000 0.000000 0.000000 0.035434 0.000000 0.000000
# 5 0.000000 0.000000 0.000000 0.000000 0.051427 0.000000
# 6 0.000000 0.000000 0.000000 0.000000 0.000000 0.048045
#
#
# Mechanical properties :
#
#
# Convention : Reuss Voigt Hill
#
# Bulk Modulus (GPa) = 47.84997 56.74932 52.29965
# Shear Modulus (GPa) = 21.12156 22.37939 21.75048
#
# Velocity S-wave (km/s) = 3.84835 3.96128 3.90523
# Velocity P-wave (km/s) = 7.30051 7.79187 7.55019
#
# Compressibility (1/GPa) = 0.02089865
#
# Stress axis : x y z
#
# Youngs Moduli (GPa) = 41.56601 52.75072 67.29230
#
# Poissons Ratio (x) = 0.30928 0.27164
# Poissons Ratio (y) = 0.24370 0.57796
# Poissons Ratio (z) = 0.16779 0.45306
#
# Static dielectric constant tensor:
#      x y z
#    x 1.487380 0.000000 0.000000 
#    y 0.000000 1.455110 0.000000 
#    z 0.000000 0.000000 1.486440 
# 
# From -- ./inp_files/19780.got.cif
#   From: 2010.05.17/outbox.cif.g08.bks.cpg/sg40_10_cif.got.tgz:19780.got - 2010.06.03 18:35:42.
