data_PCOD9362670
_publ_section_title
;
Structure prediction by ZEFSAII (Michael W. Deem and Ramdas Pophale) SiO2 
 PCOD9362670
Probable space group: A M A 2
;
_chemical_formula_sum "Si O2"
_cell_formula_units_Z 32
_cell_length_a 5.486398
_cell_length_b 35.210801
_cell_length_c 6.982392
_cell_angle_alpha 90.000000
_cell_angle_beta 90.000000
_cell_angle_gamma 90.000000
_cell_volume 1348.861756
_symmetry_space_group_name_H-M "A M A 2"
_symmetry_group_IT_number 40
_symmetry_cell_setting 'orthorhombic'
loop_
_space_group_symop_operation_xyz
x,y,z
-x,-y,z
1/2-x,y,z
1/2+x,-y,z
x,1/2+y,1/2+z
-x,1/2-y,1/2+z
1/2-x,1/2+y,1/2+z
1/2+x,1/2-y,1/2+z
loop_
_atom_site_type_symbol
_atom_site_label
_atom_site_fract_x
_atom_site_fract_y
_atom_site_fract_z
Si Si1 0.250000 0.780928 0.586061
Si Si2 0.750000 0.988827 0.737142
Si Si3 0.750000 0.173447 0.202992
Si Si4 0.750000 0.907777 0.639720
Si Si5 0.750000 0.808353 0.160549
Si Si6 0.250000 0.179231 0.620576
Si Si7 0.750000 0.592489 0.901487
Si Si8 0.750000 0.020103 0.156075
O O1 0.250000 0.791727 0.357964
O O2 0.250000 0.736548 0.629746
O O3 0.500063 0.798841 0.665730
O O4 0.750000 0.943860 0.782124
O O5 0.500000 0.000000 0.634303
O O6 0.750000 0.014727 0.926676
O O7 0.503170 0.175694 0.084664
O O8 0.750000 0.135309 0.325502
O O9 0.750000 0.863656 0.698071
O O10 0.499456 0.912700 0.520090
O O11 0.750000 0.820943 0.385388
O O12 0.750000 0.562847 0.728435
O O13 0.500000 0.000000 0.218585
#
# Coordination Sequence:
#
# PCOD9362670 Si02
#       8
#     4   4   4   4   4   4   4   4
#     4  10  18  32  56  79 118 150 182 246 301 348
#     4  10  23  42  62  87 127 166 201 253 327 382
#     4  10  19  35  52  87 113 146 202 243 301 345
#     4  12  21  37  65  93 122 157 213 273 303 364
#     4  10  18  32  56  79 118 150 182 246 301 348
#     4  10  19  35  52  87 113 146 202 243 301 345
#     4  12  21  37  65  93 122 157 213 273 303 364
#     4  10  23  42  62  87 127 166 201 253 327 382
#
# _framework density 23.723707000000001
#
# number of rings (size 3 to 8) (size 9 to 14) (size 15 to 20)
#    0.000    1.500    5.000    2.250    0.000    3.000 
#    0.000    0.000    0.000   36.000    0.000    0.000 
#    0.000    0.000    0.000    0.000    0.000    0.000 
#
# Total GULP energy -89429.000307 kJ/mol
# GULP energy per Si atom -5589.312519 kJ/mol
# Density = 2.366971 g / cm^3
# Si number density = 23.723707 Si / 1000 Ang^3
#
#
#
# Elastic Constant Matrix: (Units=GPa)
#
#
# Indices 1 2 3 4 5 6 
#
# 1 261.7628 28.8718 11.1607 0.0000 0.0000 0.0000
# 2 28.8718 99.1220 2.3277 0.0000 0.0000 0.0000
# 3 11.1607 2.3277 78.9378 0.0000 0.0000 0.0000
# 4 0.0000 0.0000 0.0000 31.6479 0.0000 0.0000
# 5 0.0000 0.0000 0.0000 0.0000 -13.8627 0.0000
# 6 0.0000 0.0000 0.0000 0.0000 0.0000 1.3927
#
#
#
# Elastic Compliance Matrix: (Units=1/GPa)
#
#
# Indices 1 2 3 4 5 6 
#
# 1 0.003969 -0.001144 -0.000527 0.000000 0.000000 0.000000
# 2 -0.001144 0.010425 -0.000146 0.000000 0.000000 0.000000
# 3 -0.000527 -0.000146 0.012747 0.000000 0.000000 0.000000
# 4 0.000000 0.000000 0.000000 0.031598 0.000000 0.000000
# 5 0.000000 0.000000 0.000000 0.000000 -0.072136 0.000000
# 6 0.000000 0.000000 0.000000 0.000000 0.000000 0.718035
#
#
# Mechanical properties :
#
#
# Convention : Reuss Voigt Hill
#
# Bulk Modulus (GPa) = 42.53961 58.28254 50.41107
# Shear Modulus (GPa) = 6.98220 30.33307 18.65763
#
# Velocity S-wave (km/s) = 1.71742 3.57963 2.80742
# Velocity P-wave (km/s) = 4.68005 6.45798 5.63952
#
# Compressibility (1/GPa) = 0.02350750
#
# Stress axis : x y z
#
# Youngs Moduli (GPa) = 251.96015 95.92219 78.44937
#
# Poissons Ratio (x) = 0.10970 0.04138
# Poissons Ratio (y) = 0.28815 0.01143
# Poissons Ratio (z) = 0.13289 0.01398
#
# Static dielectric constant tensor:
#      x y z
#    x 1.975360 0.000000 0.000000 
#    y 0.000000 1.832550 0.000000 
#    z 0.000000 0.000000 1.896730 
# 
# From -- ./inp_files/3705.got.cif
#   From: 2010.05.17/outbox.cif.g08.bks.cpg/sg40_2_cif.got.tgz:3705.got - 2010.06.03 18:35:42.
