data_PCOD9362877
_publ_section_title
;
Structure prediction by ZEFSAII (Michael W. Deem and Ramdas Pophale) SiO2 
 PCOD9362877
Probable space group: A M A 2
;
_chemical_formula_sum "Si O2"
_cell_formula_units_Z 56
_cell_length_a 8.655161
_cell_length_b 18.925192
_cell_length_c 21.387795
_cell_angle_alpha 90.000000
_cell_angle_beta 90.000000
_cell_angle_gamma 90.000000
_cell_volume 3503.333305
_symmetry_space_group_name_H-M "A M A 2"
_symmetry_group_IT_number 40
_symmetry_cell_setting 'orthorhombic'
loop_
_space_group_symop_operation_xyz
x,y,z
-x,-y,z
1/2-x,y,z
1/2+x,-y,z
x,1/2+y,1/2+z
-x,1/2-y,1/2+z
1/2-x,1/2+y,1/2+z
1/2+x,1/2-y,1/2+z
loop_
_atom_site_type_symbol
_atom_site_label
_atom_site_fract_x
_atom_site_fract_y
_atom_site_fract_z
Si Si1 0.064468 0.218043 0.448140
Si Si2 0.065233 0.154680 0.884991
Si Si3 0.065944 0.421954 0.509230
Si Si4 0.565768 0.793236 0.071982
Si Si5 0.936159 0.653255 0.132501
Si Si6 0.433987 0.577307 0.008999
Si Si7 0.436179 0.920675 0.762191
O O1 0.250000 0.227041 0.452350
O O2 0.028746 0.135123 0.455207
O O3 0.000432 0.265666 0.392187
O O4 0.983819 0.252599 0.508724
O O5 0.250000 0.155324 0.887272
O O6 0.004787 0.118476 0.822315
O O7 0.002698 0.110226 0.944675
O O8 0.250000 0.423412 0.503994
O O9 0.000000 0.500000 0.518478
O O10 0.015727 0.368557 0.564623
O O11 0.750000 0.803546 0.073117
O O12 0.520709 0.736060 0.124681
O O13 0.750000 0.649804 0.127009
O O14 0.980847 0.619740 0.198443
O O15 0.004407 0.608815 0.074685
O O16 0.500000 0.500000 0.997595
O O17 0.250000 0.573060 0.013637
O O18 0.250000 0.921972 0.766482
O O19 0.500000 0.000000 0.759931
#
# Coordination Sequence:
#
# PCOD9362877 Si02
#       7
#     8   8   8   8   8   8   8
#     4   9  17  30  46  66  90 120 153 188 229 275
#     4  11  21  33  48  67  91 123 157 193 231 273
#     4  11  20  31  47  69  95 123 152 189 232 276
#     4   9  16  29  47  68  91 118 151 188 229 275
#     4   9  19  33  49  67  93 126 158 190 227 269
#     4  10  19  29  46  70  97 124 153 189 231 273
#     4  11  22  35  48  67  94 126 160 193 225 265
#
# _framework density 15.984776999999999
#
# number of rings (size 3 to 8) (size 9 to 14) (size 15 to 20)
#    0.000    2.000    0.000    6.857    0.000    4.571 
#    0.000    0.000    0.000    0.000    0.000    1.000 
#    0.000    4.571    0.000    0.000    0.000    0.000 
#
# Total GULP energy -156114.951455 kJ/mol
# GULP energy per Si atom -5575.533981 kJ/mol
# Density = 1.594839 g / cm^3
# Si number density = 15.984777 Si / 1000 Ang^3
#
#
#
# Elastic Constant Matrix: (Units=GPa)
#
#
# Indices 1 2 3 4 5 6 
#
# 1 78.5168 53.9340 31.6085 0.0000 0.0000 0.0000
# 2 53.9340 169.3885 67.9697 0.0000 0.0000 0.0000
# 3 31.6085 67.9697 74.0037 0.0000 0.0000 0.0000
# 4 0.0000 0.0000 0.0000 24.4479 0.0000 0.0000
# 5 0.0000 0.0000 0.0000 0.0000 14.1798 0.0000
# 6 0.0000 0.0000 0.0000 0.0000 0.0000 27.2270
#
#
#
# Elastic Compliance Matrix: (Units=1/GPa)
#
#
# Indices 1 2 3 4 5 6 
#
# 1 0.016887 -0.003932 -0.003602 0.000000 0.000000 0.000000
# 2 -0.003932 0.010265 -0.007748 0.000000 0.000000 0.000000
# 3 -0.003602 -0.007748 0.022168 0.000000 0.000000 0.000000
# 4 0.000000 0.000000 0.000000 0.040903 0.000000 0.000000
# 5 0.000000 0.000000 0.000000 0.000000 0.070523 0.000000
# 6 0.000000 0.000000 0.000000 0.000000 0.000000 0.036728
#
#
# Mechanical properties :
#
#
# Convention : Reuss Voigt Hill
#
# Bulk Modulus (GPa) = 53.31671 69.88149 61.59910
# Shear Modulus (GPa) = 21.34120 24.39739 22.86929
#
# Velocity S-wave (km/s) = 3.65786 3.91101 3.78655
# Velocity P-wave (km/s) = 7.16010 8.01294 7.59849
#
# Compressibility (1/GPa) = 0.01875585
#
# Stress axis : x y z
#
# Youngs Moduli (GPa) = 59.21827 97.42239 45.11047
#
# Poissons Ratio (x) = 0.38302 0.16247
# Poissons Ratio (y) = 0.23282 0.34953
# Poissons Ratio (z) = 0.21328 0.75487
#
# Static dielectric constant tensor:
#      x y z
#    x 1.534890 0.000000 0.000000 
#    y 0.000000 1.570380 0.000000 
#    z 0.000000 0.000000 1.521820 
# 
# From -- ./inp_files/22324.got.cif
#   From: 2010.05.17/outbox.cif.g08.bks.cpg/sg40_12_cif.got.tgz:22324.got - 2010.06.03 18:35:42.
