data_PCOD9362821
_publ_section_title
;
Structure prediction by ZEFSAII (Michael W. Deem and Ramdas Pophale) SiO2 
 PCOD9362821
Probable space group: A M A 2
;
_chemical_formula_sum "Si O2"
_cell_formula_units_Z 64
_cell_length_a 17.580688
_cell_length_b 30.714105
_cell_length_c 6.339630
_cell_angle_alpha 90.000000
_cell_angle_beta 90.000000
_cell_angle_gamma 90.000000
_cell_volume 3423.242325
_symmetry_space_group_name_H-M "A M A 2"
_symmetry_group_IT_number 40
_symmetry_cell_setting 'orthorhombic'
loop_
_space_group_symop_operation_xyz
x,y,z
-x,-y,z
1/2-x,y,z
1/2+x,-y,z
x,1/2+y,1/2+z
-x,1/2-y,1/2+z
1/2-x,1/2+y,1/2+z
1/2+x,1/2-y,1/2+z
loop_
_atom_site_type_symbol
_atom_site_label
_atom_site_fract_x
_atom_site_fract_y
_atom_site_fract_z
Si Si1 0.432316 0.111981 0.339430
Si Si2 0.019626 0.949867 0.032909
Si Si3 0.068949 0.393235 0.145250
Si Si4 0.835789 0.338716 0.130479
Si Si5 0.111939 0.825441 0.992486
Si Si6 0.339070 0.907808 0.257100
Si Si7 0.564207 0.809778 0.022186
Si Si8 0.331571 0.740308 0.798214
O O1 0.458599 0.070765 0.198827
O O2 0.506619 0.122996 0.478446
O O3 0.364481 0.117692 0.508417
O O4 0.417614 0.148851 0.168028
O O5 0.102869 0.939241 0.131245
O O6 0.025064 0.925110 0.808097
O O7 0.000000 0.000000 0.005491
O O8 0.104030 0.355608 0.286592
O O9 0.135625 0.412601 0.000362
O O10 0.750000 0.344302 0.215970
O O11 0.896563 0.322383 0.302471
O O12 0.833549 0.299933 0.959657
O O13 0.160972 0.783910 0.933396
O O14 0.141720 0.858612 0.172099
O O15 0.026588 0.807702 0.027375
O O16 0.250000 0.916099 0.224479
O O17 0.602371 0.767652 0.128194
O O18 0.250000 0.739705 0.685850
#
# Coordination Sequence:
#
# PCOD9362821 Si02
#       8
#     8   8   8   8   8   8   8   8
#     4  10  18  38  59  84 113 148 200 238 290 355
#     4  10  21  38  64  92 120 155 195 245 297 368
#     4  10  19  36  59  89 115 152 198 239 297 360
#     4  10  21  37  57  80 116 157 201 249 300 352
#     4  11  21  36  59  86 116 159 204 251 297 362
#     4  10  22  40  63  90 124 157 196 247 304 365
#     4  11  20  35  58  82 114 154 205 248 295 349
#     4  10  24  36  50  79 119 158 200 252 303 351
#
# _framework density 18.695723999999998
#
# number of rings (size 3 to 8) (size 9 to 14) (size 15 to 20)
#    0.000    1.750    5.000    0.750    1.750    6.000 
#    0.000    0.625    0.000    0.750    0.000    0.000 
#    0.000    0.000    0.000    0.000    0.000    0.000 
#
# Total GULP energy -178200.407673 kJ/mol
# GULP energy per Si atom -5568.762740 kJ/mol
# Density = 1.865317 g / cm^3
# Si number density = 18.695724 Si / 1000 Ang^3
#
#
#
# Elastic Constant Matrix: (Units=GPa)
#
#
# Indices 1 2 3 4 5 6 
#
# 1 83.3859 35.5017 10.7674 0.0000 0.0000 0.0000
# 2 35.5017 54.6640 23.1916 0.0000 0.0000 0.0000
# 3 10.7674 23.1916 64.9444 0.0000 0.0000 0.0000
# 4 0.0000 0.0000 0.0000 1.3230 0.0000 0.0000
# 5 0.0000 0.0000 0.0000 0.0000 10.7405 0.0000
# 6 0.0000 0.0000 0.0000 0.0000 0.0000 12.0248
#
#
#
# Elastic Compliance Matrix: (Units=1/GPa)
#
#
# Indices 1 2 3 4 5 6 
#
# 1 0.016668 -0.011376 0.001299 0.000000 0.000000 0.000000
# 2 -0.011376 0.029325 -0.008586 0.000000 0.000000 0.000000
# 3 0.001299 -0.008586 0.018248 0.000000 0.000000 0.000000
# 4 0.000000 0.000000 0.000000 0.755837 0.000000 0.000000
# 5 0.000000 0.000000 0.000000 0.000000 0.093105 0.000000
# 6 0.000000 0.000000 0.000000 0.000000 0.000000 0.083162
#
#
# Mechanical properties :
#
#
# Convention : Reuss Voigt Hill
#
# Bulk Modulus (GPa) = 37.15387 37.99064 37.57226
# Shear Modulus (GPa) = 4.79550 13.71989 9.25770
#
# Velocity S-wave (km/s) = 1.60331 2.71191 2.22767
# Velocity P-wave (km/s) = 4.83151 5.49277 5.17272
#
# Compressibility (1/GPa) = 0.02691510
#
# Stress axis : x y z
#
# Youngs Moduli (GPa) = 59.99443 34.10114 54.79951
#
# Poissons Ratio (x) = 0.38795 -0.07118
# Poissons Ratio (y) = 0.68252 0.47049
# Poissons Ratio (z) = -0.07793 0.29278
#
# Static dielectric constant tensor:
#      x y z
#    x 1.706270 0.000000 0.000000 
#    y 0.000000 1.633250 0.000000 
#    z 0.000000 0.000000 1.675580 
# 
# From -- ./inp_files/2018.got.cif
#   From: 2010.05.17/outbox.cif.g08.bks.cpg/sg40_2_cif.got.tgz:2018.got - 2010.06.03 18:35:42.
