data_PCOD9362247
_publ_section_title
;
Structure prediction by ZEFSAII (Michael W. Deem and Ramdas Pophale) SiO2 
 PCOD9362247
Probable space group: A M A 2
;
_chemical_formula_sum "Si O2"
_cell_formula_units_Z 48
_cell_length_a 8.580562
_cell_length_b 7.649435
_cell_length_c 33.507500
_cell_angle_alpha 90.000000
_cell_angle_beta 90.000000
_cell_angle_gamma 90.000000
_cell_volume 2199.313391
_symmetry_space_group_name_H-M "A M A 2"
_symmetry_group_IT_number 40
_symmetry_cell_setting 'orthorhombic'
loop_
_space_group_symop_operation_xyz
x,y,z
-x,-y,z
1/2-x,y,z
1/2+x,-y,z
x,1/2+y,1/2+z
-x,1/2-y,1/2+z
1/2-x,1/2+y,1/2+z
1/2+x,1/2-y,1/2+z
loop_
_atom_site_type_symbol
_atom_site_label
_atom_site_fract_x
_atom_site_fract_y
_atom_site_fract_z
Si Si1 0.064403 0.194755 0.841020
Si Si2 0.064277 0.200320 0.091447
Si Si3 0.562971 0.699970 0.509377
Si Si4 0.563060 0.200112 0.922259
Si Si5 0.564109 0.200678 0.173760
Si Si6 0.935700 0.804823 0.255291
O O1 0.250000 0.201655 0.839269
O O2 0.007288 0.284097 0.882141
O O3 0.995426 0.248976 0.798558
O O4 0.000000 0.000000 0.845251
O O5 0.250000 0.196134 0.093459
O O6 0.009052 0.280673 0.049445
O O7 0.996418 0.280259 0.132219
O O8 0.000000 0.000000 0.090515
O O9 0.500000 0.500000 0.508202
O O10 0.750000 0.695704 0.513149
O O11 0.522929 0.777980 0.465816
O O12 0.750000 0.194920 0.918400
O O13 0.500000 0.000000 0.924260
O O14 0.750000 0.196107 0.174315
O O15 0.502061 0.283421 0.215028
O O16 0.500000 0.000000 0.172942
O O17 0.750000 0.797903 0.254190
O O18 0.000000 0.000000 0.252439
#
# Coordination Sequence:
#
# PCOD9362247 Si02
#       6
#     8   8   8   8   8   8
#     4  11  21  34  51  72  97 128 163 200 242 286
#     4  10  16  22  33  51  77 110 146 182 223 271
#     4   9  15  22  33  51  77 109 145 182 223 271
#     4   9  16  26  40  59  84 116 151 189 232 278
#     4  10  17  27  41  59  84 115 150 187 230 278
#     4  11  21  35  52  72  97 126 161 200 242 288
#
# _framework density 21.824995000000001
#
# number of rings (size 3 to 8) (size 9 to 14) (size 15 to 20)
#    0.000    2.000    0.000   11.000    0.000    2.000 
#    0.000    0.000    0.000    0.000    0.000    0.000 
#    0.000    1.333    0.000    7.333    0.000   16.167 
#
# Total GULP energy -133854.898185 kJ/mol
# GULP energy per Si atom -5577.287424 kJ/mol
# Density = 2.177532 g / cm^3
# Si number density = 21.824995 Si / 1000 Ang^3
#
#
#
# Elastic Constant Matrix: (Units=GPa)
#
#
# Indices 1 2 3 4 5 6 
#
# 1 210.4475 5.6768 114.8664 0.0000 0.0000 0.0000
# 2 5.6768 32.8567 21.3880 0.0000 0.0000 0.0000
# 3 114.8664 21.3880 306.7546 0.0000 0.0000 0.0000
# 4 0.0000 0.0000 0.0000 4.7224 0.0000 0.0000
# 5 0.0000 0.0000 0.0000 0.0000 48.1600 0.0000
# 6 0.0000 0.0000 0.0000 0.0000 0.0000 4.7342
#
#
#
# Elastic Compliance Matrix: (Units=1/GPa)
#
#
# Indices 1 2 3 4 5 6 
#
# 1 0.005979 0.000445 -0.002270 0.000000 0.000000 0.000000
# 2 0.000445 0.031915 -0.002392 0.000000 0.000000 0.000000
# 3 -0.002270 -0.002392 0.004277 0.000000 0.000000 0.000000
# 4 0.000000 0.000000 0.000000 0.211757 0.000000 0.000000
# 5 0.000000 0.000000 0.000000 0.000000 0.020764 0.000000
# 6 0.000000 0.000000 0.000000 0.000000 0.000000 0.211227
#
#
# Mechanical properties :
#
#
# Convention : Reuss Voigt Hill
#
# Bulk Modulus (GPa) = 29.64126 92.65790 61.14958
# Shear Modulus (GPa) = 9.88927 38.73183 24.31055
#
# Velocity S-wave (km/s) = 2.13096 4.21724 3.34111
# Velocity P-wave (km/s) = 4.43458 8.14006 6.55462
#
# Compressibility (1/GPa) = 0.03373675
#
# Stress axis : x y z
#
# Youngs Moduli (GPa) = 167.26158 31.33292 233.82975
#
# Poissons Ratio (x) = -0.01393 0.53073
# Poissons Ratio (y) = -0.07435 0.55925
# Poissons Ratio (z) = 0.37964 0.07494
#
# Static dielectric constant tensor:
#      x y z
#    x 1.718290 0.000000 0.000000 
#    y 0.000000 1.958090 0.000000 
#    z 0.000000 0.000000 1.987880 
# 
# From -- ./inp_files/26261.got.cif
#   From: 2010.05.17/outbox.cif.g08.bks.cpg/sg40_14_cif.got.tgz:26261.got - 2010.06.03 18:35:42.
