data_PCOD9362438
_publ_section_title
;
Structure prediction by ZEFSAII (Michael W. Deem and Ramdas Pophale) SiO2 
 PCOD9362438
Probable space group: A M A 2
;
_chemical_formula_sum "Si O2"
_cell_formula_units_Z 64
_cell_length_a 8.711552
_cell_length_b 21.732536
_cell_length_c 16.343059
_cell_angle_alpha 90.000000
_cell_angle_beta 90.000000
_cell_angle_gamma 90.000000
_cell_volume 3094.135222
_symmetry_space_group_name_H-M "A M A 2"
_symmetry_group_IT_number 40
_symmetry_cell_setting 'orthorhombic'
loop_
_space_group_symop_operation_xyz
x,y,z
-x,-y,z
1/2-x,y,z
1/2+x,-y,z
x,1/2+y,1/2+z
-x,1/2-y,1/2+z
1/2-x,1/2+y,1/2+z
1/2+x,1/2-y,1/2+z
loop_
_atom_site_type_symbol
_atom_site_label
_atom_site_fract_x
_atom_site_fract_y
_atom_site_fract_z
Si Si1 0.565720 0.432179 0.290480
Si Si2 0.434956 0.700144 0.036018
Si Si3 0.565322 0.930774 0.970792
Si Si4 0.937521 0.310222 0.214319
Si Si5 0.568122 0.936324 0.479772
Si Si6 0.076346 0.895427 0.316008
Si Si7 0.423855 0.254808 0.875858
Si Si8 0.434669 0.069594 0.147812
O O1 0.500000 0.500000 0.278735
O O2 0.750000 0.436909 0.290319
O O3 0.519302 0.406857 0.381190
O O4 0.522551 0.382131 0.223047
O O5 0.250000 0.700839 0.033865
O O6 0.488186 0.716472 0.127510
O O7 0.483500 0.628862 0.018869
O O8 0.494268 0.743091 0.963147
O O9 0.750000 0.933055 0.971454
O O10 0.500000 0.000000 0.971477
O O11 0.519297 0.903038 0.058612
O O12 0.750000 0.305106 0.215897
O O13 0.994687 0.278859 0.297383
O O14 0.750000 0.939161 0.487763
O O15 0.520966 0.930799 0.384348
O O16 0.500000 0.000000 0.513402
O O17 0.250000 0.920456 0.313467
O O18 0.083392 0.825532 0.346890
O O19 0.003827 0.897541 0.226511
O O20 0.250000 0.231015 0.888165
O O21 0.250000 0.068176 0.153095
O O22 0.500000 0.000000 0.150531
#
# Coordination Sequence:
#
# PCOD9362438 Si02
#       8
#     8   8   8   8   8   8   8   8
#     4   9  17  32  54  78 106 138 171 209 257 313
#     4   9  19  36  57  79 107 141 177 219 266 314
#     4   8  15  27  43  64  93 129 164 202 246 297
#     4   9  18  36  60  81 106 143 179 212 263 324
#     4  10  19  31  49  74 104 138 173 211 260 314
#     4  10  19  31  47  68  97 133 175 220 263 308
#     4   9  19  37  57  76 102 139 180 220 263 312
#     4  10  18  28  43  66  98 133 172 215 262 312
#
# _framework density 20.684294000000001
#
# number of rings (size 3 to 8) (size 9 to 14) (size 15 to 20)
#    0.000    2.750    0.000    1.500    0.000    2.000 
#    2.250    1.875    0.000    0.000    0.000    0.000 
#    0.000    0.000    0.000    0.000    0.000    0.000 
#
# Total GULP energy -178346.467030 kJ/mol
# GULP energy per Si atom -5573.327095 kJ/mol
# Density = 2.063722 g / cm^3
# Si number density = 20.684294 Si / 1000 Ang^3
#
#
#
# Elastic Constant Matrix: (Units=GPa)
#
#
# Indices 1 2 3 4 5 6 
#
# 1 18.0808 5.4924 19.2415 0.0000 0.0000 0.0000
# 2 5.4924 34.6773 27.0706 0.0000 0.0000 0.0000
# 3 19.2415 27.0706 158.9344 0.0000 0.0000 0.0000
# 4 0.0000 0.0000 0.0000 22.4548 0.0000 0.0000
# 5 0.0000 0.0000 0.0000 0.0000 18.3523 0.0000
# 6 0.0000 0.0000 0.0000 0.0000 0.0000 10.6572
#
#
#
# Elastic Compliance Matrix: (Units=1/GPa)
#
#
# Indices 1 2 3 4 5 6 
#
# 1 0.064152 -0.004726 -0.006962 0.000000 0.000000 0.000000
# 2 -0.004726 0.033608 -0.005152 0.000000 0.000000 0.000000
# 3 -0.006962 -0.005152 0.008012 0.000000 0.000000 0.000000
# 4 0.000000 0.000000 0.000000 0.044534 0.000000 0.000000
# 5 0.000000 0.000000 0.000000 0.000000 0.054489 0.000000
# 6 0.000000 0.000000 0.000000 0.000000 0.000000 0.093833
#
#
# Mechanical properties :
#
#
# Convention : Reuss Voigt Hill
#
# Bulk Modulus (GPa) = 13.87121 35.03351 24.45236
# Shear Modulus (GPa) = 14.03161 20.95206 17.49184
#
# Velocity S-wave (km/s) = 2.60738 3.18613 2.91117
# Velocity P-wave (km/s) = 3.97307 5.52352 4.81116
#
# Compressibility (1/GPa) = 0.07209176
#
# Stress axis : x y z
#
# Youngs Moduli (GPa) = 15.58809 29.75498 124.80897
#
# Poissons Ratio (x) = 0.14063 0.86886
# Poissons Ratio (y) = 0.07367 0.64303
# Poissons Ratio (z) = 0.10852 0.15330
#
# Static dielectric constant tensor:
#      x y z
#    x 1.715380 0.000000 0.000000 
#    y 0.000000 1.758020 0.000000 
#    z 0.000000 0.000000 1.780460 
# 
# From -- ./inp_files/15598.got.cif
#   From: 2010.05.17/outbox.cif.g08.bks.cpg/sg40_8_cif.got.tgz:15598.got - 2010.06.03 18:35:42.
