data_PCOD9362144
_publ_section_title
;
Structure prediction by ZEFSAII (Michael W. Deem and Ramdas Pophale) SiO2 
 PCOD9362144
Probable space group: A B M 2
;
_chemical_formula_sum "Si O2"
_cell_formula_units_Z 48
_cell_length_a 11.525336
_cell_length_b 23.364458
_cell_length_c 7.658510
_cell_angle_alpha 90.000000
_cell_angle_beta 90.000000
_cell_angle_gamma 90.000000
_cell_volume 2062.308301
_symmetry_space_group_name_H-M "A B M 2"
_symmetry_group_IT_number 39
_symmetry_cell_setting 'orthorhombic'
loop_
_space_group_symop_operation_xyz
x,y,z
-x,-y,z
-x,1/2+y,z
x,1/2-y,z
x,1/2+y,1/2+z
-x,1/2-y,1/2+z
-x,y,1/2+z
x,-y,1/2+z
loop_
_atom_site_type_symbol
_atom_site_label
_atom_site_fract_x
_atom_site_fract_y
_atom_site_fract_z
Si Si1 0.409849 0.682569 0.912460
Si Si2 0.073179 0.051483 0.475130
Si Si3 0.183673 0.750000 0.345448
Si Si4 0.023654 0.250000 0.161368
Si Si5 0.825839 0.939277 0.941411
Si Si6 0.172973 0.357772 0.279766
Si Si7 0.344906 0.646805 0.299605
O O1 0.435862 0.750000 0.893516
O O2 0.303337 0.665751 0.788757
O O3 0.528047 0.648158 0.882802
O O4 0.365888 0.668355 0.104801
O O5 0.136518 0.112156 0.463545
O O6 0.956332 0.070357 0.363417
O O7 0.179864 0.007938 0.438184
O O8 0.000000 0.000000 0.577381
O O9 0.070517 0.750000 0.464090
O O10 0.260564 0.695007 0.379652
O O11 0.116475 0.750000 0.161538
O O12 0.084022 0.307433 0.235662
O O13 0.724713 0.911425 0.829127
O O14 0.830174 0.906772 0.128197
#
# Coordination Sequence:
#
# PCOD9362144 Si02
#       7
#     8   8   4   4   8   8   8
#     4  12  26  42  69 100 144 196 244 291 369 424
#     4   8  23  41  69  99 140 181 238 289 358 424
#     4  12  26  41  67  94 156 179 230 296 348 441
#     4  12  28  39  67 110 144 185 232 292 376 421
#     4   9  22  42  69  98 134 184 237 294 353 419
#     4  12  23  42  67 103 144 183 235 296 353 431
#     4  12  24  46  68  99 141 194 243 294 356 429
#
# _framework density 23.274891
#
# number of rings (size 3 to 8) (size 9 to 14) (size 15 to 20)
#    1.000    0.000    4.167    2.000    4.667    2.667 
#    0.000    0.833    0.000    4.000    0.000    0.000 
#    0.000    0.000    0.000    0.000    0.000    0.000 
#
# Total GULP energy -133609.183127 kJ/mol
# GULP energy per Si atom -5567.049297 kJ/mol
# Density = 2.322192 g / cm^3
# Si number density = 23.274891 Si / 1000 Ang^3
#
#
#
# Elastic Constant Matrix: (Units=GPa)
#
#
# Indices 1 2 3 4 5 6 
#
# 1 131.5483 31.1633 14.6063 0.0000 0.0000 0.0000
# 2 31.1633 98.1825 16.7516 0.0000 0.0000 0.0000
# 3 14.6063 16.7516 52.4656 0.0000 0.0000 0.0000
# 4 0.0000 0.0000 0.0000 33.0250 0.0000 0.0000
# 5 0.0000 0.0000 0.0000 0.0000 31.0117 0.0000
# 6 0.0000 0.0000 0.0000 0.0000 0.0000 46.9188
#
#
#
# Elastic Compliance Matrix: (Units=1/GPa)
#
#
# Indices 1 2 3 4 5 6 
#
# 1 0.008339 -0.002380 -0.001562 0.000000 0.000000 0.000000
# 2 -0.002380 0.011451 -0.002994 0.000000 0.000000 0.000000
# 3 -0.001562 -0.002994 0.020451 0.000000 0.000000 0.000000
# 4 0.000000 0.000000 0.000000 0.030280 0.000000 0.000000
# 5 0.000000 0.000000 0.000000 0.000000 0.032246 0.000000
# 6 0.000000 0.000000 0.000000 0.000000 0.000000 0.021313
#
#
# Mechanical properties :
#
#
# Convention : Reuss Voigt Hill
#
# Bulk Modulus (GPa) = 37.92183 45.24876 41.58529
# Shear Modulus (GPa) = 34.07350 36.83612 35.45481
#
# Velocity S-wave (km/s) = 3.83032 3.98258 3.90719
# Velocity P-wave (km/s) = 5.99085 6.37425 6.18552
#
# Compressibility (1/GPa) = 0.02637004
#
# Stress axis : x y z
#
# Youngs Moduli (GPa) = 119.91751 87.32541 48.89823
#
# Poissons Ratio (x) = 0.20787 0.07636
# Poissons Ratio (y) = 0.28545 0.14638
# Poissons Ratio (z) = 0.18726 0.26142
#
# Static dielectric constant tensor:
#      x y z
#    x 2.133350 0.000000 0.000000 
#    y 0.000000 1.860600 0.000000 
#    z 0.000000 0.000000 2.162500 
# 
# From -- ./inp_files/2728.got.cif
#   From: 2010.05.17/outbox.cif.g08.bks.cpg/sg39_2_cif.got.tgz:2728.got - 2010.06.03 18:22:40.
