data_PCOD9362642
_publ_section_title
;
Structure prediction by ZEFSAII (Michael W. Deem and Ramdas Pophale) SiO2 
 PCOD9362642
Probable space group: A M A 2
;
_chemical_formula_sum "Si O2"
_cell_formula_units_Z 64
_cell_length_a 7.499058
_cell_length_b 24.994055
_cell_length_c 14.186375
_cell_angle_alpha 90.000000
_cell_angle_beta 90.000000
_cell_angle_gamma 90.000000
_cell_volume 2658.978768
_symmetry_space_group_name_H-M "A M A 2"
_symmetry_group_IT_number 40
_symmetry_cell_setting 'orthorhombic'
loop_
_space_group_symop_operation_xyz
x,y,z
-x,-y,z
1/2-x,y,z
1/2+x,-y,z
x,1/2+y,1/2+z
-x,1/2-y,1/2+z
1/2-x,1/2+y,1/2+z
1/2+x,1/2-y,1/2+z
loop_
_atom_site_type_symbol
_atom_site_label
_atom_site_fract_x
_atom_site_fract_y
_atom_site_fract_z
Si Si1 0.461417 0.275228 0.470460
Si Si2 0.535749 0.672062 0.068338
Si Si3 0.969191 0.676539 0.271674
Si Si4 0.464361 0.438352 0.773125
Si Si5 0.962372 0.943452 0.983177
Si Si6 0.445218 0.941712 0.768854
Si Si7 0.536917 0.560581 0.988695
Si Si8 0.048490 0.353043 0.624252
O O1 0.250000 0.286937 0.471584
O O2 0.485713 0.212255 0.484886
O O3 0.530210 0.296820 0.369502
O O4 0.537299 0.304413 0.564671
O O5 0.750000 0.669874 0.071417
O O6 0.477677 0.697542 0.168627
O O7 0.471592 0.611325 0.049006
O O8 0.750000 0.676979 0.276968
O O9 0.037017 0.615407 0.261877
O O10 0.500000 0.500000 0.743130
O O11 0.250000 0.433071 0.771564
O O12 0.529731 0.434350 0.880908
O O13 0.533106 0.388831 0.709048
O O14 0.750000 0.935223 0.973178
O O15 0.054268 0.947110 0.881889
O O16 0.000000 0.000000 0.031196
O O17 0.050426 0.897008 0.041545
O O18 0.250000 0.933293 0.727739
O O19 0.500000 0.000000 0.733893
O O20 0.500000 0.500000 0.021204
O O21 0.750000 0.565080 0.984488
O O22 0.250000 0.337470 0.653012
#
# Coordination Sequence:
#
# PCOD9362642 Si02
#       8
#     8   8   8   8   8   8   8   8
#     4  10  21  39  59  81 112 153 192 230 281 341
#     4  10  22  40  62  88 114 145 186 235 285 335
#     4   9  19  38  60  80 113 154 187 227 289 345
#     4   9  18  32  52  79 110 146 187 231 281 332
#     4  11  20  29  45  72 107 145 186 229 275 327
#     4  10  18  32  52  77 110 150 188 228 277 333
#     4   9  19  37  60  85 113 143 180 230 284 334
#     4  10  19  33  52  74 107 150 191 230 275 331
#
# _framework density 24.069393000000002
#
# number of rings (size 3 to 8) (size 9 to 14) (size 15 to 20)
#    0.000    2.250    1.250    2.625    0.000    4.000 
#    0.000    3.125    0.000    0.000    0.000    0.000 
#    0.000    0.000    0.000    0.000    0.000    0.000 
#
# Total GULP energy -178387.465869 kJ/mol
# GULP energy per Si atom -5574.608308 kJ/mol
# Density = 2.401461 g / cm^3
# Si number density = 24.069393 Si / 1000 Ang^3
#
#
#
# Elastic Constant Matrix: (Units=GPa)
#
#
# Indices 1 2 3 4 5 6 
#
# 1 84.5771 -4.6060 1.8372 0.0000 0.0000 0.0000
# 2 -4.6060 149.0382 68.6509 0.0000 0.0000 0.0000
# 3 1.8372 68.6509 163.0879 0.0000 0.0000 0.0000
# 4 0.0000 0.0000 0.0000 31.3254 0.0000 0.0000
# 5 0.0000 0.0000 0.0000 0.0000 -11.3488 0.0000
# 6 0.0000 0.0000 0.0000 0.0000 0.0000 18.2629
#
#
#
# Elastic Compliance Matrix: (Units=1/GPa)
#
#
# Indices 1 2 3 4 5 6 
#
# 1 0.011860 0.000531 -0.000357 0.000000 0.000000 0.000000
# 2 0.000531 0.008347 -0.003520 0.000000 0.000000 0.000000
# 3 -0.000357 -0.003520 0.007617 0.000000 0.000000 0.000000
# 4 0.000000 0.000000 0.000000 0.031923 0.000000 0.000000
# 5 0.000000 0.000000 0.000000 0.000000 -0.088115 0.000000
# 6 0.000000 0.000000 0.000000 0.000000 0.000000 0.054756
#
#
# Mechanical properties :
#
#
# Convention : Reuss Voigt Hill
#
# Bulk Modulus (GPa) = 47.31893 58.71859 53.01876
# Shear Modulus (GPa) = 124.61099 29.70262 77.15681
#
# Velocity S-wave (km/s) = 7.20305 3.51670 5.66794
# Velocity P-wave (km/s) = 9.42765 6.39829 8.05664
#
# Compressibility (1/GPa) = 0.02113319
#
# Stress axis : x y z
#
# Youngs Moduli (GPa) = 84.31551 119.79772 131.27981
#
# Poissons Ratio (x) = -0.06362 0.04689
# Poissons Ratio (y) = -0.04478 0.46208
# Poissons Ratio (z) = 0.03011 0.42166
#
# Static dielectric constant tensor:
#      x y z
#    x 2.030630 0.000000 0.000000 
#    y 0.000000 1.977300 0.000000 
#    z 0.000000 0.000000 1.947340 
# 
# From -- ./inp_files/15690.got.cif
#   From: 2010.05.17/outbox.cif.g08.bks.cpg/sg40_8_cif.got.tgz:15690.got - 2010.06.03 18:35:42.
