data_PCOD9362351
_publ_section_title
;
Structure prediction by ZEFSAII (Michael W. Deem and Ramdas Pophale) SiO2 
 PCOD9362351
Probable space group: A M A 2
;
_chemical_formula_sum "Si O2"
_cell_formula_units_Z 44
_cell_length_a 14.517459
_cell_length_b 8.548260
_cell_length_c 15.101082
_cell_angle_alpha 90.000000
_cell_angle_beta 90.000000
_cell_angle_gamma 90.000000
_cell_volume 1874.029388
_symmetry_space_group_name_H-M "A M A 2"
_symmetry_group_IT_number 40
_symmetry_cell_setting 'orthorhombic'
loop_
_space_group_symop_operation_xyz
x,y,z
-x,-y,z
1/2-x,y,z
1/2+x,-y,z
x,1/2+y,1/2+z
-x,1/2-y,1/2+z
1/2-x,1/2+y,1/2+z
1/2+x,1/2-y,1/2+z
loop_
_atom_site_type_symbol
_atom_site_label
_atom_site_fract_x
_atom_site_fract_y
_atom_site_fract_z
Si Si1 0.500000 0.500000 0.304121
Si Si2 0.750000 0.433424 0.597473
Si Si3 0.250000 0.375816 0.038060
Si Si4 0.250000 0.650088 0.944548
Si Si5 0.602406 0.092783 0.971402
Si Si6 0.250000 0.904704 0.282675
Si Si7 0.540451 0.666934 0.777305
Si Si8 0.039759 0.336115 0.985640
O O1 0.581848 0.505199 0.378401
O O2 0.501505 0.337923 0.249387
O O3 0.750000 0.247969 0.615184
O O4 0.663681 0.495561 0.539900
O O5 0.750000 0.501910 0.692771
O O6 0.250000 0.561232 0.039218
O O7 0.150204 0.337304 0.994678
O O8 0.337076 0.759105 0.942161
O O9 0.250000 0.521175 0.867355
O O10 0.512941 0.177586 0.015498
O O11 0.348651 0.820787 0.276799
O O12 0.500000 0.500000 0.740847
O O13 0.517257 0.661785 0.881469
O O14 0.000000 0.500000 0.023630
#
# Coordination Sequence:
#
# PCOD9362351 Si02
#       8
#     4   4   4   4   8   4   8   8
#     4  10  20  36  68 100 122 170 236 272 320 382
#     4  11  26  38  59  96 140 161 204 268 345 394
#     4  12  20  36  61  95 120 167 222 249 317 391
#     4  11  20  37  72  89 124 167 230 269 310 395
#     4  10  21  38  62  94 126 163 218 275 313 382
#     4  12  22  41  64  96 132 177 204 274 342 392
#     4  10  20  37  63  95 131 166 218 276 322 388
#     4  10  17  33  65  93 115 159 221 269 306 363
#
# _framework density 23.478819999999999
#
# number of rings (size 3 to 8) (size 9 to 14) (size 15 to 20)
#    0.000    1.455    3.636    4.364    0.000    0.727 
#    4.909    0.909   18.000    0.000    0.000    0.000 
#    0.000    0.000    0.000    0.000    0.000    0.000 
#
# Total GULP energy -122526.068597 kJ/mol
# GULP energy per Si atom -5569.366754 kJ/mol
# Density = 2.342538 g / cm^3
# Si number density = 23.478820 Si / 1000 Ang^3
#
#
#
# Elastic Constant Matrix: (Units=GPa)
#
#
# Indices 1 2 3 4 5 6 
#
# 1 148.7924 40.0492 4.1878 0.0000 0.0000 0.0000
# 2 40.0492 159.8073 14.8312 0.0000 0.0000 0.0000
# 3 4.1878 14.8312 25.0018 0.0000 0.0000 0.0000
# 4 0.0000 0.0000 0.0000 6.8266 0.0000 0.0000
# 5 0.0000 0.0000 0.0000 0.0000 -10.0132 0.0000
# 6 0.0000 0.0000 0.0000 0.0000 0.0000 39.4388
#
#
#
# Elastic Compliance Matrix: (Units=1/GPa)
#
#
# Indices 1 2 3 4 5 6 
#
# 1 0.007207 -0.001793 -0.000144 0.000000 0.000000 0.000000
# 2 -0.001793 0.007068 -0.003893 0.000000 0.000000 0.000000
# 3 -0.000144 -0.003893 0.042330 0.000000 0.000000 0.000000
# 4 0.000000 0.000000 0.000000 0.146486 0.000000 0.000000
# 5 0.000000 0.000000 0.000000 0.000000 -0.099868 0.000000
# 6 0.000000 0.000000 0.000000 0.000000 0.000000 0.025356
#
#
# Mechanical properties :
#
#
# Convention : Reuss Voigt Hill
#
# Bulk Modulus (GPa) = 22.24819 50.19311 36.22065
# Shear Modulus (GPa) = 32.21220 25.55264 28.88242
#
# Velocity S-wave (km/s) = 3.70803 3.30256 3.51115
# Velocity P-wave (km/s) = 5.27532 5.99725 5.64783
#
# Compressibility (1/GPa) = 0.04494748
#
# Stress axis : x y z
#
# Youngs Moduli (GPa) = 138.74627 141.48056 23.62380
#
# Poissons Ratio (x) = 0.25366 0.00339
# Poissons Ratio (y) = 0.24876 0.09196
# Poissons Ratio (z) = 0.01993 0.55072
#
# Static dielectric constant tensor:
#      x y z
#    x 2.130340 0.000000 0.000000 
#    y 0.000000 2.032310 0.000000 
#    z 0.000000 0.000000 1.834190 
# 
# From -- ./inp_files/20525.got.cif
#   From: 2010.05.17/outbox.cif.g08.bks.cpg/sg40_11_cif.got.tgz:20525.got - 2010.06.03 18:35:42.
