data_PCOD9362195
_publ_section_title
;
Structure prediction by ZEFSAII (Michael W. Deem and Ramdas Pophale) SiO2 
 PCOD9362195
Probable space group: A B M 2
;
_chemical_formula_sum "Si O2"
_cell_formula_units_Z 32
_cell_length_a 15.000000
_cell_length_b 9.000000
_cell_length_c 24.000000
_cell_angle_alpha 90.000000
_cell_angle_beta 90.000000
_cell_angle_gamma 90.000000
_cell_volume 3240.000000
_symmetry_space_group_name_H-M "A B M 2"
_symmetry_group_IT_number 39
_symmetry_cell_setting 'orthorhombic'
loop_
_space_group_symop_operation_xyz
x,y,z
-x,-y,z
-x,1/2+y,z
x,1/2-y,z
x,1/2+y,1/2+z
-x,1/2-y,1/2+z
-x,y,1/2+z
x,-y,1/2+z
loop_
_atom_site_type_symbol
_atom_site_label
_atom_site_fract_x
_atom_site_fract_y
_atom_site_fract_z
Si Si1 0.748507 0.076595 0.962650
Si Si2 0.414719 0.076005 0.264922
Si Si3 0.084880 0.577861 0.265489
Si Si4 0.650669 0.430494 0.646541
Si Si5 0.233485 0.920061 0.831008
Si Si6 0.590432 0.427042 0.524687
Si Si7 0.909384 0.573658 0.026548
Si Si8 0.141632 0.574463 0.653477
O O1 0.734618 0.250000 0.975882
O O2 0.762603 0.063403 0.896871
O O3 0.666549 0.980846 0.983872
O O4 0.831256 0.011365 0.995879
O O5 0.432372 0.250000 0.258639
O O6 0.395213 0.013941 0.202888
O O7 0.329303 0.059492 0.303271
O O8 0.500000 0.000000 0.290333
O O9 0.069784 0.750000 0.261981
O O10 0.168985 0.535130 0.302021
O O11 0.099027 0.514046 0.203709
O O12 0.000000 0.500000 0.291969
O O13 0.646338 0.250000 0.646934
O O14 0.611026 0.480919 0.587918
O O15 0.754670 0.468430 0.649290
O O16 0.204443 0.750000 0.817562
O O17 0.500000 0.500000 0.505763
O O18 0.585449 0.250000 0.525952
O O19 0.905196 0.750000 0.016280
O O20 0.899874 0.551055 0.092970
O O21 0.000000 0.500000 0.007084
O O22 0.136818 0.750000 0.666437
#
# Coordination Sequence:
#
# PCOD9362195 Si02
#       8
#     8   8   8   8   8   8   8   8
#     4  11  24  42  64  90 119 159 210 260 311 363
#     4  10  20  37  61  87 119 154 193 241 297 355
#     4  12  25  40  63  94 124 159 201 248 304 363
#     4   9  17  34  61  88 119 159 195 240 301 359
#     4  10  23  44  65  85 118 162 205 255 308 357
#     4  11  22  39  62  92 125 163 205 250 309 368
#     4  11  23  40  64  92 124 162 201 248 307 367
#     4  10  19  38  64  90 123 161 199 243 303 364
#
# _framework density 9.8765429999999999
#
# number of rings (size 3 to 8) (size 9 to 14) (size 15 to 20)
#    0.000    1.500    2.500    3.000    0.000    4.500 
#    0.000    1.875    0.000    0.000    0.000    0.000 
#    0.000    0.000    0.000    0.000    0.000    0.000 
#
# Total GULP energy -178704.770957 kJ/mol
# GULP energy per Si atom -5584.524092 kJ/mol
# Density = 0.985406 g / cm^3
# Si number density = 9.876543 Si / 1000 Ang^3
#
#
#
# Elastic Constant Matrix: (Units=GPa)
#
#
# Indices 1 2 3 4 5 6 
#
# 1 87.6394 54.1550 0.1000 0.0000 0.0000 0.0000
# 2 54.1550 60.4954 47.3211 0.0000 0.0000 0.0000
# 3 0.1000 47.3211 36.5743 0.0000 0.0000 0.0000
# 4 0.0000 0.0000 0.0000 32.6582 0.0000 0.0000
# 5 0.0000 0.0000 0.0000 0.0000 242.0970 0.0000
# 6 0.0000 0.0000 0.0000 0.0000 0.0000 27.2317
#
#
#
# Elastic Compliance Matrix: (Units=1/GPa)
#
#
# Indices 1 2 3 4 5 6 
#
# 1 0.000245 0.018113 -0.023435 0.000000 0.000000 0.000000
# 2 0.018113 -0.029382 0.037966 0.000000 0.000000 0.000000
# 3 -0.023435 0.037966 -0.021716 0.000000 0.000000 0.000000
# 4 0.000000 0.000000 0.000000 0.030620 0.000000 0.000000
# 5 0.000000 0.000000 0.000000 0.000000 0.004131 0.000000
# 6 0.000000 0.000000 0.000000 0.000000 0.000000 0.036722
#
#
# Mechanical properties :
#
#
# Convention : Reuss Voigt Hill
#
# Bulk Modulus (GPa) = 69.28460 43.09570 56.19015
# Shear Modulus (GPa) = -125.45550 65.93957 -29.75796
#
# Velocity S-wave (km/s) = -7.97808 5.78398 -3.88557
# Velocity P-wave (km/s) = 7.05087 8.15294 2.89444
#
# Compressibility (1/GPa) = 0.01443322
#
# Stress axis : x y z
#
# Youngs Moduli (GPa) = 4084.39390 -34.03462 -46.04979
#
# Poissons Ratio (x) = 0.61646 -1.07919
# Poissons Ratio (y) = -73.97896 1.74831
# Poissons Ratio (z) = 95.71926 1.29215
#
# Static dielectric constant tensor:
#      x y z
#    x 1.657960 0.000000 0.000000 
#    y 0.000000 1.655170 0.000000 
#    z 0.000000 0.000000 1.671220 
# 
# From -- ./inp_files/16193.got.cif
#   From: 2010.05.17/outbox.ucp.g08.bks.cvg/sg39_9_cif.got.tgz:16193.got - 2010.06.11 10:41:16.
