data_PCOD9362512
_publ_section_title
;
Structure prediction by ZEFSAII (Michael W. Deem and Ramdas Pophale) SiO2 
 PCOD9362512
Probable space group: A M A 2
;
_chemical_formula_sum "Si O2"
_cell_formula_units_Z 64
_cell_length_a 7.667260
_cell_length_b 21.119232
_cell_length_c 20.448998
_cell_angle_alpha 90.000000
_cell_angle_beta 90.000000
_cell_angle_gamma 90.000000
_cell_volume 3311.237594
_symmetry_space_group_name_H-M "A M A 2"
_symmetry_group_IT_number 40
_symmetry_cell_setting 'orthorhombic'
loop_
_space_group_symop_operation_xyz
x,y,z
-x,-y,z
1/2-x,y,z
1/2+x,-y,z
x,1/2+y,1/2+z
-x,1/2-y,1/2+z
1/2-x,1/2+y,1/2+z
1/2+x,1/2-y,1/2+z
loop_
_atom_site_type_symbol
_atom_site_label
_atom_site_fract_x
_atom_site_fract_y
_atom_site_fract_z
Si Si1 0.960411 0.761737 0.939570
Si Si2 0.042529 0.690511 0.575362
Si Si3 0.037148 0.386576 0.945041
Si Si4 0.963564 0.691934 0.163355
Si Si5 0.543153 0.070058 0.161665
Si Si6 0.953648 0.751356 0.296583
Si Si7 0.540916 0.569977 0.084996
Si Si8 0.049264 0.896251 0.302729
O O1 0.750000 0.764253 0.936326
O O2 0.008060 0.687905 0.951222
O O3 0.027144 0.779032 0.867876
O O4 0.023474 0.802517 0.001206
O O5 0.250000 0.699759 0.570965
O O6 0.976999 0.749014 0.619030
O O7 0.013923 0.625285 0.612996
O O8 0.250000 0.389344 0.942951
O O9 0.971995 0.410869 0.874406
O O10 0.975377 0.421086 0.010426
O O11 0.750000 0.690702 0.162555
O O12 0.016394 0.707569 0.237401
O O13 0.023708 0.626518 0.131233
O O14 0.750000 0.076734 0.167363
O O15 0.467974 0.078693 0.235373
O O16 0.500000 0.000000 0.137783
O O17 0.750000 0.765786 0.284964
O O18 0.046487 0.819617 0.297552
O O19 0.500000 0.500000 0.109033
O O20 0.750000 0.576555 0.081628
O O21 0.250000 0.918085 0.304557
#
# Coordination Sequence:
#
# PCOD9362512 Si02
#       8
#     8   8   8   8   8   8   8   8
#     4   9  17  31  53  77 101 133 170 209 257 315
#     4  10  18  34  58  78  98 134 178 217 260 315
#     4   8  14  28  49  69  96 134 170 200 239 297
#     4   9  17  31  53  76  99 134 173 208 256 309
#     4  11  23  36  51  75 108 142 175 218 262 313
#     4  10  18  29  50  78 105 131 166 216 261 304
#     4  10  19  33  50  71 100 135 173 209 248 298
#     4   9  18  32  49  72 102 139 175 207 249 301
#
# _framework density 19.328122
#
# number of rings (size 3 to 8) (size 9 to 14) (size 15 to 20)
#    0.000    2.500    2.500    1.500    0.000    1.500 
#    0.000    4.375    0.000    0.750    0.000    3.500 
#    0.000    0.000    0.000    0.000    0.000    0.000 
#
# Total GULP energy -178511.640208 kJ/mol
# GULP energy per Si atom -5578.488757 kJ/mol
# Density = 1.928413 g / cm^3
# Si number density = 19.328122 Si / 1000 Ang^3
#
#
#
# Elastic Constant Matrix: (Units=GPa)
#
#
# Indices 1 2 3 4 5 6 
#
# 1 33.8765 -10.5069 -1.0610 0.0000 0.0000 0.0000
# 2 -10.5069 107.2435 66.3387 0.0000 0.0000 0.0000
# 3 -1.0610 66.3387 132.2173 0.0000 0.0000 0.0000
# 4 0.0000 0.0000 0.0000 28.1021 0.0000 0.0000
# 5 0.0000 0.0000 0.0000 0.0000 14.9353 0.0000
# 6 0.0000 0.0000 0.0000 0.0000 0.0000 11.5194
#
#
#
# Elastic Compliance Matrix: (Units=1/GPa)
#
#
# Indices 1 2 3 4 5 6 
#
# 1 0.030748 0.004147 -0.001834 0.000000 0.000000 0.000000
# 2 0.004147 0.014080 -0.007031 0.000000 0.000000 0.000000
# 3 -0.001834 -0.007031 0.011077 0.000000 0.000000 0.000000
# 4 0.000000 0.000000 0.000000 0.035585 0.000000 0.000000
# 5 0.000000 0.000000 0.000000 0.000000 0.066955 0.000000
# 6 0.000000 0.000000 0.000000 0.000000 0.000000 0.086810
#
#
# Mechanical properties :
#
#
# Convention : Reuss Voigt Hill
#
# Bulk Modulus (GPa) = 21.52032 42.54211 32.03121
# Shear Modulus (GPa) = 18.50615 25.48247 21.99431
#
# Velocity S-wave (km/s) = 3.09766 3.63494 3.37700
# Velocity P-wave (km/s) = 4.89412 6.29883 5.64038
#
# Compressibility (1/GPa) = 0.04646771
#
# Stress axis : x y z
#
# Youngs Moduli (GPa) = 32.52271 71.02107 90.28102
#
# Poissons Ratio (x) = -0.29451 0.16557
# Poissons Ratio (y) = -0.13487 0.63480
# Poissons Ratio (z) = 0.05964 0.49938
#
# Static dielectric constant tensor:
#      x y z
#    x 1.734810 0.000000 0.000000 
#    y 0.000000 1.633870 0.000000 
#    z 0.000000 0.000000 1.713520 
# 
# From -- ./inp_files/22366.got.cif
#   From: 2010.05.17/outbox.cif.g08.bks.cpg/sg40_12_cif.got.tgz:22366.got - 2010.06.03 18:35:42.
