data_PCOD9362657
_publ_section_title
;
Structure prediction by ZEFSAII (Michael W. Deem and Ramdas Pophale) SiO2 
 PCOD9362657
Probable space group: A M A 2
;
_chemical_formula_sum "Si O2"
_cell_formula_units_Z 56
_cell_length_a 8.541302
_cell_length_b 14.995146
_cell_length_c 22.445766
_cell_angle_alpha 90.000000
_cell_angle_beta 90.000000
_cell_angle_gamma 90.000000
_cell_volume 2874.810401
_symmetry_space_group_name_H-M "A M A 2"
_symmetry_group_IT_number 40
_symmetry_cell_setting 'orthorhombic'
loop_
_space_group_symop_operation_xyz
x,y,z
-x,-y,z
1/2-x,y,z
1/2+x,-y,z
x,1/2+y,1/2+z
-x,1/2-y,1/2+z
1/2-x,1/2+y,1/2+z
1/2+x,1/2-y,1/2+z
loop_
_atom_site_type_symbol
_atom_site_label
_atom_site_fract_x
_atom_site_fract_y
_atom_site_fract_z
Si Si1 0.937910 0.719662 0.357020
Si Si2 0.561626 0.403505 0.023518
Si Si3 0.061197 0.404544 0.602291
Si Si4 0.561471 0.899353 0.749021
Si Si5 0.435961 0.903632 0.389664
Si Si6 0.059429 0.713797 0.134587
Si Si7 0.438645 0.403820 0.464257
O O1 0.750000 0.723293 0.356434
O O2 0.988653 0.673966 0.419576
O O3 0.998177 0.656174 0.304860
O O4 0.004387 0.819149 0.352781
O O5 0.500000 0.500000 0.044003
O O6 0.750000 0.404836 0.019897
O O7 0.513299 0.329976 0.071651
O O8 0.496237 0.389333 0.957413
O O9 0.250000 0.407102 0.602984
O O10 0.008162 0.316565 0.637278
O O11 0.011130 0.392708 0.532924
O O12 0.000000 0.500000 0.623454
O O13 0.750000 0.900600 0.750589
O O14 0.509004 0.847811 0.689156
O O15 0.500000 0.000000 0.749779
O O16 0.250000 0.906801 0.389811
O O17 0.500000 0.000000 0.369930
O O18 0.250000 0.714116 0.135075
O O19 0.500000 0.500000 0.443179
O O20 0.250000 0.405602 0.463952
#
# Coordination Sequence:
#
# PCOD9362657 Si02
#       7
#     8   8   8   8   8   8   8
#     4  11  22  38  58  81 109 147 189 231 278 333
#     4  10  18  32  54  82 113 147 183 225 276 333
#     4   9  17  33  53  77 105 137 174 217 266 321
#     4  11  23  40  59  82 110 145 186 232 281 333
#     4  11  22  37  57  84 115 147 182 228 280 336
#     4   9  19  35  56  77 107 149 189 227 276 331
#     4   9  18  31  52  79 110 142 176 218 270 327
#
# _framework density 19.479544000000001
#
# number of rings (size 3 to 8) (size 9 to 14) (size 15 to 20)
#    0.000    2.000    0.000    5.143    0.000    4.571 
#    0.000    8.571    0.000    1.714    0.000    0.000 
#    0.000    0.000    0.000    0.000    0.000    0.000 
#
# Total GULP energy -156384.175648 kJ/mol
# GULP energy per Si atom -5585.149130 kJ/mol
# Density = 1.943521 g / cm^3
# Si number density = 19.479544 Si / 1000 Ang^3
#
#
#
# Elastic Constant Matrix: (Units=GPa)
#
#
# Indices 1 2 3 4 5 6 
#
# 1 61.7469 41.4912 19.6654 0.0000 0.0000 0.0000
# 2 41.4912 203.7329 62.2254 0.0000 0.0000 0.0000
# 3 19.6654 62.2254 42.0586 0.0000 0.0000 0.0000
# 4 0.0000 0.0000 0.0000 33.4285 0.0000 0.0000
# 5 0.0000 0.0000 0.0000 0.0000 21.7044 0.0000
# 6 0.0000 0.0000 0.0000 0.0000 0.0000 32.2819
#
#
#
# Elastic Compliance Matrix: (Units=1/GPa)
#
#
# Indices 1 2 3 4 5 6 
#
# 1 0.019540 -0.002169 -0.005927 0.000000 0.000000 0.000000
# 2 -0.002169 0.009196 -0.012591 0.000000 0.000000 0.000000
# 3 -0.005927 -0.012591 0.045176 0.000000 0.000000 0.000000
# 4 0.000000 0.000000 0.000000 0.029915 0.000000 0.000000
# 5 0.000000 0.000000 0.000000 0.000000 0.046074 0.000000
# 6 0.000000 0.000000 0.000000 0.000000 0.000000 0.030977
#
#
# Mechanical properties :
#
#
# Convention : Reuss Voigt Hill
#
# Bulk Modulus (GPa) = 30.73385 61.58914 46.16150
# Shear Modulus (GPa) = 21.45028 29.76006 25.60517
#
# Velocity S-wave (km/s) = 3.32199 3.91290 3.62949
# Velocity P-wave (km/s) = 5.52502 7.21806 6.42753
#
# Compressibility (1/GPa) = 0.03253741
#
# Stress axis : x y z
#
# Youngs Moduli (GPa) = 51.17579 108.74689 22.13584
#
# Poissons Ratio (x) = 0.23589 0.13121
# Poissons Ratio (y) = 0.11101 0.27871
# Poissons Ratio (z) = 0.30334 1.36920
#
# Static dielectric constant tensor:
#      x y z
#    x 1.663540 0.000000 0.000000 
#    y 0.000000 1.682500 0.000000 
#    z 0.000000 0.000000 1.675060 
# 
# From -- ./inp_files/22136.got.cif
#   From: 2010.05.17/outbox.cif.g08.bks.cpg/sg40_12_cif.got.tgz:22136.got - 2010.06.03 18:35:42.
