data_PCOD9362686
_publ_section_title
;
Structure prediction by ZEFSAII (Michael W. Deem and Ramdas Pophale) SiO2 
 PCOD9362686
Probable space group: A M A 2
;
_chemical_formula_sum "Si O2"
_cell_formula_units_Z 64
_cell_length_a 17.681488
_cell_length_b 17.893759
_cell_length_c 12.108428
_cell_angle_alpha 90.000000
_cell_angle_beta 90.000000
_cell_angle_gamma 90.000000
_cell_volume 3830.964769
_symmetry_space_group_name_H-M "A M A 2"
_symmetry_group_IT_number 40
_symmetry_cell_setting 'orthorhombic'
loop_
_space_group_symop_operation_xyz
x,y,z
-x,-y,z
1/2-x,y,z
1/2+x,-y,z
x,1/2+y,1/2+z
-x,1/2-y,1/2+z
1/2-x,1/2+y,1/2+z
1/2+x,1/2-y,1/2+z
loop_
_atom_site_type_symbol
_atom_site_label
_atom_site_fract_x
_atom_site_fract_y
_atom_site_fract_z
Si Si1 0.524158 0.088795 0.910390
Si Si2 0.838228 0.927238 0.148122
Si Si3 0.422856 0.951057 0.284946
Si Si4 0.077144 0.951057 0.535835
Si Si5 0.512877 0.837239 0.143515
Si Si6 0.661772 0.927238 0.672659
Si Si7 0.663690 0.001997 0.910390
Si Si8 0.487123 0.162761 0.677265
O O1 0.613519 0.075767 0.910390
O O2 0.499357 0.132359 0.801499
O O3 0.500000 0.000000 0.910390
O O4 0.499356 0.132359 0.019281
O O5 0.750000 0.906645 0.163838
O O6 0.901839 0.864736 0.173914
O O7 0.861199 0.998958 0.221985
O O8 0.849019 0.953376 0.020864
O O9 0.400386 0.934482 0.410390
O O10 0.450077 0.879452 0.217251
O O11 0.500000 0.000000 0.287336
O O12 0.049923 0.879452 0.603529
O O13 0.138801 0.001042 0.598796
O O14 0.000000 0.000000 0.533444
O O15 0.500000 0.750000 0.160390
O O16 0.750000 0.906645 0.656942
O O17 0.598161 0.864736 0.646867
O O18 0.650981 0.953376 0.799916
O O19 0.750000 0.024418 0.910390
#
# Coordination Sequence:
#
# PCOD9362686 Si02
#       8
#     8   8   8   8   8   8   8   8
#     4  12  18  38  62  82 109 148 205 234 268 340
#     4  10  19  35  57  81 108 144 191 241 284 332
#     4   9  18  34  54  76 104 142 189 225 265 334
#     4   9  18  34  54  76 104 142 189 225 265 334
#     4  11  22  34  55  87 117 149 185 236 291 343
#     4  10  19  35  57  81 108 144 191 241 284 332
#     4  10  18  32  60  88 104 134 196 252 272 307
#     4  11  22  34  55  87 117 149 185 236 291 343
#
# _framework density 16.705974999999999
#
# number of rings (size 3 to 8) (size 9 to 14) (size 15 to 20)
#    0.000    1.750    5.000    0.750    1.750    0.500 
#    0.000    2.500    0.000    0.000    0.000    0.000 
#    0.000    0.000    0.000    0.000    0.000    0.000 
#
# Total GULP energy -178256.156386 kJ/mol
# GULP energy per Si atom -5570.504887 kJ/mol
# Density = 1.666795 g / cm^3
# Si number density = 16.705975 Si / 1000 Ang^3
#
#
#
# Elastic Constant Matrix: (Units=GPa)
#
#
# Indices 1 2 3 4 5 6 
#
# 1 116.0073 52.0533 27.1375 0.0000 0.0000 0.0000
# 2 52.0533 140.1691 57.7374 0.0000 0.0000 0.0000
# 3 27.1375 57.7374 123.9145 0.0000 0.0000 0.0000
# 4 0.0000 0.0000 0.0000 15.4354 0.0000 0.0000
# 5 0.0000 0.0000 0.0000 0.0000 18.9283 0.0000
# 6 0.0000 0.0000 0.0000 0.0000 0.0000 17.8331
#
#
#
# Elastic Compliance Matrix: (Units=1/GPa)
#
#
# Indices 1 2 3 4 5 6 
#
# 1 0.010379 -0.003611 -0.000590 0.000000 0.000000 0.000000
# 2 -0.003611 0.010085 -0.003908 0.000000 0.000000 0.000000
# 3 -0.000590 -0.003908 0.010020 0.000000 0.000000 0.000000
# 4 0.000000 0.000000 0.000000 0.064786 0.000000 0.000000
# 5 0.000000 0.000000 0.000000 0.000000 0.052831 0.000000
# 6 0.000000 0.000000 0.000000 0.000000 0.000000 0.056075
#
#
# Mechanical properties :
#
#
# Convention : Reuss Voigt Hill
#
# Bulk Modulus (GPa) = 70.10308 72.66081 71.38194
# Shear Modulus (GPa) = 22.20733 26.65020 24.42877
#
# Velocity S-wave (km/s) = 3.64992 3.99839 3.82812
# Velocity P-wave (km/s) = 7.73411 8.05633 7.89687
#
# Compressibility (1/GPa) = 0.01426471
#
# Stress axis : x y z
#
# Youngs Moduli (GPa) = 96.35271 99.15623 99.79610
#
# Poissons Ratio (x) = 0.35805 0.05892
# Poissons Ratio (y) = 0.34793 0.39003
# Poissons Ratio (z) = 0.05689 0.38753
#
# Static dielectric constant tensor:
#      x y z
#    x 1.617110 0.000000 0.000000 
#    y 0.000000 1.535610 0.000000 
#    z 0.000000 0.000000 1.587740 
# 
# From -- ./inp_files/13210.got.cif
#   From: 2010.05.17/outbox.cif.g08.bks.cpg/sg40_7_cif.got.tgz:13210.got - 2010.06.03 18:35:42.
