data_PCOD9362116
_publ_section_title
;
Structure prediction by ZEFSAII (Michael W. Deem and Ramdas Pophale) SiO2 
 PCOD9362116
Probable space group: A B M 2
;
_chemical_formula_sum "Si O2"
_cell_formula_units_Z 40
_cell_length_a 11.440359
_cell_length_b 10.533713
_cell_length_c 14.825890
_cell_angle_alpha 90.000000
_cell_angle_beta 90.000000
_cell_angle_gamma 90.000000
_cell_volume 1786.659973
_symmetry_space_group_name_H-M "A B M 2"
_symmetry_group_IT_number 39
_symmetry_cell_setting 'orthorhombic'
loop_
_space_group_symop_operation_xyz
x,y,z
-x,-y,z
-x,1/2+y,z
x,1/2-y,z
x,1/2+y,1/2+z
-x,1/2-y,1/2+z
-x,y,1/2+z
x,-y,1/2+z
loop_
_atom_site_type_symbol
_atom_site_label
_atom_site_fract_x
_atom_site_fract_y
_atom_site_fract_z
Si Si1 0.500000 0.500000 0.410760
Si Si2 0.232803 0.477725 0.688689
Si Si3 0.257350 0.399658 0.357658
Si Si4 0.593227 0.250000 0.442978
Si Si5 0.906614 0.104876 0.022055
Si Si6 0.668595 0.250000 0.626457
Si Si7 0.590048 0.750000 0.720866
O O1 0.387769 0.456556 0.354705
O O2 0.527147 0.377631 0.468747
O O3 0.187769 0.511296 0.788908
O O4 0.135389 0.423637 0.622823
O O5 0.277034 0.615987 0.656942
O O6 0.336319 0.374054 0.691948
O O7 0.258152 0.250000 0.334844
O O8 0.205738 0.409461 0.457243
O O9 0.693329 0.250000 0.517215
O O10 0.594269 0.250000 0.333001
O O11 0.948625 0.250000 0.013339
O O12 0.000000 0.000000 0.995117
O O13 0.537136 0.250000 0.672422
#
# Coordination Sequence:
#
# PCOD9362116 Si02
#       7
#     4   8   8   4   8   4   4
#     4  12  22  40  68 104 148 186 228 278 346 426
#     4  12  25  46  71 105 145 187 240 292 355 421
#     4  11  24  45  71 105 145 191 231 291 353 423
#     4  12  26  38  66  95 148 199 232 276 335 423
#     4  11  28  53  75 100 136 184 244 305 360 425
#     4  12  28  42  69 108 151 200 234 280 349 440
#     4  12  26  44  63 111 151 197 232 286 350 429
#
# _framework density 22.388142999999999
#
# number of rings (size 3 to 8) (size 9 to 14) (size 15 to 20)
#    0.000    0.400    5.000    3.000    7.000    0.800 
#    3.600    2.000    0.000    0.000    0.000    0.000 
#    0.000    0.000    0.000    0.000    0.000    0.000 
#
# Total GULP energy -111625.753589 kJ/mol
# GULP energy per Si atom -5581.287679 kJ/mol
# Density = 2.233719 g / cm^3
# Si number density = 22.388143 Si / 1000 Ang^3
#
#
#
# Elastic Constant Matrix: (Units=GPa)
#
#
# Indices 1 2 3 4 5 6 
#
# 1 39.0932 23.2088 4.6349 0.0000 0.0000 0.0000
# 2 23.2088 168.8179 6.3363 0.0000 0.0000 0.0000
# 3 4.6349 6.3363 78.4947 0.0000 0.0000 0.0000
# 4 0.0000 0.0000 0.0000 -82.0875 0.0000 0.0000
# 5 0.0000 0.0000 0.0000 0.0000 5.4328 0.0000
# 6 0.0000 0.0000 0.0000 0.0000 0.0000 23.8860
#
#
#
# Elastic Compliance Matrix: (Units=1/GPa)
#
#
# Indices 1 2 3 4 5 6 
#
# 1 0.027994 -0.003798 -0.001346 0.000000 0.000000 0.000000
# 2 -0.003798 0.006457 -0.000297 0.000000 0.000000 0.000000
# 3 -0.001346 -0.000297 0.012843 0.000000 0.000000 0.000000
# 4 0.000000 0.000000 0.000000 -0.012182 0.000000 0.000000
# 5 0.000000 0.000000 0.000000 0.000000 0.184066 0.000000
# 6 0.000000 0.000000 0.000000 0.000000 0.000000 0.041865
#
#
# Mechanical properties :
#
#
# Convention : Reuss Voigt Hill
#
# Bulk Modulus (GPa) = 27.46382 39.41841 33.44111
# Shear Modulus (GPa) = 17.60166 6.26132 11.93149
#
# Velocity S-wave (km/s) = 2.80698 1.67415 2.31105
# Velocity P-wave (km/s) = 4.77486 4.62408 4.70007
#
# Compressibility (1/GPa) = 0.03641154
#
# Stress axis : x y z
#
# Youngs Moduli (GPa) = 35.72152 154.87454 77.86229
#
# Poissons Ratio (x) = 0.58822 0.10483
# Poissons Ratio (y) = 0.13567 0.02312
# Poissons Ratio (z) = 0.04809 0.04599
#
# Static dielectric constant tensor:
#      x y z
#    x 1.832610 0.000000 0.000000 
#    y 0.000000 1.829280 0.000000 
#    z 0.000000 0.000000 1.882230 
# 
# From -- ./inp_files/9096.got.cif
#   From: 2010.05.17/outbox.cif.g08.bks.cpg/sg39_5_cif.got.tgz:9096.got - 2010.06.03 18:22:40.
