data_PCOD9362138
_publ_section_title
;
Structure prediction by ZEFSAII (Michael W. Deem and Ramdas Pophale) SiO2 
 PCOD9362138
Probable space group: A B M 2
;
_chemical_formula_sum "Si O2"
_cell_formula_units_Z 40
_cell_length_a 11.894373
_cell_length_b 16.514689
_cell_length_c 7.341011
_cell_angle_alpha 90.000000
_cell_angle_beta 90.000000
_cell_angle_gamma 90.000000
_cell_volume 1442.008525
_symmetry_space_group_name_H-M "A B M 2"
_symmetry_group_IT_number 39
_symmetry_cell_setting 'orthorhombic'
loop_
_space_group_symop_operation_xyz
x,y,z
-x,-y,z
-x,1/2+y,z
x,1/2-y,z
x,1/2+y,1/2+z
-x,1/2-y,1/2+z
-x,y,1/2+z
x,-y,1/2+z
loop_
_atom_site_type_symbol
_atom_site_label
_atom_site_fract_x
_atom_site_fract_y
_atom_site_fract_z
Si Si1 0.266500 0.377280 0.445170
Si Si2 0.783731 0.080237 0.354179
Si Si3 0.545838 0.250000 0.076573
Si Si4 0.000000 0.500000 0.282893
Si Si5 0.083954 0.164347 0.152207
Si Si6 0.417609 0.079099 0.127212
O O1 0.230566 0.411720 0.639894
O O2 0.362946 0.317465 0.511691
O O3 0.167849 0.338003 0.324865
O O4 0.333289 0.431369 0.297220
O O5 0.845062 0.152550 0.467170
O O6 0.662870 0.079598 0.451438
O O7 0.878271 0.009662 0.379059
O O8 0.463664 0.172955 0.140491
O O9 0.989914 0.584472 0.176280
O O10 0.022902 0.250000 0.147460
O O11 0.500000 0.000000 0.121055
#
# Coordination Sequence:
#
# PCOD9362138 Si02
#       6
#     8   8   4   4   8   8
#     4  11  28  52  88 128 178 236 298 363 455 534
#     4  11  30  54  92 128 178 245 294 372 460 539
#     4  12  28  54  86 124 188 234 292 380 438 544
#     4  12  30  60  92 130 184 232 302 386 458 536
#     4  11  28  55  85 130 173 225 307 370 443 552
#     4  11  30  56  88 139 184 234 305 366 448 554
#
# _framework density 27.739087000000001
#
# number of rings (size 3 to 8) (size 9 to 14) (size 15 to 20)
#    0.000    0.800    1.000    1.200   19.600    4.000 
#    0.000    1.000    0.000    0.000    0.000    0.000 
#    0.000    0.000    0.000    0.000    0.000    0.000 
#
# Total GULP energy -111397.047038 kJ/mol
# GULP energy per Si atom -5569.852352 kJ/mol
# Density = 2.767595 g / cm^3
# Si number density = 27.739087 Si / 1000 Ang^3
#
#
#
# Elastic Constant Matrix: (Units=GPa)
#
#
# Indices 1 2 3 4 5 6 
#
# 1 155.3884 70.0385 79.5172 0.0000 0.0000 0.0000
# 2 70.0385 242.1362 63.3805 0.0000 0.0000 0.0000
# 3 79.5172 63.3805 226.1784 0.0000 0.0000 0.0000
# 4 0.0000 0.0000 0.0000 8.9854 0.0000 0.0000
# 5 0.0000 0.0000 0.0000 0.0000 33.0732 0.0000
# 6 0.0000 0.0000 0.0000 0.0000 0.0000 30.1976
#
#
#
# Elastic Compliance Matrix: (Units=1/GPa)
#
#
# Indices 1 2 3 4 5 6 
#
# 1 0.008527 -0.001815 -0.002489 0.000000 0.000000 0.000000
# 2 -0.001815 0.004843 -0.000719 0.000000 0.000000 0.000000
# 3 -0.002489 -0.000719 0.005498 0.000000 0.000000 0.000000
# 4 0.000000 0.000000 0.000000 0.111292 0.000000 0.000000
# 5 0.000000 0.000000 0.000000 0.000000 0.030236 0.000000
# 6 0.000000 0.000000 0.000000 0.000000 0.000000 0.033115
#
#
# Mechanical properties :
#
#
# Convention : Reuss Voigt Hill
#
# Bulk Modulus (GPa) = 113.35696 116.61948 114.98822
# Shear Modulus (GPa) = 24.21317 41.83569 33.02443
#
# Velocity S-wave (km/s) = 2.95768 3.88775 3.45416
# Velocity P-wave (km/s) = 7.25382 7.89212 7.57970
#
# Compressibility (1/GPa) = 0.00882169
#
# Stress axis : x y z
#
# Youngs Moduli (GPa) = 117.26836 206.47883 181.88504
#
# Poissons Ratio (x) = 0.37475 0.45278
# Poissons Ratio (y) = 0.21284 0.13079
# Poissons Ratio (z) = 0.29193 0.14847
#
# Static dielectric constant tensor:
#      x y z
#    x 2.174680 0.000000 0.000000 
#    y 0.000000 1.965720 0.000000 
#    z 0.000000 0.000000 2.192830 
# 
# From -- ./inp_files/5696.got.cif
#   From: 2010.05.17/outbox.cif.g08.bks.cpg/sg39_3_cif.got.tgz:5696.got - 2010.06.03 18:22:40.
