data_PCOD9362950
_publ_section_title
;
Structure prediction by ZEFSAII (Michael W. Deem and Ramdas Pophale) SiO2 
 PCOD9362950
Probable space group: A M A 2
;
_chemical_formula_sum "Si O2"
_cell_formula_units_Z 56
_cell_length_a 9.084963
_cell_length_b 19.464994
_cell_length_c 18.147653
_cell_angle_alpha 90.000000
_cell_angle_beta 90.000000
_cell_angle_gamma 90.000000
_cell_volume 3209.208277
_symmetry_space_group_name_H-M "A M A 2"
_symmetry_group_IT_number 40
_symmetry_cell_setting 'orthorhombic'
loop_
_space_group_symop_operation_xyz
x,y,z
-x,-y,z
1/2-x,y,z
1/2+x,-y,z
x,1/2+y,1/2+z
-x,1/2-y,1/2+z
1/2-x,1/2+y,1/2+z
1/2+x,1/2-y,1/2+z
loop_
_atom_site_type_symbol
_atom_site_label
_atom_site_fract_x
_atom_site_fract_y
_atom_site_fract_z
Si Si1 0.576261 0.290615 0.375000
Si Si2 0.917591 0.068052 0.044880
Si Si3 0.077781 0.178266 0.284311
Si Si4 0.425175 0.073887 0.411836
Si Si5 0.422193 0.698395 0.610818
Si Si6 0.581740 0.068391 0.866984
Si Si7 0.073072 0.207181 0.506095
O O1 0.750000 0.294585 0.388515
O O2 0.532959 0.235558 0.313505
O O3 0.511108 0.363660 0.351619
O O4 0.491937 0.261039 0.446590
O O5 0.750000 0.071248 0.071979
O O6 0.006142 0.134819 0.068171
O O7 0.912754 0.064262 0.956196
O O8 0.000000 0.000000 0.072123
O O9 0.250000 0.195809 0.302701
O O10 0.045332 0.109751 0.332051
O O11 0.065447 0.178488 0.196666
O O12 0.250000 0.064574 0.417426
O O13 0.466669 0.131865 0.473260
O O14 0.500000 0.000000 0.419690
O O15 0.250000 0.705285 0.592962
O O16 0.504474 0.767338 0.583129
O O17 0.750000 0.073168 0.840537
O O18 0.500000 0.000000 0.840115
O O19 0.250000 0.212234 0.507954
#
# Coordination Sequence:
#
# PCOD9362950 Si02
#       7
#     8   8   8   8   8   8   8
#     4  11  20  32  53  78 102 134 178 222 261 316
#     4  10  20  32  48  71 105 142 173 210 254 305
#     4   9  21  38  53  75 109 144 175 218 275 326
#     4   9  19  36  57  79 107 141 179 223 273 325
#     4  11  21  34  54  79 108 143 183 224 269 325
#     4  10  19  31  49  73 103 136 168 210 257 305
#     4  10  20  35  54  77 107 142 177 223 277 322
#
# _framework density 17.449787000000001
#
# number of rings (size 3 to 8) (size 9 to 14) (size 15 to 20)
#    0.000    2.000    1.429    3.857    0.000    5.714 
#    0.000    1.429    0.000    0.857    0.000    2.000 
#    0.000    0.000    0.000    0.000    0.000    0.000 
#
# Total GULP energy -156105.521571 kJ/mol
# GULP energy per Si atom -5575.197199 kJ/mol
# Density = 1.741007 g / cm^3
# Si number density = 17.449787 Si / 1000 Ang^3
#
#
#
# Elastic Constant Matrix: (Units=GPa)
#
#
# Indices 1 2 3 4 5 6 
#
# 1 104.5915 63.5634 24.8046 0.0000 0.0000 0.0000
# 2 63.5634 151.4007 28.8028 0.0000 0.0000 0.0000
# 3 24.8046 28.8028 41.8595 0.0000 0.0000 0.0000
# 4 0.0000 0.0000 0.0000 10.4766 0.0000 0.0000
# 5 0.0000 0.0000 0.0000 0.0000 24.9312 0.0000
# 6 0.0000 0.0000 0.0000 0.0000 0.0000 34.9748
#
#
#
# Elastic Compliance Matrix: (Units=1/GPa)
#
#
# Indices 1 2 3 4 5 6 
#
# 1 0.013612 -0.004810 -0.004756 0.000000 0.000000 0.000000
# 2 -0.004810 0.009299 -0.003549 0.000000 0.000000 0.000000
# 3 -0.004756 -0.003549 0.029150 0.000000 0.000000 0.000000
# 4 0.000000 0.000000 0.000000 0.095451 0.000000 0.000000
# 5 0.000000 0.000000 0.000000 0.000000 0.040110 0.000000
# 6 0.000000 0.000000 0.000000 0.000000 0.000000 0.028592
#
#
# Mechanical properties :
#
#
# Convention : Reuss Voigt Hill
#
# Bulk Modulus (GPa) = 38.71274 59.13260 48.92267
# Shear Modulus (GPa) = 19.91593 26.12189 23.01891
#
# Velocity S-wave (km/s) = 3.38202 3.87327 3.63595
# Velocity P-wave (km/s) = 6.12243 7.34601 6.76195
#
# Compressibility (1/GPa) = 0.02583129
#
# Stress axis : x y z
#
# Youngs Moduli (GPa) = 73.46333 107.53269 34.30568
#
# Poissons Ratio (x) = 0.51723 0.16317
# Poissons Ratio (y) = 0.35336 0.12174
# Poissons Ratio (z) = 0.34943 0.38159
#
# Static dielectric constant tensor:
#      x y z
#    x 1.591320 0.000000 0.000000 
#    y 0.000000 1.595940 0.000000 
#    z 0.000000 0.000000 1.622030 
# 
# From -- ./inp_files/22182.got.cif
#   From: 2010.05.17/outbox.cif.g08.bks.cpg/sg40_12_cif.got.tgz:22182.got - 2010.06.03 18:35:42.
