data_PCOD9362501
_publ_section_title
;
Structure prediction by ZEFSAII (Michael W. Deem and Ramdas Pophale) SiO2 
 PCOD9362501
Probable space group: A M A 2
;
_chemical_formula_sum "Si O2"
_cell_formula_units_Z 64
_cell_length_a 8.533446
_cell_length_b 23.874052
_cell_length_c 19.813644
_cell_angle_alpha 90.000000
_cell_angle_beta 90.000000
_cell_angle_gamma 90.000000
_cell_volume 4036.592748
_symmetry_space_group_name_H-M "A M A 2"
_symmetry_group_IT_number 40
_symmetry_cell_setting 'orthorhombic'
loop_
_space_group_symop_operation_xyz
x,y,z
-x,-y,z
1/2-x,y,z
1/2+x,-y,z
x,1/2+y,1/2+z
-x,1/2-y,1/2+z
1/2-x,1/2+y,1/2+z
1/2+x,1/2-y,1/2+z
loop_
_atom_site_type_symbol
_atom_site_label
_atom_site_fract_x
_atom_site_fract_y
_atom_site_fract_z
Si Si1 0.936073 0.437509 0.667350
Si Si2 0.062573 0.341136 0.757648
Si Si3 0.061841 0.883083 0.029550
Si Si4 0.937636 0.438125 0.392791
Si Si5 0.558903 0.247517 0.028538
Si Si6 0.937971 0.277056 0.881884
Si Si7 0.559797 0.771052 0.676212
Si Si8 0.439983 0.667239 0.306495
O O1 0.750000 0.439046 0.662178
O O2 0.000000 0.500000 0.676038
O O3 0.987427 0.396909 0.728077
O O4 0.004352 0.411096 0.598503
O O5 0.250000 0.345644 0.754557
O O6 0.015469 0.288707 0.709383
O O7 0.010584 0.323245 0.832389
O O8 0.250000 0.884415 0.028475
O O9 0.011817 0.817914 0.026465
O O10 0.998271 0.916010 0.964873
O O11 0.750000 0.439503 0.394715
O O12 0.986866 0.392377 0.336790
O O13 0.000000 0.500000 0.379370
O O14 0.750000 0.247845 0.028871
O O15 0.504123 0.273605 0.099319
O O16 0.509884 0.277993 0.959831
O O17 0.750000 0.280886 0.878954
O O18 0.990066 0.216837 0.852216
O O19 0.750000 0.771674 0.674346
O O20 0.511691 0.818488 0.729727
O O21 0.250000 0.671492 0.309960
#
# Coordination Sequence:
#
# PCOD9362501 Si02
#       8
#     8   8   8   8   8   8   8   8
#     4  12  24  37  52  73  99 133 172 211 248 295
#     4  10  19  34  52  71  98 133 167 205 248 292
#     4  11  20  34  50  70 100 136 170 205 244 290
#     4  11  22  34  47  68  95 131 172 211 250 293
#     4   9  16  27  48  74  99 129 161 196 244 297
#     4  10  18  29  48  74 100 127 161 202 248 298
#     4   8  14  28  49  70  92 121 158 199 245 295
#     4   9  18  31  48  68  92 124 165 209 251 296
#
# _framework density 15.854956
#
# number of rings (size 3 to 8) (size 9 to 14) (size 15 to 20)
#    0.000    2.000    2.500    3.750    0.000    0.500 
#    0.000    0.000    0.000    0.000    0.000    0.875 
#    0.000    2.000    0.000    0.000    0.000    0.000 
#
# Total GULP energy -178526.693247 kJ/mol
# GULP energy per Si atom -5578.959164 kJ/mol
# Density = 1.581887 g / cm^3
# Si number density = 15.854956 Si / 1000 Ang^3
#
#
#
# Elastic Constant Matrix: (Units=GPa)
#
#
# Indices 1 2 3 4 5 6 
#
# 1 36.7799 22.0344 17.6597 0.0000 0.0000 0.0000
# 2 22.0344 90.6111 63.0977 0.0000 0.0000 0.0000
# 3 17.6597 63.0977 139.3327 0.0000 0.0000 0.0000
# 4 0.0000 0.0000 0.0000 17.7845 0.0000 0.0000
# 5 0.0000 0.0000 0.0000 0.0000 15.2831 0.0000
# 6 0.0000 0.0000 0.0000 0.0000 0.0000 18.5874
#
#
#
# Elastic Compliance Matrix: (Units=1/GPa)
#
#
# Indices 1 2 3 4 5 6 
#
# 1 0.031882 -0.007214 -0.000774 0.000000 0.000000 0.000000
# 2 -0.007214 0.017752 -0.007125 0.000000 0.000000 0.000000
# 3 -0.000774 -0.007125 0.010502 0.000000 0.000000 0.000000
# 4 0.000000 0.000000 0.000000 0.056229 0.000000 0.000000
# 5 0.000000 0.000000 0.000000 0.000000 0.065432 0.000000
# 6 0.000000 0.000000 0.000000 0.000000 0.000000 0.053800
#
#
# Mechanical properties :
#
#
# Convention : Reuss Voigt Hill
#
# Bulk Modulus (GPa) = 33.43334 52.47859 42.95597
# Shear Modulus (GPa) = 18.12966 21.25980 19.69473
#
# Velocity S-wave (km/s) = 3.38519 3.66579 3.52828
# Velocity P-wave (km/s) = 6.03425 7.14762 6.61440
#
# Compressibility (1/GPa) = 0.02991026
#
# Stress axis : x y z
#
# Youngs Moduli (GPa) = 31.36546 56.33238 95.22338
#
# Poissons Ratio (x) = 0.40638 0.07370
# Poissons Ratio (y) = 0.22627 0.67844
# Poissons Ratio (z) = 0.02428 0.40135
#
# Static dielectric constant tensor:
#      x y z
#    x 1.534570 0.000000 0.000000 
#    y 0.000000 1.507240 0.000000 
#    z 0.000000 0.000000 1.543820 
# 
# From -- ./inp_files/19715.got.cif
#   From: 2010.05.17/outbox.cif.g08.bks.cpg/sg40_10_cif.got.tgz:19715.got - 2010.06.03 18:35:42.
