data_PCOD9362600
_publ_section_title
;
Structure prediction by ZEFSAII (Michael W. Deem and Ramdas Pophale) SiO2 
 PCOD9362600
Probable space group: A M A 2
;
_chemical_formula_sum "Si O2"
_cell_formula_units_Z 48
_cell_length_a 8.597645
_cell_length_b 14.180553
_cell_length_c 18.713133
_cell_angle_alpha 90.000000
_cell_angle_beta 90.000000
_cell_angle_gamma 90.000000
_cell_volume 2281.493210
_symmetry_space_group_name_H-M "A M A 2"
_symmetry_group_IT_number 40
_symmetry_cell_setting 'orthorhombic'
loop_
_space_group_symop_operation_xyz
x,y,z
-x,-y,z
1/2-x,y,z
1/2+x,-y,z
x,1/2+y,1/2+z
-x,1/2-y,1/2+z
1/2-x,1/2+y,1/2+z
1/2+x,1/2-y,1/2+z
loop_
_atom_site_type_symbol
_atom_site_label
_atom_site_fract_x
_atom_site_fract_y
_atom_site_fract_z
Si Si1 0.074299 0.901136 0.602220
Si Si2 0.934170 0.099733 0.985574
Si Si3 0.937327 0.605874 0.766226
Si Si4 0.072263 0.401699 0.274366
Si Si5 0.062907 0.194976 0.120535
Si Si6 0.431051 0.243505 0.873114
O O1 0.250000 0.899406 0.573931
O O2 0.078884 0.903889 0.688782
O O3 0.002415 0.797169 0.591764
O O4 0.000000 0.000000 0.578315
O O5 0.750000 0.093385 0.992414
O O6 0.012175 0.119444 0.062014
O O7 0.000000 0.000000 0.958083
O O8 0.979471 0.187267 0.934586
O O9 0.750000 0.606851 0.763038
O O10 0.983746 0.656121 0.841285
O O11 0.000000 0.500000 0.762361
O O12 0.001001 0.663626 0.697777
O O13 0.250000 0.387975 0.300241
O O14 0.000000 0.500000 0.297696
O O15 0.958830 0.322820 0.304217
O O16 0.250000 0.201979 0.125236
O O17 0.250000 0.248220 0.893075
#
# Coordination Sequence:
#
# PCOD9362600 Si02
#       6
#     8   8   8   8   8   8
#     4   9  19  33  55  86 121 159 199 248 301 357
#     4  12  26  44  66  93 126 167 210 258 316 377
#     4  11  24  41  65  94 125 163 210 261 314 373
#     4  10  18  31  52  83 118 155 194 241 298 354
#     4  11  22  41  65  93 130 168 211 260 313 372
#     4  11  23  40  61  89 122 160 204 256 310 369
#
# _framework density 21.038851999999999
#
# number of rings (size 3 to 8) (size 9 to 14) (size 15 to 20)
#    0.000    1.333    1.667    4.500    0.000    4.000 
#    0.000    0.833    0.000    0.000    0.000    0.000 
#    0.000    0.000    0.000    0.000    0.000    0.000 
#
# Total GULP energy -133973.517058 kJ/mol
# GULP energy per Si atom -5582.229877 kJ/mol
# Density = 2.099097 g / cm^3
# Si number density = 21.038852 Si / 1000 Ang^3
#
#
#
# Elastic Constant Matrix: (Units=GPa)
#
#
# Indices 1 2 3 4 5 6 
#
# 1 66.6777 26.5394 17.0429 0.0000 0.0000 0.0000
# 2 26.5394 130.4522 22.7428 0.0000 0.0000 0.0000
# 3 17.0429 22.7428 65.2488 0.0000 0.0000 0.0000
# 4 0.0000 0.0000 0.0000 -24.6251 0.0000 0.0000
# 5 0.0000 0.0000 0.0000 0.0000 13.9510 0.0000
# 6 0.0000 0.0000 0.0000 0.0000 0.0000 17.9513
#
#
#
# Elastic Compliance Matrix: (Units=1/GPa)
#
#
# Indices 1 2 3 4 5 6 
#
# 1 0.017018 -0.002861 -0.003448 0.000000 0.000000 0.000000
# 2 -0.002861 0.008643 -0.002265 0.000000 0.000000 0.000000
# 3 -0.003448 -0.002265 0.017016 0.000000 0.000000 0.000000
# 4 0.000000 0.000000 0.000000 -0.040609 0.000000 0.000000
# 5 0.000000 0.000000 0.000000 0.000000 0.071679 0.000000
# 6 0.000000 0.000000 0.000000 0.000000 0.000000 0.055706
#
#
# Mechanical properties :
#
#
# Convention : Reuss Voigt Hill
#
# Bulk Modulus (GPa) = 39.17206 43.89210 41.53208
# Shear Modulus (GPa) = 32.23518 14.52568 23.38043
#
# Velocity S-wave (km/s) = 3.91855 2.63044 3.33723
# Velocity P-wave (km/s) = 6.25561 5.48938 5.88498
#
# Compressibility (1/GPa) = 0.02552840
#
# Stress axis : x y z
#
# Youngs Moduli (GPa) = 58.76300 115.70612 58.76815
#
# Poissons Ratio (x) = 0.33103 0.20262
# Poissons Ratio (y) = 0.16812 0.13312
# Poissons Ratio (z) = 0.20260 0.26209
#
# Static dielectric constant tensor:
#      x y z
#    x 1.729400 0.000000 0.000000 
#    y 0.000000 1.792790 0.000000 
#    z 0.000000 0.000000 1.767780 
# 
# From -- ./inp_files/19205.got.cif
#   From: 2010.05.17/outbox.cif.g08.bks.cpg/sg40_10_cif.got.tgz:19205.got - 2010.06.03 18:35:42.
