data_PCOD9362349
_publ_section_title
;
Structure prediction by ZEFSAII (Michael W. Deem and Ramdas Pophale) SiO2 
 PCOD9362349
Probable space group: A M A 2
;
_chemical_formula_sum "Si O2"
_cell_formula_units_Z 64
_cell_length_a 26.603893
_cell_length_b 10.003116
_cell_length_c 10.648497
_cell_angle_alpha 90.000000
_cell_angle_beta 90.000000
_cell_angle_gamma 90.000000
_cell_volume 2833.797484
_symmetry_space_group_name_H-M "A M A 2"
_symmetry_group_IT_number 40
_symmetry_cell_setting 'orthorhombic'
loop_
_space_group_symop_operation_xyz
x,y,z
-x,-y,z
1/2-x,y,z
1/2+x,-y,z
x,1/2+y,1/2+z
-x,1/2-y,1/2+z
1/2-x,1/2+y,1/2+z
1/2+x,1/2-y,1/2+z
loop_
_atom_site_type_symbol
_atom_site_label
_atom_site_fract_x
_atom_site_fract_y
_atom_site_fract_z
Si Si1 0.349934 0.722524 0.987820
Si Si2 0.805236 0.725296 0.823710
Si Si3 0.590207 0.330668 0.234064
Si Si4 0.887643 0.868373 0.217529
Si Si5 0.449093 0.917509 0.352808
Si Si6 0.804401 0.049230 0.575424
Si Si7 0.306596 0.977964 0.087507
Si Si8 0.586572 0.602491 0.137940
O O1 0.366055 0.681758 0.849770
O O2 0.395121 0.713586 0.090739
O O3 0.312042 0.606142 0.035925
O O4 0.326766 0.870076 0.988694
O O5 0.750000 0.792693 0.816011
O O6 0.855425 0.813413 0.804598
O O7 0.806007 0.614317 0.713241
O O8 0.807026 0.640335 0.950955
O O9 0.551768 0.233346 0.303628
O O10 0.568465 0.479509 0.221792
O O11 0.844601 0.902364 0.116705
O O12 0.925515 0.753945 0.171659
O O13 0.914266 0.006068 0.252911
O O14 0.426263 0.921927 0.492599
O O15 0.500000 0.000000 0.356677
O O16 0.750000 0.068715 0.634733
O O17 0.852992 0.089860 0.653051
O O18 0.250000 0.023537 0.062187
#
# Coordination Sequence:
#
# PCOD9362349 Si02
#       8
#     8   8   8   8   8   8   8   8
#     4  10  18  35  63  90 133 168 217 254 316 373
#     4   9  15  29  60  90 122 171 215 248 298 370
#     4  10  19  41  65  94 129 164 209 255 321 381
#     4  12  23  43  65  97 130 173 212 268 321 384
#     4  12  25  48  72  92 122 162 213 274 339 393
#     4  10  17  33  60  91 129 173 212 251 306 369
#     4  10  19  32  58  95 133 175 220 256 301 371
#     4  11  25  41  69  97 133 164 212 264 322 381
#
# _framework density 22.584534999999999
#
# number of rings (size 3 to 8) (size 9 to 14) (size 15 to 20)
#    0.000    1.500    7.500    0.375    0.000    6.000 
#    0.000    0.000    0.000    0.000    0.000    0.000 
#    0.000    0.000    0.000    0.000    0.000    0.000 
#
# Total GULP energy -178777.567923 kJ/mol
# GULP energy per Si atom -5586.798998 kJ/mol
# Density = 2.253313 g / cm^3
# Si number density = 22.584535 Si / 1000 Ang^3
#
#
#
# Elastic Constant Matrix: (Units=GPa)
#
#
# Indices 1 2 3 4 5 6 
#
# 1 17.7164 -22.1298 -2.8969 0.0000 0.0000 0.0000
# 2 -22.1298 101.1596 27.8968 0.0000 0.0000 0.0000
# 3 -2.8969 27.8968 31.2184 0.0000 0.0000 0.0000
# 4 0.0000 0.0000 0.0000 23.6496 0.0000 0.0000
# 5 0.0000 0.0000 0.0000 0.0000 0.0775 0.0000
# 6 0.0000 0.0000 0.0000 0.0000 0.0000 -0.8548
#
#
#
# Elastic Compliance Matrix: (Units=1/GPa)
#
#
# Indices 1 2 3 4 5 6 
#
# 1 0.080397 0.020609 -0.010956 0.000000 0.000000 0.000000
# 2 0.020609 0.018401 -0.014531 0.000000 0.000000 0.000000
# 3 -0.010956 -0.014531 0.044000 0.000000 0.000000 0.000000
# 4 0.000000 0.000000 0.000000 0.042284 0.000000 0.000000
# 5 0.000000 0.000000 0.000000 0.000000 12.896923 0.000000
# 6 0.000000 0.000000 0.000000 0.000000 0.000000 -1.169865
#
#
# Mechanical properties :
#
#
# Convention : Reuss Voigt Hill
#
# Bulk Modulus (GPa) = 7.51639 17.31495 12.41567
# Shear Modulus (GPa) = 0.41784 14.38941 7.40363
#
# Velocity S-wave (km/s) = 0.43060 2.52689 1.81254
# Velocity P-wave (km/s) = 1.89276 4.02454 3.14480
#
# Compressibility (1/GPa) = 0.13304264
#
# Stress axis : x y z
#
# Youngs Moduli (GPa) = 12.43835 54.34505 22.72708
#
# Poissons Ratio (x) = -1.11999 0.24899
# Poissons Ratio (y) = -0.25634 0.33024
# Poissons Ratio (z) = 0.13627 0.78967
#
# Static dielectric constant tensor:
#      x y z
#    x 1.881850 0.000000 0.000000 
#    y 0.000000 1.896800 0.000000 
#    z 0.000000 0.000000 1.836090 
# 
# From -- ./inp_files/14395.got.cif
#   From: 2010.05.17/outbox.cif.g08.bks.cpg/sg40_8_cif.got.tgz:14395.got - 2010.06.03 18:35:42.
