data_PCOD9362784
_publ_section_title
;
Structure prediction by ZEFSAII (Michael W. Deem and Ramdas Pophale) SiO2 
 PCOD9362784
Probable space group: A M A 2
;
_chemical_formula_sum "Si O2"
_cell_formula_units_Z 60
_cell_length_a 27.348031
_cell_length_b 17.888756
_cell_length_c 6.472303
_cell_angle_alpha 90.000000
_cell_angle_beta 90.000000
_cell_angle_gamma 90.000000
_cell_volume 3166.394660
_symmetry_space_group_name_H-M "A M A 2"
_symmetry_group_IT_number 40
_symmetry_cell_setting 'orthorhombic'
loop_
_space_group_symop_operation_xyz
x,y,z
-x,-y,z
1/2-x,y,z
1/2+x,-y,z
x,1/2+y,1/2+z
-x,1/2-y,1/2+z
1/2-x,1/2+y,1/2+z
1/2+x,1/2-y,1/2+z
loop_
_atom_site_type_symbol
_atom_site_label
_atom_site_fract_x
_atom_site_fract_y
_atom_site_fract_z
Si Si1 0.697557 0.064476 0.242660
Si Si2 0.115693 0.480424 0.442884
Si Si3 0.153337 0.856208 0.621828
Si Si4 0.099842 0.766267 0.260465
Si Si5 0.969141 0.597729 0.656632
Si Si6 0.695830 0.221364 0.002256
Si Si7 0.443066 0.607277 0.349197
Si Si8 0.500000 0.500000 0.032498
O O1 0.750000 0.025374 0.230410
O O2 0.686444 0.093399 0.471231
O O3 0.700250 0.140450 0.110345
O O4 0.652721 0.023057 0.135005
O O5 0.129005 0.417905 0.272863
O O6 0.061680 0.458210 0.515519
O O7 0.108808 0.565303 0.375837
O O8 0.118924 0.807233 0.470320
O O9 0.182551 0.798258 0.766212
O O10 0.063991 0.828132 0.161187
O O11 0.147645 0.747719 0.119217
O O12 0.068795 0.692000 0.292044
O O13 0.971869 0.556491 0.877306
O O14 0.021577 0.609907 0.550613
O O15 0.750000 0.257473 0.021082
O O16 0.469223 0.557009 0.173620
#
# Coordination Sequence:
#
# PCOD9362784 Si02
#       8
#     8   8   8   8   8   8   8   4
#     4   9  18  32  60  94 119 152 202 250 292 352
#     4  11  20  41  61  86 122 156 202 244 296 360
#     4  10  18  35  66  86 122 155 201 242 305 348
#     4  11  25  39  60  94 124 154 202 254 296 359
#     4  12  23  42  59  89 117 158 204 251 291 361
#     4   9  18  36  60  90 124 156 199 247 297 359
#     4  12  27  40  61  89 120 162 200 248 308 354
#     4  12  24  42  66  80 120 162 202 244 308 354
#
# _framework density 18.948998
#
# number of rings (size 3 to 8) (size 9 to 14) (size 15 to 20)
#    0.000    1.333    6.667    1.200    1.867    2.133 
#    0.000    0.667    0.000    1.600    0.000    0.000 
#    0.000    0.000    0.000    0.000    0.000    0.000 
#
# Total GULP energy -167049.063087 kJ/mol
# GULP energy per Si atom -5568.302103 kJ/mol
# Density = 1.890587 g / cm^3
# Si number density = 18.948998 Si / 1000 Ang^3
#
#
#
# Elastic Constant Matrix: (Units=GPa)
#
#
# Indices 1 2 3 4 5 6 
#
# 1 94.4017 31.0369 36.2174 0.0000 0.0000 0.0000
# 2 31.0369 74.6470 16.9228 0.0000 0.0000 0.0000
# 3 36.2174 16.9228 94.8479 0.0000 0.0000 0.0000
# 4 0.0000 0.0000 0.0000 15.5418 0.0000 0.0000
# 5 0.0000 0.0000 0.0000 0.0000 -17.0346 0.0000
# 6 0.0000 0.0000 0.0000 0.0000 0.0000 17.3476
#
#
#
# Elastic Compliance Matrix: (Units=1/GPa)
#
#
# Indices 1 2 3 4 5 6 
#
# 1 0.013862 -0.004756 -0.004445 0.000000 0.000000 0.000000
# 2 -0.004756 0.015593 -0.000966 0.000000 0.000000 0.000000
# 3 -0.004445 -0.000966 0.012413 0.000000 0.000000 0.000000
# 4 0.000000 0.000000 0.000000 0.064342 0.000000 0.000000
# 5 0.000000 0.000000 0.000000 0.000000 -0.058704 0.000000
# 6 0.000000 0.000000 0.000000 0.000000 0.000000 0.057645
#
#
# Mechanical properties :
#
#
# Convention : Reuss Voigt Hill
#
# Bulk Modulus (GPa) = 46.43746 48.02785 47.23265
# Shear Modulus (GPa) = 37.68984 15.15227 26.42105
#
# Velocity S-wave (km/s) = 4.46468 2.83085 3.73812
# Velocity P-wave (km/s) = 7.15105 6.00715 6.60391
#
# Compressibility (1/GPa) = 0.02153434
#
# Stress axis : x y z
#
# Youngs Moduli (GPa) = 72.14069 64.13216 80.56270
#
# Poissons Ratio (x) = 0.30501 0.35806
# Poissons Ratio (y) = 0.34309 0.07783
# Poissons Ratio (z) = 0.32063 0.06195
#
# Static dielectric constant tensor:
#      x y z
#    x 1.717920 0.000000 0.000000 
#    y 0.000000 1.629190 0.000000 
#    z 0.000000 0.000000 1.704820 
# 
# From -- ./inp_files/3163.got.cif
#   From: 2010.05.17/outbox.cif.g08.bks.cpg/sg40_2_cif.got.tgz:3163.got - 2010.06.03 18:35:42.
