data_PCOD9362041
_publ_section_title
;
Structure prediction by ZEFSAII (Michael W. Deem and Ramdas Pophale) SiO2 
 PCOD9362041
Probable space group: A B M 2
;
_chemical_formula_sum "Si O2"
_cell_formula_units_Z 44
_cell_length_a 7.698602
_cell_length_b 20.314602
_cell_length_c 14.213648
_cell_angle_alpha 90.000000
_cell_angle_beta 90.000000
_cell_angle_gamma 90.000000
_cell_volume 2222.929771
_symmetry_space_group_name_H-M "A B M 2"
_symmetry_group_IT_number 39
_symmetry_cell_setting 'orthorhombic'
loop_
_space_group_symop_operation_xyz
x,y,z
-x,-y,z
-x,1/2+y,z
x,1/2-y,z
x,1/2+y,1/2+z
-x,1/2-y,1/2+z
-x,y,1/2+z
x,-y,1/2+z
loop_
_atom_site_type_symbol
_atom_site_label
_atom_site_fract_x
_atom_site_fract_y
_atom_site_fract_z
Si Si1 0.731785 0.543268 0.690450
Si Si2 0.886597 0.602353 0.195365
Si Si3 0.104011 0.671875 0.892539
Si Si4 0.234781 0.671287 0.507095
Si Si5 0.395993 0.899024 0.997589
Si Si6 0.500000 0.000000 0.851229
O O1 0.784386 0.466405 0.682383
O O2 0.630850 0.569519 0.599746
O O3 0.613844 0.546002 0.783168
O O4 0.910099 0.583624 0.695822
O O5 0.850140 0.636207 0.295122
O O6 0.836738 0.648844 0.108736
O O7 0.106205 0.750000 0.878549
O O8 0.243817 0.651454 0.971284
O O9 0.913339 0.652806 0.931204
O O10 0.258138 0.750000 0.504523
O O11 0.416653 0.634944 0.490158
O O12 0.383534 0.956725 0.920472
#
# Coordination Sequence:
#
# PCOD9362041 Si02
#       6
#     8   8   8   8   8   4
#     4  11  24  40  67  99 135 173 216 273 337 392
#     4  11  22  44  66  98 134 175 219 269 336 392
#     4  11  24  45  69  95 132 178 224 272 323 390
#     4  11  24  44  68  97 134 176 224 272 323 394
#     4  12  24  43  68  98 134 175 219 273 331 395
#     4  12  22  40  64  98 136 170 220 272 328 396
#
# _framework density 19.793697999999999
#
# number of rings (size 3 to 8) (size 9 to 14) (size 15 to 20)
#    0.000    0.727    3.636    4.909    0.000    0.000 
#    0.000    0.000    0.000    0.000    0.000    0.000 
#    0.000    0.000    0.000    0.000    0.000    0.000 
#
# Total GULP energy -123041.259216 kJ/mol
# GULP energy per Si atom -5592.784510 kJ/mol
# Density = 1.974865 g / cm^3
# Si number density = 19.793698 Si / 1000 Ang^3
#
#
#
# Elastic Constant Matrix: (Units=GPa)
#
#
# Indices 1 2 3 4 5 6 
#
# 1 94.6901 29.0003 11.7942 0.0000 0.0000 0.0000
# 2 29.0003 61.9018 37.8692 0.0000 0.0000 0.0000
# 3 11.7942 37.8692 92.9469 0.0000 0.0000 0.0000
# 4 0.0000 0.0000 0.0000 19.8328 0.0000 0.0000
# 5 0.0000 0.0000 0.0000 0.0000 29.8809 0.0000
# 6 0.0000 0.0000 0.0000 0.0000 0.0000 34.2770
#
#
#
# Elastic Compliance Matrix: (Units=1/GPa)
#
#
# Indices 1 2 3 4 5 6 
#
# 1 0.012407 -0.006460 0.001057 0.000000 0.000000 0.000000
# 2 -0.006460 0.024881 -0.009318 0.000000 0.000000 0.000000
# 3 0.001057 -0.009318 0.014421 0.000000 0.000000 0.000000
# 4 0.000000 0.000000 0.000000 0.050422 0.000000 0.000000
# 5 0.000000 0.000000 0.000000 0.000000 0.033466 0.000000
# 6 0.000000 0.000000 0.000000 0.000000 0.000000 0.029174
#
#
# Mechanical properties :
#
#
# Convention : Reuss Voigt Hill
#
# Bulk Modulus (GPa) = 44.90382 45.20734 45.05558
# Shear Modulus (GPa) = 24.79740 28.18979 26.49360
#
# Velocity S-wave (km/s) = 3.54332 3.77793 3.66250
# Velocity P-wave (km/s) = 6.28294 6.47450 6.37944
#
# Compressibility (1/GPa) = 0.02226982
#
# Stress axis : x y z
#
# Youngs Moduli (GPa) = 80.59694 40.19129 69.34386
#
# Poissons Ratio (x) = 0.25962 -0.07333
# Poissons Ratio (y) = 0.52063 0.64612
# Poissons Ratio (z) = -0.08523 0.37448
#
# Static dielectric constant tensor:
#      x y z
#    x 1.710220 0.000000 0.000000 
#    y 0.000000 1.673390 0.000000 
#    z 0.000000 0.000000 1.666430 
# 
# From -- ./inp_files/8274.got.cif
#   From: 2010.05.17/outbox.cif.g08.bks.cpg/sg39_5_cif.got.tgz:8274.got - 2010.06.03 18:22:40.
