data_PCOD9362207
_publ_section_title
;
Structure prediction by ZEFSAII (Michael W. Deem and Ramdas Pophale) SiO2 
 PCOD9362207
Probable space group: A B M 2
;
_chemical_formula_sum "Si O2"
_cell_formula_units_Z 32
_cell_length_a 24.000000
_cell_length_b 9.000000
_cell_length_c 15.000000
_cell_angle_alpha 90.000000
_cell_angle_beta 90.000000
_cell_angle_gamma 90.000000
_cell_volume 3240.000000
_symmetry_space_group_name_H-M "A B M 2"
_symmetry_group_IT_number 39
_symmetry_cell_setting 'orthorhombic'
loop_
_space_group_symop_operation_xyz
x,y,z
-x,-y,z
-x,1/2+y,z
x,1/2-y,z
x,1/2+y,1/2+z
-x,1/2-y,1/2+z
-x,y,1/2+z
x,-y,1/2+z
loop_
_atom_site_type_symbol
_atom_site_label
_atom_site_fract_x
_atom_site_fract_y
_atom_site_fract_z
Si Si1 0.766634 0.574953 0.462130
Si Si2 0.440156 0.571338 0.290034
Si Si3 0.861792 0.076039 0.730788
Si Si4 0.943541 0.074029 0.571441
Si Si5 0.622122 0.426423 0.630220
Si Si6 0.119593 0.073683 0.902837
Si Si7 0.640632 0.070798 0.936171
Si Si8 0.251256 0.924533 0.649787
O O1 0.776679 0.750000 0.453682
O O2 0.819331 0.488422 0.425176
O O3 0.706339 0.541665 0.419507
O O4 0.759690 0.527242 0.564896
O O5 0.500000 0.500000 0.309966
O O6 0.441879 0.750000 0.292203
O O7 0.420372 0.511507 0.193735
O O8 0.396920 0.506642 0.362081
O O9 0.866927 0.250000 0.753549
O O10 0.891394 0.050757 0.636619
O O11 0.796107 0.041769 0.721828
O O12 0.892300 0.979551 0.804002
O O13 0.953041 0.250000 0.566681
O O14 0.924545 0.016317 0.474984
O O15 0.000000 0.000000 0.603410
O O16 0.609591 0.250000 0.623570
O O17 0.625979 0.500430 0.532677
O O18 0.684061 0.439923 0.673591
O O19 0.120890 0.250000 0.909654
O O20 0.632826 0.250000 0.937337
O O21 0.242786 0.750000 0.624434
#
# Coordination Sequence:
#
# PCOD9362207 Si02
#       8
#     8   8   8   8   8   8   8   8
#     4  10  20  35  60  91 125 161 201 248 303 364
#     4  12  26  44  65  91 124 165 212 259 307 367
#     4  10  21  39  60  88 122 160 199 247 305 361
#     4  10  23  43  64  84 119 161 204 253 304 358
#     4  10  21  39  64  94 126 164 204 252 309 368
#     4  11  23  39  59  89 123 160 203 250 302 362
#     4  10  22  41  63  92 127 164 207 256 310 369
#     4   9  18  36  61  87 125 162 196 245 306 365
#
# _framework density 9.8765429999999999
#
# number of rings (size 3 to 8) (size 9 to 14) (size 15 to 20)
#    0.000    1.750    1.250    2.625    1.750    5.000 
#    0.000    5.000    0.000    0.000    0.000    0.000 
#    0.000    0.000    0.000    0.000    0.000    0.000 
#
# Total GULP energy -178710.742366 kJ/mol
# GULP energy per Si atom -5584.710699 kJ/mol
# Density = 0.985406 g / cm^3
# Si number density = 9.876543 Si / 1000 Ang^3
#
#
#
# Elastic Constant Matrix: (Units=GPa)
#
#
# Indices 1 2 3 4 5 6 
#
# 1 52.2546 24.8190 3.8337 0.0000 0.0000 0.0000
# 2 24.8190 66.1071 15.3828 0.0000 0.0000 0.0000
# 3 3.8337 15.3828 37.4070 0.0000 0.0000 0.0000
# 4 0.0000 0.0000 0.0000 32.7236 0.0000 0.0000
# 5 0.0000 0.0000 0.0000 0.0000 20.0866 0.0000
# 6 0.0000 0.0000 0.0000 0.0000 0.0000 30.3456
#
#
#
# Elastic Compliance Matrix: (Units=1/GPa)
#
#
# Indices 1 2 3 4 5 6 
#
# 1 0.023351 -0.009079 0.001340 0.000000 0.000000 0.000000
# 2 -0.009079 0.020257 -0.007400 0.000000 0.000000 0.000000
# 3 0.001340 -0.007400 0.029639 0.000000 0.000000 0.000000
# 4 0.000000 0.000000 0.000000 0.030559 0.000000 0.000000
# 5 0.000000 0.000000 0.000000 0.000000 0.049784 0.000000
# 6 0.000000 0.000000 0.000000 0.000000 0.000000 0.032954
#
#
# Mechanical properties :
#
#
# Convention : Reuss Voigt Hill
#
# Bulk Modulus (GPa) = 23.27197 27.09331 25.18264
# Shear Modulus (GPa) = 21.63156 24.08004 22.85580
#
# Velocity S-wave (km/s) = 3.31282 3.49528 3.40527
# Velocity P-wave (km/s) = 5.14198 5.48043 5.31390
#
# Compressibility (1/GPa) = 0.04297016
#
# Stress axis : x y z
#
# Youngs Moduli (GPa) = 42.82527 49.36491 33.73964
#
# Poissons Ratio (x) = 0.44816 -0.04522
# Poissons Ratio (y) = 0.38879 0.24967
# Poissons Ratio (z) = -0.05740 0.36530
#
# Static dielectric constant tensor:
#      x y z
#    x 1.682520 0.000000 0.000000 
#    y 0.000000 1.655050 0.000000 
#    z 0.000000 0.000000 1.713860 
# 
# From -- ./inp_files/10591.got.cif
#   From: 2010.05.17/outbox.ucp.g08.bks.cvg/sg39_6_cif.got.tgz:10591.got - 2010.06.11 10:41:16.
