data_PCOD9362572
_publ_section_title
;
Structure prediction by ZEFSAII (Michael W. Deem and Ramdas Pophale) SiO2 
 PCOD9362572
Probable space group: A M A 2
;
_chemical_formula_sum "Si O2"
_cell_formula_units_Z 32
_cell_length_a 5.525524
_cell_length_b 23.455653
_cell_length_c 11.053813
_cell_angle_alpha 90.000000
_cell_angle_beta 90.000000
_cell_angle_gamma 90.000000
_cell_volume 1432.626931
_symmetry_space_group_name_H-M "A M A 2"
_symmetry_group_IT_number 40
_symmetry_cell_setting 'orthorhombic'
loop_
_space_group_symop_operation_xyz
x,y,z
-x,-y,z
1/2-x,y,z
1/2+x,-y,z
x,1/2+y,1/2+z
-x,1/2-y,1/2+z
1/2-x,1/2+y,1/2+z
1/2+x,1/2-y,1/2+z
loop_
_atom_site_type_symbol
_atom_site_label
_atom_site_fract_x
_atom_site_fract_y
_atom_site_fract_z
Si Si1 0.750000 0.352295 0.432730
Si Si2 0.750000 0.388094 0.074640
Si Si3 0.750000 0.984197 0.389688
Si Si4 0.250000 0.321578 0.534462
Si Si5 0.750000 0.227915 0.298937
Si Si6 0.750000 0.791669 0.410052
Si Si7 0.250000 0.518999 0.380802
Si Si8 0.250000 0.941475 0.639014
O O1 0.505916 0.352378 0.513843
O O2 0.750000 0.294452 0.347872
O O3 0.750000 0.413051 0.366149
O O4 0.496593 0.405509 0.135346
O O5 0.750000 0.420775 0.943673
O O6 0.750000 0.322934 0.038334
O O7 0.500000 0.000000 0.325983
O O8 0.750000 0.021807 0.515059
O O9 0.250000 0.286235 0.657883
O O10 0.250000 0.275823 0.426878
O O11 0.506836 0.197514 0.347933
O O12 0.500000 0.500000 0.442260
O O13 0.250000 0.483400 0.253735
#
# Coordination Sequence:
#
# PCOD9362572 Si02
#       8
#     4   4   4   4   4   4   4   4
#     4  10  23  41  60  92 128 155 201 258 303 362
#     4  10  18  31  48  74 116 152 187 235 280 346
#     4   8  14  24  38  60  92 136 171 200 258 332
#     4  10  21  40  62  84 121 166 200 251 308 351
#     4  10  21  39  63  90 122 162 209 249 298 366
#     4  10  21  36  57  91 122 156 207 250 300 371
#     4  12  23  37  57  87 125 156 197 245 302 373
#     4  10  19  30  47  76 114 155 186 220 291 369
#
# _framework density 22.336589
#
# number of rings (size 3 to 8) (size 9 to 14) (size 15 to 20)
#    0.000    2.000    0.000    5.250    0.000    3.000 
#    0.000    0.000    0.000    0.000    0.000   52.500 
#    0.000    0.000    0.000    0.000    0.000    0.000 
#
# Total GULP energy -89199.126689 kJ/mol
# GULP energy per Si atom -5574.945418 kJ/mol
# Density = 2.228575 g / cm^3
# Si number density = 22.336589 Si / 1000 Ang^3
#
#
#
# Elastic Constant Matrix: (Units=GPa)
#
#
# Indices 1 2 3 4 5 6 
#
# 1 273.0772 62.1361 47.4758 0.0000 0.0000 0.0000
# 2 62.1361 94.4971 24.8754 0.0000 0.0000 0.0000
# 3 47.4758 24.8754 47.5736 0.0000 0.0000 0.0000
# 4 0.0000 0.0000 0.0000 22.7658 0.0000 0.0000
# 5 0.0000 0.0000 0.0000 0.0000 3.9431 0.0000
# 6 0.0000 0.0000 0.0000 0.0000 0.0000 6.1715
#
#
#
# Elastic Compliance Matrix: (Units=1/GPa)
#
#
# Indices 1 2 3 4 5 6 
#
# 1 0.004794 -0.002195 -0.003636 0.000000 0.000000 0.000000
# 2 -0.002195 0.013276 -0.004752 0.000000 0.000000 0.000000
# 3 -0.003636 -0.004752 0.027133 0.000000 0.000000 0.000000
# 4 0.000000 0.000000 0.000000 0.043926 0.000000 0.000000
# 5 0.000000 0.000000 0.000000 0.000000 0.253611 0.000000
# 6 0.000000 0.000000 0.000000 0.000000 0.000000 0.162034
#
#
# Mechanical properties :
#
#
# Convention : Reuss Voigt Hill
#
# Bulk Modulus (GPa) = 41.60077 76.01361 58.80719
# Shear Modulus (GPa) = 9.36415 25.28677 17.32546
#
# Velocity S-wave (km/s) = 2.04973 3.36829 2.78808
# Velocity P-wave (km/s) = 4.92613 7.01655 6.06213
#
# Compressibility (1/GPa) = 0.02403802
#
# Stress axis : x y z
#
# Youngs Moduli (GPa) = 208.61502 75.32190 36.85524
#
# Poissons Ratio (x) = 0.16532 0.13401
# Poissons Ratio (y) = 0.45787 0.17512
# Poissons Ratio (z) = 0.75853 0.35790
#
# Static dielectric constant tensor:
#      x y z
#    x 1.935410 0.000000 0.000000 
#    y 0.000000 1.899400 0.000000 
#    z 0.000000 0.000000 1.808960 
# 
# From -- ./inp_files/9596.got.cif
#   From: 2010.05.17/outbox.cif.g08.bks.cpg/sg40_5_cif.got.tgz:9596.got - 2010.06.03 18:35:42.
