data_PCOD9362017
_publ_section_title
;
Structure prediction by ZEFSAII (Michael W. Deem and Ramdas Pophale) SiO2 
 PCOD9362017
Probable space group: A B M 2
;
_chemical_formula_sum "Si O2"
_cell_formula_units_Z 64
_cell_length_a 14.389888
_cell_length_b 8.436281
_cell_length_c 26.959647
_cell_angle_alpha 90.000000
_cell_angle_beta 90.000000
_cell_angle_gamma 90.000000
_cell_volume 3272.824007
_symmetry_space_group_name_H-M "A B M 2"
_symmetry_group_IT_number 39
_symmetry_cell_setting 'orthorhombic'
loop_
_space_group_symop_operation_xyz
x,y,z
-x,-y,z
-x,1/2+y,z
x,1/2-y,z
x,1/2+y,1/2+z
-x,1/2-y,1/2+z
-x,y,1/2+z
x,-y,1/2+z
loop_
_atom_site_type_symbol
_atom_site_label
_atom_site_fract_x
_atom_site_fract_y
_atom_site_fract_z
Si Si1 0.289750 0.943696 0.745440
Si Si2 0.394498 0.559853 0.646268
Si Si3 0.106306 0.059921 0.399740
Si Si4 0.393975 0.558243 0.954069
Si Si5 0.105413 0.062264 0.005417
Si Si6 0.104620 0.940811 0.789433
Si Si7 0.717114 0.060060 0.051204
Si Si8 0.394204 0.441696 0.344740
O O1 0.290937 0.750000 0.745145
O O2 0.344263 0.996965 0.696768
O O3 0.182099 0.992968 0.750192
O O4 0.340254 0.996411 0.795993
O O5 0.500000 0.500000 0.643675
O O6 0.396131 0.750000 0.646808
O O7 0.335671 0.503376 0.599157
O O8 0.111012 0.250000 0.403478
O O9 0.140422 0.013740 0.344934
O O10 0.143166 0.991717 0.451191
O O11 0.000000 0.000000 0.398960
O O12 0.500000 0.500000 0.958073
O O13 0.393297 0.750000 0.954781
O O14 0.357971 0.508831 0.899346
O O15 0.336835 0.502641 0.001669
O O16 0.102755 0.250000 0.006928
O O17 0.176966 0.996271 0.045693
O O18 0.000000 0.000000 0.010931
O O19 0.100603 0.750000 0.789347
O O20 0.000000 0.000000 0.781835
O O21 0.714954 0.250000 0.051724
O O22 0.500000 0.500000 0.341583
O O23 0.392356 0.250000 0.344125
#
# Coordination Sequence:
#
# PCOD9362017 Si02
#       8
#     8   8   8   8   8   8   8   8
#     4   9  19  35  58  82 109 149 194 234 286 347
#     4  11  23  41  63  87 114 149 194 245 297 353
#     4   9  16  28  50  77 111 152 192 232 278 334
#     4   9  19  33  54  80 111 145 182 228 286 348
#     4  11  22  37  57  84 119 156 195 241 289 345
#     4   9  18  33  54  80 113 152 193 237 283 340
#     4  11  23  39  60  86 113 151 198 243 292 349
#     4   9  17  32  53  78 108 142 178 224 281 342
#
# _framework density 19.554977000000001
#
# number of rings (size 3 to 8) (size 9 to 14) (size 15 to 20)
#    0.000    2.250    0.000    3.750    1.750    2.500 
#    0.000    3.125    0.000    1.500    0.000    0.000 
#    0.000    0.000    0.000    0.000    0.000    0.000 
#
# Total GULP energy -178576.397538 kJ/mol
# GULP energy per Si atom -5580.512423 kJ/mol
# Density = 1.951047 g / cm^3
# Si number density = 19.554977 Si / 1000 Ang^3
#
#
#
# Elastic Constant Matrix: (Units=GPa)
#
#
# Indices 1 2 3 4 5 6 
#
# 1 133.1586 23.7453 96.7675 0.0000 0.0000 0.0000
# 2 23.7453 39.9064 33.5705 0.0000 0.0000 0.0000
# 3 96.7675 33.5705 154.3307 0.0000 0.0000 0.0000
# 4 0.0000 0.0000 0.0000 18.0921 0.0000 0.0000
# 5 0.0000 0.0000 0.0000 0.0000 39.5275 0.0000
# 6 0.0000 0.0000 0.0000 0.0000 0.0000 22.7933
#
#
#
# Elastic Compliance Matrix: (Units=1/GPa)
#
#
# Indices 1 2 3 4 5 6 
#
# 1 0.013839 -0.001144 -0.008428 0.000000 0.000000 0.000000
# 2 -0.001144 0.030766 -0.005975 0.000000 0.000000 0.000000
# 3 -0.008428 -0.005975 0.013064 0.000000 0.000000 0.000000
# 4 0.000000 0.000000 0.000000 0.055273 0.000000 0.000000
# 5 0.000000 0.000000 0.000000 0.000000 0.025299 0.000000
# 6 0.000000 0.000000 0.000000 0.000000 0.000000 0.043873
#
#
# Mechanical properties :
#
#
# Convention : Reuss Voigt Hill
#
# Bulk Modulus (GPa) = 37.63115 70.61805 54.12460
# Shear Modulus (GPa) = 22.51598 27.63675 25.07637
#
# Velocity S-wave (km/s) = 3.39694 3.76345 3.58488
# Velocity P-wave (km/s) = 5.88822 7.42130 6.69876
#
# Compressibility (1/GPa) = 0.02657373
#
# Stress axis : x y z
#
# Youngs Moduli (GPa) = 72.26106 32.50376 76.54748
#
# Poissons Ratio (x) = 0.03720 0.64515
# Poissons Ratio (y) = 0.08269 0.45735
# Poissons Ratio (z) = 0.60903 0.19420
#
# Static dielectric constant tensor:
#      x y z
#    x 1.681940 0.000000 0.000000 
#    y 0.000000 1.679400 0.000000 
#    z 0.000000 0.000000 1.700430 
# 
# From -- ./inp_files/16267.got.cif
#   From: 2010.05.17/outbox.cif.g08.bks.cpg/sg39_9_cif.got.tgz:16267.got - 2010.06.03 18:22:40.
