data_PCOD9362151
_publ_section_title
;
Structure prediction by ZEFSAII (Michael W. Deem and Ramdas Pophale) SiO2 
 PCOD9362151
Probable space group: A B M 2
;
_chemical_formula_sum "Si O2"
_cell_formula_units_Z 32
_cell_length_a 4.802543
_cell_length_b 22.551715
_cell_length_c 12.309999
_cell_angle_alpha 90.000000
_cell_angle_beta 90.000000
_cell_angle_gamma 90.000000
_cell_volume 1333.241594
_symmetry_space_group_name_H-M "A B M 2"
_symmetry_group_IT_number 39
_symmetry_cell_setting 'orthorhombic'
loop_
_space_group_symop_operation_xyz
x,y,z
-x,-y,z
-x,1/2+y,z
x,1/2-y,z
x,1/2+y,1/2+z
-x,1/2-y,1/2+z
-x,y,1/2+z
x,-y,1/2+z
loop_
_atom_site_type_symbol
_atom_site_label
_atom_site_fract_x
_atom_site_fract_y
_atom_site_fract_z
Si Si1 0.748513 0.459671 0.370650
Si Si2 0.476416 0.123444 0.551482
Si Si3 0.903896 0.250000 0.800657
Si Si4 0.028339 0.623865 0.692355
Si Si5 0.399265 0.250000 0.949105
O O1 0.500000 0.500000 0.322987
O O2 0.589938 0.419780 0.459197
O O3 0.902352 0.418799 0.282761
O O4 0.000000 0.500000 0.417565
O O5 0.156384 0.117436 0.583920
O O6 0.533356 0.190681 0.514446
O O7 0.656134 0.111152 0.659355
O O8 0.978917 0.308965 0.735458
O O9 0.080866 0.250000 0.911610
O O10 0.584263 0.250000 0.839062
#
# Coordination Sequence:
#
# PCOD9362151 Si02
#       5
#     8   8   4   8   4
#     4  12  28  47  72 103 144 196 246 298 348 420
#     4  12  26  46  74 107 142 186 237 294 361 427
#     4  12  24  44  76 105 143 184 226 294 368 427
#     4  12  26  46  74 107 142 186 237 294 361 427
#     4  12  24  44  76 105 143 184 226 294 368 427
#
# _framework density 24.001650999999999
#
# number of rings (size 3 to 8) (size 9 to 14) (size 15 to 20)
#    0.000    0.000    2.500    7.500    3.500    6.000 
#    0.000    0.000    0.000    0.000    0.000    0.000 
#    0.000    0.000    0.000    0.000    0.000    0.000 
#
# Total GULP energy -89745.166494 kJ/mol
# GULP energy per Si atom -5609.072906 kJ/mol
# Density = 2.394702 g / cm^3
# Si number density = 24.001651 Si / 1000 Ang^3
#
#
#
# Elastic Constant Matrix: (Units=GPa)
#
#
# Indices 1 2 3 4 5 6 
#
# 1 95.7434 30.2513 0.8238 0.0000 0.0000 0.0000
# 2 30.2513 149.7053 48.9775 0.0000 0.0000 0.0000
# 3 0.8238 48.9775 64.6404 0.0000 0.0000 0.0000
# 4 0.0000 0.0000 0.0000 111.8633 0.0000 0.0000
# 5 0.0000 0.0000 0.0000 0.0000 52.5681 0.0000
# 6 0.0000 0.0000 0.0000 0.0000 0.0000 12.4670
#
#
#
# Elastic Compliance Matrix: (Units=1/GPa)
#
#
# Indices 1 2 3 4 5 6 
#
# 1 0.011372 -0.002992 0.002122 0.000000 0.000000 0.000000
# 2 -0.002992 0.009669 -0.007288 0.000000 0.000000 0.000000
# 3 0.002122 -0.007288 0.020965 0.000000 0.000000 0.000000
# 4 0.000000 0.000000 0.000000 0.008939 0.000000 0.000000
# 5 0.000000 0.000000 0.000000 0.000000 0.019023 0.000000
# 6 0.000000 0.000000 0.000000 0.000000 0.000000 0.080211
#
#
# Mechanical properties :
#
#
# Convention : Reuss Voigt Hill
#
# Bulk Modulus (GPa) = 38.92563 52.24380 45.58472
# Shear Modulus (GPa) = 28.56194 50.71545 39.63870
#
# Velocity S-wave (km/s) = 3.45338 4.60172 4.06827
# Velocity P-wave (km/s) = 5.67047 7.07450 6.41103
#
# Compressibility (1/GPa) = 0.02569002
#
# Stress axis : x y z
#
# Youngs Moduli (GPa) = 87.93719 103.42663 47.69853
#
# Poissons Ratio (x) = 0.30948 -0.10123
# Poissons Ratio (y) = 0.26313 0.34761
# Poissons Ratio (z) = -0.18663 0.75375
#
# Static dielectric constant tensor:
#      x y z
#    x 1.838970 0.000000 0.000000 
#    y 0.000000 1.877350 0.000000 
#    z 0.000000 0.000000 1.905770 
# 
# From -- ./inp_files/4391.got.cif
#   From: 2010.05.17/outbox.cif.g08.bks.cpg/sg39_3_cif.got.tgz:4391.got - 2010.06.03 18:22:40.
