data_PCOD9362278
_publ_section_title
;
Structure prediction by ZEFSAII (Michael W. Deem and Ramdas Pophale) SiO2 
 PCOD9362278
Probable space group: A M A 2
;
_chemical_formula_sum "Si O2"
_cell_formula_units_Z 48
_cell_length_a 9.251641
_cell_length_b 32.483077
_cell_length_c 7.196854
_cell_angle_alpha 90.000000
_cell_angle_beta 90.000000
_cell_angle_gamma 90.000000
_cell_volume 2162.811281
_symmetry_space_group_name_H-M "A M A 2"
_symmetry_group_IT_number 40
_symmetry_cell_setting 'orthorhombic'
loop_
_space_group_symop_operation_xyz
x,y,z
-x,-y,z
1/2-x,y,z
1/2+x,-y,z
x,1/2+y,1/2+z
-x,1/2-y,1/2+z
1/2-x,1/2+y,1/2+z
1/2+x,1/2-y,1/2+z
loop_
_atom_site_type_symbol
_atom_site_label
_atom_site_fract_x
_atom_site_fract_y
_atom_site_fract_z
Si Si1 0.910290 0.281286 0.553760
Si Si2 0.074534 0.129712 0.089906
Si Si3 0.417300 0.040809 0.700280
Si Si4 0.584494 0.459103 0.653607
Si Si5 0.922007 0.122483 0.690858
Si Si6 0.911855 0.799340 0.616215
O O1 0.750000 0.267039 0.613419
O O2 0.948395 0.323580 0.661849
O O3 0.900955 0.294953 0.339743
O O4 0.021670 0.244109 0.557592
O O5 0.250000 0.127211 0.049117
O O6 0.038894 0.087897 0.201897
O O7 0.977422 0.127008 0.904322
O O8 0.250000 0.041563 0.646526
O O9 0.501992 0.080475 0.629669
O O10 0.500000 0.000000 0.641377
O O11 0.420498 0.041254 0.926765
O O12 0.500000 0.500000 0.712945
O O13 0.750000 0.464147 0.710162
O O14 0.750000 0.120377 0.682343
O O15 0.984809 0.161932 0.584404
O O16 0.750000 0.806427 0.544398
#
# Coordination Sequence:
#
# PCOD9362278 Si02
#       6
#     8   8   8   8   8   8
#     4   9  18  32  48  66  89 118 152 188 227 273
#     4   8  15  27  39  54  81 113 143 180 223 263
#     4   9  15  23  34  51  77 108 142 178 217 262
#     4   8  13  20  31  48  73 105 137 170 209 253
#     4  10  17  25  39  58  81 112 147 180 219 267
#     4  10  20  33  48  67  92 120 151 190 231 272
#
# _framework density 22.193337
#
# number of rings (size 3 to 8) (size 9 to 14) (size 15 to 20)
#    0.000    3.000    0.000    4.500    0.000    7.333 
#    0.000    0.000    0.000    0.000    0.000    0.000 
#    0.000    1.333    0.000    7.000    0.000   10.167 
#
# Total GULP energy -133890.269819 kJ/mol
# GULP energy per Si atom -5578.761242 kJ/mol
# Density = 2.214282 g / cm^3
# Si number density = 22.193337 Si / 1000 Ang^3
#
#
#
# Elastic Constant Matrix: (Units=GPa)
#
#
# Indices 1 2 3 4 5 6 
#
# 1 164.2103 109.9259 7.3404 0.0000 0.0000 0.0000
# 2 109.9259 211.7466 -10.1125 0.0000 0.0000 0.0000
# 3 7.3404 -10.1125 62.2160 0.0000 0.0000 0.0000
# 4 0.0000 0.0000 0.0000 2.7688 0.0000 0.0000
# 5 0.0000 0.0000 0.0000 0.0000 -8.6582 0.0000
# 6 0.0000 0.0000 0.0000 0.0000 0.0000 47.3848
#
#
#
# Elastic Compliance Matrix: (Units=1/GPa)
#
#
# Indices 1 2 3 4 5 6 
#
# 1 0.009562 -0.005057 -0.001950 0.000000 0.000000 0.000000
# 2 -0.005057 0.007434 0.001805 0.000000 0.000000 0.000000
# 3 -0.001950 0.001805 0.016597 0.000000 0.000000 0.000000
# 4 0.000000 0.000000 0.000000 0.361165 0.000000 0.000000
# 5 0.000000 0.000000 0.000000 0.000000 -0.115498 0.000000
# 6 0.000000 0.000000 0.000000 0.000000 0.000000 0.021104
#
#
# Mechanical properties :
#
#
# Convention : Reuss Voigt Hill
#
# Bulk Modulus (GPa) = 43.12540 72.49782 57.81161
# Shear Modulus (GPa) = 15.69867 30.36704 23.03285
#
# Velocity S-wave (km/s) = 2.66251 3.70306 3.22503
# Velocity P-wave (km/s) = 5.37827 7.14289 6.32245
#
# Compressibility (1/GPa) = 0.02318819
#
# Stress axis : x y z
#
# Youngs Moduli (GPa) = 104.57578 134.51147 60.25357
#
# Poissons Ratio (x) = 0.68027 0.11751
# Poissons Ratio (y) = 0.52888 -0.10876
# Poissons Ratio (z) = 0.20395 -0.24280
#
# Static dielectric constant tensor:
#      x y z
#    x 1.757440 0.000000 0.000000 
#    y 0.000000 1.860500 0.000000 
#    z 0.000000 0.000000 1.915010 
# 
# From -- ./inp_files/4573.got.cif
#   From: 2010.05.17/outbox.cif.g08.bks.cpg/sg40_3_cif.got.tgz:4573.got - 2010.06.03 18:35:42.
