data_PCOD9362963
_publ_section_title
;
Structure prediction by ZEFSAII (Michael W. Deem and Ramdas Pophale) SiO2 
 PCOD9362963
Probable space group: A M A 2
;
_chemical_formula_sum "Si O2"
_cell_formula_units_Z 64
_cell_length_a 8.758768
_cell_length_b 28.443357
_cell_length_c 14.730829
_cell_angle_alpha 90.000000
_cell_angle_beta 90.000000
_cell_angle_gamma 90.000000
_cell_volume 3669.873238
_symmetry_space_group_name_H-M "A M A 2"
_symmetry_group_IT_number 40
_symmetry_cell_setting 'orthorhombic'
loop_
_space_group_symop_operation_xyz
x,y,z
-x,-y,z
1/2-x,y,z
1/2+x,-y,z
x,1/2+y,1/2+z
-x,1/2-y,1/2+z
1/2-x,1/2+y,1/2+z
1/2+x,1/2-y,1/2+z
loop_
_atom_site_type_symbol
_atom_site_label
_atom_site_fract_x
_atom_site_fract_y
_atom_site_fract_z
Si Si1 0.567099 0.629957 0.243270
Si Si2 0.066631 0.319479 0.065291
Si Si3 0.069982 0.776919 0.857149
Si Si4 0.932247 0.551971 0.562343
Si Si5 0.931169 0.176142 0.355937
Si Si6 0.069721 0.632631 0.683484
Si Si7 0.070259 0.282124 0.571906
Si Si8 0.431669 0.051678 0.868273
O O1 0.750000 0.622222 0.251443
O O2 0.529570 0.640744 0.138658
O O3 0.530849 0.677932 0.297644
O O4 0.480280 0.587344 0.289865
O O5 0.250000 0.311816 0.068539
O O6 0.987028 0.270518 0.091622
O O7 0.025851 0.331319 0.961513
O O8 0.250000 0.766275 0.843248
O O9 0.975754 0.730226 0.834886
O O10 0.048515 0.788532 0.963549
O O11 0.750000 0.549607 0.557552
O O12 0.000000 0.500000 0.578455
O O13 0.985467 0.588568 0.638036
O O14 0.997078 0.568047 0.464382
O O15 0.750000 0.170136 0.346248
O O16 0.016854 0.142724 0.285924
O O17 0.250000 0.625726 0.678309
O O18 0.021332 0.678881 0.626783
O O19 0.250000 0.286834 0.592188
O O20 0.250000 0.048770 0.877242
O O21 0.500000 0.000000 0.851122
#
# Coordination Sequence:
#
# PCOD9362963 Si02
#       8
#     8   8   8   8   8   8   8   8
#     4  10  19  33  53  76 104 140 179 218 262 310
#     4   9  19  34  52  75 107 144 180 221 266 311
#     4   9  18  31  49  75 108 142 172 209 260 313
#     4  11  22  39  60  83 110 137 167 207 258 314
#     4  10  20  34  51  74 105 142 182 222 262 306
#     4  12  23  35  53  77 105 140 180 219 262 312
#     4  10  19  31  49  76 109 142 176 216 261 312
#     4  11  22  37  57  82 110 139 170 208 257 312
#
# _framework density 17.439295000000001
#
# number of rings (size 3 to 8) (size 9 to 14) (size 15 to 20)
#    0.000    1.750    0.000    6.375    0.000    4.000 
#    0.000    0.000    0.000    0.750    0.000    3.500 
#    0.000    0.000    0.000    0.000    0.000    0.000 
#
# Total GULP energy -178820.873963 kJ/mol
# GULP energy per Si atom -5588.152311 kJ/mol
# Density = 1.739960 g / cm^3
# Si number density = 17.439295 Si / 1000 Ang^3
#
#
#
# Elastic Constant Matrix: (Units=GPa)
#
#
# Indices 1 2 3 4 5 6 
#
# 1 103.1134 43.6317 48.7801 0.0000 0.0000 0.0000
# 2 43.6317 65.4384 57.9206 0.0000 0.0000 0.0000
# 3 48.7801 57.9206 83.7186 0.0000 0.0000 0.0000
# 4 0.0000 0.0000 0.0000 28.2931 0.0000 0.0000
# 5 0.0000 0.0000 0.0000 0.0000 27.0260 0.0000
# 6 0.0000 0.0000 0.0000 0.0000 0.0000 30.9685
#
#
#
# Elastic Compliance Matrix: (Units=1/GPa)
#
#
# Indices 1 2 3 4 5 6 
#
# 1 0.014116 -0.005500 -0.004420 0.000000 0.000000 0.000000
# 2 -0.005500 0.041566 -0.025552 0.000000 0.000000 0.000000
# 3 -0.004420 -0.025552 0.032199 0.000000 0.000000 0.000000
# 4 0.000000 0.000000 0.000000 0.035344 0.000000 0.000000
# 5 0.000000 0.000000 0.000000 0.000000 0.037001 0.000000
# 6 0.000000 0.000000 0.000000 0.000000 0.000000 0.032291
#
#
# Mechanical properties :
#
#
# Convention : Reuss Voigt Hill
#
# Bulk Modulus (GPa) = 59.04688 61.43725 60.24206
# Shear Modulus (GPa) = 18.57996 24.05340 21.31668
#
# Velocity S-wave (km/s) = 3.26760 3.71787 3.49999
# Velocity P-wave (km/s) = 6.94034 7.33047 7.13807
#
# Compressibility (1/GPa) = 0.01693569
#
# Stress axis : x y z
#
# Youngs Moduli (GPa) = 70.84012 24.05829 31.05732
#
# Poissons Ratio (x) = 0.13232 0.13727
# Poissons Ratio (y) = 0.38963 0.79359
# Poissons Ratio (z) = 0.31311 0.61475
#
# Static dielectric constant tensor:
#      x y z
#    x 1.584440 0.000000 0.000000 
#    y 0.000000 1.558270 0.000000 
#    z 0.000000 0.000000 1.611320 
# 
# From -- ./inp_files/15932.got.cif
#   From: 2010.05.17/outbox.cif.g08.bks.cpg/sg40_8_cif.got.tgz:15932.got - 2010.06.03 18:35:42.
