data_PCOD9362692
_publ_section_title
;
Structure prediction by ZEFSAII (Michael W. Deem and Ramdas Pophale) SiO2 
 PCOD9362692
Probable space group: A M A 2
;
_chemical_formula_sum "Si O2"
_cell_formula_units_Z 64
_cell_length_a 18.668302
_cell_length_b 16.677562
_cell_length_c 12.379355
_cell_angle_alpha 90.000000
_cell_angle_beta 90.000000
_cell_angle_gamma 90.000000
_cell_volume 3854.210223
_symmetry_space_group_name_H-M "A M A 2"
_symmetry_group_IT_number 40
_symmetry_cell_setting 'orthorhombic'
loop_
_space_group_symop_operation_xyz
x,y,z
-x,-y,z
1/2-x,y,z
1/2+x,-y,z
x,1/2+y,1/2+z
-x,1/2-y,1/2+z
1/2-x,1/2+y,1/2+z
1/2+x,1/2-y,1/2+z
loop_
_atom_site_type_symbol
_atom_site_label
_atom_site_fract_x
_atom_site_fract_y
_atom_site_fract_z
Si Si1 0.164430 0.605692 0.206450
Si Si2 0.091957 0.843540 0.258103
Si Si3 0.665785 0.786080 0.901257
Si Si4 0.164522 0.448303 0.084903
Si Si5 0.923991 0.268441 0.067409
Si Si6 0.414870 0.005432 0.369784
Si Si7 0.927889 0.812460 0.326047
Si Si8 0.908021 0.723350 0.109273
O O1 0.250000 0.617803 0.194391
O O2 0.144996 0.638822 0.325107
O O3 0.148964 0.513679 0.178198
O O4 0.123243 0.661652 0.121311
O O5 0.148039 0.792164 0.328229
O O6 0.093736 0.811877 0.135395
O O7 0.013691 0.819473 0.305521
O O8 0.100272 0.937672 0.279619
O O9 0.750000 0.789456 0.924035
O O10 0.622421 0.776510 0.011212
O O11 0.250000 0.441326 0.073171
O O12 0.130505 0.362158 0.106458
O O13 0.129972 0.482197 0.975089
O O14 0.007316 0.287679 0.089452
O O15 0.913555 0.268528 0.939290
O O16 0.400469 0.096233 0.334552
O O17 0.500000 0.000000 0.395669
O O18 0.897182 0.766353 0.223486
#
# Coordination Sequence:
#
# PCOD9362692 Si02
#       8
#     8   8   8   8   8   8   8   8
#     4   9  20  34  53  77 104 139 177 220 265 313
#     4   9  18  30  53  79 102 137 176 217 257 312
#     4  10  18  33  52  75 104 137 176 215 260 315
#     4  11  21  34  52  79 106 135 179 227 264 310
#     4  10  18  34  54  77 109 139 178 216 265 320
#     4  10  18  33  53  78 105 137 177 221 266 306
#     4  10  19  33  51  78 109 138 169 217 270 316
#     4  11  21  32  53  81 110 140 174 218 272 314
#
# _framework density 16.605217
#
# number of rings (size 3 to 8) (size 9 to 14) (size 15 to 20)
#    0.000    2.000    3.750    1.125    0.000    0.000 
#    0.000    3.750    0.000    0.000    0.000    0.000 
#    0.000    0.000    0.000    0.000    0.000    0.000 
#
# Total GULP energy -178430.191643 kJ/mol
# GULP energy per Si atom -5575.943489 kJ/mol
# Density = 1.656742 g / cm^3
# Si number density = 16.605217 Si / 1000 Ang^3
#
#
#
# Elastic Constant Matrix: (Units=GPa)
#
#
# Indices 1 2 3 4 5 6 
#
# 1 37.0979 34.2250 32.5308 0.0000 0.0000 0.0000
# 2 34.2250 107.7330 76.1084 0.0000 0.0000 0.0000
# 3 32.5308 76.1084 150.8817 0.0000 0.0000 0.0000
# 4 0.0000 0.0000 0.0000 25.6846 0.0000 0.0000
# 5 0.0000 0.0000 0.0000 0.0000 14.0558 0.0000
# 6 0.0000 0.0000 0.0000 0.0000 0.0000 7.8769
#
#
#
# Elastic Compliance Matrix: (Units=1/GPa)
#
#
# Indices 1 2 3 4 5 6 
#
# 1 0.039205 -0.010073 -0.003372 0.000000 0.000000 0.000000
# 2 -0.010073 0.017009 -0.006408 0.000000 0.000000 0.000000
# 3 -0.003372 -0.006408 0.010587 0.000000 0.000000 0.000000
# 4 0.000000 0.000000 0.000000 0.038934 0.000000 0.000000
# 5 0.000000 0.000000 0.000000 0.000000 0.071145 0.000000
# 6 0.000000 0.000000 0.000000 0.000000 0.000000 0.126954
#
#
# Mechanical properties :
#
#
# Convention : Reuss Voigt Hill
#
# Bulk Modulus (GPa) = 36.90587 64.60454 50.75521
# Shear Modulus (GPa) = 14.18151 19.71335 16.94743
#
# Velocity S-wave (km/s) = 2.92557 3.44928 3.19816
# Velocity P-wave (km/s) = 5.80393 7.40635 6.65356
#
# Compressibility (1/GPa) = 0.02709596
#
# Stress axis : x y z
#
# Youngs Moduli (GPa) = 25.50687 58.79175 94.45449
#
# Poissons Ratio (x) = 0.59219 0.31849
# Poissons Ratio (y) = 0.25692 0.60528
# Poissons Ratio (z) = 0.08601 0.37674
#
# Static dielectric constant tensor:
#      x y z
#    x 1.554240 0.000000 0.000000 
#    y 0.000000 1.556300 0.000000 
#    z 0.000000 0.000000 1.554280 
# 
# From -- ./inp_files/12466.got.cif
#   From: 2010.05.17/outbox.cif.g08.bks.cpg/sg40_7_cif.got.tgz:12466.got - 2010.06.03 18:35:42.
