data_PCOD9362483
_publ_section_title
;
Structure prediction by ZEFSAII (Michael W. Deem and Ramdas Pophale) SiO2 
 PCOD9362483
Probable space group: A M A 2
;
_chemical_formula_sum "Si O2"
_cell_formula_units_Z 64
_cell_length_a 7.976735
_cell_length_b 31.157911
_cell_length_c 15.148203
_cell_angle_alpha 90.000000
_cell_angle_beta 90.000000
_cell_angle_gamma 90.000000
_cell_volume 3764.910124
_symmetry_space_group_name_H-M "A M A 2"
_symmetry_group_IT_number 40
_symmetry_cell_setting 'orthorhombic'
loop_
_space_group_symop_operation_xyz
x,y,z
-x,-y,z
1/2-x,y,z
1/2+x,-y,z
x,1/2+y,1/2+z
-x,1/2-y,1/2+z
1/2-x,1/2+y,1/2+z
1/2+x,1/2-y,1/2+z
loop_
_atom_site_type_symbol
_atom_site_label
_atom_site_fract_x
_atom_site_fract_y
_atom_site_fract_z
Si Si1 0.550377 0.723967 0.500000
Si Si2 0.051048 0.173833 0.495526
Si Si3 0.450175 0.451512 0.112709
Si Si4 0.952534 0.548407 0.910119
Si Si5 0.047650 0.794445 0.193948
Si Si6 0.944415 0.131227 0.318533
Si Si7 0.447268 0.289532 0.305476
Si Si8 0.051663 0.135809 0.681007
O O1 0.750000 0.713872 0.500494
O O2 0.533620 0.775288 0.501591
O O3 0.482190 0.707418 0.593582
O O4 0.481080 0.709347 0.405118
O O5 0.250000 0.164178 0.484648
O O6 0.989309 0.153190 0.586300
O O7 0.955111 0.155919 0.411636
O O8 0.500000 0.500000 0.136365
O O9 0.250000 0.448554 0.111358
O O10 0.517305 0.414800 0.177386
O O11 0.512691 0.443900 0.011373
O O12 0.750000 0.551575 0.912441
O O13 0.017551 0.584561 0.842807
O O14 0.000000 0.500000 0.886270
O O15 0.250000 0.797645 0.190575
O O16 0.981162 0.835776 0.247451
O O17 0.014154 0.750204 0.246933
O O18 0.750000 0.124569 0.293913
O O19 0.250000 0.280992 0.313513
O O20 0.474333 0.334520 0.256264
O O21 0.250000 0.143479 0.684211
#
# Coordination Sequence:
#
# PCOD9362483 Si02
#       8
#     8   8   8   8   8   8   8   8
#     4   9  18  33  47  65  94 128 162 199 238 286
#     4  10  18  29  46  66  95 130 162 194 235 286
#     4  10  19  32  49  71 101 129 161 199 241 291
#     4   9  18  30  44  68  97 126 158 194 235 284
#     4  10  19  33  50  68  94 127 162 200 243 290
#     4  10  19  30  47  71  96 124 162 202 238 281
#     4  11  21  32  48  69  95 126 164 203 239 285
#     4  11  21  33  49  70  97 132 168 199 242 288
#
# _framework density 16.999078000000001
#
# number of rings (size 3 to 8) (size 9 to 14) (size 15 to 20)
#    0.000    2.000    3.750    1.125    0.000    1.500 
#    0.000    1.250    0.000    0.000    0.000    0.875 
#    0.000    2.000    0.000    0.000    0.000    0.000 
#
# Total GULP energy -178422.621268 kJ/mol
# GULP energy per Si atom -5575.706915 kJ/mol
# Density = 1.696039 g / cm^3
# Si number density = 16.999078 Si / 1000 Ang^3
#
#
#
# Elastic Constant Matrix: (Units=GPa)
#
#
# Indices 1 2 3 4 5 6 
#
# 1 15.5084 -1.7959 0.8583 0.0000 0.0000 0.0000
# 2 -1.7959 97.4068 59.8140 0.0000 0.0000 0.0000
# 3 0.8583 59.8140 116.7983 0.0000 0.0000 0.0000
# 4 0.0000 0.0000 0.0000 20.6985 0.0000 0.0000
# 5 0.0000 0.0000 0.0000 0.0000 12.4232 0.0000
# 6 0.0000 0.0000 0.0000 0.0000 0.0000 51.1686
#
#
#
# Elastic Compliance Matrix: (Units=1/GPa)
#
#
# Indices 1 2 3 4 5 6 
#
# 1 0.064821 0.002170 -0.001588 0.000000 0.000000 0.000000
# 2 0.002170 0.015048 -0.007722 0.000000 0.000000 0.000000
# 3 -0.001588 -0.007722 0.012528 0.000000 0.000000 0.000000
# 4 0.000000 0.000000 0.000000 0.048313 0.000000 0.000000
# 5 0.000000 0.000000 0.000000 0.000000 0.080494 0.000000
# 6 0.000000 0.000000 0.000000 0.000000 0.000000 0.019543
#
#
# Mechanical properties :
#
#
# Convention : Reuss Voigt Hill
#
# Bulk Modulus (GPa) = 12.80132 38.60738 25.70435
# Shear Modulus (GPa) = 17.78940 28.24720 23.01830
#
# Velocity S-wave (km/s) = 3.23846 4.08081 3.68379
# Velocity P-wave (km/s) = 4.64009 6.70557 5.76607
#
# Compressibility (1/GPa) = 0.07811694
#
# Stress axis : x y z
#
# Youngs Moduli (GPa) = 15.42721 66.45284 79.82007
#
# Poissons Ratio (x) = -0.14420 0.12672
# Poissons Ratio (y) = -0.03348 0.61640
# Poissons Ratio (z) = 0.02449 0.51317
#
# Static dielectric constant tensor:
#      x y z
#    x 1.615470 0.000000 0.000000 
#    y 0.000000 1.580800 0.000000 
#    z 0.000000 0.000000 1.590440 
# 
# From -- ./inp_files/15864.got.cif
#   From: 2010.05.17/outbox.cif.g08.bks.cpg/sg40_8_cif.got.tgz:15864.got - 2010.06.03 18:35:42.
