data_PCOD9362537
_publ_section_title
;
Structure prediction by ZEFSAII (Michael W. Deem and Ramdas Pophale) SiO2 
 PCOD9362537
Probable space group: A M A 2
;
_chemical_formula_sum "Si O2"
_cell_formula_units_Z 56
_cell_length_a 8.830781
_cell_length_b 19.451002
_cell_length_c 18.307021
_cell_angle_alpha 90.000000
_cell_angle_beta 90.000000
_cell_angle_gamma 90.000000
_cell_volume 3144.551942
_symmetry_space_group_name_H-M "A M A 2"
_symmetry_group_IT_number 40
_symmetry_cell_setting 'orthorhombic'
loop_
_space_group_symop_operation_xyz
x,y,z
-x,-y,z
1/2-x,y,z
1/2+x,-y,z
x,1/2+y,1/2+z
-x,1/2-y,1/2+z
1/2-x,1/2+y,1/2+z
1/2+x,1/2-y,1/2+z
loop_
_atom_site_type_symbol
_atom_site_label
_atom_site_fract_x
_atom_site_fract_y
_atom_site_fract_z
Si Si1 0.074689 0.714688 0.718730
Si Si2 0.578147 0.568639 0.899858
Si Si3 0.431396 0.293524 0.971694
Si Si4 0.932475 0.423630 0.260608
Si Si5 0.926877 0.694915 0.361042
Si Si6 0.924325 0.070360 0.223861
Si Si7 0.927185 0.328483 0.126238
O O1 0.250000 0.725815 0.696367
O O2 0.061638 0.743478 0.801175
O O3 0.026519 0.636368 0.708356
O O4 0.958069 0.760952 0.674127
O O5 0.500000 0.500000 0.927693
O O6 0.750000 0.567314 0.926266
O O7 0.511509 0.640504 0.925571
O O8 0.579348 0.566391 0.812234
O O9 0.250000 0.287243 0.965688
O O10 0.502250 0.225331 0.935290
O O11 0.479200 0.313990 0.053243
O O12 0.750000 0.425519 0.264397
O O13 0.974112 0.390391 0.181155
O O14 0.000000 0.500000 0.268230
O O15 0.993594 0.370657 0.322521
O O16 0.750000 0.679239 0.371432
O O17 0.750000 0.077911 0.199271
O O18 0.000000 0.000000 0.196719
O O19 0.750000 0.336736 0.108786
#
# Coordination Sequence:
#
# PCOD9362537 Si02
#       7
#     8   8   8   8   8   8   8
#     4  10  19  33  53  77 103 136 177 224 269 319
#     4   9  19  31  46  70 103 139 173 210 253 302
#     4  11  21  35  53  78 111 147 185 227 275 328
#     4  10  21  38  60  84 113 147 188 236 285 337
#     4  10  20  34  56  82 108 141 184 230 277 329
#     4  10  18  30  48  73 103 135 171 212 257 306
#     4  10  22  37  54  78 108 145 183 225 276 331
#
# _framework density 17.808579000000002
#
# number of rings (size 3 to 8) (size 9 to 14) (size 15 to 20)
#    0.000    2.000    1.429    2.571    0.000    5.143 
#    0.000    2.857    0.000    0.857    0.000    6.000 
#    0.000    0.000    0.000    0.000    0.000    0.000 
#
# Total GULP energy -156025.804234 kJ/mol
# GULP energy per Si atom -5572.350151 kJ/mol
# Density = 1.776805 g / cm^3
# Si number density = 17.808579 Si / 1000 Ang^3
#
#
#
# Elastic Constant Matrix: (Units=GPa)
#
#
# Indices 1 2 3 4 5 6 
#
# 1 61.4456 35.5492 27.4021 0.0000 0.0000 0.0000
# 2 35.5492 128.2106 31.4955 0.0000 0.0000 0.0000
# 3 27.4021 31.4955 50.0164 0.0000 0.0000 0.0000
# 4 0.0000 0.0000 0.0000 11.0084 0.0000 0.0000
# 5 0.0000 0.0000 0.0000 0.0000 22.9121 0.0000
# 6 0.0000 0.0000 0.0000 0.0000 0.0000 30.3022
#
#
#
# Elastic Compliance Matrix: (Units=1/GPa)
#
#
# Indices 1 2 3 4 5 6 
#
# 1 0.023071 -0.003894 -0.010187 0.000000 0.000000 0.000000
# 2 -0.003894 0.009884 -0.004091 0.000000 0.000000 0.000000
# 3 -0.010187 -0.004091 0.028151 0.000000 0.000000 0.000000
# 4 0.000000 0.000000 0.000000 0.090839 0.000000 0.000000
# 5 0.000000 0.000000 0.000000 0.000000 0.043645 0.000000
# 6 0.000000 0.000000 0.000000 0.000000 0.000000 0.033001
#
#
# Mechanical properties :
#
#
# Convention : Reuss Voigt Hill
#
# Bulk Modulus (GPa) = 40.38600 47.61850 44.00225
# Shear Modulus (GPa) = 18.30234 22.52628 20.41431
#
# Velocity S-wave (km/s) = 3.20929 3.56042 3.38941
# Velocity P-wave (km/s) = 6.03820 6.61054 6.33084
#
# Compressibility (1/GPa) = 0.02476106
#
# Stress axis : x y z
#
# Youngs Moduli (GPa) = 43.34503 101.17017 35.52325
#
# Poissons Ratio (x) = 0.39399 0.36189
# Poissons Ratio (y) = 0.16880 0.14531
# Poissons Ratio (z) = 0.44157 0.41385
#
# Static dielectric constant tensor:
#      x y z
#    x 1.623990 0.000000 0.000000 
#    y 0.000000 1.613500 0.000000 
#    z 0.000000 0.000000 1.619410 
# 
# From -- ./inp_files/19504.got.cif
#   From: 2010.05.17/outbox.cif.g08.bks.cpg/sg40_10_cif.got.tgz:19504.got - 2010.06.03 18:35:42.
