data_PCOD9362709
_publ_section_title
;
Structure prediction by ZEFSAII (Michael W. Deem and Ramdas Pophale) SiO2 
 PCOD9362709
Probable space group: A M A 2
;
_chemical_formula_sum "Si O2"
_cell_formula_units_Z 64
_cell_length_a 8.622705
_cell_length_b 34.501345
_cell_length_c 11.971924
_cell_angle_alpha 90.000000
_cell_angle_beta 90.000000
_cell_angle_gamma 90.000000
_cell_volume 3561.586573
_symmetry_space_group_name_H-M "A M A 2"
_symmetry_group_IT_number 40
_symmetry_cell_setting 'orthorhombic'
loop_
_space_group_symop_operation_xyz
x,y,z
-x,-y,z
1/2-x,y,z
1/2+x,-y,z
x,1/2+y,1/2+z
-x,1/2-y,1/2+z
1/2-x,1/2+y,1/2+z
1/2+x,1/2-y,1/2+z
loop_
_atom_site_type_symbol
_atom_site_label
_atom_site_fract_x
_atom_site_fract_y
_atom_site_fract_z
Si Si1 0.434378 0.317360 0.563140
Si Si2 0.564389 0.458381 0.036956
Si Si3 0.935477 0.957851 0.799398
Si Si4 0.562079 0.123579 0.875332
Si Si5 0.069516 0.684373 0.808833
Si Si6 0.069142 0.381742 0.944086
Si Si7 0.566942 0.171767 0.662301
Si Si8 0.064449 0.262376 0.999788
O O1 0.250000 0.318462 0.580173
O O2 0.479176 0.354798 0.490068
O O3 0.518228 0.314107 0.681373
O O4 0.480598 0.278601 0.496818
O O5 0.500000 0.500000 0.002985
O O6 0.750000 0.456967 0.029096
O O7 0.521495 0.452982 0.168033
O O8 0.487873 0.424801 0.965021
O O9 0.750000 0.958751 0.807241
O O10 0.999097 0.919850 0.861448
O O11 0.000000 0.000000 0.835328
O O12 0.750000 0.121854 0.867397
O O13 0.503918 0.151456 0.773687
O O14 0.250000 0.693646 0.820436
O O15 0.032085 0.641734 0.855910
O O16 0.973936 0.713113 0.889179
O O17 0.250000 0.379958 0.912654
O O18 0.052395 0.359192 0.062077
O O19 0.750000 0.178384 0.682689
O O20 0.508040 0.211815 0.606944
O O21 0.250000 0.257622 0.008888
#
# Coordination Sequence:
#
# PCOD9362709 Si02
#       8
#     8   8   8   8   8   8   8   8
#     4  11  24  39  58  85 114 150 193 237 287 343
#     4  10  19  30  48  80 116 149 183 224 277 338
#     4  10  20  33  53  82 117 152 190 232 282 342
#     4  10  20  36  57  82 115 150 188 234 287 343
#     4  11  23  40  59  79 110 150 193 235 281 337
#     4  10  18  33  57  80 108 143 183 232 282 335
#     4   8  16  31  53  79 107 142 179 222 279 336
#     4  10  21  38  60  85 113 146 188 238 290 340
#
# _framework density 17.969519999999999
#
# number of rings (size 3 to 8) (size 9 to 14) (size 15 to 20)
#    0.000    2.000    1.250    3.750    1.750    2.000 
#    0.000    0.625    0.000    0.750    0.000    1.750 
#    0.000    0.000    0.000    0.000    0.000    0.000 
#
# Total GULP energy -178591.639770 kJ/mol
# GULP energy per Si atom -5580.988743 kJ/mol
# Density = 1.792862 g / cm^3
# Si number density = 17.969520 Si / 1000 Ang^3
#
#
#
# Elastic Constant Matrix: (Units=GPa)
#
#
# Indices 1 2 3 4 5 6 
#
# 1 14.6780 -2.2821 -0.3327 0.0000 0.0000 0.0000
# 2 -2.2821 99.8980 17.8350 0.0000 0.0000 0.0000
# 3 -0.3327 17.8350 50.0933 0.0000 0.0000 0.0000
# 4 0.0000 0.0000 0.0000 14.0049 0.0000 0.0000
# 5 0.0000 0.0000 0.0000 0.0000 92.4618 0.0000
# 6 0.0000 0.0000 0.0000 0.0000 0.0000 30.8929
#
#
#
# Elastic Compliance Matrix: (Units=1/GPa)
#
#
# Indices 1 2 3 4 5 6 
#
# 1 0.068372 0.001581 -0.000109 0.000000 0.000000 0.000000
# 2 0.001581 0.010726 -0.003808 0.000000 0.000000 0.000000
# 3 -0.000109 -0.003808 0.021318 0.000000 0.000000 0.000000
# 4 0.000000 0.000000 0.000000 0.071403 0.000000 0.000000
# 5 0.000000 0.000000 0.000000 0.000000 0.010815 0.000000
# 6 0.000000 0.000000 0.000000 0.000000 0.000000 0.032370
#
#
# Mechanical properties :
#
#
# Convention : Reuss Voigt Hill
#
# Bulk Modulus (GPa) = 10.44444 21.67886 16.06165
# Shear Modulus (GPa) = 19.87344 37.43521 28.65432
#
# Velocity S-wave (km/s) = 3.32919 4.56923 3.99759
# Velocity P-wave (km/s) = 4.53905 6.31882 5.50139
#
# Compressibility (1/GPa) = 0.09574472
#
# Stress axis : x y z
#
# Youngs Moduli (GPa) = 14.62578 93.22919 46.90881
#
# Poissons Ratio (x) = -0.14743 0.00511
# Poissons Ratio (y) = -0.02313 0.17865
# Poissons Ratio (z) = 0.00159 0.35506
#
# Static dielectric constant tensor:
#      x y z
#    x 1.554270 0.000000 0.000000 
#    y 0.000000 1.690760 0.000000 
#    z 0.000000 0.000000 1.615180 
# 
# From -- ./inp_files/10599.got.cif
#   From: 2010.05.17/outbox.cif.g08.bks.cpg/sg40_6_cif.got.tgz:10599.got - 2010.06.03 18:35:42.
