data_PCOD9362180
_publ_section_title
;
Structure prediction by ZEFSAII (Michael W. Deem and Ramdas Pophale) SiO2 
 PCOD9362180
Probable space group: A B M 2
;
_chemical_formula_sum "Si O2"
_cell_formula_units_Z 28
_cell_length_a 21.000000
_cell_length_b 9.000000
_cell_length_c 15.000000
_cell_angle_alpha 90.000000
_cell_angle_beta 90.000000
_cell_angle_gamma 90.000000
_cell_volume 2835.000000
_symmetry_space_group_name_H-M "A B M 2"
_symmetry_group_IT_number 39
_symmetry_cell_setting 'orthorhombic'
loop_
_space_group_symop_operation_xyz
x,y,z
-x,-y,z
-x,1/2+y,z
x,1/2-y,z
x,1/2+y,1/2+z
-x,1/2-y,1/2+z
-x,y,1/2+z
x,-y,1/2+z
loop_
_atom_site_type_symbol
_atom_site_label
_atom_site_fract_x
_atom_site_fract_y
_atom_site_fract_z
Si Si1 0.665372 0.074403 0.909150
Si Si2 0.430790 0.926920 0.756663
Si Si3 0.936614 0.070792 0.350361
Si Si4 0.342106 0.575856 0.585563
Si Si5 0.202955 0.426193 0.164399
Si Si6 0.063098 0.927583 0.651772
Si Si7 0.204052 0.926437 0.357040
O O1 0.672018 0.250000 0.896942
O O2 0.615416 0.018040 0.835690
O O3 0.735244 0.003453 0.900240
O O4 0.639931 0.030052 0.005212
O O5 0.439546 0.750000 0.768264
O O6 0.389283 0.948935 0.667713
O O7 0.500000 0.000000 0.754446
O O8 0.942710 0.250000 0.345007
O O9 0.867274 0.035826 0.391319
O O10 0.934089 0.998947 0.251148
O O11 0.000000 0.000000 0.392598
O O12 0.346122 0.750000 0.559732
O O13 0.268420 0.547839 0.612472
O O14 0.202493 0.250000 0.188934
O O15 0.134991 0.454242 0.116145
O O16 0.205353 0.522873 0.253866
O O17 0.053748 0.750000 0.656577
O O18 0.000000 0.000000 0.609074
O O19 0.211049 0.750000 0.364816
#
# Coordination Sequence:
#
# PCOD9362180 Si02
#       7
#     8   8   8   8   8   8   8
#     4  11  23  40  61  89 121 156 197 240 287 344
#     4  10  23  43  66  90 122 155 189 233 286 345
#     4   9  16  25  40  68 104 142 188 238 288 342
#     4  10  21  40  62  87 119 155 194 239 288 342
#     4   9  17  32  53  76 110 152 192 237 294 346
#     4   9  15  23  40  67 101 143 185 233 286 339
#     4  10  19  31  52  81 112 150 196 244 292 345
#
# _framework density 9.8765429999999999
#
# number of rings (size 3 to 8) (size 9 to 14) (size 15 to 20)
#    0.000    2.286    1.429    2.571    0.000    5.143 
#    0.000    2.857    0.000    0.857    0.000    2.000 
#    0.000    0.000    0.000    0.000    0.000    0.000 
#
# Total GULP energy -156158.413980 kJ/mol
# GULP energy per Si atom -5577.086214 kJ/mol
# Density = 0.985406 g / cm^3
# Si number density = 9.876543 Si / 1000 Ang^3
#
#
#
# Elastic Constant Matrix: (Units=GPa)
#
#
# Indices 1 2 3 4 5 6 
#
# 1 169.6996 56.1975 34.9507 0.0000 0.0000 0.0000
# 2 56.1975 54.4444 24.7923 0.0000 0.0000 0.0000
# 3 34.9507 24.7923 38.0204 0.0000 0.0000 0.0000
# 4 0.0000 0.0000 0.0000 14.8886 0.0000 0.0000
# 5 0.0000 0.0000 0.0000 0.0000 -16.4178 0.0000
# 6 0.0000 0.0000 0.0000 0.0000 0.0000 38.9535
#
#
#
# Elastic Compliance Matrix: (Units=1/GPa)
#
#
# Indices 1 2 3 4 5 6 
#
# 1 0.009224 -0.008050 -0.003230 0.000000 0.000000 0.000000
# 2 -0.008050 0.033150 -0.014217 0.000000 0.000000 0.000000
# 3 -0.003230 -0.014217 0.038541 0.000000 0.000000 0.000000
# 4 0.000000 0.000000 0.000000 0.067166 0.000000 0.000000
# 5 0.000000 0.000000 0.000000 0.000000 -0.060910 0.000000
# 6 0.000000 0.000000 0.000000 0.000000 0.000000 0.025672
#
#
# Mechanical properties :
#
#
# Convention : Reuss Voigt Hill
#
# Bulk Modulus (GPa) = 33.41982 54.89394 44.15688
# Shear Modulus (GPa) = 28.76703 17.23312 23.00007
#
# Velocity S-wave (km/s) = 3.82033 2.95689 3.41600
# Velocity P-wave (km/s) = 6.03452 6.28554 6.16131
#
# Compressibility (1/GPa) = 0.02992236
#
# Stress axis : x y z
#
# Youngs Moduli (GPa) = 108.41504 30.16553 25.94629
#
# Poissons Ratio (x) = 0.24283 0.08380
# Poissons Ratio (y) = 0.87275 0.36887
# Poissons Ratio (z) = 0.35016 0.42885
#
# Static dielectric constant tensor:
#      x y z
#    x 1.717500 0.000000 0.000000 
#    y 0.000000 1.659220 0.000000 
#    z 0.000000 0.000000 1.720460 
# 
# From -- ./inp_files/10361.got.cif
#   From: 2010.05.17/outbox.ucp.g08.bks.cvg/sg39_6_cif.got.tgz:10361.got - 2010.06.11 10:41:16.
