data_PCOD9362327
_publ_section_title
;
Structure prediction by ZEFSAII (Michael W. Deem and Ramdas Pophale) SiO2 
 PCOD9362327
Probable space group: A M A 2
;
_chemical_formula_sum "Si O2"
_cell_formula_units_Z 56
_cell_length_a 25.428037
_cell_length_b 22.698262
_cell_length_c 5.485609
_cell_angle_alpha 90.000000
_cell_angle_beta 90.000000
_cell_angle_gamma 90.000000
_cell_volume 3166.141267
_symmetry_space_group_name_H-M "A M A 2"
_symmetry_group_IT_number 40
_symmetry_cell_setting 'orthorhombic'
loop_
_space_group_symop_operation_xyz
x,y,z
-x,-y,z
1/2-x,y,z
1/2+x,-y,z
x,1/2+y,1/2+z
-x,1/2-y,1/2+z
1/2-x,1/2+y,1/2+z
1/2+x,1/2-y,1/2+z
loop_
_atom_site_type_symbol
_atom_site_label
_atom_site_fract_x
_atom_site_fract_y
_atom_site_fract_z
Si Si1 0.310369 0.497371 0.960300
Si Si2 0.372072 0.503083 0.461592
Si Si3 0.499775 0.786346 0.918986
Si Si4 0.892082 0.639572 0.456416
Si Si5 0.035831 0.098537 0.968760
Si Si6 0.019480 0.933420 0.463447
Si Si7 0.137445 0.879459 0.456723
O O1 0.250000 0.515811 0.968001
O O2 0.338152 0.514595 0.705772
O O3 0.316182 0.426451 0.955884
O O4 0.340861 0.514288 0.209093
O O5 0.389919 0.433516 0.461893
O O6 0.420277 0.548164 0.472113
O O7 0.501587 0.744734 0.155860
O O8 0.548269 0.832596 0.930371
O O9 0.447129 0.826269 0.944180
O O10 0.864713 0.656415 0.708843
O O11 0.862711 0.655200 0.207604
O O12 0.007099 0.097082 0.230846
O O13 0.001961 0.083460 0.728175
O O14 0.081213 0.916409 0.458380
O O15 0.000000 0.000000 0.430850
#
# Coordination Sequence:
#
# PCOD9362327 Si02
#       7
#     8   8   8   8   8   8   8
#     4  10  20  34  50  76 114 138 162 214 275 334
#     4  10  21  35  55  81 102 140 181 213 265 319
#     4  12  24  36  49  71 110 155 185 213 260 303
#     4  10  18  34  49  71 102 134 183 210 253 304
#     4  12  23  35  52  78 111 143 183 215 251 318
#     4  12  19  29  50  78 105 137 174 212 255 300
#     4  10  17  30  47  72  97 139 173 199 253 309
#
# _framework density 17.687145999999998
#
# number of rings (size 3 to 8) (size 9 to 14) (size 15 to 20)
#    0.000    1.143    2.857    6.857    0.000    0.000 
#    0.000    0.000    0.000    0.000    0.000    0.000 
#    0.000   91.429    0.000    0.000    0.000    0.000 
#
# Total GULP energy -155929.755272 kJ/mol
# GULP energy per Si atom -5568.919831 kJ/mol
# Density = 1.764689 g / cm^3
# Si number density = 17.687146 Si / 1000 Ang^3
#
#
#
# Elastic Constant Matrix: (Units=GPa)
#
#
# Indices 1 2 3 4 5 6 
#
# 1 56.4729 12.1277 34.9665 0.0000 0.0000 0.0000
# 2 12.1277 33.0438 -2.7805 0.0000 0.0000 0.0000
# 3 34.9665 -2.7805 152.3603 0.0000 0.0000 0.0000
# 4 0.0000 0.0000 0.0000 26.6560 0.0000 0.0000
# 5 0.0000 0.0000 0.0000 0.0000 17.4810 0.0000
# 6 0.0000 0.0000 0.0000 0.0000 0.0000 7.5375
#
#
#
# Elastic Compliance Matrix: (Units=1/GPa)
#
#
# Indices 1 2 3 4 5 6 
#
# 1 0.022984 -0.008893 -0.005437 0.000000 0.000000 0.000000
# 2 -0.008893 0.033750 0.002657 0.000000 0.000000 0.000000
# 3 -0.005437 0.002657 0.007860 0.000000 0.000000 0.000000
# 4 0.000000 0.000000 0.000000 0.037515 0.000000 0.000000
# 5 0.000000 0.000000 0.000000 0.000000 0.057205 0.000000
# 6 0.000000 0.000000 0.000000 0.000000 0.000000 0.132670
#
#
# Mechanical properties :
#
#
# Convention : Reuss Voigt Hill
#
# Bulk Modulus (GPa) = 24.24394 36.72271 30.48332
# Shear Modulus (GPa) = 15.19390 23.50580 19.34985
#
# Velocity S-wave (km/s) = 2.93411 3.64947 3.31116
# Velocity P-wave (km/s) = 5.02151 6.21012 5.64717
#
# Compressibility (1/GPa) = 0.04124742
#
# Stress axis : x y z
#
# Youngs Moduli (GPa) = 43.50872 29.62933 127.23173
#
# Poissons Ratio (x) = 0.26350 0.69177
# Poissons Ratio (y) = 0.38693 -0.33804
# Poissons Ratio (z) = 0.23656 -0.07872
#
# Static dielectric constant tensor:
#      x y z
#    x 1.622460 0.000000 0.000000 
#    y 0.000000 1.657860 0.000000 
#    z 0.000000 0.000000 1.689960 
# 
# From -- ./inp_files/2794.got.cif
#   From: 2010.05.17/outbox.cif.g08.bks.cpg/sg40_2_cif.got.tgz:2794.got - 2010.06.03 18:35:42.
