data_PCOD9362606
_publ_section_title
;
Structure prediction by ZEFSAII (Michael W. Deem and Ramdas Pophale) SiO2 
 PCOD9362606
Probable space group: A M A 2
;
_chemical_formula_sum "Si O2"
_cell_formula_units_Z 64
_cell_length_a 8.813950
_cell_length_b 29.685005
_cell_length_c 12.399380
_cell_angle_alpha 90.000000
_cell_angle_beta 90.000000
_cell_angle_gamma 90.000000
_cell_volume 3244.200440
_symmetry_space_group_name_H-M "A M A 2"
_symmetry_group_IT_number 40
_symmetry_cell_setting 'orthorhombic'
loop_
_space_group_symop_operation_xyz
x,y,z
-x,-y,z
1/2-x,y,z
1/2+x,-y,z
x,1/2+y,1/2+z
-x,1/2-y,1/2+z
1/2-x,1/2+y,1/2+z
1/2+x,1/2-y,1/2+z
loop_
_atom_site_type_symbol
_atom_site_label
_atom_site_fract_x
_atom_site_fract_y
_atom_site_fract_z
Si Si1 0.925614 0.310074 0.476290
Si Si2 0.930937 0.951377 0.256891
Si Si3 0.071935 0.576578 0.000370
Si Si4 0.573565 0.167954 0.571373
Si Si5 0.927235 0.778594 0.393777
Si Si6 0.075598 0.459605 0.207703
Si Si7 0.435605 0.651792 0.705847
Si Si8 0.422103 0.862397 0.810313
O O1 0.750000 0.299161 0.489183
O O2 0.984016 0.323149 0.595504
O O3 0.999161 0.270287 0.405420
O O4 0.957079 0.352893 0.401561
O O5 0.750000 0.953715 0.238058
O O6 0.956722 0.946375 0.385917
O O7 0.982961 0.901322 0.213418
O O8 0.000000 0.000000 0.221800
O O9 0.250000 0.589924 0.002703
O O10 0.965757 0.619804 0.018854
O O11 0.029516 0.546674 0.102724
O O12 0.750000 0.179354 0.552486
O O13 0.462736 0.201521 0.511558
O O14 0.549566 0.164503 0.699064
O O15 0.750000 0.773201 0.373481
O O16 0.983210 0.815716 0.305987
O O17 0.250000 0.467781 0.176852
O O18 0.073162 0.413813 0.273650
O O19 0.000000 0.500000 0.272363
O O20 0.250000 0.650391 0.708529
O O21 0.250000 0.851757 0.847430
#
# Coordination Sequence:
#
# PCOD9362606 Si02
#       8
#     8   8   8   8   8   8   8   8
#     4  11  24  41  63  89 116 155 206 252 300 363
#     4  10  20  36  57  84 117 159 201 241 300 360
#     4  10  18  31  53  81 118 158 194 237 296 362
#     4  10  20  35  57  86 120 154 192 240 291 348
#     4  11  22  40  64  88 119 158 194 239 304 367
#     4  10  20  34  54  82 117 157 200 248 303 356
#     4   9  21  43  63  83 122 164 197 245 310 366
#     4   9  21  40  58  81 119 158 193 243 300 349
#
# _framework density 19.727512999999998
#
# number of rings (size 3 to 8) (size 9 to 14) (size 15 to 20)
#    0.000    2.000    1.250    3.000    1.750    5.000 
#    0.000    3.750    0.000    3.000    0.000    0.000 
#    0.000    0.000    0.000    0.000    0.000    0.000 
#
# Total GULP energy -178290.746587 kJ/mol
# GULP energy per Si atom -5571.585831 kJ/mol
# Density = 1.968261 g / cm^3
# Si number density = 19.727513 Si / 1000 Ang^3
#
#
#
# Elastic Constant Matrix: (Units=GPa)
#
#
# Indices 1 2 3 4 5 6 
#
# 1 23.7634 24.7836 24.9755 0.0000 0.0000 0.0000
# 2 24.7836 96.6558 38.0265 0.0000 0.0000 0.0000
# 3 24.9755 38.0265 60.0058 0.0000 0.0000 0.0000
# 4 0.0000 0.0000 0.0000 -1.1376 0.0000 0.0000
# 5 0.0000 0.0000 0.0000 0.0000 18.5190 0.0000
# 6 0.0000 0.0000 0.0000 0.0000 0.0000 27.6882
#
#
#
# Elastic Compliance Matrix: (Units=1/GPa)
#
#
# Indices 1 2 3 4 5 6 
#
# 1 0.081549 -0.010066 -0.027563 0.000000 0.000000 0.000000
# 2 -0.010066 0.015025 -0.005332 0.000000 0.000000 0.000000
# 3 -0.027563 -0.005332 0.031516 0.000000 0.000000 0.000000
# 4 0.000000 0.000000 0.000000 -0.879057 0.000000 0.000000
# 5 0.000000 0.000000 0.000000 0.000000 0.053999 0.000000
# 6 0.000000 0.000000 0.000000 0.000000 0.000000 0.036116
#
#
# Mechanical properties :
#
#
# Convention : Reuss Voigt Hill
#
# Bulk Modulus (GPa) = 23.71470 39.55514 31.63492
# Shear Modulus (GPa) = -8.91464 15.18988 3.13762
#
# Velocity S-wave (km/s) = -2.12807 2.77787 1.26251
# Velocity P-wave (km/s) = 2.45132 5.51208 4.26568
#
# Compressibility (1/GPa) = 0.04216795
#
# Stress axis : x y z
#
# Youngs Moduli (GPa) = 12.26257 66.55747 31.72987
#
# Poissons Ratio (x) = 0.66997 0.87457
# Poissons Ratio (y) = 0.12344 0.16917
# Poissons Ratio (z) = 0.33800 0.35486
#
# Static dielectric constant tensor:
#      x y z
#    x 1.692170 0.000000 0.000000 
#    y 0.000000 1.827460 0.000000 
#    z 0.000000 0.000000 1.692110 
# 
# From -- ./inp_files/10671.got.cif
#   From: 2010.05.17/outbox.cif.g08.bks.cpg/sg40_6_cif.got.tgz:10671.got - 2010.06.03 18:35:42.
