data_PCOD9362063
_publ_section_title
;
Structure prediction by ZEFSAII (Michael W. Deem and Ramdas Pophale) SiO2 
 PCOD9362063
Probable space group: A B M 2
;
_chemical_formula_sum "Si O2"
_cell_formula_units_Z 48
_cell_length_a 11.124850
_cell_length_b 25.541604
_cell_length_c 8.974726
_cell_angle_alpha 90.000000
_cell_angle_beta 90.000000
_cell_angle_gamma 90.000000
_cell_volume 2550.137100
_symmetry_space_group_name_H-M "A B M 2"
_symmetry_group_IT_number 39
_symmetry_cell_setting 'orthorhombic'
loop_
_space_group_symop_operation_xyz
x,y,z
-x,-y,z
-x,1/2+y,z
x,1/2-y,z
x,1/2+y,1/2+z
-x,1/2-y,1/2+z
-x,y,1/2+z
x,-y,1/2+z
loop_
_atom_site_type_symbol
_atom_site_label
_atom_site_fract_x
_atom_site_fract_y
_atom_site_fract_z
Si Si1 0.647952 0.044535 0.800270
Si Si2 0.655409 0.187969 0.558873
Si Si3 0.295280 0.944838 0.134249
Si Si4 0.051219 0.059049 0.816144
Si Si5 0.151890 0.605348 0.623121
Si Si6 0.461754 0.635359 0.268952
O O1 0.738094 0.070664 0.682804
O O2 0.540715 0.085645 0.822308
O O3 0.630608 0.987958 0.728249
O O4 0.706470 0.039117 0.962536
O O5 0.665719 0.250000 0.546835
O O6 0.783658 0.161003 0.596829
O O7 0.604930 0.162787 0.405950
O O8 0.555851 0.172434 0.683340
O O9 0.163008 0.943461 0.202885
O O10 0.362077 0.889642 0.159328
O O11 0.950975 0.097558 0.746814
O O12 0.099356 0.081461 0.971508
O O13 0.000000 0.000000 0.832191
#
# Coordination Sequence:
#
# PCOD9362063 Si02
#       6
#     8   8   8   8   8   8
#     4  11  24  37  60  96 136 167 212 251 312 391
#     4  11  24  46  69  93 122 165 221 275 330 376
#     4  12  23  38  61  95 133 175 205 249 314 387
#     4  12  23  38  63  93 133 172 211 247 311 381
#     4  11  24  41  64  95 126 173 214 265 309 376
#     4  11  23  41  67  94 128 166 208 269 326 383
#
# _framework density 18.822519
#
# number of rings (size 3 to 8) (size 9 to 14) (size 15 to 20)
#    0.000    0.667    5.000    3.500    2.333    1.333 
#    0.000    0.833    0.000    0.000    0.000    0.000 
#    0.000    0.000    0.000    0.000    0.000    0.000 
#
# Total GULP energy -134102.984377 kJ/mol
# GULP energy per Si atom -5587.624349 kJ/mol
# Density = 1.877968 g / cm^3
# Si number density = 18.822519 Si / 1000 Ang^3
#
#
#
# Elastic Constant Matrix: (Units=GPa)
#
#
# Indices 1 2 3 4 5 6 
#
# 1 92.4953 68.0498 18.1539 0.0000 0.0000 0.0000
# 2 68.0498 128.7610 47.6460 0.0000 0.0000 0.0000
# 3 18.1539 47.6460 90.2169 0.0000 0.0000 0.0000
# 4 0.0000 0.0000 0.0000 4.6791 0.0000 0.0000
# 5 0.0000 0.0000 0.0000 0.0000 17.3008 0.0000
# 6 0.0000 0.0000 0.0000 0.0000 0.0000 22.0842
#
#
#
# Elastic Compliance Matrix: (Units=1/GPa)
#
#
# Indices 1 2 3 4 5 6 
#
# 1 0.017905 -0.010104 0.001733 0.000000 0.000000 0.000000
# 2 -0.010104 0.015355 -0.006076 0.000000 0.000000 0.000000
# 3 0.001733 -0.006076 0.013945 0.000000 0.000000 0.000000
# 4 0.000000 0.000000 0.000000 0.213715 0.000000 0.000000
# 5 0.000000 0.000000 0.000000 0.000000 0.057801 0.000000
# 6 0.000000 0.000000 0.000000 0.000000 0.000000 0.045281
#
#
# Mechanical properties :
#
#
# Convention : Reuss Voigt Hill
#
# Bulk Modulus (GPa) = 54.61346 64.35249 59.48298
# Shear Modulus (GPa) = 12.53139 20.65439 16.59289
#
# Velocity S-wave (km/s) = 2.58304 3.31618 2.97230
# Velocity P-wave (km/s) = 6.16231 6.99472 6.59167
#
# Compressibility (1/GPa) = 0.01831050
#
# Stress axis : x y z
#
# Youngs Moduli (GPa) = 55.85101 65.12714 71.71282
#
# Poissons Ratio (x) = 0.65804 -0.12430
# Poissons Ratio (y) = 0.56432 0.43573
# Poissons Ratio (z) = -0.09681 0.39571
#
# Static dielectric constant tensor:
#      x y z
#    x 1.689620 0.000000 0.000000 
#    y 0.000000 1.633000 0.000000 
#    z 0.000000 0.000000 1.652010 
# 
# From -- ./inp_files/2690.got.cif
#   From: 2010.05.17/outbox.cif.g08.bks.cpg/sg39_2_cif.got.tgz:2690.got - 2010.06.03 18:22:40.
