data_PCOD9362265
_publ_section_title
;
Structure prediction by ZEFSAII (Michael W. Deem and Ramdas Pophale) SiO2 
 PCOD9362265
Probable space group: A M A 2
;
_chemical_formula_sum "Si O2"
_cell_formula_units_Z 52
_cell_length_a 7.637949
_cell_length_b 21.525479
_cell_length_c 14.983079
_cell_angle_alpha 90.000000
_cell_angle_beta 90.000000
_cell_angle_gamma 90.000000
_cell_volume 2463.375672
_symmetry_space_group_name_H-M "A M A 2"
_symmetry_group_IT_number 40
_symmetry_cell_setting 'orthorhombic'
loop_
_space_group_symop_operation_xyz
x,y,z
-x,-y,z
1/2-x,y,z
1/2+x,-y,z
x,1/2+y,1/2+z
-x,1/2-y,1/2+z
1/2-x,1/2+y,1/2+z
1/2+x,1/2-y,1/2+z
loop_
_atom_site_type_symbol
_atom_site_label
_atom_site_fract_x
_atom_site_fract_y
_atom_site_fract_z
Si Si1 0.460153 0.927845 0.602420
Si Si2 0.543735 0.652242 0.938265
Si Si3 0.463986 0.605638 0.567078
Si Si4 0.039157 0.708178 0.425961
Si Si5 0.000000 0.500000 0.439136
Si Si6 0.542017 0.426863 0.765701
Si Si7 0.043249 0.901755 0.802419
O O1 0.250000 0.921863 0.603241
O O2 0.530771 0.885542 0.522428
O O3 0.518649 0.907794 0.701159
O O4 0.500000 0.000000 0.587266
O O5 0.750000 0.660640 0.956409
O O6 0.471346 0.721645 0.926670
O O7 0.528713 0.611113 0.849554
O O8 0.250000 0.594560 0.560344
O O9 0.501710 0.670038 0.516663
O O10 0.559671 0.551469 0.511462
O O11 0.515415 0.600490 0.670052
O O12 0.250000 0.708937 0.418157
O O13 0.972208 0.666379 0.344220
O O14 0.061708 0.551204 0.366406
O O15 0.500000 0.500000 0.770284
O O16 0.750000 0.420525 0.768944
O O17 0.250000 0.920225 0.808101
#
# Coordination Sequence:
#
# PCOD9362265 Si02
#       7
#     8   8   8   8   4   8   8
#     4  10  21  37  57  83 111 144 184 229 279 328
#     4  10  22  40  58  77 111 153 191 228 270 324
#     4   9  18  32  54  82 110 144 180 221 276 332
#     4   9  20  38  57  80 112 152 186 221 275 334
#     4  10  16  32  54  80 114 146 172 222 276 334
#     4  11  22  37  58  85 113 145 186 231 277 326
#     4  10  20  33  56  87 113 141 181 231 278 327
#
# _framework density 21.109242999999999
#
# number of rings (size 3 to 8) (size 9 to 14) (size 15 to 20)
#    0.000    2.154    1.538    1.385    0.000    4.923 
#    0.000    3.846    0.000    0.000    0.000    0.000 
#    0.000    0.000    0.000    0.000    0.000    0.000 
#
# Total GULP energy -144918.385809 kJ/mol
# GULP energy per Si atom -5573.784070 kJ/mol
# Density = 2.106120 g / cm^3
# Si number density = 21.109243 Si / 1000 Ang^3
#
#
#
# Elastic Constant Matrix: (Units=GPa)
#
#
# Indices 1 2 3 4 5 6 
#
# 1 57.1877 2.5197 8.9743 0.0000 0.0000 0.0000
# 2 2.5197 163.6867 85.6020 0.0000 0.0000 0.0000
# 3 8.9743 85.6020 158.3959 0.0000 0.0000 0.0000
# 4 0.0000 0.0000 0.0000 1.5268 0.0000 0.0000
# 5 0.0000 0.0000 0.0000 0.0000 -36.3454 0.0000
# 6 0.0000 0.0000 0.0000 0.0000 0.0000 18.3034
#
#
#
# Elastic Compliance Matrix: (Units=1/GPa)
#
#
# Indices 1 2 3 4 5 6 
#
# 1 0.017658 0.000350 -0.001190 0.000000 0.000000 0.000000
# 2 0.000350 0.008523 -0.004626 0.000000 0.000000 0.000000
# 3 -0.001190 -0.004626 0.008881 0.000000 0.000000 0.000000
# 4 0.000000 0.000000 0.000000 0.654971 0.000000 0.000000
# 5 0.000000 0.000000 0.000000 0.000000 -0.027514 0.000000
# 6 0.000000 0.000000 0.000000 0.000000 0.000000 0.054635
#
#
# Mechanical properties :
#
#
# Convention : Reuss Voigt Hill
#
# Bulk Modulus (GPa) = 41.44118 63.71803 52.57960
# Shear Modulus (GPa) = 6.79231 15.50858 11.15044
#
# Velocity S-wave (km/s) = 1.79574 2.71344 2.30081
# Velocity P-wave (km/s) = 4.89632 6.32989 5.65868
#
# Compressibility (1/GPa) = 0.02413059
#
# Stress axis : x y z
#
# Youngs Moduli (GPa) = 56.63304 117.32895 112.60350
#
# Poissons Ratio (x) = -0.04111 0.13398
# Poissons Ratio (y) = -0.01984 0.52090
# Poissons Ratio (z) = 0.06738 0.54276
#
# Static dielectric constant tensor:
#      x y z
#    x 1.884530 0.000000 0.000000 
#    y 0.000000 1.771500 0.000000 
#    z 0.000000 0.000000 1.742310 
# 
# From -- ./inp_files/15233.got.cif
#   From: 2010.05.17/outbox.cif.g08.bks.cpg/sg40_8_cif.got.tgz:15233.got - 2010.06.03 18:35:42.
