data_PCOD9362895
_publ_section_title
;
Structure prediction by ZEFSAII (Michael W. Deem and Ramdas Pophale) SiO2 
 PCOD9362895
Probable space group: A M A 2
;
_chemical_formula_sum "Si O2"
_cell_formula_units_Z 64
_cell_length_a 8.569371
_cell_length_b 28.334093
_cell_length_c 15.223417
_cell_angle_alpha 90.000000
_cell_angle_beta 90.000000
_cell_angle_gamma 90.000000
_cell_volume 3696.327167
_symmetry_space_group_name_H-M "A M A 2"
_symmetry_group_IT_number 40
_symmetry_cell_setting 'orthorhombic'
loop_
_space_group_symop_operation_xyz
x,y,z
-x,-y,z
1/2-x,y,z
1/2+x,-y,z
x,1/2+y,1/2+z
-x,1/2-y,1/2+z
1/2-x,1/2+y,1/2+z
1/2+x,1/2-y,1/2+z
loop_
_atom_site_type_symbol
_atom_site_label
_atom_site_fract_x
_atom_site_fract_y
_atom_site_fract_z
Si Si1 0.561484 0.552029 0.118580
Si Si2 0.936526 0.281085 0.316463
Si Si3 0.061548 0.947849 0.819931
Si Si4 0.063651 0.671018 0.620269
Si Si5 0.940428 0.137213 0.495853
Si Si6 0.436553 0.361598 0.441133
Si Si7 0.561392 0.719959 0.125369
Si Si8 0.938313 0.671101 0.810417
O O1 0.500000 0.500000 0.097575
O O2 0.750000 0.551397 0.117121
O O3 0.513729 0.563366 0.219185
O O4 0.507342 0.591566 0.050119
O O5 0.750000 0.283762 0.320617
O O6 0.981520 0.226055 0.327373
O O7 0.006133 0.315293 0.389342
O O8 0.995661 0.295322 0.219742
O O9 0.250000 0.948922 0.821504
O O10 0.007939 0.907445 0.886803
O O11 0.000000 0.000000 0.841255
O O12 0.250000 0.670061 0.616488
O O13 0.012514 0.725972 0.608686
O O14 0.996398 0.641055 0.540393
O O15 0.007814 0.656452 0.717039
O O16 0.750000 0.136902 0.495541
O O17 0.987396 0.183973 0.549642
O O18 0.990047 0.141317 0.394901
O O19 0.250000 0.361971 0.441086
O O20 0.750000 0.719180 0.130356
O O21 0.750000 0.669372 0.804238
#
# Coordination Sequence:
#
# PCOD9362895 Si02
#       8
#     8   8   8   8   8   8   8   8
#     4   9  17  31  50  72  97 123 152 189 236 287
#     4  10  19  30  46  72 103 131 163 203 242 283
#     4   9  19  34  52  74  99 126 157 195 242 295
#     4  10  20  33  49  71  99 130 164 205 247 284
#     4   9  16  29  51  71  91 126 166 197 230 283
#     4  11  21  33  51  73  98 131 167 200 241 298
#     4   9  17  31  49  70  99 132 164 198 239 288
#     4   9  18  33  50  69  96 131 169 205 241 284
#
# _framework density 17.314484
#
# number of rings (size 3 to 8) (size 9 to 14) (size 15 to 20)
#    0.000    2.500    0.000    2.625    0.000    6.000 
#    0.000    4.375    0.000    0.750    0.000    1.750 
#    0.000    0.000    0.000    0.000    0.000    0.000 
#
# Total GULP energy -178535.938796 kJ/mol
# GULP energy per Si atom -5579.248087 kJ/mol
# Density = 1.727508 g / cm^3
# Si number density = 17.314484 Si / 1000 Ang^3
#
#
#
# Elastic Constant Matrix: (Units=GPa)
#
#
# Indices 1 2 3 4 5 6 
#
# 1 12.8312 16.6667 26.7753 0.0000 0.0000 0.0000
# 2 16.6667 76.4264 82.4986 0.0000 0.0000 0.0000
# 3 26.7753 82.4986 158.7285 0.0000 0.0000 0.0000
# 4 0.0000 0.0000 0.0000 29.4154 0.0000 0.0000
# 5 0.0000 0.0000 0.0000 0.0000 23.9965 0.0000
# 6 0.0000 0.0000 0.0000 0.0000 0.0000 21.6930
#
#
#
# Elastic Compliance Matrix: (Units=1/GPa)
#
#
# Indices 1 2 3 4 5 6 
#
# 1 0.123623 -0.010135 -0.015586 0.000000 0.000000 0.000000
# 2 -0.010135 0.030639 -0.014215 0.000000 0.000000 0.000000
# 3 -0.015586 -0.014215 0.016317 0.000000 0.000000 0.000000
# 4 0.000000 0.000000 0.000000 0.033996 0.000000 0.000000
# 5 0.000000 0.000000 0.000000 0.000000 0.041673 0.000000
# 6 0.000000 0.000000 0.000000 0.000000 0.000000 0.046098
#
#
# Mechanical properties :
#
#
# Convention : Reuss Voigt Hill
#
# Bulk Modulus (GPa) = 11.02442 55.54082 33.28262
# Shear Modulus (GPa) = 12.42383 23.15734 17.79058
#
# Velocity S-wave (km/s) = 2.68160 3.66109 3.20894
# Velocity P-wave (km/s) = 3.99612 7.07239 5.74403
#
# Compressibility (1/GPa) = 0.09070771
#
# Stress axis : x y z
#
# Youngs Moduli (GPa) = 8.08912 32.63830 61.28465
#
# Poissons Ratio (x) = 0.33079 0.95518
# Poissons Ratio (y) = 0.08198 0.87115
# Poissons Ratio (z) = 0.12608 0.46395
#
# Static dielectric constant tensor:
#      x y z
#    x 1.589150 0.000000 0.000000 
#    y 0.000000 1.574200 0.000000 
#    z 0.000000 0.000000 1.587160 
# 
# From -- ./inp_files/15910.got.cif
#   From: 2010.05.17/outbox.cif.g08.bks.cpg/sg40_8_cif.got.tgz:15910.got - 2010.06.03 18:35:42.
