data_PCOD9362192
_publ_section_title
;
Structure prediction by ZEFSAII (Michael W. Deem and Ramdas Pophale) SiO2 
 PCOD9362192
Probable space group: A B M 2
;
_chemical_formula_sum "Si O2"
_cell_formula_units_Z 32
_cell_length_a 9.000000
_cell_length_b 18.000000
_cell_length_c 21.000000
_cell_angle_alpha 90.000000
_cell_angle_beta 90.000000
_cell_angle_gamma 90.000000
_cell_volume 3402.000000
_symmetry_space_group_name_H-M "A B M 2"
_symmetry_group_IT_number 39
_symmetry_cell_setting 'orthorhombic'
loop_
_space_group_symop_operation_xyz
x,y,z
-x,-y,z
-x,1/2+y,z
x,1/2-y,z
x,1/2+y,1/2+z
-x,1/2-y,1/2+z
-x,y,1/2+z
x,-y,1/2+z
loop_
_atom_site_type_symbol
_atom_site_label
_atom_site_fract_x
_atom_site_fract_y
_atom_site_fract_z
Si Si1 0.402040 0.664488 0.824750
Si Si2 0.609455 0.108442 0.965861
Si Si3 0.085500 0.660858 0.794717
Si Si4 0.900003 0.072830 0.188505
Si Si5 0.184078 0.335077 0.562278
Si Si6 0.360580 0.447056 0.787094
Si Si7 0.286389 0.954597 0.433042
Si Si8 0.032108 0.163596 0.938967
O O1 0.404784 0.750000 0.809828
O O2 0.374996 0.654838 0.900580
O O3 0.255090 0.631906 0.791514
O O4 0.556264 0.630307 0.802080
O O5 0.441544 0.079247 0.958508
O O6 0.717061 0.036688 0.961577
O O7 0.654635 0.148405 0.030790
O O8 0.083074 0.750000 0.786773
O O9 0.989496 0.623968 0.739315
O O10 0.031438 0.647549 0.867728
O O11 0.860764 0.112908 0.121589
O O12 0.752194 0.053598 0.229072
O O13 0.000000 0.000000 0.176734
O O14 0.176480 0.250000 0.584507
O O15 0.079533 0.340928 0.498995
O O16 0.500000 0.500000 0.775419
O O17 0.291415 0.465945 0.856353
O O18 0.158697 0.897231 0.449502
O O19 0.084855 0.250000 0.936935
#
# Coordination Sequence:
#
# PCOD9362192 Si02
#       8
#     8   8   8   8   8   8   8   8
#     4  10  19  34  63  95 122 157 203 256 317 376
#     4  10  20  37  61  90 125 163 199 258 317 373
#     4  10  20  38  62  93 125 159 207 262 320 378
#     4  12  27  41  62  91 124 173 215 264 323 380
#     4  11  25  45  62  88 128 169 212 260 317 383
#     4  11  21  41  59  92 128 163 201 262 317 379
#     4  10  20  36  63  96 127 152 207 261 321 372
#     4  10  21  37  63  94 125 163 208 265 316 372
#
# _framework density 9.4062319999999993
#
# number of rings (size 3 to 8) (size 9 to 14) (size 15 to 20)
#    0.000    1.500    5.000    1.500    1.750    3.500 
#    2.250    1.250    0.000    0.000    0.000    0.000 
#    0.000    0.000    0.000    0.000    0.000    0.000 
#
# Total GULP energy -178448.420990 kJ/mol
# GULP energy per Si atom -5576.513156 kJ/mol
# Density = 0.938482 g / cm^3
# Si number density = 9.406232 Si / 1000 Ang^3
#
#
#
# Elastic Constant Matrix: (Units=GPa)
#
#
# Indices 1 2 3 4 5 6 
#
# 1 38.4033 32.6638 22.3763 0.0000 0.0000 0.0000
# 2 32.6638 78.8120 30.5345 0.0000 0.0000 0.0000
# 3 22.3763 30.5345 109.2716 0.0000 0.0000 0.0000
# 4 0.0000 0.0000 0.0000 30.2319 0.0000 0.0000
# 5 0.0000 0.0000 0.0000 0.0000 23.2578 0.0000
# 6 0.0000 0.0000 0.0000 0.0000 0.0000 28.8196
#
#
#
# Elastic Compliance Matrix: (Units=1/GPa)
#
#
# Indices 1 2 3 4 5 6 
#
# 1 0.041848 -0.015726 -0.004175 0.000000 0.000000 0.000000
# 2 -0.015726 0.020139 -0.002407 0.000000 0.000000 0.000000
# 3 -0.004175 -0.002407 0.010679 0.000000 0.000000 0.000000
# 4 0.000000 0.000000 0.000000 0.033078 0.000000 0.000000
# 5 0.000000 0.000000 0.000000 0.000000 0.042996 0.000000
# 6 0.000000 0.000000 0.000000 0.000000 0.000000 0.034699
#
#
# Mechanical properties :
#
#
# Convention : Reuss Voigt Hill
#
# Bulk Modulus (GPa) = 35.65200 44.18179 39.91690
# Shear Modulus (GPa) = 21.06102 25.85602 23.45852
#
# Velocity S-wave (km/s) = 3.34956 3.71132 3.53507
# Velocity P-wave (km/s) = 5.82682 6.47315 6.15847
#
# Compressibility (1/GPa) = 0.02804892
#
# Stress axis : x y z
#
# Youngs Moduli (GPa) = 23.89596 49.65520 93.64095
#
# Poissons Ratio (x) = 0.78090 0.39095
# Poissons Ratio (y) = 0.37580 0.22541
# Poissons Ratio (z) = 0.09976 0.11953
#
# Static dielectric constant tensor:
#      x y z
#    x 1.699590 0.000000 0.000000 
#    y 0.000000 1.712550 0.000000 
#    z 0.000000 0.000000 1.597480 
# 
# From -- ./inp_files/14223.got.cif
#   From: 2010.05.17/outbox.ucp.g08.bks.cvg/sg39_8_cif.got.tgz:14223.got - 2010.06.11 10:41:16.
