data_PCOD9362863
_publ_section_title
;
Structure prediction by ZEFSAII (Michael W. Deem and Ramdas Pophale) SiO2 
 PCOD9362863
Probable space group: A M A 2
;
_chemical_formula_sum "Si O2"
_cell_formula_units_Z 48
_cell_length_a 8.347711
_cell_length_b 13.786077
_cell_length_c 18.404338
_cell_angle_alpha 90.000000
_cell_angle_beta 90.000000
_cell_angle_gamma 90.000000
_cell_volume 2118.011460
_symmetry_space_group_name_H-M "A M A 2"
_symmetry_group_IT_number 40
_symmetry_cell_setting 'orthorhombic'
loop_
_space_group_symop_operation_xyz
x,y,z
-x,-y,z
1/2-x,y,z
1/2+x,-y,z
x,1/2+y,1/2+z
-x,1/2-y,1/2+z
1/2-x,1/2+y,1/2+z
1/2+x,1/2-y,1/2+z
loop_
_atom_site_type_symbol
_atom_site_label
_atom_site_fract_x
_atom_site_fract_y
_atom_site_fract_z
Si Si1 0.065660 0.101814 0.115240
Si Si2 0.945110 0.181212 0.806284
Si Si3 0.056174 0.599671 0.842007
Si Si4 0.569719 0.364892 0.997906
Si Si5 0.432830 0.364406 0.462603
Si Si6 0.442902 0.317509 0.149007
O O1 0.250000 0.105021 0.135457
O O2 0.995528 0.205637 0.140321
O O3 0.042239 0.099713 0.027947
O O4 0.000000 0.000000 0.142744
O O5 0.750000 0.178316 0.810066
O O6 0.990150 0.295732 0.809846
O O7 0.997014 0.143448 0.727453
O O8 0.997656 0.128216 0.880376
O O9 0.250000 0.600181 0.844671
O O10 0.000000 0.500000 0.806111
O O11 0.988308 0.597813 0.924603
O O12 0.750000 0.403851 0.003119
O O13 0.579610 0.250532 0.978800
O O14 0.491408 0.373791 0.076401
O O15 0.250000 0.403029 0.468056
O O16 0.250000 0.313755 0.149979
#
# Coordination Sequence:
#
# PCOD9362863 Si02
#       6
#     8   8   8   8   8   8
#     4  10  19  29  43  65  92 118 145 178 214 255
#     4   8  15  29  47  66  89 116 143 175 219 262
#     4   9  17  29  45  65  90 118 146 177 213 255
#     4   8  15  28  44  62  85 114 147 181 216 252
#     4   8  14  28  48  63  80 112 150 182 214 255
#     4   9  17  29  46  67  89 114 145 179 214 257
#
# _framework density 22.662768
#
# number of rings (size 3 to 8) (size 9 to 14) (size 15 to 20)
#    0.000    3.333    0.000    2.500    0.000    2.000 
#    0.000    4.167    0.000    1.000    0.000    2.333 
#    0.000    0.000    0.000    0.000    0.000    0.000 
#
# Total GULP energy -133692.557201 kJ/mol
# GULP energy per Si atom -5570.523217 kJ/mol
# Density = 2.261119 g / cm^3
# Si number density = 22.662768 Si / 1000 Ang^3
#
#
#
# Elastic Constant Matrix: (Units=GPa)
#
#
# Indices 1 2 3 4 5 6 
#
# 1 4.6974 -3.7926 4.0644 0.0000 0.0000 0.0000
# 2 -3.7926 35.8914 -11.2976 0.0000 0.0000 0.0000
# 3 4.0644 -11.2976 179.6467 0.0000 0.0000 0.0000
# 4 0.0000 0.0000 0.0000 -3.8867 0.0000 0.0000
# 5 0.0000 0.0000 0.0000 0.0000 9.1599 0.0000
# 6 0.0000 0.0000 0.0000 0.0000 0.0000 178.9490
#
#
#
# Elastic Compliance Matrix: (Units=1/GPa)
#
#
# Indices 1 2 3 4 5 6 
#
# 1 0.235304 0.023657 -0.003836 0.000000 0.000000 0.000000
# 2 0.023657 0.030803 0.001402 0.000000 0.000000 0.000000
# 3 -0.003836 0.001402 0.005741 0.000000 0.000000 0.000000
# 4 0.000000 0.000000 0.000000 -0.257285 0.000000 0.000000
# 5 0.000000 0.000000 0.000000 0.000000 0.109172 0.000000
# 6 0.000000 0.000000 0.000000 0.000000 0.000000 0.005588
#
#
# Mechanical properties :
#
#
# Convention : Reuss Voigt Hill
#
# Bulk Modulus (GPa) = 3.18174 22.02044 12.60109
# Shear Modulus (GPa) = 26.09031 52.26186 39.17608
#
# Velocity S-wave (km/s) = 3.39668 4.80736 4.16222
# Velocity P-wave (km/s) = 4.09758 6.36804 5.35454
#
# Compressibility (1/GPa) = 0.31429391
#
# Stress axis : x y z
#
# Youngs Moduli (GPa) = 4.24982 32.46448 174.17275
#
# Poissons Ratio (x) = -0.76801 0.66810
# Poissons Ratio (y) = -0.10054 -0.24417
# Poissons Ratio (z) = 0.01630 -0.04551
#
# Static dielectric constant tensor:
#      x y z
#    x 1.807450 0.000000 0.000000 
#    y 0.000000 1.900000 0.000000 
#    z 0.000000 0.000000 1.901060 
# 
# From -- ./inp_files/16343.got.cif
#   From: 2010.05.17/outbox.cif.g08.bks.cpg/sg40_9_cif.got.tgz:16343.got - 2010.06.03 18:35:42.
