data_PCOD9362100
_publ_section_title
;
Structure prediction by ZEFSAII (Michael W. Deem and Ramdas Pophale) SiO2 
 PCOD9362100
Probable space group: A B M 2
;
_chemical_formula_sum "Si O2"
_cell_formula_units_Z 40
_cell_length_a 7.523492
_cell_length_b 9.644034
_cell_length_c 25.641662
_cell_angle_alpha 90.000000
_cell_angle_beta 90.000000
_cell_angle_gamma 90.000000
_cell_volume 1860.477266
_symmetry_space_group_name_H-M "A B M 2"
_symmetry_group_IT_number 39
_symmetry_cell_setting 'orthorhombic'
loop_
_space_group_symop_operation_xyz
x,y,z
-x,-y,z
-x,1/2+y,z
x,1/2-y,z
x,1/2+y,1/2+z
-x,1/2-y,1/2+z
-x,y,1/2+z
x,-y,1/2+z
loop_
_atom_site_type_symbol
_atom_site_label
_atom_site_fract_x
_atom_site_fract_y
_atom_site_fract_z
Si Si1 0.311777 0.417594 0.531890
Si Si2 0.326197 0.750000 0.826051
Si Si3 0.205470 0.522677 0.745205
Si Si4 0.025971 0.250000 0.882140
Si Si5 0.000000 0.500000 0.453734
Si Si6 0.680980 0.586348 0.131880
Si Si7 0.697141 0.250000 0.292414
O O1 0.500000 0.500000 0.520984
O O2 0.337816 0.250000 0.538703
O O3 0.161217 0.441446 0.488513
O O4 0.240452 0.497598 0.583844
O O5 0.282363 0.621424 0.789122
O O6 0.536467 0.750000 0.833731
O O7 0.187113 0.750000 0.872841
O O8 0.219188 0.578559 0.686773
O O9 0.307146 0.379726 0.754026
O O10 0.000000 0.500000 0.756826
O O11 0.124378 0.250000 0.826766
O O12 0.075284 0.382621 0.915738
O O13 0.500000 0.500000 0.141221
O O14 0.656905 0.750000 0.118766
#
# Coordination Sequence:
#
# PCOD9362100 Si02
#       7
#     8   4   8   4   4   8   4
#     4  11  26  48  76 108 143 185 238 292 359 429
#     4  12  24  48  69 103 138 183 235 284 351 414
#     4  12  24  43  67 105 147 184 229 284 343 417
#     4  12  26  48  72 104 138 180 244 304 358 416
#     4  12  28  48  76 100 146 182 236 308 364 422
#     4  11  24  42  70 107 146 186 232 278 345 427
#     4  12  26  44  77  97 142 189 233 288 347 414
#
# _framework density 21.499860000000002
#
# number of rings (size 3 to 8) (size 9 to 14) (size 15 to 20)
#    0.000    0.400    4.000    5.400    7.000    1.600 
#    0.000    0.000    0.000    0.000    0.000    0.000 
#    0.000    0.000    0.000    0.000    0.000    0.000 
#
# Total GULP energy -111717.501924 kJ/mol
# GULP energy per Si atom -5585.875096 kJ/mol
# Density = 2.145092 g / cm^3
# Si number density = 21.499860 Si / 1000 Ang^3
#
#
#
# Elastic Constant Matrix: (Units=GPa)
#
#
# Indices 1 2 3 4 5 6 
#
# 1 76.4071 12.1433 5.5065 0.0000 0.0000 0.0000
# 2 12.1433 196.1368 40.9781 0.0000 0.0000 0.0000
# 3 5.5065 40.9781 86.5900 0.0000 0.0000 0.0000
# 4 0.0000 0.0000 0.0000 37.4623 0.0000 0.0000
# 5 0.0000 0.0000 0.0000 0.0000 32.7326 0.0000
# 6 0.0000 0.0000 0.0000 0.0000 0.0000 143.7177
#
#
#
# Elastic Compliance Matrix: (Units=1/GPa)
#
#
# Indices 1 2 3 4 5 6 
#
# 1 0.013238 -0.000714 -0.000504 0.000000 0.000000 0.000000
# 2 -0.000714 0.005696 -0.002650 0.000000 0.000000 0.000000
# 3 -0.000504 -0.002650 0.012835 0.000000 0.000000 0.000000
# 4 0.000000 0.000000 0.000000 0.026694 0.000000 0.000000
# 5 0.000000 0.000000 0.000000 0.000000 0.030551 0.000000
# 6 0.000000 0.000000 0.000000 0.000000 0.000000 0.006958
#
#
# Mechanical properties :
#
#
# Convention : Reuss Voigt Hill
#
# Bulk Modulus (GPa) = 41.61096 52.93217 47.27156
# Shear Modulus (GPa) = 44.75520 62.81625 53.78573
#
# Velocity S-wave (km/s) = 4.56746 5.41114 5.00710
# Velocity P-wave (km/s) = 6.87108 7.98210 7.44733
#
# Compressibility (1/GPa) = 0.02403213
#
# Stress axis : x y z
#
# Youngs Moduli (GPa) = 75.54223 175.54818 77.91207
#
# Poissons Ratio (x) = 0.12540 0.03925
# Poissons Ratio (y) = 0.05396 0.20650
# Poissons Ratio (z) = 0.03806 0.46527
#
# Static dielectric constant tensor:
#      x y z
#    x 1.796860 0.000000 0.000000 
#    y 0.000000 1.753110 0.000000 
#    z 0.000000 0.000000 1.747140 
# 
# From -- ./inp_files/15489.got.cif
#   From: 2010.05.17/outbox.cif.g08.bks.cpg/sg39_8_cif.got.tgz:15489.got - 2010.06.03 18:22:40.
