data_PCOD9362092
_publ_section_title
;
Structure prediction by ZEFSAII (Michael W. Deem and Ramdas Pophale) SiO2 
 PCOD9362092
Probable space group: A B M 2
;
_chemical_formula_sum "Si O2"
_cell_formula_units_Z 48
_cell_length_a 7.500489
_cell_length_b 28.129465
_cell_length_c 9.863411
_cell_angle_alpha 90.000000
_cell_angle_beta 90.000000
_cell_angle_gamma 90.000000
_cell_volume 2081.029233
_symmetry_space_group_name_H-M "A B M 2"
_symmetry_group_IT_number 39
_symmetry_cell_setting 'orthorhombic'
loop_
_space_group_symop_operation_xyz
x,y,z
-x,-y,z
-x,1/2+y,z
x,1/2-y,z
x,1/2+y,1/2+z
-x,1/2-y,1/2+z
-x,y,1/2+z
x,-y,1/2+z
loop_
_atom_site_type_symbol
_atom_site_label
_atom_site_fract_x
_atom_site_fract_y
_atom_site_fract_z
Si Si1 0.822283 0.520144 0.884290
Si Si2 0.686638 0.952431 0.613495
Si Si3 0.826125 0.845058 0.661257
Si Si4 0.092906 0.695543 0.873528
Si Si5 0.364667 0.900839 0.502017
Si Si6 0.451446 0.840781 0.759362
O O1 0.685647 0.523839 0.760440
O O2 0.000000 0.500000 0.816300
O O3 0.788681 0.482773 0.002633
O O4 0.812092 0.572784 0.950291
O O5 0.776171 0.900214 0.633880
O O6 0.492373 0.942955 0.553590
O O7 0.907429 0.822334 0.527041
O O8 0.635149 0.820591 0.697372
O O9 0.962614 0.836365 0.782653
O O10 0.033843 0.750000 0.863430
O O11 0.297420 0.690994 0.822900
O O12 0.355682 0.867682 0.633577
O O13 0.470127 0.874677 0.379646
#
# Coordination Sequence:
#
# PCOD9362092 Si02
#       6
#     8   8   8   8   8   8
#     4  12  27  42  66 107 142 190 258 308 358 441
#     4  11  26  44  67 101 147 198 241 313 366 446
#     4  11  27  50  75 112 156 204 247 319 398 466
#     4  12  28  48  80 114 148 197 257 322 395 483
#     4  11  23  47  73 103 143 202 247 310 384 449
#     4  11  24  49  79 107 151 201 251 318 398 466
#
# _framework density 23.065511000000001
#
# number of rings (size 3 to 8) (size 9 to 14) (size 15 to 20)
#    0.000    0.667    6.667    1.500    9.333    2.667 
#    0.000    0.000    0.000    0.000    0.000    0.000 
#    0.000    0.000    0.000    0.000    0.000    0.000 
#
# Total GULP energy -134190.097746 kJ/mol
# GULP energy per Si atom -5591.254073 kJ/mol
# Density = 2.301301 g / cm^3
# Si number density = 23.065511 Si / 1000 Ang^3
#
#
#
# Elastic Constant Matrix: (Units=GPa)
#
#
# Indices 1 2 3 4 5 6 
#
# 1 74.3504 29.6218 7.6679 0.0000 0.0000 0.0000
# 2 29.6218 81.1877 28.6745 0.0000 0.0000 0.0000
# 3 7.6679 28.6745 130.4432 0.0000 0.0000 0.0000
# 4 0.0000 0.0000 0.0000 13.1023 0.0000 0.0000
# 5 0.0000 0.0000 0.0000 0.0000 39.2129 0.0000
# 6 0.0000 0.0000 0.0000 0.0000 0.0000 27.0158
#
#
#
# Elastic Compliance Matrix: (Units=1/GPa)
#
#
# Indices 1 2 3 4 5 6 
#
# 1 0.015754 -0.005877 0.000366 0.000000 0.000000 0.000000
# 2 -0.005877 0.015546 -0.003072 0.000000 0.000000 0.000000
# 3 0.000366 -0.003072 0.008320 0.000000 0.000000 0.000000
# 4 0.000000 0.000000 0.000000 0.076323 0.000000 0.000000
# 5 0.000000 0.000000 0.000000 0.000000 0.025502 0.000000
# 6 0.000000 0.000000 0.000000 0.000000 0.000000 0.037015
#
#
# Mechanical properties :
#
#
# Convention : Reuss Voigt Hill
#
# Bulk Modulus (GPa) = 44.53623 46.43441 45.48532
# Shear Modulus (GPa) = 24.61716 30.53401 27.57559
#
# Velocity S-wave (km/s) = 3.27046 3.64235 3.46140
# Velocity P-wave (km/s) = 5.79756 6.15339 5.97812
#
# Compressibility (1/GPa) = 0.02245363
#
# Stress axis : x y z
#
# Youngs Moduli (GPa) = 63.47786 64.32373 120.19287
#
# Poissons Ratio (x) = 0.37803 -0.04397
# Poissons Ratio (y) = 0.37306 0.36923
# Poissons Ratio (z) = -0.02322 0.19760
#
# Static dielectric constant tensor:
#      x y z
#    x 1.886260 0.000000 0.000000 
#    y 0.000000 1.853200 0.000000 
#    z 0.000000 0.000000 1.835170 
# 
# From -- ./inp_files/2311.got.cif
#   From: 2010.05.17/outbox.cif.g08.bks.cpg/sg39_2_cif.got.tgz:2311.got - 2010.06.03 18:22:40.
