data_PCOD9362392
_publ_section_title
;
Structure prediction by ZEFSAII (Michael W. Deem and Ramdas Pophale) SiO2 
 PCOD9362392
Probable space group: A M A 2
;
_chemical_formula_sum "Si O2"
_cell_formula_units_Z 64
_cell_length_a 9.129777
_cell_length_b 18.450149
_cell_length_c 26.789258
_cell_angle_alpha 90.000000
_cell_angle_beta 90.000000
_cell_angle_gamma 90.000000
_cell_volume 4512.536548
_symmetry_space_group_name_H-M "A M A 2"
_symmetry_group_IT_number 40
_symmetry_cell_setting 'orthorhombic'
loop_
_space_group_symop_operation_xyz
x,y,z
-x,-y,z
1/2-x,y,z
1/2+x,-y,z
x,1/2+y,1/2+z
-x,1/2-y,1/2+z
1/2-x,1/2+y,1/2+z
1/2+x,1/2-y,1/2+z
loop_
_atom_site_type_symbol
_atom_site_label
_atom_site_fract_x
_atom_site_fract_y
_atom_site_fract_z
Si Si1 0.924414 0.077987 0.762680
Si Si2 0.080604 0.201314 0.704443
Si Si3 0.075742 0.822511 0.860282
Si Si4 0.075090 0.923834 0.949293
Si Si5 0.076376 0.174809 0.147449
Si Si6 0.422701 0.077334 0.246855
Si Si7 0.425282 0.922670 0.066161
Si Si8 0.918034 0.199216 0.304547
O O1 0.750000 0.071615 0.755377
O O2 0.948214 0.120081 0.815207
O O3 0.996511 0.128597 0.720259
O O4 0.000000 0.000000 0.764125
O O5 0.250000 0.187940 0.691058
O O6 0.080425 0.250916 0.754547
O O7 0.996698 0.249426 0.663616
O O8 0.250000 0.808068 0.862008
O O9 0.028412 0.860933 0.911438
O O10 0.992076 0.749207 0.846349
O O11 0.250000 0.932425 0.943557
O O12 0.045772 0.908185 0.007502
O O13 0.000000 0.000000 0.936442
O O14 0.250000 0.182875 0.138985
O O15 0.057122 0.120196 0.194555
O O16 0.995851 0.138156 0.100925
O O17 0.250000 0.068788 0.254929
O O18 0.492651 0.127920 0.289533
O O19 0.500000 0.000000 0.244393
O O20 0.250000 0.927235 0.073667
O O21 0.500000 0.000000 0.078225
O O22 0.750000 0.182103 0.316295
#
# Coordination Sequence:
#
# PCOD9362392 Si02
#       8
#     8   8   8   8   8   8   8   8
#     4  10  18  27  41  61  85 112 142 174 208 247
#     4   9  17  29  43  59  81 108 138 172 208 247
#     4   9  17  29  43  59  82 112 143 174 209 247
#     4   9  18  30  43  60  83 111 143 178 212 245
#     4  10  19  30  44  61  82 110 142 174 210 250
#     4  10  19  29  42  60  83 110 139 171 206 246
#     4  10  19  30  43  60  83 111 143 178 213 246
#     4   9  17  28  42  60  81 106 137 171 206 246
#
# _framework density 14.18271
#
# number of rings (size 3 to 8) (size 9 to 14) (size 15 to 20)
#    0.000    2.500    0.000    3.000    0.000    7.000 
#    0.000    0.000    0.000    0.000    0.000    0.000 
#    0.000    1.000    0.000    8.000    0.000    4.750 
#
# Total GULP energy -178401.658161 kJ/mol
# GULP energy per Si atom -5575.051818 kJ/mol
# Density = 1.415043 g / cm^3
# Si number density = 14.182710 Si / 1000 Ang^3
#
#
#
# Elastic Constant Matrix: (Units=GPa)
#
#
# Indices 1 2 3 4 5 6 
#
# 1 90.7057 54.8107 36.6776 0.0000 0.0000 0.0000
# 2 54.8107 65.2918 21.0956 0.0000 0.0000 0.0000
# 3 36.6776 21.0956 49.8402 0.0000 0.0000 0.0000
# 4 0.0000 0.0000 0.0000 28.0774 0.0000 0.0000
# 5 0.0000 0.0000 0.0000 0.0000 15.8558 0.0000
# 6 0.0000 0.0000 0.0000 0.0000 0.0000 29.0397
#
#
#
# Elastic Compliance Matrix: (Units=1/GPa)
#
#
# Indices 1 2 3 4 5 6 
#
# 1 0.027525 -0.019185 -0.012135 0.000000 0.000000 0.000000
# 2 -0.019185 0.031115 0.000949 0.000000 0.000000 0.000000
# 3 -0.012135 0.000949 0.028593 0.000000 0.000000 0.000000
# 4 0.000000 0.000000 0.000000 0.035616 0.000000 0.000000
# 5 0.000000 0.000000 0.000000 0.000000 0.063068 0.000000
# 6 0.000000 0.000000 0.000000 0.000000 0.000000 0.034436
#
#
# Mechanical properties :
#
#
# Convention : Reuss Voigt Hill
#
# Bulk Modulus (GPa) = 37.75148 47.88950 42.82049
# Shear Modulus (GPa) = 17.24581 20.81151 19.02866
#
# Velocity S-wave (km/s) = 3.49087 3.83480 3.66687
# Velocity P-wave (km/s) = 6.55164 7.31075 6.94158
#
# Compressibility (1/GPa) = 0.02648903
#
# Stress axis : x y z
#
# Youngs Moduli (GPa) = 36.33093 32.13884 34.97393
#
# Poissons Ratio (x) = 0.61660 0.42441
# Poissons Ratio (y) = 0.69703 -0.03318
# Poissons Ratio (z) = 0.44088 -0.03049
#
# Static dielectric constant tensor:
#      x y z
#    x 1.473390 0.000000 0.000000 
#    y 0.000000 1.443880 0.000000 
#    z 0.000000 0.000000 1.456090 
# 
# From -- ./inp_files/24377.got.cif
#   From: 2010.05.17/outbox.cif.g08.bks.cpg/sg40_13_cif.got.tgz:24377.got - 2010.06.03 18:35:42.
