data_PCOD9362974
_publ_section_title
;
Structure prediction by ZEFSAII (Michael W. Deem and Ramdas Pophale) SiO2 
 PCOD9362974
Probable space group: A M A 2
;
_chemical_formula_sum "Si O2"
_cell_formula_units_Z 64
_cell_length_a 7.681102
_cell_length_b 17.739036
_cell_length_c 21.312403
_cell_angle_alpha 90.000000
_cell_angle_beta 90.000000
_cell_angle_gamma 90.000000
_cell_volume 2903.928821
_symmetry_space_group_name_H-M "A M A 2"
_symmetry_group_IT_number 40
_symmetry_cell_setting 'orthorhombic'
loop_
_space_group_symop_operation_xyz
x,y,z
-x,-y,z
1/2-x,y,z
1/2+x,-y,z
x,1/2+y,1/2+z
-x,1/2-y,1/2+z
1/2-x,1/2+y,1/2+z
1/2+x,1/2-y,1/2+z
loop_
_atom_site_type_symbol
_atom_site_label
_atom_site_fract_x
_atom_site_fract_y
_atom_site_fract_z
Si Si1 0.549762 0.784350 0.164550
Si Si2 0.453040 0.794802 0.028559
Si Si3 0.541064 0.418558 0.751165
Si Si4 0.045579 0.111859 0.522485
Si Si5 0.543767 0.918834 0.793369
Si Si6 0.536232 0.378479 0.887128
Si Si7 0.547773 0.887472 0.658021
Si Si8 0.457142 0.794505 0.894106
O O1 0.750000 0.768492 0.181928
O O2 0.543892 0.815024 0.093388
O O3 0.476558 0.847030 0.211532
O O4 0.456483 0.703672 0.163657
O O5 0.250000 0.815406 0.035678
O O6 0.461293 0.703437 0.022372
O O7 0.524568 0.823051 0.961806
O O8 0.500000 0.500000 0.723038
O O9 0.750000 0.411110 0.752870
O O10 0.476065 0.416205 0.822932
O O11 0.250000 0.090931 0.523114
O O12 0.972904 0.089797 0.454314
O O13 0.968415 0.090169 0.590337
O O14 0.750000 0.912089 0.787210
O O15 0.466532 0.915715 0.722874
O O16 0.487238 0.850605 0.837250
O O17 0.500000 0.000000 0.821624
O O18 0.750000 0.380891 0.888963
O O19 0.481754 0.290615 0.881939
O O20 0.750000 0.910758 0.655758
O O21 0.250000 0.787754 0.902855
#
# Coordination Sequence:
#
# PCOD9362974 Si02
#       8
#     8   8   8   8   8   8   8   8
#     4  10  19  31  51  77 102 129 164 209 253 293
#     4   8  15  29  51  77 101 126 158 198 247 302
#     4  10  21  34  47  68  98 132 167 201 241 286
#     4   7  11  24  48  74  96 120 154 195 238 287
#     4  11  23  36  50  71 102 137 171 210 253 301
#     4   8  14  28  52  76  96 123 161 201 241 291
#     4   9  18  33  53  76 100 130 168 206 248 298
#     4   9  17  33  57  79  99 127 163 204 252 306
#
# _framework density 22.039109
#
# number of rings (size 3 to 8) (size 9 to 14) (size 15 to 20)
#    0.000    3.000    0.000    3.750    0.000    3.500 
#    0.000    1.875    0.000    4.500    0.000    0.000 
#    0.000    0.000    0.000    0.000    0.000    0.000 
#
# Total GULP energy -178442.361814 kJ/mol
# GULP energy per Si atom -5576.323807 kJ/mol
# Density = 2.198895 g / cm^3
# Si number density = 22.039109 Si / 1000 Ang^3
#
#
#
# Elastic Constant Matrix: (Units=GPa)
#
#
# Indices 1 2 3 4 5 6 
#
# 1 39.6132 -9.1234 0.4443 0.0000 0.0000 0.0000
# 2 -9.1234 79.8555 45.5007 0.0000 0.0000 0.0000
# 3 0.4443 45.5007 120.2426 0.0000 0.0000 0.0000
# 4 0.0000 0.0000 0.0000 -17.3100 0.0000 0.0000
# 5 0.0000 0.0000 0.0000 0.0000 14.0353 0.0000
# 6 0.0000 0.0000 0.0000 0.0000 0.0000 3.8385
#
#
#
# Elastic Compliance Matrix: (Units=1/GPa)
#
#
# Indices 1 2 3 4 5 6 
#
# 1 0.026155 0.003880 -0.001565 0.000000 0.000000 0.000000
# 2 0.003880 0.016540 -0.006273 0.000000 0.000000 0.000000
# 3 -0.001565 -0.006273 0.010696 0.000000 0.000000 0.000000
# 4 0.000000 0.000000 0.000000 -0.057770 0.000000 0.000000
# 5 0.000000 0.000000 0.000000 0.000000 0.071249 0.000000
# 6 0.000000 0.000000 0.000000 0.000000 0.000000 0.260516
#
#
# Mechanical properties :
#
#
# Convention : Reuss Voigt Hill
#
# Bulk Modulus (GPa) = 21.99002 34.81716 28.40359
# Shear Modulus (GPa) = 14.26689 13.63875 13.95282
#
# Velocity S-wave (km/s) = 2.54706 2.49035 2.51886
# Velocity P-wave (km/s) = 4.31849 4.90931 4.62335
#
# Compressibility (1/GPa) = 0.04547517
#
# Stress axis : x y z
#
# Youngs Moduli (GPa) = 38.23324 60.45821 93.49129
#
# Poissons Ratio (x) = -0.23457 0.14629
# Poissons Ratio (y) = -0.14834 0.58650
# Poissons Ratio (z) = 0.05983 0.37927
#
# Static dielectric constant tensor:
#      x y z
#    x 1.822790 0.000000 0.000000 
#    y 0.000000 1.735600 0.000000 
#    z 0.000000 0.000000 1.884120 
# 
# From -- ./inp_files/22516.got.cif
#   From: 2010.05.17/outbox.cif.g08.bks.cpg/sg40_12_cif.got.tgz:22516.got - 2010.06.03 18:35:42.
