data_PCOD9362232
_publ_section_title
;
Structure prediction by ZEFSAII (Michael W. Deem and Ramdas Pophale) SiO2 
 PCOD9362232
Probable space group: A M A 2
;
_chemical_formula_sum "Si O2"
_cell_formula_units_Z 64
_cell_length_a 15.281926
_cell_length_b 16.948010
_cell_length_c 12.263717
_cell_angle_alpha 90.000000
_cell_angle_beta 90.000000
_cell_angle_gamma 90.000000
_cell_volume 3176.281053
_symmetry_space_group_name_H-M "A M A 2"
_symmetry_group_IT_number 40
_symmetry_cell_setting 'orthorhombic'
loop_
_space_group_symop_operation_xyz
x,y,z
-x,-y,z
1/2-x,y,z
1/2+x,-y,z
x,1/2+y,1/2+z
-x,1/2-y,1/2+z
1/2-x,1/2+y,1/2+z
1/2+x,1/2-y,1/2+z
loop_
_atom_site_type_symbol
_atom_site_label
_atom_site_fract_x
_atom_site_fract_y
_atom_site_fract_z
Si Si1 0.107458 0.842186 0.687470
Si Si2 0.118420 0.257290 0.836829
Si Si3 0.411138 0.092554 0.243624
Si Si4 0.409267 0.739286 0.881254
Si Si5 0.609339 0.564835 0.829950
Si Si6 0.604888 0.502199 0.075545
Si Si7 0.401834 0.674655 0.117957
Si Si8 0.843870 0.313551 0.562969
O O1 0.120351 0.815794 0.812813
O O2 0.138592 0.929002 0.654926
O O3 0.149991 0.773229 0.615832
O O4 0.004966 0.835416 0.650594
O O5 0.149508 0.347989 0.832648
O O6 0.137774 0.217260 0.722069
O O7 0.013912 0.261789 0.860740
O O8 0.150024 0.202995 0.935581
O O9 0.371885 0.161982 0.319156
O O10 0.508355 0.079832 0.292851
O O11 0.413621 0.130599 0.123312
O O12 0.363450 0.008557 0.253731
O O13 0.393972 0.726997 0.008825
O O14 0.617869 0.530615 0.951786
O O15 0.500000 0.500000 0.090430
O O16 0.634785 0.412947 0.095614
O O17 0.750000 0.349391 0.590338
#
# Coordination Sequence:
#
# PCOD9362232 Si02
#       8
#     8   8   8   8   8   8   8   8
#     4   9  17  28  48  73 106 130 172 208 260 306
#     4  10  19  30  48  75 105 135 173 209 265 317
#     4   9  17  29  50  76 101 137 170 212 277 306
#     4   9  15  27  47  75 100 129 157 223 271 312
#     4  10  15  29  53  78 101 128 165 233 272 309
#     4  10  14  26  49  80 107 130 153 204 276 322
#     4  10  17  28  51  79 107 130 159 219 280 318
#     4  11  21  34  50  71 110 150 181 208 248 327
#
# _framework density 20.149350999999999
#
# number of rings (size 3 to 8) (size 9 to 14) (size 15 to 20)
#    0.000    2.250    5.000    2.250    0.000    0.000 
#    0.000    1.875    5.500    3.750    0.000    0.000 
#    0.000    0.000    0.000    0.000    0.000    0.000 
#
# Total GULP energy -178237.553876 kJ/mol
# GULP energy per Si atom -5569.923559 kJ/mol
# Density = 2.010349 g / cm^3
# Si number density = 20.149351 Si / 1000 Ang^3
#
#
#
# Elastic Constant Matrix: (Units=GPa)
#
#
# Indices 1 2 3 4 5 6 
#
# 1 25.0746 14.0250 8.7131 0.0000 0.0000 0.0000
# 2 14.0250 144.8631 97.9167 0.0000 0.0000 0.0000
# 3 8.7131 97.9167 179.0090 0.0000 0.0000 0.0000
# 4 0.0000 0.0000 0.0000 40.4511 0.0000 0.0000
# 5 0.0000 0.0000 0.0000 0.0000 -4.0571 0.0000
# 6 0.0000 0.0000 0.0000 0.0000 0.0000 -12.7445
#
#
#
# Elastic Compliance Matrix: (Units=1/GPa)
#
#
# Indices 1 2 3 4 5 6 
#
# 1 0.042174 -0.004277 0.000287 0.000000 0.000000 0.000000
# 2 -0.004277 0.011386 -0.006020 0.000000 0.000000 0.000000
# 3 0.000287 -0.006020 0.008865 0.000000 0.000000 0.000000
# 4 0.000000 0.000000 0.000000 0.024721 0.000000 0.000000
# 5 0.000000 0.000000 0.000000 0.000000 -0.246481 0.000000
# 6 0.000000 0.000000 0.000000 0.000000 0.000000 -0.078465
#
#
# Mechanical properties :
#
#
# Convention : Reuss Voigt Hill
#
# Bulk Modulus (GPa) = 23.58231 65.58403 44.58317
# Shear Modulus (GPa) = -24.55253 19.94937 -2.30158
#
# Velocity S-wave (km/s) = -3.49453 3.14996 -1.06993
# Velocity P-wave (km/s) = 2.13381 6.77121 4.54401
#
# Compressibility (1/GPa) = 0.04240467
#
# Stress axis : x y z
#
# Youngs Moduli (GPa) = 23.71154 87.82553 112.79974
#
# Poissons Ratio (x) = 0.37561 -0.03233
# Poissons Ratio (y) = 0.10141 0.67906
# Poissons Ratio (z) = -0.00680 0.52871
#
# Static dielectric constant tensor:
#      x y z
#    x 1.781370 0.000000 0.000000 
#    y 0.000000 1.732820 0.000000 
#    z 0.000000 0.000000 1.712480 
# 
# From -- ./inp_files/13734.got.cif
#   From: 2010.05.17/outbox.cif.g08.bks.cpg/sg40_7_cif.got.tgz:13734.got - 2010.06.03 18:35:42.
