data_PCOD9362938
_publ_section_title
;
Structure prediction by ZEFSAII (Michael W. Deem and Ramdas Pophale) SiO2 
 PCOD9362938
Probable space group: A M A 2
;
_chemical_formula_sum "Si O2"
_cell_formula_units_Z 64
_cell_length_a 8.732632
_cell_length_b 14.869420
_cell_length_c 28.606121
_cell_angle_alpha 90.000000
_cell_angle_beta 90.000000
_cell_angle_gamma 90.000000
_cell_volume 3714.481152
_symmetry_space_group_name_H-M "A M A 2"
_symmetry_group_IT_number 40
_symmetry_cell_setting 'orthorhombic'
loop_
_space_group_symop_operation_xyz
x,y,z
-x,-y,z
1/2-x,y,z
1/2+x,-y,z
x,1/2+y,1/2+z
-x,1/2-y,1/2+z
1/2-x,1/2+y,1/2+z
1/2+x,1/2-y,1/2+z
loop_
_atom_site_type_symbol
_atom_site_label
_atom_site_fract_x
_atom_site_fract_y
_atom_site_fract_z
Si Si1 0.934481 0.098540 0.541100
Si Si2 0.066955 0.216278 0.731336
Si Si3 0.934307 0.599587 0.148678
Si Si4 0.076220 0.351778 0.324643
Si Si5 0.066004 0.787124 0.453815
Si Si6 0.432602 0.592059 0.419566
Si Si7 0.922782 0.853266 0.362067
Si Si8 0.935339 0.906975 0.261915
O O1 0.750000 0.093931 0.538878
O O2 0.974755 0.121346 0.594679
O O3 0.987686 0.169618 0.502290
O O4 0.000000 0.000000 0.530610
O O5 0.250000 0.220449 0.732385
O O6 0.006050 0.170028 0.684472
O O7 0.006896 0.156423 0.775068
O O8 0.998329 0.316528 0.737994
O O9 0.750000 0.598600 0.153230
O O10 0.000000 0.500000 0.158401
O O11 0.250000 0.386208 0.319669
O O12 0.085740 0.249418 0.343596
O O13 0.985593 0.401069 0.365605
O O14 0.250000 0.784578 0.454095
O O15 0.013271 0.684541 0.444332
O O16 0.014761 0.848352 0.410011
O O17 0.500000 0.500000 0.439712
O O18 0.250000 0.589121 0.421518
O O19 0.750000 0.885393 0.371339
O O20 0.987673 0.902279 0.316472
O O21 0.750000 0.905087 0.261352
O O22 0.000000 0.000000 0.241733
#
# Coordination Sequence:
#
# PCOD9362938 Si02
#       8
#     8   8   8   8   8   8   8   8
#     4   9  19  35  54  76 100 127 160 202 252 304
#     4  11  21  34  53  77 104 134 170 210 255 305
#     4  10  20  36  56  77 101 128 162 206 258 311
#     4   9  17  31  48  68  96 129 167 205 243 288
#     4   9  18  32  50  72  99 132 168 204 247 299
#     4  10  19  31  48  71 101 136 172 208 247 291
#     4   8  16  29  45  67  96 129 164 202 241 283
#     4  10  20  34  51  74 105 141 178 213 251 295
#
# _framework density 17.229861
#
# number of rings (size 3 to 8) (size 9 to 14) (size 15 to 20)
#    0.000    2.500    0.000    3.375    0.000    6.000 
#    0.000    5.000    0.000    0.750    0.000    1.750 
#    0.000    0.000    0.000    0.000    0.000    0.000 
#
# Total GULP energy -178379.817623 kJ/mol
# GULP energy per Si atom -5574.369301 kJ/mol
# Density = 1.719065 g / cm^3
# Si number density = 17.229861 Si / 1000 Ang^3
#
#
#
# Elastic Constant Matrix: (Units=GPa)
#
#
# Indices 1 2 3 4 5 6 
#
# 1 62.9193 34.0936 39.5959 0.0000 0.0000 0.0000
# 2 34.0936 106.4206 76.4921 0.0000 0.0000 0.0000
# 3 39.5959 76.4921 114.8583 0.0000 0.0000 0.0000
# 4 0.0000 0.0000 0.0000 23.8887 0.0000 0.0000
# 5 0.0000 0.0000 0.0000 0.0000 21.3391 0.0000
# 6 0.0000 0.0000 0.0000 0.0000 0.0000 19.9939
#
#
#
# Elastic Compliance Matrix: (Units=1/GPa)
#
#
# Indices 1 2 3 4 5 6 
#
# 1 0.020750 -0.002889 -0.005229 0.000000 0.000000 0.000000
# 2 -0.002889 0.018427 -0.011276 0.000000 0.000000 0.000000
# 3 -0.005229 -0.011276 0.018019 0.000000 0.000000 0.000000
# 4 0.000000 0.000000 0.000000 0.041861 0.000000 0.000000
# 5 0.000000 0.000000 0.000000 0.000000 0.046862 0.000000
# 6 0.000000 0.000000 0.000000 0.000000 0.000000 0.050015
#
#
# Mechanical properties :
#
#
# Convention : Reuss Voigt Hill
#
# Bulk Modulus (GPa) = 54.32707 64.95129 59.63918
# Shear Modulus (GPa) = 20.75921 21.97879 21.36900
#
# Velocity S-wave (km/s) = 3.47484 3.57546 3.52551
# Velocity P-wave (km/s) = 6.90642 7.40432 7.15970
#
# Compressibility (1/GPa) = 0.01840703
#
# Stress axis : x y z
#
# Youngs Moduli (GPa) = 48.19378 54.26839 55.49850
#
# Poissons Ratio (x) = 0.15677 0.29022
# Poissons Ratio (y) = 0.13922 0.62579
# Poissons Ratio (z) = 0.25202 0.61192
#
# Static dielectric constant tensor:
#      x y z
#    x 1.591380 0.000000 0.000000 
#    y 0.000000 1.603140 0.000000 
#    z 0.000000 0.000000 1.577050 
# 
# From -- ./inp_files/24338.got.cif
#   From: 2010.05.17/outbox.cif.g08.bks.cpg/sg40_13_cif.got.tgz:24338.got - 2010.06.03 18:35:42.
