data_PCOD9362160
_publ_section_title
;
Structure prediction by ZEFSAII (Michael W. Deem and Ramdas Pophale) SiO2 
 PCOD9362160
Probable space group: A B M 2
;
_chemical_formula_sum "Si O2"
_cell_formula_units_Z 24
_cell_length_a 7.818416
_cell_length_b 17.523983
_cell_length_c 7.398347
_cell_angle_alpha 90.000000
_cell_angle_beta 90.000000
_cell_angle_gamma 90.000000
_cell_volume 1013.645962
_symmetry_space_group_name_H-M "A B M 2"
_symmetry_group_IT_number 39
_symmetry_cell_setting 'orthorhombic'
loop_
_space_group_symop_operation_xyz
x,y,z
-x,-y,z
-x,1/2+y,z
x,1/2-y,z
x,1/2+y,1/2+z
-x,1/2-y,1/2+z
-x,y,1/2+z
x,-y,1/2+z
loop_
_atom_site_type_symbol
_atom_site_label
_atom_site_fract_x
_atom_site_fract_y
_atom_site_fract_z
Si Si1 0.339335 0.099678 0.834070
Si Si2 0.828304 0.547685 0.193129
Si Si3 0.289888 0.337653 0.457535
O O1 0.277475 0.154113 0.672971
O O2 0.525838 0.128348 0.895325
O O3 0.314435 0.015758 0.745062
O O4 0.229967 0.092605 0.016023
O O5 0.842164 0.607717 0.355319
O O6 0.000000 0.500000 0.167681
O O7 0.276400 0.250000 0.402715
#
# Coordination Sequence:
#
# PCOD9362160 Si02
#       3
#     8   8   8
#     4  12  25  44  79 112 149 204 263 316 376 462
#     4  12  27  47  79 113 154 208 262 315 383 468
#     4  12  27  47  77 117 157 200 258 328 388 452
#
# _framework density 23.676902999999999
#
# number of rings (size 3 to 8) (size 9 to 14) (size 15 to 20)
#    0.000    0.000    6.667    3.000    0.000    2.667 
#    0.000    3.333    0.000    0.000    0.000    0.000 
#    0.000    0.000    0.000    0.000    0.000    0.000 
#
# Total GULP energy -67221.052922 kJ/mol
# GULP energy per Si atom -5601.754410 kJ/mol
# Density = 2.362301 g / cm^3
# Si number density = 23.676903 Si / 1000 Ang^3
#
#
#
# Elastic Constant Matrix: (Units=GPa)
#
#
# Indices 1 2 3 4 5 6 
#
# 1 76.5964 38.3497 20.2119 0.0000 0.0000 0.0000
# 2 38.3497 155.9249 21.8984 0.0000 0.0000 0.0000
# 3 20.2119 21.8984 139.5108 0.0000 0.0000 0.0000
# 4 0.0000 0.0000 0.0000 26.7983 0.0000 0.0000
# 5 0.0000 0.0000 0.0000 0.0000 26.1700 0.0000
# 6 0.0000 0.0000 0.0000 0.0000 0.0000 13.3423
#
#
#
# Elastic Compliance Matrix: (Units=1/GPa)
#
#
# Indices 1 2 3 4 5 6 
#
# 1 0.015255 -0.003519 -0.001658 0.000000 0.000000 0.000000
# 2 -0.003519 0.007370 -0.000647 0.000000 0.000000 0.000000
# 3 -0.001658 -0.000647 0.007510 0.000000 0.000000 0.000000
# 4 0.000000 0.000000 0.000000 0.037316 0.000000 0.000000
# 5 0.000000 0.000000 0.000000 0.000000 0.038212 0.000000
# 6 0.000000 0.000000 0.000000 0.000000 0.000000 0.074950
#
#
# Mechanical properties :
#
#
# Convention : Reuss Voigt Hill
#
# Bulk Modulus (GPa) = 54.09313 59.21689 56.65501
# Shear Modulus (GPa) = 25.19896 32.70027 28.94962
#
# Velocity S-wave (km/s) = 3.26588 3.72035 3.50050
# Velocity P-wave (km/s) = 6.09239 6.59692 6.34967
#
# Compressibility (1/GPa) = 0.01848664
#
# Stress axis : x y z
#
# Youngs Moduli (GPa) = 65.55321 135.69024 133.16261
#
# Poissons Ratio (x) = 0.47751 0.22074
# Poissons Ratio (y) = 0.23069 0.08615
# Poissons Ratio (z) = 0.10867 0.08779
#
# Static dielectric constant tensor:
#      x y z
#    x 1.936830 0.000000 0.000000 
#    y 0.000000 1.843830 0.000000 
#    z 0.000000 0.000000 1.915180 
# 
# From -- ./inp_files/1875.got.cif
#   From: 2010.05.17/outbox.cif.g08.bks.cpg/sg39_1_cif.got.tgz:1875.got - 2010.06.03 18:22:40.
