data_PCOD9362434
_publ_section_title
;
Structure prediction by ZEFSAII (Michael W. Deem and Ramdas Pophale) SiO2 
 PCOD9362434
Probable space group: A M A 2
;
_chemical_formula_sum "Si O2"
_cell_formula_units_Z 56
_cell_length_a 8.835252
_cell_length_b 13.870530
_cell_length_c 30.138347
_cell_angle_alpha 90.000000
_cell_angle_beta 90.000000
_cell_angle_gamma 90.000000
_cell_volume 3693.443211
_symmetry_space_group_name_H-M "A M A 2"
_symmetry_group_IT_number 40
_symmetry_cell_setting 'orthorhombic'
loop_
_space_group_symop_operation_xyz
x,y,z
-x,-y,z
1/2-x,y,z
1/2+x,-y,z
x,1/2+y,1/2+z
-x,1/2-y,1/2+z
1/2-x,1/2+y,1/2+z
1/2+x,1/2-y,1/2+z
loop_
_atom_site_type_symbol
_atom_site_label
_atom_site_fract_x
_atom_site_fract_y
_atom_site_fract_z
Si Si1 0.930904 0.892444 0.917440
Si Si2 0.569744 0.898435 0.649409
Si Si3 0.568563 0.200113 0.102320
Si Si4 0.068680 0.107744 0.016181
Si Si5 0.068799 0.101847 0.188162
Si Si6 0.931665 0.107673 0.827459
Si Si7 0.568451 0.699855 0.234348
O O1 0.750000 0.897484 0.912238
O O2 0.003776 0.848443 0.873251
O O3 0.964300 0.852431 0.966545
O O4 0.000000 0.000000 0.918678
O O5 0.750000 0.906287 0.651295
O O6 0.530382 0.809220 0.617163
O O7 0.508394 0.868336 0.697840
O O8 0.500000 0.000000 0.635758
O O9 0.750000 0.189597 0.102278
O O10 0.501293 0.171086 0.055142
O O11 0.498909 0.131711 0.140391
O O12 0.250000 0.101264 0.020906
O O13 0.000000 0.000000 0.019517
O O14 0.250000 0.095117 0.184892
O O15 0.030078 0.190357 0.221037
O O16 0.000000 0.000000 0.202067
O O17 0.750000 0.100473 0.830417
O O18 0.972811 0.168707 0.783938
O O19 0.000000 0.000000 0.822465
O O20 0.750000 0.689445 0.229848
#
# Coordination Sequence:
#
# PCOD9362434 Si02
#       7
#     8   8   8   8   8   8   8
#     4   9  17  28  42  62  87 115 145 176 214 258
#     4  10  20  32  47  66  89 117 148 182 218 257
#     4  10  20  32  46  66  89 116 150 181 215 260
#     4  10  19  30  45  65  90 119 148 180 218 260
#     4  10  19  32  47  64  89 118 148 183 220 257
#     4  10  18  28  43  64  89 117 146 177 215 257
#     4   9  19  32  46  65  89 118 150 181 216 259
#
# _framework density 15.162004
#
# number of rings (size 3 to 8) (size 9 to 14) (size 15 to 20)
#    0.000    2.286    0.000    4.286    0.000    6.286 
#    0.000    0.000    0.000    0.000    0.000    1.000 
#    0.000    2.286    0.000    0.000    0.000    0.000 
#
# Total GULP energy -156117.578219 kJ/mol
# GULP energy per Si atom -5575.627794 kJ/mol
# Density = 1.512749 g / cm^3
# Si number density = 15.162004 Si / 1000 Ang^3
#
#
#
# Elastic Constant Matrix: (Units=GPa)
#
#
# Indices 1 2 3 4 5 6 
#
# 1 53.3867 32.4969 50.5698 0.0000 0.0000 0.0000
# 2 32.4969 72.6140 48.7110 0.0000 0.0000 0.0000
# 3 50.5698 48.7110 148.7898 0.0000 0.0000 0.0000
# 4 0.0000 0.0000 0.0000 18.9837 0.0000 0.0000
# 5 0.0000 0.0000 0.0000 0.0000 23.2822 0.0000
# 6 0.0000 0.0000 0.0000 0.0000 0.0000 22.0550
#
#
#
# Elastic Compliance Matrix: (Units=1/GPa)
#
#
# Indices 1 2 3 4 5 6 
#
# 1 0.031531 -0.008870 -0.007813 0.000000 0.000000 0.000000
# 2 -0.008870 0.020142 -0.003579 0.000000 0.000000 0.000000
# 3 -0.007813 -0.003579 0.010548 0.000000 0.000000 0.000000
# 4 0.000000 0.000000 0.000000 0.052677 0.000000 0.000000
# 5 0.000000 0.000000 0.000000 0.000000 0.042951 0.000000
# 6 0.000000 0.000000 0.000000 0.000000 0.000000 0.045341
#
#
# Mechanical properties :
#
#
# Convention : Reuss Voigt Hill
#
# Bulk Modulus (GPa) = 46.08973 59.81622 52.95298
# Shear Modulus (GPa) = 19.92450 22.39838 21.16144
#
# Velocity S-wave (km/s) = 3.62899 3.84770 3.73994
# Velocity P-wave (km/s) = 6.92991 7.69914 7.32463
#
# Compressibility (1/GPa) = 0.02169681
#
# Stress axis : x y z
#
# Youngs Moduli (GPa) = 31.71482 49.64684 94.80411
#
# Poissons Ratio (x) = 0.44037 0.74067
# Poissons Ratio (y) = 0.28131 0.33935
# Poissons Ratio (z) = 0.24778 0.17771
#
# Static dielectric constant tensor:
#      x y z
#    x 1.506730 0.000000 0.000000 
#    y 0.000000 1.487940 0.000000 
#    z 0.000000 0.000000 1.519480 
# 
# From -- ./inp_files/26407.got.cif
#   From: 2010.05.17/outbox.cif.g08.bks.cpg/sg40_14_cif.got.tgz:26407.got - 2010.06.03 18:35:42.
