data_PCOD9362835
_publ_section_title
;
Structure prediction by ZEFSAII (Michael W. Deem and Ramdas Pophale) SiO2 
 PCOD9362835
Probable space group: A M A 2
;
_chemical_formula_sum "Si O2"
_cell_formula_units_Z 48
_cell_length_a 18.134946
_cell_length_b 9.162963
_cell_length_c 15.516730
_cell_angle_alpha 90.000000
_cell_angle_beta 90.000000
_cell_angle_gamma 90.000000
_cell_volume 2578.412529
_symmetry_space_group_name_H-M "A M A 2"
_symmetry_group_IT_number 40
_symmetry_cell_setting 'orthorhombic'
loop_
_space_group_symop_operation_xyz
x,y,z
-x,-y,z
1/2-x,y,z
1/2+x,-y,z
x,1/2+y,1/2+z
-x,1/2-y,1/2+z
1/2-x,1/2+y,1/2+z
1/2+x,1/2-y,1/2+z
loop_
_atom_site_type_symbol
_atom_site_label
_atom_site_fract_x
_atom_site_fract_y
_atom_site_fract_z
Si Si1 0.084186 0.541764 0.015890
Si Si2 0.554050 0.178976 0.917808
Si Si3 0.162061 0.717084 0.169996
Si Si4 0.390648 0.100575 0.852618
Si Si5 0.420105 0.985062 0.102127
Si Si6 0.833613 0.761083 0.016732
O O1 0.123943 0.622783 0.094759
O O2 0.000000 0.500000 0.038049
O O3 0.078837 0.656408 0.936504
O O4 0.128946 0.394373 0.999908
O O5 0.470441 0.164366 0.883522
O O6 0.601321 0.075020 0.855506
O O7 0.562499 0.099066 0.011291
O O8 0.250000 0.707148 0.164447
O O9 0.133192 0.659199 0.261007
O O10 0.134719 0.882144 0.154301
O O11 0.335347 0.151973 0.926687
O O12 0.500000 0.000000 0.145487
O O13 0.383325 0.139628 0.079905
O O14 0.750000 0.745484 0.047901
#
# Coordination Sequence:
#
# PCOD9362835 Si02
#       6
#     8   8   8   8   8   8
#     4  11  21  38  61  89 117 156 204 252 295 361
#     4   9  18  37  63  85 108 151 209 253 281 354
#     4  11  24  38  57  90 125 155 194 250 315 365
#     4  10  19  38  59  84 119 150 200 246 305 359
#     4  10  18  40  61  84 112 156 208 243 287 362
#     4  11  20  35  61  86 116 156 196 245 299 357
#
# _framework density 18.616105000000001
#
# number of rings (size 3 to 8) (size 9 to 14) (size 15 to 20)
#    0.000    1.667    5.000    2.500    2.333    0.000 
#    3.000    2.500    0.000    0.000    0.000    0.000 
#    0.000    0.000    0.000    0.000    0.000    0.000 
#
# Total GULP energy -133875.992981 kJ/mol
# GULP energy per Si atom -5578.166374 kJ/mol
# Density = 1.857373 g / cm^3
# Si number density = 18.616105 Si / 1000 Ang^3
#
#
#
# Elastic Constant Matrix: (Units=GPa)
#
#
# Indices 1 2 3 4 5 6 
#
# 1 139.5219 70.6098 33.1189 0.0000 0.0000 0.0000
# 2 70.6098 146.9538 29.2124 0.0000 0.0000 0.0000
# 3 33.1189 29.2124 57.5290 0.0000 0.0000 0.0000
# 4 0.0000 0.0000 0.0000 20.4551 0.0000 0.0000
# 5 0.0000 0.0000 0.0000 0.0000 12.1435 0.0000
# 6 0.0000 0.0000 0.0000 0.0000 0.0000 18.5061
#
#
#
# Elastic Compliance Matrix: (Units=1/GPa)
#
#
# Indices 1 2 3 4 5 6 
#
# 1 0.010147 -0.004131 -0.003744 0.000000 0.000000 0.000000
# 2 -0.004131 0.009251 -0.002319 0.000000 0.000000 0.000000
# 3 -0.003744 -0.002319 0.020715 0.000000 0.000000 0.000000
# 4 0.000000 0.000000 0.000000 0.048887 0.000000 0.000000
# 5 0.000000 0.000000 0.000000 0.000000 0.082349 0.000000
# 6 0.000000 0.000000 0.000000 0.000000 0.000000 0.054036
#
#
# Mechanical properties :
#
#
# Convention : Reuss Voigt Hill
#
# Bulk Modulus (GPa) = 50.69716 67.76521 59.23119
# Shear Modulus (GPa) = 19.81389 24.29185 22.05287
#
# Velocity S-wave (km/s) = 3.26596 3.61624 3.44555
# Velocity P-wave (km/s) = 6.44314 7.34279 6.90763
#
# Compressibility (1/GPa) = 0.01972497
#
# Stress axis : x y z
#
# Youngs Moduli (GPa) = 98.55409 108.09775 48.27346
#
# Poissons Ratio (x) = 0.44658 0.18072
# Poissons Ratio (y) = 0.40715 0.11195
# Poissons Ratio (z) = 0.36895 0.25070
#
# Static dielectric constant tensor:
#      x y z
#    x 1.652680 0.000000 0.000000 
#    y 0.000000 1.684680 0.000000 
#    z 0.000000 0.000000 1.625750 
# 
# From -- ./inp_files/17655.got.cif
#   From: 2010.05.17/outbox.cif.g08.bks.cpg/sg40_9_cif.got.tgz:17655.got - 2010.06.03 18:35:42.
