data_PCOD9362423
_publ_section_title
;
Structure prediction by ZEFSAII (Michael W. Deem and Ramdas Pophale) SiO2 
 PCOD9362423
Probable space group: A M A 2
;
_chemical_formula_sum "Si O2"
_cell_formula_units_Z 64
_cell_length_a 8.652603
_cell_length_b 18.976316
_cell_length_c 27.210397
_cell_angle_alpha 90.000000
_cell_angle_beta 90.000000
_cell_angle_gamma 90.000000
_cell_volume 4467.798313
_symmetry_space_group_name_H-M "A M A 2"
_symmetry_group_IT_number 40
_symmetry_cell_setting 'orthorhombic'
loop_
_space_group_symop_operation_xyz
x,y,z
-x,-y,z
1/2-x,y,z
1/2+x,-y,z
x,1/2+y,1/2+z
-x,1/2-y,1/2+z
1/2-x,1/2+y,1/2+z
1/2+x,1/2-y,1/2+z
loop_
_atom_site_type_symbol
_atom_site_label
_atom_site_fract_x
_atom_site_fract_y
_atom_site_fract_z
Si Si1 0.937757 0.662729 0.846560
Si Si2 0.564789 0.291140 0.699942
Si Si3 0.434287 0.921910 0.738745
Si Si4 0.064735 0.338971 0.138846
Si Si5 0.435993 0.921364 0.247630
Si Si6 0.566385 0.922043 0.548307
Si Si7 0.936136 0.578357 0.941863
Si Si8 0.065907 0.204547 0.792082
O O1 0.750000 0.662809 0.846380
O O2 0.983754 0.613597 0.800199
O O3 0.987955 0.629421 0.897879
O O4 0.986333 0.743305 0.835831
O O5 0.750000 0.289244 0.707708
O O6 0.532172 0.242620 0.652522
O O7 0.503749 0.370283 0.705335
O O8 0.480564 0.249833 0.744112
O O9 0.250000 0.923820 0.739233
O O10 0.480834 0.885482 0.686790
O O11 0.490921 0.870985 0.782510
O O12 0.500000 0.000000 0.742019
O O13 0.250000 0.346308 0.132904
O O14 0.982318 0.369105 0.091199
O O15 0.250000 0.921140 0.245462
O O16 0.500000 0.000000 0.244366
O O17 0.750000 0.927286 0.544508
O O18 0.497187 0.900675 0.495517
O O19 0.500000 0.000000 0.559795
O O20 0.750000 0.575912 0.942854
O O21 0.000000 0.500000 0.932050
O O22 0.250000 0.196422 0.794365
#
# Coordination Sequence:
#
# PCOD9362423 Si02
#       8
#     8   8   8   8   8   8   8   8
#     4   8  16  28  43  61  81 110 143 173 206 245
#     4   9  17  29  43  60  82 108 139 172 207 247
#     4  10  19  29  42  62  85 111 142 173 207 246
#     4   9  18  31  45  60  80 108 141 173 207 247
#     4  10  18  28  42  62  87 113 143 174 207 245
#     4  11  21  31  43  60  82 108 140 175 211 246
#     4  10  18  30  44  59  82 109 140 175 209 242
#     4   9  16  28  43  60  83 109 138 171 207 246
#
# _framework density 14.324728
#
# number of rings (size 3 to 8) (size 9 to 14) (size 15 to 20)
#    0.000    2.500    0.000    6.000    0.000    4.000 
#    0.000    6.875    0.000    0.000    0.000    0.000 
#    0.000    1.000    0.000    4.750    0.000    4.125 
#
# Total GULP energy -178260.378717 kJ/mol
# GULP energy per Si atom -5570.636835 kJ/mol
# Density = 1.429212 g / cm^3
# Si number density = 14.324728 Si / 1000 Ang^3
#
#
#
# Elastic Constant Matrix: (Units=GPa)
#
#
# Indices 1 2 3 4 5 6 
#
# 1 52.1815 33.8790 31.3946 0.0000 0.0000 0.0000
# 2 33.8790 116.3882 57.8798 0.0000 0.0000 0.0000
# 3 31.3946 57.8798 85.8839 0.0000 0.0000 0.0000
# 4 0.0000 0.0000 0.0000 22.4329 0.0000 0.0000
# 5 0.0000 0.0000 0.0000 0.0000 14.6025 0.0000
# 6 0.0000 0.0000 0.0000 0.0000 0.0000 24.3449
#
#
#
# Elastic Compliance Matrix: (Units=1/GPa)
#
#
# Indices 1 2 3 4 5 6 
#
# 1 0.025897 -0.004257 -0.006597 0.000000 0.000000 0.000000
# 2 -0.004257 0.013623 -0.007625 0.000000 0.000000 0.000000
# 3 -0.006597 -0.007625 0.019194 0.000000 0.000000 0.000000
# 4 0.000000 0.000000 0.000000 0.044577 0.000000 0.000000
# 5 0.000000 0.000000 0.000000 0.000000 0.068481 0.000000
# 6 0.000000 0.000000 0.000000 0.000000 0.000000 0.041076
#
#
# Mechanical properties :
#
#
# Convention : Reuss Voigt Hill
#
# Bulk Modulus (GPa) = 45.96646 55.64003 50.80325
# Shear Modulus (GPa) = 19.45070 21.02940 20.24005
#
# Velocity S-wave (km/s) = 3.68889 3.83567 3.76299
# Velocity P-wave (km/s) = 7.09242 7.65132 7.37717
#
# Compressibility (1/GPa) = 0.02175499
#
# Stress axis : x y z
#
# Youngs Moduli (GPa) = 38.61398 73.40559 52.10021
#
# Poissons Ratio (x) = 0.31252 0.34373
# Poissons Ratio (y) = 0.16440 0.39724
# Poissons Ratio (z) = 0.25475 0.55969
#
# Static dielectric constant tensor:
#      x y z
#    x 1.480530 0.000000 0.000000 
#    y 0.000000 1.488630 0.000000 
#    z 0.000000 0.000000 1.465710 
# 
# From -- ./inp_files/25539.got.cif
#   From: 2010.05.17/outbox.cif.g08.bks.cpg/sg40_13_cif.got.tgz:25539.got - 2010.06.03 18:35:42.
