data_PCOD9362290
_publ_section_title
;
Structure prediction by ZEFSAII (Michael W. Deem and Ramdas Pophale) SiO2 
 PCOD9362290
Probable space group: A M A 2
;
_chemical_formula_sum "Si O2"
_cell_formula_units_Z 64
_cell_length_a 8.250082
_cell_length_b 14.181433
_cell_length_c 23.769251
_cell_angle_alpha 90.000000
_cell_angle_beta 90.000000
_cell_angle_gamma 90.000000
_cell_volume 2780.954475
_symmetry_space_group_name_H-M "A M A 2"
_symmetry_group_IT_number 40
_symmetry_cell_setting 'orthorhombic'
loop_
_space_group_symop_operation_xyz
x,y,z
-x,-y,z
1/2-x,y,z
1/2+x,-y,z
x,1/2+y,1/2+z
-x,1/2-y,1/2+z
1/2-x,1/2+y,1/2+z
1/2+x,1/2-y,1/2+z
loop_
_atom_site_type_symbol
_atom_site_label
_atom_site_fract_x
_atom_site_fract_y
_atom_site_fract_z
Si Si1 0.936385 0.645588 0.765660
Si Si2 0.942570 0.153730 0.905968
Si Si3 0.057150 0.809239 0.146025
Si Si4 0.057305 0.187711 0.025230
Si Si5 0.433370 0.399033 0.171396
Si Si6 0.054542 0.402964 0.004662
Si Si7 0.054943 0.865882 0.383944
Si Si8 0.567351 0.871385 0.788371
O O1 0.750000 0.611527 0.761961
O O2 0.009456 0.641443 0.703254
O O3 0.014270 0.605969 0.822987
O O4 0.929134 0.757489 0.780300
O O5 0.750000 0.155249 0.899492
O O6 0.019490 0.256687 0.896385
O O7 0.017508 0.102218 0.851601
O O8 0.984209 0.133256 0.971211
O O9 0.250000 0.821049 0.145751
O O10 0.987198 0.846523 0.087481
O O11 0.023040 0.696700 0.152734
O O12 0.250000 0.186693 0.017743
O O13 0.002692 0.298737 0.024879
O O14 0.500000 0.500000 0.153010
O O15 0.250000 0.388390 0.151908
O O16 0.446733 0.401643 0.239317
O O17 0.250000 0.401822 0.004248
O O18 0.987097 0.408682 0.940904
O O19 0.000000 0.500000 0.033115
O O20 0.250000 0.878757 0.381829
O O21 0.750000 0.904241 0.776178
#
# Coordination Sequence:
#
# PCOD9362290 Si02
#       8
#     8   8   8   8   8   8   8   8
#     4   7  12  24  43  61  79 102 131 167 212 261
#     4  10  17  26  43  66  85 106 139 181 223 265
#     4  10  19  31  46  65  86 113 147 185 224 263
#     4  10  20  33  44  58  84 120 153 183 219 262
#     4  11  21  33  47  65  89 120 155 189 222 261
#     4   9  18  29  42  58  80 111 146 178 212 249
#     4   8  14  27  43  59  80 108 136 168 216 269
#     4   9  16  29  46  64  86 112 140 177 223 268
#
# _framework density 23.013681999999999
#
# number of rings (size 3 to 8) (size 9 to 14) (size 15 to 20)
#    0.000    2.750    0.000    5.625    0.000    3.000 
#    0.000    1.875    0.000    0.000    0.000    0.000 
#    0.000    1.000    0.000    7.000    0.000    3.750 
#
# Total GULP energy -178306.552286 kJ/mol
# GULP energy per Si atom -5572.079759 kJ/mol
# Density = 2.296130 g / cm^3
# Si number density = 23.013682 Si / 1000 Ang^3
#
#
#
# Elastic Constant Matrix: (Units=GPa)
#
#
# Indices 1 2 3 4 5 6 
#
# 1 66.3931 -9.1472 -6.9410 0.0000 0.0000 0.0000
# 2 -9.1472 27.4007 -6.4320 0.0000 0.0000 0.0000
# 3 -6.9410 -6.4320 213.7383 0.0000 0.0000 0.0000
# 4 0.0000 0.0000 0.0000 -17.1297 0.0000 0.0000
# 5 0.0000 0.0000 0.0000 0.0000 34.3481 0.0000
# 6 0.0000 0.0000 0.0000 0.0000 0.0000 2.6140
#
#
#
# Elastic Compliance Matrix: (Units=1/GPa)
#
#
# Indices 1 2 3 4 5 6 
#
# 1 0.015886 0.005463 0.000680 0.000000 0.000000 0.000000
# 2 0.005463 0.038634 0.001340 0.000000 0.000000 0.000000
# 3 0.000680 0.001340 0.004741 0.000000 0.000000 0.000000
# 4 0.000000 0.000000 0.000000 -0.058378 0.000000 0.000000
# 5 0.000000 0.000000 0.000000 0.000000 0.029114 0.000000
# 6 0.000000 0.000000 0.000000 0.000000 0.000000 0.382557
#
#
# Mechanical properties :
#
#
# Convention : Reuss Voigt Hill
#
# Bulk Modulus (GPa) = 13.47233 29.16574 21.31903
# Shear Modulus (GPa) = 11.83912 25.96995 18.90453
#
# Velocity S-wave (km/s) = 2.27058 3.36290 2.86920
# Velocity P-wave (km/s) = 3.56943 5.27062 4.50113
#
# Compressibility (1/GPa) = 0.07422622
#
# Stress axis : x y z
#
# Youngs Moduli (GPa) = 62.95029 25.88420 210.92443
#
# Poissons Ratio (x) = -0.14140 -0.14348
# Poissons Ratio (y) = -0.34388 -0.28264
# Poissons Ratio (z) = -0.04282 -0.03468
#
# Static dielectric constant tensor:
#      x y z
#    x 1.785420 0.000000 0.000000 
#    y 0.000000 1.837370 0.000000 
#    z 0.000000 0.000000 1.956470 
# 
# From -- ./inp_files/22525.got.cif
#   From: 2010.05.17/outbox.cif.g08.bks.cpg/sg40_12_cif.got.tgz:22525.got - 2010.06.03 18:35:42.
