data_PCOD9362708
_publ_section_title
;
Structure prediction by ZEFSAII (Michael W. Deem and Ramdas Pophale) SiO2 
 PCOD9362708
Probable space group: A M A 2
;
_chemical_formula_sum "Si O2"
_cell_formula_units_Z 48
_cell_length_a 16.665472
_cell_length_b 8.947913
_cell_length_c 16.460875
_cell_angle_alpha 90.000000
_cell_angle_beta 90.000000
_cell_angle_gamma 90.000000
_cell_volume 2454.665327
_symmetry_space_group_name_H-M "A M A 2"
_symmetry_group_IT_number 40
_symmetry_cell_setting 'orthorhombic'
loop_
_space_group_symop_operation_xyz
x,y,z
-x,-y,z
1/2-x,y,z
1/2+x,-y,z
x,1/2+y,1/2+z
-x,1/2-y,1/2+z
1/2-x,1/2+y,1/2+z
1/2+x,1/2-y,1/2+z
loop_
_atom_site_type_symbol
_atom_site_label
_atom_site_fract_x
_atom_site_fract_y
_atom_site_fract_z
Si Si1 0.406114 0.037228 0.390010
Si Si2 0.155328 0.275068 0.808391
Si Si3 0.159563 0.855960 0.887375
Si Si4 0.082490 0.402593 0.053309
Si Si5 0.096491 0.011671 0.725115
Si Si6 0.077591 0.105879 0.960035
O O1 0.361731 0.950958 0.317123
O O2 0.372762 0.971800 0.475340
O O3 0.500000 0.000000 0.383408
O O4 0.396744 0.213319 0.393942
O O5 0.250000 0.246292 0.820533
O O6 0.100540 0.204446 0.880793
O O7 0.124458 0.184546 0.730111
O O8 0.250000 0.802045 0.887741
O O9 0.138793 0.933568 0.801608
O O10 0.146413 0.979294 0.957627
O O11 0.119660 0.433129 0.140881
O O12 0.000000 0.500000 0.055700
O O13 0.070076 0.227765 0.031450
O O14 0.000000 0.000000 0.735172
O O15 0.000000 0.000000 0.950600
#
# Coordination Sequence:
#
# PCOD9362708 Si02
#       6
#     8   8   8   8   8   8
#     4  10  19  36  59  82 106 140 184 231 278 332
#     4  10  19  33  53  81 109 142 183 227 274 331
#     4  11  21  35  54  83 113 143 182 230 279 339
#     4   9  19  34  55  82 107 137 186 236 278 325
#     4  10  19  35  55  77 106 144 184 224 272 328
#     4  10  18  33  57  79 106 144 185 226 273 333
#
# _framework density 19.554601999999999
#
# number of rings (size 3 to 8) (size 9 to 14) (size 15 to 20)
#    0.000    2.000    0.000    8.500    0.000    0.000 
#    0.000   15.833    0.000    0.000    0.000    0.000 
#    0.000    0.000    0.000    0.000    0.000    0.000 
#
# Total GULP energy -133624.297272 kJ/mol
# GULP energy per Si atom -5567.679053 kJ/mol
# Density = 1.951009 g / cm^3
# Si number density = 19.554602 Si / 1000 Ang^3
#
#
#
# Elastic Constant Matrix: (Units=GPa)
#
#
# Indices 1 2 3 4 5 6 
#
# 1 71.3847 12.6469 15.1116 0.0000 0.0000 0.0000
# 2 12.6469 134.9305 39.3941 0.0000 0.0000 0.0000
# 3 15.1116 39.3941 71.0000 0.0000 0.0000 0.0000
# 4 0.0000 0.0000 0.0000 28.8578 0.0000 0.0000
# 5 0.0000 0.0000 0.0000 0.0000 -8.2247 0.0000
# 6 0.0000 0.0000 0.0000 0.0000 0.0000 25.2704
#
#
#
# Elastic Compliance Matrix: (Units=1/GPa)
#
#
# Indices 1 2 3 4 5 6 
#
# 1 0.014704 -0.000554 -0.002822 0.000000 0.000000 0.000000
# 2 -0.000554 0.008865 -0.004801 0.000000 0.000000 0.000000
# 3 -0.002822 -0.004801 0.017349 0.000000 0.000000 0.000000
# 4 0.000000 0.000000 0.000000 0.034653 0.000000 0.000000
# 5 0.000000 0.000000 0.000000 0.000000 -0.121585 0.000000
# 6 0.000000 0.000000 0.000000 0.000000 0.000000 0.039572
#
#
# Mechanical properties :
#
#
# Convention : Reuss Voigt Hill
#
# Bulk Modulus (GPa) = 40.71035 45.73559 43.22297
# Shear Modulus (GPa) = 276.26378 23.19157 149.72768
#
# Velocity S-wave (km/s) = 11.89894 3.44756 8.75987
# Velocity P-wave (km/s) = 14.47908 6.26793 11.15641
#
# Compressibility (1/GPa) = 0.02456378
#
# Stress axis : x y z
#
# Youngs Moduli (GPa) = 68.00770 112.80637 57.64104
#
# Poissons Ratio (x) = 0.06253 0.16267
# Poissons Ratio (y) = 0.03769 0.27671
# Poissons Ratio (z) = 0.19192 0.54154
#
# Static dielectric constant tensor:
#      x y z
#    x 1.735730 0.000000 0.000000 
#    y 0.000000 1.779290 0.000000 
#    z 0.000000 0.000000 1.722460 
# 
# From -- ./inp_files/20590.got.cif
#   From: 2010.05.17/outbox.cif.g08.bks.cpg/sg40_11_cif.got.tgz:20590.got - 2010.06.03 18:35:42.
