data_PCOD9362169
_publ_section_title
;
Structure prediction by ZEFSAII (Michael W. Deem and Ramdas Pophale) SiO2 
 PCOD9362169
Probable space group: A B M 2
;
_chemical_formula_sum "Si O2"
_cell_formula_units_Z 48
_cell_length_a 11.414118
_cell_length_b 14.240320
_cell_length_c 11.776686
_cell_angle_alpha 90.000000
_cell_angle_beta 90.000000
_cell_angle_gamma 90.000000
_cell_volume 1914.190702
_symmetry_space_group_name_H-M "A B M 2"
_symmetry_group_IT_number 39
_symmetry_cell_setting 'orthorhombic'
loop_
_space_group_symop_operation_xyz
x,y,z
-x,-y,z
-x,1/2+y,z
x,1/2-y,z
x,1/2+y,1/2+z
-x,1/2-y,1/2+z
-x,y,1/2+z
x,-y,1/2+z
loop_
_atom_site_type_symbol
_atom_site_label
_atom_site_fract_x
_atom_site_fract_y
_atom_site_fract_z
Si Si1 0.788020 0.138795 0.650510
Si Si2 0.880093 0.993242 0.825141
Si Si3 0.295157 0.642872 0.057834
Si Si4 0.049082 0.362914 0.608727
Si Si5 0.299186 0.851462 0.330398
Si Si6 0.453673 0.860247 0.525099
O O1 0.780076 0.250000 0.672354
O O2 0.663023 0.109320 0.595414
O O3 0.911664 0.125384 0.582027
O O4 0.818110 0.080936 0.764310
O O5 0.926967 0.921942 0.723469
O O6 0.777718 0.934087 0.878664
O O7 0.000000 0.000000 0.893600
O O8 0.298622 0.750000 0.012543
O O9 0.162627 0.608826 0.032298
O O10 0.302606 0.645283 0.195495
O O11 0.418052 0.593892 0.030290
O O12 0.064113 0.250000 0.627472
O O13 0.248919 0.750000 0.365489
O O14 0.421817 0.859035 0.392295
O O15 0.468014 0.750000 0.561316
#
# Coordination Sequence:
#
# PCOD9362169 Si02
#       6
#     8   8   8   8   8   8
#     4   9  17  29  48  74 102 133 172 218 264 310
#     4   9  16  28  48  74 101 137 179 215 257 312
#     4   8  14  27  50  75 100 134 170 208 259 314
#     4   8  14  27  48  72  98 131 172 216 264 315
#     4   9  17  31  53  80 108 138 176 220 267 319
#     4   9  17  30  51  77 102 133 173 215 261 312
#
# _framework density 25.075869999999998
#
# number of rings (size 3 to 8) (size 9 to 14) (size 15 to 20)
#    0.000    3.333    0.000    1.500    0.000    0.667 
#    0.000    5.833    0.000   14.000    0.000   42.000 
#    0.000    0.000    0.000    0.000    0.000    0.000 
#
# Total GULP energy -133688.613861 kJ/mol
# GULP energy per Si atom -5570.358911 kJ/mol
# Density = 2.501880 g / cm^3
# Si number density = 25.075870 Si / 1000 Ang^3
#
#
#
# Elastic Constant Matrix: (Units=GPa)
#
#
# Indices 1 2 3 4 5 6 
#
# 1 202.3244 47.8784 11.5749 0.0000 0.0000 0.0000
# 2 47.8784 95.7194 23.1838 0.0000 0.0000 0.0000
# 3 11.5749 23.1838 27.7744 0.0000 0.0000 0.0000
# 4 0.0000 0.0000 0.0000 15.5604 0.0000 0.0000
# 5 0.0000 0.0000 0.0000 0.0000 26.1680 0.0000
# 6 0.0000 0.0000 0.0000 0.0000 0.0000 35.4633
#
#
#
# Elastic Compliance Matrix: (Units=1/GPa)
#
#
# Indices 1 2 3 4 5 6 
#
# 1 0.005606 -0.002805 0.000005 0.000000 0.000000 0.000000
# 2 -0.002805 0.014499 -0.010933 0.000000 0.000000 0.000000
# 3 0.000005 -0.010933 0.045128 0.000000 0.000000 0.000000
# 4 0.000000 0.000000 0.000000 0.064266 0.000000 0.000000
# 5 0.000000 0.000000 0.000000 0.000000 0.038215 0.000000
# 6 0.000000 0.000000 0.000000 0.000000 0.000000 0.028198
#
#
# Mechanical properties :
#
#
# Convention : Reuss Voigt Hill
#
# Bulk Modulus (GPa) = 26.47835 54.56581 40.52208
# Shear Modulus (GPa) = 21.18948 31.65041 26.41994
#
# Velocity S-wave (km/s) = 2.91007 3.55658 3.24944
# Velocity P-wave (km/s) = 4.67692 6.21878 5.50212
#
# Compressibility (1/GPa) = 0.03776671
#
# Stress axis : x y z
#
# Youngs Moduli (GPa) = 178.37587 68.97258 22.15913
#
# Poissons Ratio (x) = 0.19350 -0.00012
# Poissons Ratio (y) = 0.50043 0.24227
# Poissons Ratio (z) = -0.00097 0.75408
#
# Static dielectric constant tensor:
#      x y z
#    x 2.062280 0.000000 0.000000 
#    y 0.000000 2.009770 0.000000 
#    z 0.000000 0.000000 1.985760 
# 
# From -- ./inp_files/9198.got.cif
#   From: 2010.05.17/outbox.cif.g08.bks.cpg/sg39_5_cif.got.tgz:9198.got - 2010.06.03 18:22:40.
