data_PCOD9362655
_publ_section_title
;
Structure prediction by ZEFSAII (Michael W. Deem and Ramdas Pophale) SiO2 
 PCOD9362655
Probable space group: A M A 2
;
_chemical_formula_sum "Si O2"
_cell_formula_units_Z 52
_cell_length_a 9.637438
_cell_length_b 15.217087
_cell_length_c 19.776450
_cell_angle_alpha 90.000000
_cell_angle_beta 90.000000
_cell_angle_gamma 90.000000
_cell_volume 2900.290208
_symmetry_space_group_name_H-M "A M A 2"
_symmetry_group_IT_number 40
_symmetry_cell_setting 'orthorhombic'
loop_
_space_group_symop_operation_xyz
x,y,z
-x,-y,z
1/2-x,y,z
1/2+x,-y,z
x,1/2+y,1/2+z
-x,1/2-y,1/2+z
1/2-x,1/2+y,1/2+z
1/2+x,1/2-y,1/2+z
loop_
_atom_site_type_symbol
_atom_site_label
_atom_site_fract_x
_atom_site_fract_y
_atom_site_fract_z
Si Si1 0.910276 0.085963 0.866760
Si Si2 0.500000 0.500000 0.843594
Si Si3 0.907532 0.781121 0.791758
Si Si4 0.410810 0.085172 0.079584
Si Si5 0.899699 0.160071 0.425860
Si Si6 0.903082 0.361959 0.733855
Si Si7 0.591382 0.715570 0.496663
O O1 0.750000 0.065216 0.850180
O O2 0.907769 0.150368 0.931697
O O3 0.991550 0.137800 0.807576
O O4 0.000000 0.000000 0.882846
O O5 0.584043 0.564877 0.892340
O O6 0.580450 0.434511 0.792824
O O7 0.750000 0.805072 0.772814
O O8 0.899317 0.727023 0.862337
O O9 0.979692 0.711729 0.741878
O O10 0.250000 0.078731 0.056972
O O11 0.411213 0.093332 0.160820
O O12 0.500000 0.000000 0.059723
O O13 0.488375 0.169324 0.049172
O O14 0.750000 0.167953 0.460531
O O15 0.025431 0.192574 0.472222
O O16 0.750000 0.321213 0.741489
O O17 0.750000 0.723565 0.520483
#
# Coordination Sequence:
#
# PCOD9362655 Si02
#       7
#     8   4   8   8   8   8   8
#     4  10  19  31  49  72  99 131 169 213 258 305
#     4  10  18  32  54  82 110 136 174 216 262 318
#     4   9  18  31  48  71 100 132 166 207 256 308
#     4  11  22  35  52  75 105 141 178 214 254 309
#     4   9  18  31  50  74 102 136 171 213 260 308
#     4  10  20  33  50  75 107 139 170 209 258 312
#     4  10  21  35  50  71 102 139 177 216 258 307
#
# _framework density 17.92924
#
# number of rings (size 3 to 8) (size 9 to 14) (size 15 to 20)
#    0.000    2.154    0.769    2.769    0.000    9.231 
#    0.000    0.000    0.000    0.000    2.000    0.000 
#    0.000    0.000    0.000    0.000    0.000    0.000 
#
# Total GULP energy -144915.677374 kJ/mol
# GULP energy per Si atom -5573.679899 kJ/mol
# Density = 1.788843 g / cm^3
# Si number density = 17.929240 Si / 1000 Ang^3
#
#
#
# Elastic Constant Matrix: (Units=GPa)
#
#
# Indices 1 2 3 4 5 6 
#
# 1 168.3440 41.4898 28.6808 0.0000 0.0000 0.0000
# 2 41.4898 53.6247 16.7036 0.0000 0.0000 0.0000
# 3 28.6808 16.7036 27.4150 0.0000 0.0000 0.0000
# 4 0.0000 0.0000 0.0000 21.3126 0.0000 0.0000
# 5 0.0000 0.0000 0.0000 0.0000 22.3288 0.0000
# 6 0.0000 0.0000 0.0000 0.0000 0.0000 18.9014
#
#
#
# Elastic Compliance Matrix: (Units=1/GPa)
#
#
# Indices 1 2 3 4 5 6 
#
# 1 0.007996 -0.004420 -0.005672 0.000000 0.000000 0.000000
# 2 -0.004420 0.025459 -0.010888 0.000000 0.000000 0.000000
# 3 -0.005672 -0.010888 0.049045 0.000000 0.000000 0.000000
# 4 0.000000 0.000000 0.000000 0.046921 0.000000 0.000000
# 5 0.000000 0.000000 0.000000 0.000000 0.044785 0.000000
# 6 0.000000 0.000000 0.000000 0.000000 0.000000 0.052906
#
#
# Mechanical properties :
#
#
# Convention : Reuss Voigt Hill
#
# Bulk Modulus (GPa) = 24.66735 47.01468 35.84101
# Shear Modulus (GPa) = 17.69379 23.34253 20.51816
#
# Velocity S-wave (km/s) = 3.14485 3.61213 3.38656
# Velocity P-wave (km/s) = 5.19373 6.60878 5.94352
#
# Compressibility (1/GPa) = 0.04053942
#
# Stress axis : x y z
#
# Youngs Moduli (GPa) = 125.06494 39.27853 20.38959
#
# Poissons Ratio (x) = 0.17359 0.11565
# Poissons Ratio (y) = 0.55274 0.22201
# Poissons Ratio (z) = 0.70940 0.42768
#
# Static dielectric constant tensor:
#      x y z
#    x 1.643650 0.000000 0.000000 
#    y 0.000000 1.610870 0.000000 
#    z 0.000000 0.000000 1.604640 
# 
# From -- ./inp_files/22042.got.cif
#   From: 2010.05.17/outbox.cif.g08.bks.cpg/sg40_12_cif.got.tgz:22042.got - 2010.06.03 18:35:42.
