data_PCOD9362184
_publ_section_title
;
Structure prediction by ZEFSAII (Michael W. Deem and Ramdas Pophale) SiO2 
 PCOD9362184
Probable space group: A B M 2
;
_chemical_formula_sum "Si O2"
_cell_formula_units_Z 32
_cell_length_a 21.000000
_cell_length_b 9.000000
_cell_length_c 18.000000
_cell_angle_alpha 90.000000
_cell_angle_beta 90.000000
_cell_angle_gamma 90.000000
_cell_volume 3402.000000
_symmetry_space_group_name_H-M "A B M 2"
_symmetry_group_IT_number 39
_symmetry_cell_setting 'orthorhombic'
loop_
_space_group_symop_operation_xyz
x,y,z
-x,-y,z
-x,1/2+y,z
x,1/2-y,z
x,1/2+y,1/2+z
-x,1/2-y,1/2+z
-x,y,1/2+z
x,-y,1/2+z
loop_
_atom_site_type_symbol
_atom_site_label
_atom_site_fract_x
_atom_site_fract_y
_atom_site_fract_z
Si Si1 0.692756 0.075851 0.984500
Si Si2 0.937708 0.919708 0.067725
Si Si3 0.063943 0.579450 0.749305
Si Si4 0.686259 0.079399 0.333577
Si Si5 0.801611 0.427661 0.576515
Si Si6 0.564190 0.072583 0.236007
Si Si7 0.436102 0.572220 0.064909
Si Si8 0.189272 0.080360 0.733277
O O1 0.702778 0.250000 0.999051
O O2 0.692848 0.036378 0.898929
O O3 0.624909 0.031687 0.017933
O O4 0.745984 0.981575 0.025003
O O5 0.941177 0.750000 0.044506
O O6 0.937313 0.923841 0.158380
O O7 0.869619 0.983513 0.045725
O O8 0.000000 0.000000 0.040466
O O9 0.065698 0.750000 0.772047
O O10 0.127972 0.494540 0.770299
O O11 0.000000 0.500000 0.775351
O O12 0.676955 0.250000 0.361190
O O13 0.626339 0.038699 0.282878
O O14 0.749924 0.079376 0.285398
O O15 0.804791 0.250000 0.581504
O O16 0.793877 0.493276 0.658449
O O17 0.556574 0.250000 0.235331
O O18 0.572514 0.023182 0.150503
O O19 0.500000 0.000000 0.266051
O O20 0.500000 0.500000 0.035103
O O21 0.442386 0.750000 0.064560
O O22 0.172867 0.250000 0.713562
#
# Coordination Sequence:
#
# PCOD9362184 Si02
#       8
#     8   8   8   8   8   8   8   8
#     4  11  23  37  54  77 106 140 180 222 262 311
#     4   8  15  26  43  70 101 131 164 206 254 305
#     4   9  16  27  45  73 106 137 172 216 266 317
#     4  10  22  38  54  74 106 144 177 215 265 316
#     4  10  20  34  53  78 107 139 177 219 265 319
#     4   9  18  35  57  79 104 134 170 212 259 311
#     4   9  19  36  57  81 106 134 171 214 260 312
#     4  10  19  33  54  78 105 139 178 222 270 317
#
# _framework density 9.4062319999999993
#
# number of rings (size 3 to 8) (size 9 to 14) (size 15 to 20)
#    0.000    2.500    0.000    3.000    0.000    8.500 
#    0.000    5.000    0.000    0.750    0.000    3.500 
#    0.000    0.000    0.000    0.000    0.000    0.000 
#
# Total GULP energy -178387.666671 kJ/mol
# GULP energy per Si atom -5574.614583 kJ/mol
# Density = 0.938482 g / cm^3
# Si number density = 9.406232 Si / 1000 Ang^3
#
#
#
# Elastic Constant Matrix: (Units=GPa)
#
#
# Indices 1 2 3 4 5 6 
#
# 1 137.2587 63.6670 37.7230 0.0000 0.0000 0.0000
# 2 63.6670 55.3221 25.2258 0.0000 0.0000 0.0000
# 3 37.7230 25.2258 22.2197 0.0000 0.0000 0.0000
# 4 0.0000 0.0000 0.0000 35.4730 0.0000 0.0000
# 5 0.0000 0.0000 0.0000 0.0000 81.4840 0.0000
# 6 0.0000 0.0000 0.0000 0.0000 0.0000**********
#
#
#
# Elastic Compliance Matrix: (Units=1/GPa)
#
#
# Indices 1 2 3 4 5 6 
#
# 1 0.017563 -0.013717 -0.014244 0.000000 0.000000 0.000000
# 2 -0.013717 0.048189 -0.031421 0.000000 0.000000 0.000000
# 3 -0.014244 -0.031421 0.104860 0.000000 0.000000 0.000000
# 4 0.000000 0.000000 0.000000 0.028190 0.000000 0.000000
# 5 0.000000 0.000000 0.000000 0.000000 0.012272 0.000000
# 6 0.000000 0.000000 0.000000 0.000000 0.000000 -0.000079
#
#
# Mechanical properties :
#
#
# Convention : Reuss Voigt Hill
#
# Bulk Modulus (GPa) = 19.28732 52.00355 35.64544
# Shear Modulus (GPa) = 14.40741 -2502.23920 -1243.91590
#
# Velocity S-wave (km/s) = 2.77039 -36.51005 -25.74208
# Velocity P-wave (km/s) = 4.52859 41.82833 29.40324
#
# Compressibility (1/GPa) = 0.05184753
#
# Stress axis : x y z
#
# Youngs Moduli (GPa) = 56.93854 20.75143 9.53651
#
# Poissons Ratio (x) = 0.28465 0.13584
# Poissons Ratio (y) = 0.78102 0.29965
# Poissons Ratio (z) = 0.81104 0.65204
#
# Static dielectric constant tensor:
#      x y z
#    x 1.650430 0.000000 0.000000 
#    y 0.000000 1.621210 0.000000 
#    z 0.000000 0.000000 1.626660 
# 
# From -- ./inp_files/13118.got.cif
#   From: 2010.05.17/outbox.ucp.g08.bks.cvg/sg39_7_cif.got.tgz:13118.got - 2010.06.11 10:41:16.
