data_PCOD9362200
_publ_section_title
;
Structure prediction by ZEFSAII (Michael W. Deem and Ramdas Pophale) SiO2 
 PCOD9362200
Probable space group: A B M 2
;
_chemical_formula_sum "Si O2"
_cell_formula_units_Z 28
_cell_length_a 15.000000
_cell_length_b 9.000000
_cell_length_c 21.000000
_cell_angle_alpha 90.000000
_cell_angle_beta 90.000000
_cell_angle_gamma 90.000000
_cell_volume 2835.000000
_symmetry_space_group_name_H-M "A B M 2"
_symmetry_group_IT_number 39
_symmetry_cell_setting 'orthorhombic'
loop_
_space_group_symop_operation_xyz
x,y,z
-x,-y,z
-x,1/2+y,z
x,1/2-y,z
x,1/2+y,1/2+z
-x,1/2-y,1/2+z
-x,y,1/2+z
x,-y,1/2+z
loop_
_atom_site_type_symbol
_atom_site_label
_atom_site_fract_x
_atom_site_fract_y
_atom_site_fract_z
Si Si1 0.723372 0.927535 0.533590
Si Si2 0.279925 0.069931 0.671071
Si Si3 0.096004 0.073809 0.856780
Si Si4 0.597869 0.927937 0.929143
Si Si5 0.901191 0.929320 0.998185
Si Si6 0.596783 0.428690 0.284908
Si Si7 0.096820 0.928246 0.216978
O O1 0.727212 0.750000 0.524699
O O2 0.680116 0.961589 0.602251
O O3 0.665939 0.003703 0.479076
O O4 0.823273 0.992530 0.536732
O O5 0.274822 0.250000 0.677116
O O6 0.338163 0.015684 0.729824
O O7 0.177610 0.017974 0.674010
O O8 0.085551 0.250000 0.857435
O O9 0.134693 0.037598 0.788189
O O10 0.132293 0.035828 0.925671
O O11 0.000000 0.000000 0.855238
O O12 0.592184 0.750000 0.936555
O O13 0.628986 0.959825 0.856712
O O14 0.500000 0.000000 0.936645
O O15 0.905543 0.750000 0.006612
O O16 0.000000 0.000000 0.007010
O O17 0.500000 0.500000 0.277793
O O18 0.589124 0.250000 0.279761
O O19 0.085205 0.750000 0.211336
O O20 0.000000 0.000000 0.207343
#
# Coordination Sequence:
#
# PCOD9362200 Si02
#       7
#     8   8   8   8   8   8   8
#     4  11  23  38  56  84 121 158 196 236 284 343
#     4   9  20  37  57  81 112 153 191 230 282 339
#     4   8  15  27  48  73  99 131 176 229 278 327
#     4  10  21  39  65  91 116 148 187 236 291 347
#     4  10  20  35  55  81 113 154 199 243 292 341
#     4   9  19  38  64  88 112 143 184 232 286 342
#     4   9  17  32  53  76 106 143 186 230 278 329
#
# _framework density 9.8765429999999999
#
# number of rings (size 3 to 8) (size 9 to 14) (size 15 to 20)
#    0.000    2.571    0.000    1.286    2.000    2.286 
#    0.000    6.429    0.000    0.000    0.000    0.000 
#    0.000    0.000    0.000    0.000    0.000    0.000 
#
# Total GULP energy -155941.209386 kJ/mol
# GULP energy per Si atom -5569.328907 kJ/mol
# Density = 0.985406 g / cm^3
# Si number density = 9.876543 Si / 1000 Ang^3
#
#
#
# Elastic Constant Matrix: (Units=GPa)
#
#
# Indices 1 2 3 4 5 6 
#
# 1 95.8407 37.4072 89.2816 0.0000 0.0000 0.0000
# 2 37.4072 39.7156 56.5069 0.0000 0.0000 0.0000
# 3 89.2816 56.5069 155.9645 0.0000 0.0000 0.0000
# 4 0.0000 0.0000 0.0000 38.4233 0.0000 0.0000
# 5 0.0000 0.0000 0.0000 0.0000 -54.9188 0.0000
# 6 0.0000 0.0000 0.0000 0.0000 0.0000 26.5271
#
#
#
# Elastic Compliance Matrix: (Units=1/GPa)
#
#
# Indices 1 2 3 4 5 6 
#
# 1 0.023041 -0.006059 -0.010995 0.000000 0.000000 0.000000
# 2 -0.006059 0.053561 -0.015937 0.000000 0.000000 0.000000
# 3 -0.010995 -0.015937 0.018480 0.000000 0.000000 0.000000
# 4 0.000000 0.000000 0.000000 0.026026 0.000000 0.000000
# 5 0.000000 0.000000 0.000000 0.000000 -0.018209 0.000000
# 6 0.000000 0.000000 0.000000 0.000000 0.000000 0.037697
#
#
# Mechanical properties :
#
#
# Convention : Reuss Voigt Hill
#
# Bulk Modulus (GPa) = 34.36366 73.10135 53.73250
# Shear Modulus (GPa) = 23.11852 9.22799 16.17325
#
# Velocity S-wave (km/s) = 3.42479 2.16375 2.86452
# Velocity P-wave (km/s) = 5.75093 6.58258 6.18076
#
# Compressibility (1/GPa) = 0.02910051
#
# Stress axis : x y z
#
# Youngs Moduli (GPa) = 43.40106 18.67040 54.11341
#
# Poissons Ratio (x) = 0.11312 0.59496
# Poissons Ratio (y) = 0.26295 0.86241
# Poissons Ratio (z) = 0.47718 0.29755
#
# Static dielectric constant tensor:
#      x y z
#    x 1.659380 0.000000 0.000000 
#    y 0.000000 1.659600 0.000000 
#    z 0.000000 0.000000 1.796280 
# 
# From -- ./inp_files/14778.got.cif
#   From: 2010.05.17/outbox.ucp.g08.bks.cvg/sg39_8_cif.got.tgz:14778.got - 2010.06.11 10:41:16.
