data_PCOD9362881
_publ_section_title
;
Structure prediction by ZEFSAII (Michael W. Deem and Ramdas Pophale) SiO2 
 PCOD9362881
Probable space group: A M A 2
;
_chemical_formula_sum "Si O2"
_cell_formula_units_Z 64
_cell_length_a 9.257069
_cell_length_b 24.189204
_cell_length_c 13.603853
_cell_angle_alpha 90.000000
_cell_angle_beta 90.000000
_cell_angle_gamma 90.000000
_cell_volume 3046.190143
_symmetry_space_group_name_H-M "A M A 2"
_symmetry_group_IT_number 40
_symmetry_cell_setting 'orthorhombic'
loop_
_space_group_symop_operation_xyz
x,y,z
-x,-y,z
1/2-x,y,z
1/2+x,-y,z
x,1/2+y,1/2+z
-x,1/2-y,1/2+z
1/2-x,1/2+y,1/2+z
1/2+x,1/2-y,1/2+z
loop_
_atom_site_type_symbol
_atom_site_label
_atom_site_fract_x
_atom_site_fract_y
_atom_site_fract_z
Si Si1 0.420472 0.258620 0.465770
Si Si2 0.581632 0.661196 0.059384
Si Si3 0.917688 0.664768 0.280653
Si Si4 0.425180 0.440655 0.773516
Si Si5 0.904945 0.951652 0.995850
Si Si6 0.590458 0.949004 0.765854
Si Si7 0.424964 0.559122 0.979727
Si Si8 0.082924 0.362941 0.588034
O O1 0.250000 0.243933 0.458176
O O2 0.518040 0.205496 0.483612
O O3 0.459919 0.292960 0.367075
O O4 0.435936 0.298957 0.561053
O O5 0.750000 0.647727 0.040297
O O6 0.574003 0.686885 0.169158
O O7 0.484316 0.606086 0.052884
O O8 0.750000 0.649936 0.300770
O O9 0.008769 0.608834 0.273418
O O10 0.500000 0.500000 0.749534
O O11 0.250000 0.447361 0.785832
O O12 0.505626 0.424126 0.874196
O O13 0.448029 0.392497 0.692064
O O14 0.750000 0.950790 0.044678
O O15 0.889548 0.963267 0.881131
O O16 0.000000 0.000000 0.039239
O O17 0.983718 0.894575 0.011061
O O18 0.750000 0.944755 0.720658
O O19 0.500000 0.000000 0.722854
O O20 0.500000 0.500000 0.000155
O O21 0.250000 0.555809 0.976296
O O22 0.250000 0.375842 0.566181
#
# Coordination Sequence:
#
# PCOD9362881 Si02
#       8
#     8   8   8   8   8   8   8   8
#     4  10  22  42  64  89 123 165 208 254 306 363
#     4  11  25  44  67  96 124 158 203 254 306 367
#     4  10  22  42  66  89 122 163 207 255 308 366
#     4  10  20  35  57  90 127 167 211 259 312 367
#     4  10  19  29  46  75 113 157 204 248 298 354
#     4  10  20  33  54  85 121 162 206 251 304 360
#     4  11  23  43  70  96 124 160 200 253 312 369
#     4  10  20  34  56  84 122 166 209 254 305 358
#
# _framework density 21.00985
#
# number of rings (size 3 to 8) (size 9 to 14) (size 15 to 20)
#    0.000    1.750    1.250    3.750    0.000    6.500 
#    0.000    2.500    0.000    0.000    0.000    0.000 
#    0.000    0.000    0.000    0.000    0.000    0.000 
#
# Total GULP energy -178497.611394 kJ/mol
# GULP energy per Si atom -5578.050356 kJ/mol
# Density = 2.096203 g / cm^3
# Si number density = 21.009850 Si / 1000 Ang^3
#
#
#
# Elastic Constant Matrix: (Units=GPa)
#
#
# Indices 1 2 3 4 5 6 
#
# 1 122.5344 75.0676 35.1588 0.0000 0.0000 0.0000
# 2 75.0676 89.2145 23.4485 0.0000 0.0000 0.0000
# 3 35.1588 23.4485 105.4885 0.0000 0.0000 0.0000
# 4 0.0000 0.0000 0.0000 29.7725 0.0000 0.0000
# 5 0.0000 0.0000 0.0000 0.0000 26.6858 0.0000
# 6 0.0000 0.0000 0.0000 0.0000 0.0000 31.1800
#
#
#
# Elastic Compliance Matrix: (Units=1/GPa)
#
#
# Indices 1 2 3 4 5 6 
#
# 1 0.017552 -0.014052 -0.002726 0.000000 0.000000 0.000000
# 2 -0.014052 0.023155 -0.000463 0.000000 0.000000 0.000000
# 3 -0.002726 -0.000463 0.010491 0.000000 0.000000 0.000000
# 4 0.000000 0.000000 0.000000 0.033588 0.000000 0.000000
# 5 0.000000 0.000000 0.000000 0.000000 0.037473 0.000000
# 6 0.000000 0.000000 0.000000 0.000000 0.000000 0.032072
#
#
# Mechanical properties :
#
#
# Convention : Reuss Voigt Hill
#
# Bulk Modulus (GPa) = 59.82980 64.95416 62.39198
# Shear Modulus (GPa) = 25.72198 29.76515 27.74356
#
# Velocity S-wave (km/s) = 3.50277 3.76802 3.63781
# Velocity P-wave (km/s) = 6.70060 7.06497 6.88520
#
# Compressibility (1/GPa) = 0.01671408
#
# Stress axis : x y z
#
# Youngs Moduli (GPa) = 56.97372 43.18792 95.31601
#
# Poissons Ratio (x) = 0.60688 0.25987
# Poissons Ratio (y) = 0.80060 0.04417
# Poissons Ratio (z) = 0.15533 0.02001
#
# Static dielectric constant tensor:
#      x y z
#    x 1.806840 0.000000 0.000000 
#    y 0.000000 1.731060 0.000000 
#    z 0.000000 0.000000 1.825190 
# 
# From -- ./inp_files/15687.got.cif
#   From: 2010.05.17/outbox.cif.g08.bks.cpg/sg40_8_cif.got.tgz:15687.got - 2010.06.03 18:35:42.
