data_PCOD9362941
_publ_section_title
;
Structure prediction by ZEFSAII (Michael W. Deem and Ramdas Pophale) SiO2 
 PCOD9362941
Probable space group: A M A 2
;
_chemical_formula_sum "Si O2"
_cell_formula_units_Z 64
_cell_length_a 9.004168
_cell_length_b 30.952939
_cell_length_c 14.710651
_cell_angle_alpha 90.000000
_cell_angle_beta 90.000000
_cell_angle_gamma 90.000000
_cell_volume 4099.938796
_symmetry_space_group_name_H-M "A M A 2"
_symmetry_group_IT_number 40
_symmetry_cell_setting 'orthorhombic'
loop_
_space_group_symop_operation_xyz
x,y,z
-x,-y,z
1/2-x,y,z
1/2+x,-y,z
x,1/2+y,1/2+z
-x,1/2-y,1/2+z
1/2-x,1/2+y,1/2+z
1/2+x,1/2-y,1/2+z
loop_
_atom_site_type_symbol
_atom_site_label
_atom_site_fract_x
_atom_site_fract_y
_atom_site_fract_z
Si Si1 0.423317 0.870213 0.658530
Si Si2 0.071521 0.045692 0.372742
Si Si3 0.427398 0.293995 0.670224
Si Si4 0.082445 0.825507 0.462402
Si Si5 0.923532 0.777351 0.980547
Si Si6 0.071851 0.546205 0.085829
Si Si7 0.574450 0.864577 0.295248
Si Si8 0.429661 0.205051 0.774420
O O1 0.250000 0.876400 0.681167
O O2 0.431147 0.848391 0.558923
O O3 0.506444 0.915696 0.647401
O O4 0.499104 0.836205 0.726053
O O5 0.250000 0.042348 0.368812
O O6 0.033109 0.054825 0.478985
O O7 0.025053 0.085790 0.309807
O O8 0.000000 0.000000 0.348050
O O9 0.250000 0.295190 0.673500
O O10 0.483842 0.292389 0.567003
O O11 0.492787 0.335611 0.721007
O O12 0.474626 0.249793 0.723442
O O13 0.250000 0.833793 0.425826
O O14 0.067791 0.774545 0.476152
O O15 0.962996 0.842386 0.391603
O O16 0.750000 0.788928 0.993905
O O17 0.970959 0.793261 0.880792
O O18 0.250000 0.544459 0.092627
O O19 0.000000 0.500000 0.108414
O O20 0.750000 0.864074 0.278295
O O21 0.250000 0.202853 0.768919
#
# Coordination Sequence:
#
# PCOD9362941 Si02
#       8
#     8   8   8   8   8   8   8   8
#     4  11  21  32  50  75 103 137 175 211 256 304
#     4   9  19  32  48  72 100 132 168 206 249 301
#     4  11  22  35  51  75 102 134 174 213 255 303
#     4  10  19  31  48  72 103 136 172 212 251 295
#     4  10  20  37  52  70 101 137 174 216 257 296
#     4  10  19  33  50  73 104 135 171 209 254 304
#     4  11  21  33  50  74 102 137 175 208 252 305
#     4  10  21  35  51  71 101 136 174 213 253 301
#
# _framework density 15.609988
#
# number of rings (size 3 to 8) (size 9 to 14) (size 15 to 20)
#    0.000    1.750    3.750    1.500    0.000    3.500 
#    0.000    0.000    0.000    0.000    0.000    0.875 
#    0.000    4.000    0.000    0.000    0.000    0.000 
#
# Total GULP energy -178549.231302 kJ/mol
# GULP energy per Si atom -5579.663478 kJ/mol
# Density = 1.557446 g / cm^3
# Si number density = 15.609988 Si / 1000 Ang^3
#
#
#
# Elastic Constant Matrix: (Units=GPa)
#
#
# Indices 1 2 3 4 5 6 
#
# 1 49.1955 53.1273 44.5552 0.0000 0.0000 0.0000
# 2 53.1273 134.9460 62.1370 0.0000 0.0000 0.0000
# 3 44.5552 62.1370 88.9443 0.0000 0.0000 0.0000
# 4 0.0000 0.0000 0.0000 21.2957 0.0000 0.0000
# 5 0.0000 0.0000 0.0000 0.0000 25.6806 0.0000
# 6 0.0000 0.0000 0.0000 0.0000 0.0000 27.3940
#
#
#
# Elastic Compliance Matrix: (Units=1/GPa)
#
#
# Indices 1 2 3 4 5 6 
#
# 1 0.046321 -0.011133 -0.015426 0.000000 0.000000 0.000000
# 2 -0.011133 0.013600 -0.003924 0.000000 0.000000 0.000000
# 3 -0.015426 -0.003924 0.021712 0.000000 0.000000 0.000000
# 4 0.000000 0.000000 0.000000 0.046958 0.000000 0.000000
# 5 0.000000 0.000000 0.000000 0.000000 0.038940 0.000000
# 6 0.000000 0.000000 0.000000 0.000000 0.000000 0.036504
#
#
# Mechanical properties :
#
#
# Convention : Reuss Voigt Hill
#
# Bulk Modulus (GPa) = 48.38800 65.85831 57.12316
# Shear Modulus (GPa) = 18.38967 22.42515 20.40741
#
# Velocity S-wave (km/s) = 3.43603 3.79435 3.61962
# Velocity P-wave (km/s) = 6.84157 7.84076 7.35815
#
# Compressibility (1/GPa) = 0.02066628
#
# Stress axis : x y z
#
# Youngs Moduli (GPa) = 21.58839 73.52701 46.05756
#
# Poissons Ratio (x) = 0.81860 0.71049
# Poissons Ratio (y) = 0.24035 0.18074
# Poissons Ratio (z) = 0.33302 0.28854
#
# Static dielectric constant tensor:
#      x y z
#    x 1.529810 0.000000 0.000000 
#    y 0.000000 1.512210 0.000000 
#    z 0.000000 0.000000 1.504470 
# 
# From -- ./inp_files/15886.got.cif
#   From: 2010.05.17/outbox.cif.g08.bks.cpg/sg40_8_cif.got.tgz:15886.got - 2010.06.03 18:35:42.
