data_PCOD9362343
_publ_section_title
;
Structure prediction by ZEFSAII (Michael W. Deem and Ramdas Pophale) SiO2 
 PCOD9362343
Probable space group: A M A 2
;
_chemical_formula_sum "Si O2"
_cell_formula_units_Z 64
_cell_length_a 18.276113
_cell_length_b 7.578380
_cell_length_c 22.899305
_cell_angle_alpha 90.000000
_cell_angle_beta 90.000000
_cell_angle_gamma 90.000000
_cell_volume 3171.629980
_symmetry_space_group_name_H-M "A M A 2"
_symmetry_group_IT_number 40
_symmetry_cell_setting 'orthorhombic'
loop_
_space_group_symop_operation_xyz
x,y,z
-x,-y,z
1/2-x,y,z
1/2+x,-y,z
x,1/2+y,1/2+z
-x,1/2-y,1/2+z
1/2-x,1/2+y,1/2+z
1/2+x,1/2-y,1/2+z
loop_
_atom_site_type_symbol
_atom_site_label
_atom_site_fract_x
_atom_site_fract_y
_atom_site_fract_z
Si Si1 0.042918 0.825149 0.590790
Si Si2 0.583689 0.934329 0.777551
Si Si3 0.331124 0.849612 0.107947
Si Si4 0.338187 0.211764 0.483312
Si Si5 0.835543 0.488205 0.396797
Si Si6 0.163641 0.796744 0.499746
Si Si7 0.830597 0.033545 0.672035
Si Si8 0.943011 0.130789 0.187769
O O1 0.094611 0.740691 0.540662
O O2 0.105656 0.886369 0.634512
O O3 0.985525 0.725347 0.633256
O O4 0.000000 0.000000 0.568285
O O5 0.614896 0.934360 0.842317
O O6 0.582669 0.754937 0.739848
O O7 0.500000 0.000000 0.775619
O O8 0.640777 0.044312 0.738047
O O9 0.250000 0.921177 0.099407
O O10 0.326341 0.665375 0.144478
O O11 0.378648 0.964978 0.151997
O O12 0.362699 0.800223 0.044509
O O13 0.250000 0.227766 0.484527
O O14 0.362094 0.331545 0.428867
O O15 0.352200 0.002439 0.483873
O O16 0.750000 0.510697 0.379160
O O17 0.836868 0.333921 0.445073
O O18 0.250000 0.794299 0.522164
O O19 0.750000 0.109814 0.665828
O O20 0.000000 0.000000 0.215200
#
# Coordination Sequence:
#
# PCOD9362343 Si02
#       8
#     8   8   8   8   8   8   8   8
#     4  12  19  37  58  89 127 154 194 246 313 378
#     4  11  21  44  60  80 118 160 205 253 303 366
#     4   9  17  33  59  88 118 157 195 238 307 376
#     4   9  17  35  60  88 120 154 196 249 303 355
#     4  10  23  41  63  89 118 162 212 254 297 363
#     4  10  21  39  62  91 127 162 200 251 306 371
#     4  10  17  32  63  88 108 155 203 244 298 361
#     4  11  23  38  59  88 126 161 198 258 315 369
#
# _framework density 20.178898
#
# number of rings (size 3 to 8) (size 9 to 14) (size 15 to 20)
#    0.000    1.750    5.000    0.750    1.750    0.500 
#    6.750    0.625    0.000    0.000    0.000    0.000 
#    0.000    0.000    0.000    0.000    0.000    0.000 
#
# Total GULP energy -178208.719784 kJ/mol
# GULP energy per Si atom -5569.022493 kJ/mol
# Density = 2.013297 g / cm^3
# Si number density = 20.178898 Si / 1000 Ang^3
#
#
#
# Elastic Constant Matrix: (Units=GPa)
#
#
# Indices 1 2 3 4 5 6 
#
# 1 76.4265 6.7586 32.5670 0.0000 0.0000 0.0000
# 2 6.7586 45.2116 18.0029 0.0000 0.0000 0.0000
# 3 32.5670 18.0029 102.1967 0.0000 0.0000 0.0000
# 4 0.0000 0.0000 0.0000 28.1499 0.0000 0.0000
# 5 0.0000 0.0000 0.0000 0.0000 39.7233 0.0000
# 6 0.0000 0.0000 0.0000 0.0000 0.0000 40.3967
#
#
#
# Elastic Compliance Matrix: (Units=1/GPa)
#
#
# Indices 1 2 3 4 5 6 
#
# 1 0.015146 -0.000368 -0.004762 0.000000 0.000000 0.000000
# 2 -0.000368 0.023796 -0.004075 0.000000 0.000000 0.000000
# 3 -0.004762 -0.004075 0.012020 0.000000 0.000000 0.000000
# 4 0.000000 0.000000 0.000000 0.035524 0.000000 0.000000
# 5 0.000000 0.000000 0.000000 0.000000 0.025174 0.000000
# 6 0.000000 0.000000 0.000000 0.000000 0.000000 0.024755
#
#
# Mechanical properties :
#
#
# Convention : Reuss Voigt Hill
#
# Bulk Modulus (GPa) = 30.71884 37.61020 34.16452
# Shear Modulus (GPa) = 30.17961 32.75438 31.46700
#
# Velocity S-wave (km/s) = 3.87150 4.03327 3.95321
# Velocity P-wave (km/s) = 5.93641 6.35362 6.14855
#
# Compressibility (1/GPa) = 0.03255331
#
# Stress axis : x y z
#
# Youngs Moduli (GPa) = 66.02352 42.02436 83.19286
#
# Poissons Ratio (x) = 0.01547 0.39615
# Poissons Ratio (y) = 0.02430 0.33897
# Poissons Ratio (z) = 0.31439 0.17123
#
# Static dielectric constant tensor:
#      x y z
#    x 1.800440 0.000000 0.000000 
#    y 0.000000 1.783710 0.000000 
#    z 0.000000 0.000000 1.731710 
# 
# From -- ./inp_files/23333.got.cif
#   From: 2010.05.17/outbox.cif.g08.bks.cpg/sg40_12_cif.got.tgz:23333.got - 2010.06.03 18:35:42.
