data_PCOD9362934
_publ_section_title
;
Structure prediction by ZEFSAII (Michael W. Deem and Ramdas Pophale) SiO2 
 PCOD9362934
Probable space group: A M A 2
;
_chemical_formula_sum "Si O2"
_cell_formula_units_Z 48
_cell_length_a 9.525029
_cell_length_b 31.968339
_cell_length_c 7.328455
_cell_angle_alpha 90.000000
_cell_angle_beta 90.000000
_cell_angle_gamma 90.000000
_cell_volume 2231.509828
_symmetry_space_group_name_H-M "A M A 2"
_symmetry_group_IT_number 40
_symmetry_cell_setting 'orthorhombic'
loop_
_space_group_symop_operation_xyz
x,y,z
-x,-y,z
1/2-x,y,z
1/2+x,-y,z
x,1/2+y,1/2+z
-x,1/2-y,1/2+z
1/2-x,1/2+y,1/2+z
1/2+x,1/2-y,1/2+z
loop_
_atom_site_type_symbol
_atom_site_label
_atom_site_fract_x
_atom_site_fract_y
_atom_site_fract_z
Si Si1 0.587301 0.040839 0.336240
Si Si2 0.589004 0.793502 0.944853
Si Si3 0.588181 0.378022 0.832811
Si Si4 0.406355 0.117029 0.886402
Si Si5 0.588316 0.699898 0.796344
Si Si6 0.590236 0.539979 0.390891
O O1 0.750000 0.040276 0.393735
O O2 0.503528 0.082373 0.392687
O O3 0.588925 0.040539 0.113382
O O4 0.500000 0.000000 0.393033
O O5 0.750000 0.796277 0.022386
O O6 0.575935 0.835094 0.821721
O O7 0.466097 0.797784 0.090236
O O8 0.576876 0.747398 0.864444
O O9 0.750000 0.379992 0.891780
O O10 0.589147 0.379987 0.609223
O O11 0.512355 0.334782 0.884921
O O12 0.250000 0.102197 0.838529
O O13 0.520013 0.083282 0.830028
O O14 0.750000 0.686461 0.809890
O O15 0.500000 0.500000 0.334087
O O16 0.750000 0.536291 0.331688
#
# Coordination Sequence:
#
# PCOD9362934 Si02
#       6
#     8   8   8   8   8   8
#     4   9  15  22  33  51  76 107 142 177 215 262
#     4   9  19  33  47  66  92 120 151 188 229 271
#     4   9  16  26  39  56  81 112 144 180 222 265
#     4   8  14  25  38  52  76 108 138 172 214 256
#     4  10  19  31  48  68  90 119 154 189 227 272
#     4   9  15  21  31  49  73 102 136 170 206 252
#
# _framework density 21.510100000000001
#
# number of rings (size 3 to 8) (size 9 to 14) (size 15 to 20)
#    0.000    3.000    0.000    3.000    0.000    9.333 
#    0.000    0.000    0.000    0.000    0.000    0.000 
#    0.000    1.333    0.000   10.333    0.000   11.333 
#
# Total GULP energy -133904.361889 kJ/mol
# GULP energy per Si atom -5579.348412 kJ/mol
# Density = 2.146114 g / cm^3
# Si number density = 21.510100 Si / 1000 Ang^3
#
#
#
# Elastic Constant Matrix: (Units=GPa)
#
#
# Indices 1 2 3 4 5 6 
#
# 1 208.5262 132.5257 13.4522 0.0000 0.0000 0.0000
# 2 132.5257 187.9130 -2.5656 0.0000 0.0000 0.0000
# 3 13.4522 -2.5656 53.1269 0.0000 0.0000 0.0000
# 4 0.0000 0.0000 0.0000 0.1352 0.0000 0.0000
# 5 0.0000 0.0000 0.0000 0.0000 -12.7049 0.0000
# 6 0.0000 0.0000 0.0000 0.0000 0.0000 47.6515
#
#
#
# Elastic Compliance Matrix: (Units=1/GPa)
#
#
# Indices 1 2 3 4 5 6 
#
# 1 0.009035 -0.006408 -0.002597 0.000000 0.000000 0.000000
# 2 -0.006408 0.009869 0.002099 0.000000 0.000000 0.000000
# 3 -0.002597 0.002099 0.019582 0.000000 0.000000 0.000000
# 4 0.000000 0.000000 0.000000 7.394045 0.000000 0.000000
# 5 0.000000 0.000000 0.000000 0.000000 -0.078710 0.000000
# 6 0.000000 0.000000 0.000000 0.000000 0.000000 0.020986
#
#
# Mechanical properties :
#
#
# Convention : Reuss Voigt Hill
#
# Bulk Modulus (GPa) = 40.52715 81.82119 61.17417
# Shear Modulus (GPa) = 0.67596 27.42663 14.05130
#
# Velocity S-wave (km/s) = 0.56119 3.57467 2.55863
# Velocity P-wave (km/s) = 4.39338 7.42689 6.10166
#
# Compressibility (1/GPa) = 0.02467482
#
# Stress axis : x y z
#
# Youngs Moduli (GPa) = 110.67541 101.32426 51.06764
#
# Poissons Ratio (x) = 0.64926 0.13264
# Poissons Ratio (y) = 0.70918 -0.10720
# Poissons Ratio (z) = 0.28746 -0.21269
#
# Static dielectric constant tensor:
#      x y z
#    x 1.733480 0.000000 0.000000 
#    y 0.000000 1.784860 0.000000 
#    z 0.000000 0.000000 1.880170 
# 
# From -- ./inp_files/10307.got.cif
#   From: 2010.05.17/outbox.cif.g08.bks.cpg/sg40_6_cif.got.tgz:10307.got - 2010.06.03 18:35:42.
