data_PCOD9362425
_publ_section_title
;
Structure prediction by ZEFSAII (Michael W. Deem and Ramdas Pophale) SiO2 
 PCOD9362425
Probable space group: A M A 2
;
_chemical_formula_sum "Si O2"
_cell_formula_units_Z 64
_cell_length_a 8.709436
_cell_length_b 19.280394
_cell_length_c 21.796092
_cell_angle_alpha 90.000000
_cell_angle_beta 90.000000
_cell_angle_gamma 90.000000
_cell_volume 3660.029359
_symmetry_space_group_name_H-M "A M A 2"
_symmetry_group_IT_number 40
_symmetry_cell_setting 'orthorhombic'
loop_
_space_group_symop_operation_xyz
x,y,z
-x,-y,z
1/2-x,y,z
1/2+x,-y,z
x,1/2+y,1/2+z
-x,1/2-y,1/2+z
1/2-x,1/2+y,1/2+z
1/2+x,1/2-y,1/2+z
loop_
_atom_site_type_symbol
_atom_site_label
_atom_site_fract_x
_atom_site_fract_y
_atom_site_fract_z
Si Si1 0.427398 0.427796 0.859160
Si Si2 0.574216 0.072998 0.211098
Si Si3 0.067846 0.424872 0.046669
Si Si4 0.934115 0.873480 0.674685
Si Si5 0.566507 0.572115 0.301833
Si Si6 0.064922 0.780507 0.852409
Si Si7 0.929558 0.823519 0.447077
Si Si8 0.935628 0.224244 0.224518
O O1 0.500000 0.500000 0.879362
O O2 0.250000 0.418999 0.879578
O O3 0.426454 0.427264 0.785583
O O4 0.538385 0.371242 0.887790
O O5 0.750000 0.071916 0.189731
O O6 0.507446 0.150082 0.198331
O O7 0.500000 0.000000 0.191372
O O8 0.250000 0.430410 0.047099
O O9 0.000000 0.500000 0.028435
O O10 0.006030 0.405417 0.113894
O O11 0.016297 0.363244 0.001096
O O12 0.750000 0.879288 0.672146
O O13 0.974440 0.791944 0.684201
O O14 0.995895 0.912276 0.734896
O O15 0.500000 0.500000 0.325243
O O16 0.750000 0.568154 0.296447
O O17 0.526671 0.638894 0.342945
O O18 0.250000 0.772816 0.848544
O O19 0.017515 0.749828 0.918528
O O20 0.994419 0.741104 0.793249
O O21 0.750000 0.820479 0.462871
O O22 0.750000 0.219504 0.228166
#
# Coordination Sequence:
#
# PCOD9362425 Si02
#       8
#     8   8   8   8   8   8   8   8
#     4  10  18  28  42  62  92 128 165 199 235 281
#     4   9  17  27  41  65  96 129 162 197 237 288
#     4  12  25  40  55  73 100 135 175 215 251 296
#     4  10  20  35  55  76 100 133 171 214 257 300
#     4  10  19  33  52  78 106 134 165 203 252 304
#     4   9  19  32  49  72 100 130 164 204 248 300
#     4  11  21  34  50  70  97 131 169 207 248 292
#     4   9  17  31  50  72  99 130 167 207 252 301
#
# _framework density 17.486198999999999
#
# number of rings (size 3 to 8) (size 9 to 14) (size 15 to 20)
#    0.000    2.000    1.250    3.375    0.000    2.500 
#    0.000    0.000    0.000    0.000    0.000    0.875 
#    0.000    0.000    0.000    0.000    0.000    0.000 
#
# Total GULP energy -178378.463642 kJ/mol
# GULP energy per Si atom -5574.326989 kJ/mol
# Density = 1.744640 g / cm^3
# Si number density = 17.486199 Si / 1000 Ang^3
#
#
#
# Elastic Constant Matrix: (Units=GPa)
#
#
# Indices 1 2 3 4 5 6 
#
# 1 55.0458 34.3145 21.4843 0.0000 0.0000 0.0000
# 2 34.3145 131.8713 28.1974 0.0000 0.0000 0.0000
# 3 21.4843 28.1974 55.2171 0.0000 0.0000 0.0000
# 4 0.0000 0.0000 0.0000 11.5076 0.0000 0.0000
# 5 0.0000 0.0000 0.0000 0.0000 18.7955 0.0000
# 6 0.0000 0.0000 0.0000 0.0000 0.0000 18.9505
#
#
#
# Elastic Compliance Matrix: (Units=1/GPa)
#
#
# Indices 1 2 3 4 5 6 
#
# 1 0.023782 -0.004726 -0.006840 0.000000 0.000000 0.000000
# 2 -0.004726 0.009452 -0.002988 0.000000 0.000000 0.000000
# 3 -0.006840 -0.002988 0.022298 0.000000 0.000000 0.000000
# 4 0.000000 0.000000 0.000000 0.086899 0.000000 0.000000
# 5 0.000000 0.000000 0.000000 0.000000 0.053204 0.000000
# 6 0.000000 0.000000 0.000000 0.000000 0.000000 0.052769
#
#
# Mechanical properties :
#
#
# Convention : Reuss Voigt Hill
#
# Bulk Modulus (GPa) = 37.84443 45.56960 41.70701
# Shear Modulus (GPa) = 17.46300 20.39326 18.92813
#
# Velocity S-wave (km/s) = 3.16361 3.41874 3.29365
# Velocity P-wave (km/s) = 5.91895 6.45760 6.19414
#
# Compressibility (1/GPa) = 0.02642397
#
# Stress axis : x y z
#
# Youngs Moduli (GPa) = 42.04791 105.80032 44.84796
#
# Poissons Ratio (x) = 0.50000 0.30676
# Poissons Ratio (y) = 0.19871 0.13400
# Poissons Ratio (z) = 0.28761 0.31612
#
# Static dielectric constant tensor:
#      x y z
#    x 1.595670 0.000000 0.000000 
#    y 0.000000 1.677140 0.000000 
#    z 0.000000 0.000000 1.579010 
# 
# From -- ./inp_files/24391.got.cif
#   From: 2010.05.17/outbox.cif.g08.bks.cpg/sg40_13_cif.got.tgz:24391.got - 2010.06.03 18:35:42.
