data_PCOD9362411
_publ_section_title
;
Structure prediction by ZEFSAII (Michael W. Deem and Ramdas Pophale) SiO2 
 PCOD9362411
Probable space group: A M A 2
;
_chemical_formula_sum "Si O2"
_cell_formula_units_Z 64
_cell_length_a 8.240467
_cell_length_b 19.434543
_cell_length_c 22.202649
_cell_angle_alpha 90.000000
_cell_angle_beta 90.000000
_cell_angle_gamma 90.000000
_cell_volume 3555.747804
_symmetry_space_group_name_H-M "A M A 2"
_symmetry_group_IT_number 40
_symmetry_cell_setting 'orthorhombic'
loop_
_space_group_symop_operation_xyz
x,y,z
-x,-y,z
1/2-x,y,z
1/2+x,-y,z
x,1/2+y,1/2+z
-x,1/2-y,1/2+z
1/2-x,1/2+y,1/2+z
1/2+x,1/2-y,1/2+z
loop_
_atom_site_type_symbol
_atom_site_label
_atom_site_fract_x
_atom_site_fract_y
_atom_site_fract_z
Si Si1 0.945676 0.274320 0.273060
Si Si2 0.444269 0.130151 0.322232
Si Si3 0.436221 0.817685 0.547835
Si Si4 0.942282 0.077453 0.450248
Si Si5 0.444885 0.574636 0.693609
Si Si6 0.447585 0.218336 0.143607
Si Si7 0.560914 0.426008 0.134257
Si Si8 0.561760 0.925170 0.779222
O O1 0.750000 0.274927 0.275143
O O2 0.007666 0.349456 0.294942
O O3 0.009685 0.209920 0.311522
O O4 0.994932 0.258969 0.203538
O O5 0.250000 0.124584 0.325903
O O6 0.518701 0.097795 0.381888
O O7 0.501308 0.090431 0.261979
O O8 0.250000 0.801639 0.531321
O O9 0.511560 0.861942 0.493448
O O10 0.508025 0.750593 0.580696
O O11 0.446597 0.870828 0.603360
O O12 0.750000 0.077066 0.459814
O O13 0.000000 0.000000 0.463125
O O14 0.500000 0.500000 0.673519
O O15 0.250000 0.575980 0.694842
O O16 0.498415 0.639517 0.653811
O O17 0.250000 0.221633 0.143611
O O18 0.500000 0.500000 0.113125
O O19 0.750000 0.414090 0.118587
O O20 0.549059 0.425210 0.206369
O O21 0.750000 0.923510 0.795835
O O22 0.500000 0.000000 0.800107
#
# Coordination Sequence:
#
# PCOD9362411 Si02
#       8
#     8   8   8   8   8   8   8   8
#     4  10  18  31  49  73 100 128 165 210 256 302
#     4  10  21  36  53  73  97 132 172 211 256 304
#     4  10  20  33  49  68  95 132 170 207 249 292
#     4  11  23  37  52  73 100 135 175 215 253 296
#     4   9  18  31  49  73  98 124 156 195 246 299
#     4   9  18  32  48  69  98 131 165 202 246 304
#     4  10  18  28  41  62  91 126 165 199 236 283
#     4   9  18  28  41  65  96 128 161 197 240 292
#
# _framework density 17.999026000000001
#
# number of rings (size 3 to 8) (size 9 to 14) (size 15 to 20)
#    0.000    2.250    1.250    3.000    0.000    7.000 
#    0.000    0.000    0.000    0.000    0.000    0.875 
#    0.000    2.000    0.000    0.000    0.000    0.125 
#
# Total GULP energy -178268.595980 kJ/mol
# GULP energy per Si atom -5570.893624 kJ/mol
# Density = 1.795806 g / cm^3
# Si number density = 17.999026 Si / 1000 Ang^3
#
#
#
# Elastic Constant Matrix: (Units=GPa)
#
#
# Indices 1 2 3 4 5 6 
#
# 1 11.9197 -1.6664 4.9323 0.0000 0.0000 0.0000
# 2 -1.6664 138.1563 37.4075 0.0000 0.0000 0.0000
# 3 4.9323 37.4075 62.8941 0.0000 0.0000 0.0000
# 4 0.0000 0.0000 0.0000 16.4758 0.0000 0.0000
# 5 0.0000 0.0000 0.0000 0.0000 -43.4860 0.0000
# 6 0.0000 0.0000 0.0000 0.0000 0.0000 26.6375
#
#
#
# Elastic Compliance Matrix: (Units=1/GPa)
#
#
# Indices 1 2 3 4 5 6 
#
# 1 0.088103 0.003497 -0.008989 0.000000 0.000000 0.000000
# 2 0.003497 0.008766 -0.005488 0.000000 0.000000 0.000000
# 3 -0.008989 -0.005488 0.019869 0.000000 0.000000 0.000000
# 4 0.000000 0.000000 0.000000 0.060695 0.000000 0.000000
# 5 0.000000 0.000000 0.000000 0.000000 -0.022996 0.000000
# 6 0.000000 0.000000 0.000000 0.000000 0.000000 0.037541
#
#
# Mechanical properties :
#
#
# Convention : Reuss Voigt Hill
#
# Bulk Modulus (GPa) = 10.55105 32.70189 21.62647
# Shear Modulus (GPa) = 20.36391 11.41190 15.88790
#
# Velocity S-wave (km/s) = 3.36726 2.52072 2.97427
# Velocity P-wave (km/s) = 4.58178 5.16529 4.88226
#
# Compressibility (1/GPa) = 0.09477731
#
# Stress axis : x y z
#
# Youngs Moduli (GPa) = 11.35032 114.07268 50.32999
#
# Poissons Ratio (x) = -0.39886 0.45241
# Poissons Ratio (y) = -0.03969 0.27622
# Poissons Ratio (z) = 0.10203 0.62605
#
# Static dielectric constant tensor:
#      x y z
#    x 1.691830 0.000000 0.000000 
#    y 0.000000 1.682570 0.000000 
#    z 0.000000 0.000000 1.610500 
# 
# From -- ./inp_files/24385.got.cif
#   From: 2010.05.17/outbox.cif.g08.bks.cpg/sg40_13_cif.got.tgz:24385.got - 2010.06.03 18:35:42.
