data_PCOD9362339
_publ_section_title
;
Structure prediction by ZEFSAII (Michael W. Deem and Ramdas Pophale) SiO2 
 PCOD9362339
Probable space group: A M A 2
;
_chemical_formula_sum "Si O2"
_cell_formula_units_Z 40
_cell_length_a 12.095595
_cell_length_b 10.521438
_cell_length_c 14.227533
_cell_angle_alpha 90.000000
_cell_angle_beta 90.000000
_cell_angle_gamma 90.000000
_cell_volume 1810.639284
_symmetry_space_group_name_H-M "A M A 2"
_symmetry_group_IT_number 40
_symmetry_cell_setting 'orthorhombic'
loop_
_space_group_symop_operation_xyz
x,y,z
-x,-y,z
1/2-x,y,z
1/2+x,-y,z
x,1/2+y,1/2+z
-x,1/2-y,1/2+z
1/2-x,1/2+y,1/2+z
1/2+x,1/2-y,1/2+z
loop_
_atom_site_type_symbol
_atom_site_label
_atom_site_fract_x
_atom_site_fract_y
_atom_site_fract_z
Si Si1 0.750000 0.772249 0.305790
Si Si2 0.420459 0.676758 0.497242
Si Si3 0.500000 0.500000 0.659927
Si Si4 0.250000 0.970947 0.944116
Si Si5 0.750000 0.102555 0.164610
Si Si6 0.750000 0.871637 0.593257
Si Si7 0.928875 0.372709 0.928073
Si Si8 0.250000 0.839757 0.602934
O O1 0.750000 0.642431 0.369169
O O2 0.852446 0.856291 0.338442
O O3 0.750000 0.742316 0.197022
O O4 0.471230 0.615477 0.590144
O O5 0.353272 0.567332 0.444012
O O6 0.504048 0.742463 0.428387
O O7 0.350328 0.795195 0.537450
O O8 0.626884 0.546525 0.696675
O O9 0.250000 0.918999 0.051125
O O10 0.750000 0.257037 0.167856
O O11 0.854786 0.867298 0.522408
O O12 0.750000 0.014370 0.632267
O O13 0.000000 0.500000 0.924460
#
# Coordination Sequence:
#
# PCOD9362339 Si02
#       8
#     4   8   4   4   4   4   8   4
#     4  11  24  42  59  94 139 162 208 280 353 380
#     4  10  19  35  63  93 120 166 228 261 317 398
#     4  10  18  32  58  92 122 164 216 278 318 376
#     4   9  18  34  60  86 122 170 214 262 312 400
#     4  10  17  31  59  94 123 162 224 276 312 388
#     4  11  19  36  60  93 124 168 221 268 322 395
#     4  11  20  37  66  91 120 174 222 265 318 409
#     4  11  24  39  60  95 134 162 207 296 345 383
#
# _framework density 22.091643999999999
#
# number of rings (size 3 to 8) (size 9 to 14) (size 15 to 20)
#    0.000    1.600    6.000    1.800    0.000    0.000 
#    1.800    4.000    0.000    0.000    0.000    0.000 
#    0.000    0.000    0.000    0.000    0.000    0.000 
#
# Total GULP energy -111441.216977 kJ/mol
# GULP energy per Si atom -5572.060849 kJ/mol
# Density = 2.204136 g / cm^3
# Si number density = 22.091644 Si / 1000 Ang^3
#
#
#
# Elastic Constant Matrix: (Units=GPa)
#
#
# Indices 1 2 3 4 5 6 
#
# 1 123.2793 57.7636 14.9968 0.0000 0.0000 0.0000
# 2 57.7636 141.5387 7.8844 0.0000 0.0000 0.0000
# 3 14.9968 7.8844 39.1663 0.0000 0.0000 0.0000
# 4 0.0000 0.0000 0.0000 36.5257 0.0000 0.0000
# 5 0.0000 0.0000 0.0000 0.0000 -25.9888 0.0000
# 6 0.0000 0.0000 0.0000 0.0000 0.0000 51.2944
#
#
#
# Elastic Compliance Matrix: (Units=1/GPa)
#
#
# Indices 1 2 3 4 5 6 
#
# 1 0.010403 -0.004069 -0.003164 0.000000 0.000000 0.000000
# 2 -0.004069 0.008737 -0.000201 0.000000 0.000000 0.000000
# 3 -0.003164 -0.000201 0.026784 0.000000 0.000000 0.000000
# 4 0.000000 0.000000 0.000000 0.027378 0.000000 0.000000
# 5 0.000000 0.000000 0.000000 0.000000 -0.038478 0.000000
# 6 0.000000 0.000000 0.000000 0.000000 0.000000 0.019495
#
#
# Mechanical properties :
#
#
# Convention : Reuss Voigt Hill
#
# Bulk Modulus (GPa) = 32.19992 51.69710 41.94851
# Shear Modulus (GPa) = 62.86092 27.25556 45.05824
#
# Velocity S-wave (km/s) = 5.34007 3.51629 4.52110
# Velocity P-wave (km/s) = 7.25459 6.31963 6.80319
#
# Compressibility (1/GPa) = 0.03105598
#
# Stress axis : x y z
#
# Youngs Moduli (GPa) = 96.12264 114.45334 37.33550
#
# Poissons Ratio (x) = 0.46577 0.11814
# Poissons Ratio (y) = 0.39117 0.00749
# Poissons Ratio (z) = 0.30416 0.02296
#
# Static dielectric constant tensor:
#      x y z
#    x 2.055840 0.000000 0.000000 
#    y 0.000000 1.837990 0.000000 
#    z 0.000000 0.000000 1.729220 
# 
# From -- ./inp_files/19924.got.cif
#   From: 2010.05.17/outbox.cif.g08.bks.cpg/sg40_10_cif.got.tgz:19924.got - 2010.06.03 18:35:42.
