data_PCOD9362617
_publ_section_title
;
Structure prediction by ZEFSAII (Michael W. Deem and Ramdas Pophale) SiO2 
 PCOD9362617
Probable space group: A M A 2
;
_chemical_formula_sum "Si O2"
_cell_formula_units_Z 64
_cell_length_a 14.824563
_cell_length_b 11.064959
_cell_length_c 18.073841
_cell_angle_alpha 90.000000
_cell_angle_beta 90.000000
_cell_angle_gamma 90.000000
_cell_volume 2964.709646
_symmetry_space_group_name_H-M "A M A 2"
_symmetry_group_IT_number 40
_symmetry_cell_setting 'orthorhombic'
loop_
_space_group_symop_operation_xyz
x,y,z
-x,-y,z
1/2-x,y,z
1/2+x,-y,z
x,1/2+y,1/2+z
-x,1/2-y,1/2+z
1/2-x,1/2+y,1/2+z
1/2+x,1/2-y,1/2+z
loop_
_atom_site_type_symbol
_atom_site_label
_atom_site_fract_x
_atom_site_fract_y
_atom_site_fract_z
Si Si1 0.108764 0.498105 0.465080
Si Si2 0.854208 0.773462 0.412817
Si Si3 0.353637 0.228975 0.240026
Si Si4 0.393844 0.503077 0.207215
Si Si5 0.906147 0.571284 0.617839
Si Si6 0.651765 0.816097 0.837750
Si Si7 0.966168 0.623378 0.764413
Si Si8 0.140761 0.662762 0.066830
O O1 0.135509 0.368928 0.430671
O O2 0.144108 0.496583 0.549924
O O3 0.138868 0.606144 0.412084
O O4 0.000000 0.500000 0.465073
O O5 0.750000 0.805313 0.415916
O O6 0.874976 0.787917 0.327225
O O7 0.893738 0.848302 0.482013
O O8 0.250000 0.184795 0.224664
O O9 0.355405 0.369199 0.217130
O O10 0.450361 0.175266 0.214101
O O11 0.500000 0.500000 0.223866
O O12 0.352000 0.591379 0.268609
O O13 0.381064 0.558936 0.125711
O O14 0.887669 0.583587 0.705476
O O15 0.902322 0.710836 0.593061
O O16 0.000000 0.500000 0.615968
O O17 0.750000 0.757169 0.839780
O O18 0.574504 0.719718 0.820349
O O19 0.000000 0.500000 0.800520
O O20 0.250000 0.677860 0.068512
#
# Coordination Sequence:
#
# PCOD9362617 Si02
#       8
#     8   8   8   8   8   8   8   8
#     4  10  18  31  55  87 122 161 205 267 327 389
#     4   9  18  31  51  82 122 162 205 257 322 392
#     4  11  21  37  62  91 124 168 221 278 333 393
#     4  12  21  35  58  92 131 165 208 273 338 398
#     4   9  19  35  55  81 122 168 212 256 320 391
#     4  12  22  35  59  94 133 169 218 283 340 394
#     4  11  24  42  61  88 127 175 225 273 330 409
#     4  10  19  33  54  85 122 163 209 263 328 399
#
# _framework density 21.587274000000001
#
# number of rings (size 3 to 8) (size 9 to 14) (size 15 to 20)
#    0.000    1.500    3.750    2.625    0.000    1.000 
#    0.000    2.500    0.000    6.000    0.000    0.000 
#    0.000    0.000    0.000    0.000    0.000    0.000 
#
# Total GULP energy -178155.628488 kJ/mol
# GULP energy per Si atom -5567.363390 kJ/mol
# Density = 2.153814 g / cm^3
# Si number density = 21.587274 Si / 1000 Ang^3
#
#
#
# Elastic Constant Matrix: (Units=GPa)
#
#
# Indices 1 2 3 4 5 6 
#
# 1 105.9817 18.4499 7.7201 0.0000 0.0000 0.0000
# 2 18.4499 88.9041 29.0714 0.0000 0.0000 0.0000
# 3 7.7201 29.0714 115.5627 0.0000 0.0000 0.0000
# 4 0.0000 0.0000 0.0000 33.7602 0.0000 0.0000
# 5 0.0000 0.0000 0.0000 0.0000 7.6128 0.0000
# 6 0.0000 0.0000 0.0000 0.0000 0.0000 -17.6631
#
#
#
# Elastic Compliance Matrix: (Units=1/GPa)
#
#
# Indices 1 2 3 4 5 6 
#
# 1 0.009792 -0.001981 -0.000156 0.000000 0.000000 0.000000
# 2 -0.001981 0.012657 -0.003052 0.000000 0.000000 0.000000
# 3 -0.000156 -0.003052 0.009431 0.000000 0.000000 0.000000
# 4 0.000000 0.000000 0.000000 0.029621 0.000000 0.000000
# 5 0.000000 0.000000 0.000000 0.000000 0.131357 0.000000
# 6 0.000000 0.000000 0.000000 0.000000 0.000000 -0.056615
#
#
# Mechanical properties :
#
#
# Convention : Reuss Voigt Hill
#
# Bulk Modulus (GPa) = 46.50482 46.77013 46.63748
# Shear Modulus (GPa) = 32.51230 21.75578 27.13404
#
# Velocity S-wave (km/s) = 3.88504 3.17804 3.54919
# Velocity P-wave (km/s) = 6.45865 5.93121 6.20054
#
# Compressibility (1/GPa) = 0.02150315
#
# Stress axis : x y z
#
# Youngs Moduli (GPa) = 102.12598 79.00691 106.02857
#
# Poissons Ratio (x) = 0.15652 0.01652
# Poissons Ratio (y) = 0.20232 0.32357
# Poissons Ratio (z) = 0.01591 0.24111
#
# Static dielectric constant tensor:
#      x y z
#    x 1.884990 0.000000 0.000000 
#    y 0.000000 1.760810 0.000000 
#    z 0.000000 0.000000 1.930190 
# 
# From -- ./inp_files/20798.got.cif
#   From: 2010.05.17/outbox.cif.g08.bks.cpg/sg40_11_cif.got.tgz:20798.got - 2010.06.03 18:35:42.
