data_PCOD9362264
_publ_section_title
;
Structure prediction by ZEFSAII (Michael W. Deem and Ramdas Pophale) SiO2 
 PCOD9362264
Probable space group: A M A 2
;
_chemical_formula_sum "Si O2"
_cell_formula_units_Z 44
_cell_length_a 20.759643
_cell_length_b 10.037508
_cell_length_c 9.942675
_cell_angle_alpha 90.000000
_cell_angle_beta 90.000000
_cell_angle_gamma 90.000000
_cell_volume 2071.805725
_symmetry_space_group_name_H-M "A M A 2"
_symmetry_group_IT_number 40
_symmetry_cell_setting 'orthorhombic'
loop_
_space_group_symop_operation_xyz
x,y,z
-x,-y,z
1/2-x,y,z
1/2+x,-y,z
x,1/2+y,1/2+z
-x,1/2-y,1/2+z
1/2-x,1/2+y,1/2+z
1/2+x,1/2-y,1/2+z
loop_
_atom_site_type_symbol
_atom_site_label
_atom_site_fract_x
_atom_site_fract_y
_atom_site_fract_z
Si Si1 0.380962 0.823934 0.087350
Si Si2 0.250000 0.764251 0.992846
Si Si3 0.107424 0.331765 0.268438
Si Si4 0.606614 0.372662 0.306797
Si Si5 0.250000 0.733327 0.709579
Si Si6 0.437097 0.090319 0.100204
Si Si7 0.750000 0.918609 0.925860
O O1 0.312392 0.752156 0.081015
O O2 0.414176 0.742482 0.205048
O O3 0.380499 0.980432 0.122043
O O4 0.400873 0.816852 0.930447
O O5 0.250000 0.670864 0.861273
O O6 0.250000 0.920373 0.944252
O O7 0.090541 0.484410 0.241383
O O8 0.181658 0.310922 0.218312
O O9 0.069113 0.215343 0.195963
O O10 0.568938 0.361822 0.447178
O O11 0.682821 0.378822 0.351894
O O12 0.250000 0.648631 0.573812
O O13 0.500000 0.000000 0.117338
#
# Coordination Sequence:
#
# PCOD9362264 Si02
#       7
#     8   4   8   8   4   8   4
#     4  10  22  38  61  91 118 155 194 244 298 360
#     4  10  17  36  57  87 126 150 184 240 296 357
#     4  10  20  40  60  87 122 156 190 244 298 352
#     4  11  22  38  65  92 122 152 197 245 300 356
#     4  10  16  31  62  85 116 158 183 224 298 359
#     4  11  24  42  61  83 118 162 208 250 292 343
#     4  12  17  35  63  92 122 156 187 236 300 366
#
# _framework density 21.237511999999999
#
# number of rings (size 3 to 8) (size 9 to 14) (size 15 to 20)
#    0.000    1.455    7.273    0.545    0.000    4.364 
#    0.000    0.909    0.000    0.000    0.000    0.000 
#    0.000    0.000    0.000    0.000    0.000    0.000 
#
# Total GULP energy -122636.203148 kJ/mol
# GULP energy per Si atom -5574.372870 kJ/mol
# Density = 2.118917 g / cm^3
# Si number density = 21.237512 Si / 1000 Ang^3
#
#
#
# Elastic Constant Matrix: (Units=GPa)
#
#
# Indices 1 2 3 4 5 6 
#
# 1 51.7232 -8.5804 0.8937 0.0000 0.0000 0.0000
# 2 -8.5804 95.7545 81.1182 0.0000 0.0000 0.0000
# 3 0.8937 81.1182 96.9059 0.0000 0.0000 0.0000
# 4 0.0000 0.0000 0.0000 22.7647 0.0000 0.0000
# 5 0.0000 0.0000 0.0000 0.0000 2.7319 0.0000
# 6 0.0000 0.0000 0.0000 0.0000 0.0000 19.6257
#
#
#
# Elastic Compliance Matrix: (Units=1/GPa)
#
#
# Indices 1 2 3 4 5 6 
#
# 1 0.020580 0.006893 -0.005960 0.000000 0.000000 0.000000
# 2 0.006893 0.038213 -0.032051 0.000000 0.000000 0.000000
# 3 -0.005960 -0.032051 0.037203 0.000000 0.000000 0.000000
# 4 0.000000 0.000000 0.000000 0.043928 0.000000 0.000000
# 5 0.000000 0.000000 0.000000 0.000000 0.366048 0.000000
# 6 0.000000 0.000000 0.000000 0.000000 0.000000 0.050954
#
#
# Mechanical properties :
#
#
# Convention : Reuss Voigt Hill
#
# Bulk Modulus (GPa) = 29.61991 43.47185 36.54588
# Shear Modulus (GPa) = 7.93129 20.42126 14.17628
#
# Velocity S-wave (km/s) = 1.93460 3.10428 2.58643
# Velocity P-wave (km/s) = 4.35517 5.77603 5.11517
#
# Compressibility (1/GPa) = 0.03376108
#
# Stress axis : x y z
#
# Youngs Moduli (GPa) = 48.59054 26.16921 26.87923
#
# Poissons Ratio (x) = -0.18038 0.16019
# Poissons Ratio (y) = -0.33493 0.86150
# Poissons Ratio (z) = 0.28959 0.83875
#
# Static dielectric constant tensor:
#      x y z
#    x 1.945510 0.000000 0.000000 
#    y 0.000000 1.718390 0.000000 
#    z 0.000000 0.000000 1.739740 
# 
# From -- ./inp_files/8701.got.cif
#   From: 2010.05.17/outbox.cif.g08.bks.cpg/sg40_5_cif.got.tgz:8701.got - 2010.06.03 18:35:42.
