data_PCOD9362999
_publ_section_title
;
Structure prediction by ZEFSAII (Michael W. Deem and Ramdas Pophale) SiO2 
 PCOD9362999
Probable space group: A M A 2
;
_chemical_formula_sum "Si O2"
_cell_formula_units_Z 64
_cell_length_a 29.301035
_cell_length_b 21.254075
_cell_length_c 5.559577
_cell_angle_alpha 90.000000
_cell_angle_beta 90.000000
_cell_angle_gamma 90.000000
_cell_volume 3462.317729
_symmetry_space_group_name_H-M "A M A 2"
_symmetry_group_IT_number 40
_symmetry_cell_setting 'orthorhombic'
loop_
_space_group_symop_operation_xyz
x,y,z
-x,-y,z
1/2-x,y,z
1/2+x,-y,z
x,1/2+y,1/2+z
-x,1/2-y,1/2+z
1/2-x,1/2+y,1/2+z
1/2+x,1/2-y,1/2+z
loop_
_atom_site_type_symbol
_atom_site_label
_atom_site_fract_x
_atom_site_fract_y
_atom_site_fract_z
Si Si1 0.013899 0.602530 0.366960
Si Si2 0.387025 0.567643 0.250407
Si Si3 0.068657 0.355365 0.066202
Si Si4 0.304340 0.944828 0.267027
Si Si5 0.868508 0.437259 0.746505
Si Si6 0.455419 0.969171 0.252536
Si Si7 0.350268 0.922878 0.767541
Si Si8 0.525223 0.764972 0.067763
O O1 0.058531 0.570225 0.263474
O O2 0.030825 0.660445 0.533073
O O3 0.982219 0.631976 0.163860
O O4 0.980167 0.558268 0.516949
O O5 0.367309 0.597734 0.493332
O O6 0.370277 0.494658 0.255734
O O7 0.371606 0.597436 0.999661
O O8 0.107339 0.375547 0.252008
O O9 0.070256 0.408311 0.860564
O O10 0.068017 0.281231 0.017488
O O11 0.250000 0.946313 0.262625
O O12 0.321558 0.915450 0.520220
O O13 0.326476 0.014590 0.262152
O O14 0.323393 0.915517 0.017551
O O15 0.915709 0.478940 0.731632
O O16 0.500000 0.000000 0.384284
O O17 0.491762 0.745985 0.842686
#
# Coordination Sequence:
#
# PCOD9362999 Si02
#       8
#     8   8   8   8   8   8   8   8
#     4  11  22  31  49  68 101 139 184 207 238 292
#     4  10  19  32  45  70 100 124 163 206 241 282
#     4  11  22  33  48  67 106 135 179 211 249 296
#     4  10  19  34  51  73 103 132 158 199 263 329
#     4  10  20  32  45  74  99 130 158 203 249 298
#     4  12  20  29  50  73 100 140 171 204 254 285
#     4  10  21  32  51  74 102 128 161 211 261 304
#     4  10  22  37  47  65  94 142 179 211 240 282
#
# _framework density 18.484728
#
# number of rings (size 3 to 8) (size 9 to 14) (size 15 to 20)
#    0.000    1.500    5.000    2.625    0.000    0.000 
#    0.000    0.000    0.000    0.000    0.000    0.000 
#    0.000   24.000    0.000    0.000    0.000    0.000 
#
# Total GULP energy -178206.123438 kJ/mol
# GULP energy per Si atom -5568.941357 kJ/mol
# Density = 1.844266 g / cm^3
# Si number density = 18.484728 Si / 1000 Ang^3
#
#
#
# Elastic Constant Matrix: (Units=GPa)
#
#
# Indices 1 2 3 4 5 6 
#
# 1 85.8402 19.9363 25.1040 0.0000 0.0000 0.0000
# 2 19.9363 33.8241 9.3825 0.0000 0.0000 0.0000
# 3 25.1040 9.3825 136.0025 0.0000 0.0000 0.0000
# 4 0.0000 0.0000 0.0000 12.3123 0.0000 0.0000
# 5 0.0000 0.0000 0.0000 0.0000 24.9325 0.0000
# 6 0.0000 0.0000 0.0000 0.0000 0.0000 10.2388
#
#
#
# Elastic Compliance Matrix: (Units=1/GPa)
#
#
# Indices 1 2 3 4 5 6 
#
# 1 0.014041 -0.007705 -0.002060 0.000000 0.000000 0.000000
# 2 -0.007705 0.034369 -0.000949 0.000000 0.000000 0.000000
# 3 -0.002060 -0.000949 0.007799 0.000000 0.000000 0.000000
# 4 0.000000 0.000000 0.000000 0.081220 0.000000 0.000000
# 5 0.000000 0.000000 0.000000 0.000000 0.040108 0.000000
# 6 0.000000 0.000000 0.000000 0.000000 0.000000 0.097667
#
#
# Mechanical properties :
#
#
# Convention : Reuss Voigt Hill
#
# Bulk Modulus (GPa) = 28.75097 40.50137 34.62617
# Shear Modulus (GPa) = 16.22184 22.91299 19.56741
#
# Velocity S-wave (km/s) = 2.96561 3.52456 3.25710
# Velocity P-wave (km/s) = 5.22629 6.20658 5.73741
#
# Compressibility (1/GPa) = 0.03478144
#
# Stress axis : x y z
#
# Youngs Moduli (GPa) = 71.21749 29.09585 128.22862
#
# Poissons Ratio (x) = 0.22417 0.26419
# Poissons Ratio (y) = 0.54871 0.12167
# Poissons Ratio (z) = 0.14673 0.02761
#
# Static dielectric constant tensor:
#      x y z
#    x 1.623820 0.000000 0.000000 
#    y 0.000000 1.705920 0.000000 
#    z 0.000000 0.000000 1.787390 
# 
# From -- ./inp_files/3245.got.cif
#   From: 2010.05.17/outbox.cif.g08.bks.cpg/sg40_2_cif.got.tgz:3245.got - 2010.06.03 18:35:42.
