data_PCOD9362903
_publ_section_title
;
Structure prediction by ZEFSAII (Michael W. Deem and Ramdas Pophale) SiO2 
 PCOD9362903
Probable space group: A M A 2
;
_chemical_formula_sum "Si O2"
_cell_formula_units_Z 64
_cell_length_a 8.532601
_cell_length_b 22.452823
_cell_length_c 16.207724
_cell_angle_alpha 90.000000
_cell_angle_beta 90.000000
_cell_angle_gamma 90.000000
_cell_volume 3105.091647
_symmetry_space_group_name_H-M "A M A 2"
_symmetry_group_IT_number 40
_symmetry_cell_setting 'orthorhombic'
loop_
_space_group_symop_operation_xyz
x,y,z
-x,-y,z
1/2-x,y,z
1/2+x,-y,z
x,1/2+y,1/2+z
-x,1/2-y,1/2+z
1/2-x,1/2+y,1/2+z
1/2+x,1/2-y,1/2+z
loop_
_atom_site_type_symbol
_atom_site_label
_atom_site_fract_x
_atom_site_fract_y
_atom_site_fract_z
Si Si1 0.560844 0.304647 0.770550
Si Si2 0.937381 0.567769 0.198036
Si Si3 0.935373 0.436543 0.714293
Si Si4 0.561360 0.067802 0.878616
Si Si5 0.065322 0.120505 0.045179
Si Si6 0.935972 0.933702 0.524792
Si Si7 0.058695 0.684499 0.950848
Si Si8 0.933094 0.242350 0.106931
O O1 0.750000 0.305447 0.768759
O O2 0.507526 0.373066 0.751267
O O3 0.508184 0.289098 0.863174
O O4 0.507654 0.260864 0.697688
O O5 0.750000 0.567159 0.189424
O O6 0.976431 0.594135 0.287720
O O7 0.000000 0.500000 0.200960
O O8 0.011571 0.591552 0.114208
O O9 0.750000 0.437697 0.729282
O O10 0.962052 0.429180 0.615646
O O11 0.000000 0.500000 0.743519
O O12 0.750000 0.068106 0.887762
O O13 0.500000 0.000000 0.879654
O O14 0.481027 0.100196 0.954580
O O15 0.250000 0.136211 0.050294
O O16 0.961512 0.176421 0.071126
O O17 0.750000 0.938047 0.525302
O O18 0.983994 0.885112 0.457449
O O19 0.000000 0.000000 0.512895
O O20 0.250000 0.688165 0.952413
O O21 0.000796 0.716301 0.033829
O O22 0.750000 0.255488 0.116423
#
# Coordination Sequence:
#
# PCOD9362903 Si02
#       8
#     8   8   8   8   8   8   8   8
#     4   9  19  39  60  80 111 151 186 225 279 341
#     4   9  17  30  47  70 103 142 181 224 273 325
#     4   9  18  30  49  76 107 141 179 216 265 325
#     4  10  19  30  47  73 107 146 190 236 285 339
#     4  10  20  34  51  74 106 147 190 233 283 339
#     4  10  19  34  56  82 112 147 182 224 277 337
#     4   9  20  39  62  83 112 151 186 224 285 345
#     4  10  20  38  60  82 109 143 187 238 284 331
#
# _framework density 20.611308000000001
#
# number of rings (size 3 to 8) (size 9 to 14) (size 15 to 20)
#    0.000    2.500    0.000    3.750    0.000    5.500 
#    2.250    5.000    0.000    0.000    0.000    0.000 
#    0.000    0.000    0.000    0.000    0.000    0.000 
#
# Total GULP energy -178399.205207 kJ/mol
# GULP energy per Si atom -5574.975163 kJ/mol
# Density = 2.056440 g / cm^3
# Si number density = 20.611308 Si / 1000 Ang^3
#
#
#
# Elastic Constant Matrix: (Units=GPa)
#
#
# Indices 1 2 3 4 5 6 
#
# 1 26.3244 5.9763 19.7673 0.0000 0.0000 0.0000
# 2 5.9763 41.6557 33.6207 0.0000 0.0000 0.0000
# 3 19.7673 33.6207 145.2428 0.0000 0.0000 0.0000
# 4 0.0000 0.0000 0.0000 21.6655 0.0000 0.0000
# 5 0.0000 0.0000 0.0000 0.0000 33.1893 0.0000
# 6 0.0000 0.0000 0.0000 0.0000 0.0000 13.5121
#
#
#
# Elastic Compliance Matrix: (Units=1/GPa)
#
#
# Indices 1 2 3 4 5 6 
#
# 1 0.042416 -0.001754 -0.005367 0.000000 0.000000 0.000000
# 2 -0.001754 0.029594 -0.006612 0.000000 0.000000 0.000000
# 3 -0.005367 -0.006612 0.009146 0.000000 0.000000 0.000000
# 4 0.000000 0.000000 0.000000 0.046156 0.000000 0.000000
# 5 0.000000 0.000000 0.000000 0.000000 0.030130 0.000000
# 6 0.000000 0.000000 0.000000 0.000000 0.000000 0.074008
#
#
# Mechanical properties :
#
#
# Convention : Reuss Voigt Hill
#
# Bulk Modulus (GPa) = 18.62497 36.88349 27.75423
# Shear Modulus (GPa) = 18.06280 23.93062 20.99671
#
# Velocity S-wave (km/s) = 2.96354 3.41111 3.19517
# Velocity P-wave (km/s) = 4.55697 5.78341 5.20643
#
# Compressibility (1/GPa) = 0.05369135
#
# Stress axis : x y z
#
# Youngs Moduli (GPa) = 23.57617 33.79022 109.33846
#
# Poissons Ratio (x) = 0.05926 0.58679
# Poissons Ratio (y) = 0.04135 0.72292
# Poissons Ratio (z) = 0.12653 0.22341
#
# Static dielectric constant tensor:
#      x y z
#    x 1.706710 0.000000 0.000000 
#    y 0.000000 1.745490 0.000000 
#    z 0.000000 0.000000 1.777820 
# 
# From -- ./inp_files/15666.got.cif
#   From: 2010.05.17/outbox.cif.g08.bks.cpg/sg40_8_cif.got.tgz:15666.got - 2010.06.03 18:35:42.
