data_PCOD9362203
_publ_section_title
;
Structure prediction by ZEFSAII (Michael W. Deem and Ramdas Pophale) SiO2 
 PCOD9362203
Probable space group: A B M 2
;
_chemical_formula_sum "Si O2"
_cell_formula_units_Z 24
_cell_length_a 18.000000
_cell_length_b 9.000000
_cell_length_c 15.000000
_cell_angle_alpha 90.000000
_cell_angle_beta 90.000000
_cell_angle_gamma 90.000000
_cell_volume 2430.000000
_symmetry_space_group_name_H-M "A B M 2"
_symmetry_group_IT_number 39
_symmetry_cell_setting 'orthorhombic'
loop_
_space_group_symop_operation_xyz
x,y,z
-x,-y,z
-x,1/2+y,z
x,1/2-y,z
x,1/2+y,1/2+z
-x,1/2-y,1/2+z
-x,y,1/2+z
x,-y,1/2+z
loop_
_atom_site_type_symbol
_atom_site_label
_atom_site_fract_x
_atom_site_fract_y
_atom_site_fract_z
Si Si1 0.574403 0.926212 0.184710
Si Si2 0.691889 0.573003 0.330076
Si Si3 0.813135 0.428120 0.061321
Si Si4 0.925016 0.571911 0.710087
Si Si5 0.643339 0.074232 0.024879
Si Si6 0.846157 0.572651 0.881972
O O1 0.568177 0.750000 0.188444
O O2 0.644824 0.971450 0.244487
O O3 0.500000 0.000000 0.220636
O O4 0.587888 0.981529 0.084624
O O5 0.709139 0.750000 0.326630
O O6 0.642595 0.550446 0.419081
O O7 0.767254 0.483170 0.343511
O O8 0.815399 0.250000 0.052875
O O9 0.854545 0.472686 0.150781
O O10 0.726921 0.469930 0.054821
O O11 0.854450 0.499344 0.977685
O O12 0.930859 0.750000 0.706312
O O13 0.908289 0.527116 0.811249
O O14 0.000000 0.500000 0.675972
O O15 0.633178 0.250000 0.042193
O O16 0.844935 0.750000 0.889112
#
# Coordination Sequence:
#
# PCOD9362203 Si02
#       6
#     8   8   8   8   8   8
#     4  11  23  37  54  79 110 143 178 216 262 315
#     4   9  20  38  58  80 107 140 177 218 265 315
#     4   9  19  37  58  79 106 140 177 219 267 316
#     4  10  22  37  53  77 110 146 180 217 265 318
#     4   9  18  36  59  80 105 137 174 219 267 314
#     4  10  20  35  57  83 107 136 178 223 266 314
#
# _framework density 9.8765429999999999
#
# number of rings (size 3 to 8) (size 9 to 14) (size 15 to 20)
#    0.000    2.333    0.000    3.000    0.000    8.667 
#    0.000    5.000    0.000    0.000    0.000    0.000 
#    0.000    0.000    0.000    0.000    0.000    0.000 
#
# Total GULP energy -133901.549456 kJ/mol
# GULP energy per Si atom -5579.231227 kJ/mol
# Density = 0.985406 g / cm^3
# Si number density = 9.876543 Si / 1000 Ang^3
#
#
#
# Elastic Constant Matrix: (Units=GPa)
#
#
# Indices 1 2 3 4 5 6 
#
# 1 21.4288 8.5727 18.5708 0.0000 0.0000 0.0000
# 2 8.5727 -10.8990 11.3441 0.0000 0.0000 0.0000
# 3 18.5708 11.3441 69.3758 0.0000 0.0000 0.0000
# 4 0.0000 0.0000 0.0000 24.0357 0.0000 0.0000
# 5 0.0000 0.0000 0.0000 0.0000 -1.4665 0.0000
# 6 0.0000 0.0000 0.0000 0.0000 0.0000 25.4586
#
#
#
# Elastic Compliance Matrix: (Units=1/GPa)
#
#
# Indices 1 2 3 4 5 6 
#
# 1 0.053020 0.023014 -0.017956 0.000000 0.000000 0.000000
# 2 0.023014 -0.068417 0.005027 0.000000 0.000000 0.000000
# 3 -0.017956 0.005027 0.018399 0.000000 0.000000 0.000000
# 4 0.000000 0.000000 0.000000 0.041605 0.000000 0.000000
# 5 0.000000 0.000000 0.000000 0.000000 -0.681908 0.000000
# 6 0.000000 0.000000 0.000000 0.000000 0.000000 0.039280
#
#
# Mechanical properties :
#
#
# Convention : Reuss Voigt Hill
#
# Bulk Modulus (GPa) = 43.15560 17.43120 30.29340
# Shear Modulus (GPa) = -8.19043 12.36676 2.08816
#
# Velocity S-wave (km/s) = -2.03848 2.50485 1.02929
# Velocity P-wave (km/s) = 4.04406 4.14842 4.09657
#
# Compressibility (1/GPa) = 0.02317197
#
# Stress axis : x y z
#
# Youngs Moduli (GPa) = 18.86069 -14.61615 54.35140
#
# Poissons Ratio (x) = 0.33638 0.97593
# Poissons Ratio (y) = -0.43406 -0.27322
# Poissons Ratio (z) = 0.33866 0.07347
#
# Static dielectric constant tensor:
#      x y z
#    x 1.710870 0.000000 0.000000 
#    y 0.000000 1.654390 0.000000 
#    z 0.000000 0.000000 1.696900 
# 
# From -- ./inp_files/10033.got.cif
#   From: 2010.05.17/outbox.ucp.g08.bks.cvg/sg39_6_cif.got.tgz:10033.got - 2010.06.11 10:41:16.
