data_PCOD9362754
_publ_section_title
;
Structure prediction by ZEFSAII (Michael W. Deem and Ramdas Pophale) SiO2 
 PCOD9362754
Probable space group: A M A 2
;
_chemical_formula_sum "Si O2"
_cell_formula_units_Z 64
_cell_length_a 16.987262
_cell_length_b 16.268506
_cell_length_c 12.507725
_cell_angle_alpha 90.000000
_cell_angle_beta 90.000000
_cell_angle_gamma 90.000000
_cell_volume 3456.602033
_symmetry_space_group_name_H-M "A M A 2"
_symmetry_group_IT_number 40
_symmetry_cell_setting 'orthorhombic'
loop_
_space_group_symop_operation_xyz
x,y,z
-x,-y,z
1/2-x,y,z
1/2+x,-y,z
x,1/2+y,1/2+z
-x,1/2-y,1/2+z
1/2-x,1/2+y,1/2+z
1/2+x,1/2-y,1/2+z
loop_
_atom_site_type_symbol
_atom_site_label
_atom_site_fract_x
_atom_site_fract_y
_atom_site_fract_z
Si Si1 0.340462 0.821423 0.978590
Si Si2 0.593478 0.014000 0.570636
Si Si3 0.078256 0.389594 0.684287
Si Si4 0.927419 0.664970 0.917756
Si Si5 0.884545 0.360788 0.934512
Si Si6 0.155485 0.369938 0.246571
Si Si7 0.341173 0.229786 0.079135
Si Si8 0.390960 0.076393 0.199423
O O1 0.250000 0.847397 0.997739
O O2 0.341900 0.724114 0.956849
O O3 0.371323 0.862863 0.868822
O O4 0.393709 0.842520 0.079693
O O5 0.628602 0.929732 0.524836
O O6 0.500000 0.000000 0.581549
O O7 0.604732 0.084655 0.480734
O O8 0.626484 0.051839 0.679713
O O9 0.095929 0.342124 0.794365
O O10 0.118385 0.479408 0.684854
O O11 0.984337 0.404772 0.687636
O O12 0.021746 0.659239 0.929463
O O13 0.893356 0.743422 0.978845
O O14 0.864822 0.397909 0.818535
O O15 0.250000 0.370132 0.249640
O O16 0.132176 0.288545 0.178376
O O17 0.250000 0.249084 0.057182
O O18 0.349652 0.136248 0.115493
#
# Coordination Sequence:
#
# PCOD9362754 Si02
#       8
#     8   8   8   8   8   8   8   8
#     4  11  23  38  53  76 115 153 183 219 270 335
#     4   9  17  33  57  86 109 133 181 233 274 315
#     4  10  21  37  57  83 112 144 179 228 285 327
#     4   9  18  34  57  84 112 138 175 233 285 318
#     4  10  18  34  60  83 107 140 185 232 268 320
#     4   9  19  35  52  76 111 146 178 219 269 321
#     4  10  19  33  55  81 108 141 183 225 264 324
#     4  10  19  36  59  84 108 140 188 230 271 329
#
# _framework density 18.515294000000001
#
# number of rings (size 3 to 8) (size 9 to 14) (size 15 to 20)
#    0.000    2.250    2.500    0.750    0.000    1.500 
#    2.250    1.250    0.000    0.000    0.000    0.000 
#    0.000    0.000    0.000    0.000    0.000    0.000 
#
# Total GULP energy -178546.241888 kJ/mol
# GULP energy per Si atom -5579.570059 kJ/mol
# Density = 1.847315 g / cm^3
# Si number density = 18.515294 Si / 1000 Ang^3
#
#
#
# Elastic Constant Matrix: (Units=GPa)
#
#
# Indices 1 2 3 4 5 6 
#
# 1 12.0739 7.0748 23.0284 0.0000 0.0000 0.0000
# 2 7.0748 63.2853 36.5015 0.0000 0.0000 0.0000
# 3 23.0284 36.5015 126.7291 0.0000 0.0000 0.0000
# 4 0.0000 0.0000 0.0000 28.9191 0.0000 0.0000
# 5 0.0000 0.0000 0.0000 0.0000 5.8735 0.0000
# 6 0.0000 0.0000 0.0000 0.0000 0.0000 23.1054
#
#
#
# Elastic Compliance Matrix: (Units=1/GPa)
#
#
# Indices 1 2 3 4 5 6 
#
# 1 0.126813 -0.001062 -0.022738 0.000000 0.000000 0.000000
# 2 -0.001062 0.018958 -0.005268 0.000000 0.000000 0.000000
# 3 -0.022738 -0.005268 0.013540 0.000000 0.000000 0.000000
# 4 0.000000 0.000000 0.000000 0.034579 0.000000 0.000000
# 5 0.000000 0.000000 0.000000 0.000000 0.170256 0.000000
# 6 0.000000 0.000000 0.000000 0.000000 0.000000 0.043280
#
#
# Mechanical properties :
#
#
# Convention : Reuss Voigt Hill
#
# Bulk Modulus (GPa) = 9.88373 37.25531 23.56952
# Shear Modulus (GPa) = 10.01428 20.61183 15.31306
#
# Velocity S-wave (km/s) = 2.32817 3.34013 2.87897
# Velocity P-wave (km/s) = 3.54640 5.91949 4.87941
#
# Compressibility (1/GPa) = 0.10117642
#
# Stress axis : x y z
#
# Youngs Moduli (GPa) = 7.88562 52.74710 73.85632
#
# Poissons Ratio (x) = 0.05603 1.67932
# Poissons Ratio (y) = 0.00838 0.38904
# Poissons Ratio (z) = 0.17930 0.27785
#
# Static dielectric constant tensor:
#      x y z
#    x 1.645570 0.000000 0.000000 
#    y 0.000000 1.634550 0.000000 
#    z 0.000000 0.000000 1.625800 
# 
# From -- ./inp_files/13131.got.cif
#   From: 2010.05.17/outbox.cif.g08.bks.cpg/sg40_7_cif.got.tgz:13131.got - 2010.06.03 18:35:42.
