data_PCOD9362107
_publ_section_title
;
Structure prediction by ZEFSAII (Michael W. Deem and Ramdas Pophale) SiO2 
 PCOD9362107
Probable space group: A B M 2
;
_chemical_formula_sum "Si O2"
_cell_formula_units_Z 40
_cell_length_a 5.267178
_cell_length_b 28.133456
_cell_length_c 9.084651
_cell_angle_alpha 90.000000
_cell_angle_beta 90.000000
_cell_angle_gamma 90.000000
_cell_volume 1346.199202
_symmetry_space_group_name_H-M "A B M 2"
_symmetry_group_IT_number 39
_symmetry_cell_setting 'orthorhombic'
loop_
_space_group_symop_operation_xyz
x,y,z
-x,-y,z
-x,1/2+y,z
x,1/2-y,z
x,1/2+y,1/2+z
-x,1/2-y,1/2+z
-x,y,1/2+z
x,-y,1/2+z
loop_
_atom_site_type_symbol
_atom_site_label
_atom_site_fract_x
_atom_site_fract_y
_atom_site_fract_z
Si Si1 0.429042 0.349598 0.644840
Si Si2 0.037440 0.552279 0.988223
Si Si3 0.957212 0.250000 0.952162
Si Si4 0.077506 0.348098 0.958835
Si Si5 0.635204 0.949210 0.253316
Si Si6 0.540614 0.750000 0.148306
O O1 0.142574 0.350350 0.584602
O O2 0.496547 0.399937 0.714885
O O3 0.485347 0.299892 0.729009
O O4 0.640267 0.344035 0.518315
O O5 0.329235 0.555474 0.932500
O O6 0.000000 0.500000 0.922333
O O7 0.941053 0.598581 0.900474
O O8 0.116829 0.448921 0.141523
O O9 0.000270 0.300395 0.873712
O O10 0.680473 0.250000 0.024113
O O11 0.178320 0.250000 0.077776
O O12 0.500000 0.000000 0.226396
#
# Coordination Sequence:
#
# PCOD9362107 Si02
#       6
#     8   8   4   8   8   4
#     4   9  18  35  60  93 133 178 230 288 351 421
#     4  11  24  44  67  98 138 185 236 295 360 430
#     4   8  14  28  53  88 128 172 225 282 343 414
#     4   9  18  34  60  93 132 179 230 287 351 422
#     4  11  25  45  70 102 143 189 242 301 367 438
#     4   8  14  28  55  88 126 174 225 280 345 416
#
# _framework density 29.713286
#
# number of rings (size 3 to 8) (size 9 to 14) (size 15 to 20)
#    0.000    2.400    0.000    1.800    0.000    5.600 
#    0.000    2.000    0.000    0.000    0.000   37.800 
#    0.000    0.000    0.000    0.000    0.000    0.000 
#
# Total GULP energy -111616.118634 kJ/mol
# GULP energy per Si atom -5580.805932 kJ/mol
# Density = 2.964566 g / cm^3
# Si number density = 29.713286 Si / 1000 Ang^3
#
#
#
# Elastic Constant Matrix: (Units=GPa)
#
#
# Indices 1 2 3 4 5 6 
#
# 1 185.3462 39.1988 96.8693 0.0000 0.0000 0.0000
# 2 39.1988 319.5880 77.6383 0.0000 0.0000 0.0000
# 3 96.8693 77.6383 126.9008 0.0000 0.0000 0.0000
# 4 0.0000 0.0000 0.0000 -25.0918 0.0000 0.0000
# 5 0.0000 0.0000 0.0000 0.0000 71.8933 0.0000
# 6 0.0000 0.0000 0.0000 0.0000 0.0000 42.8875
#
#
#
# Elastic Compliance Matrix: (Units=1/GPa)
#
#
# Indices 1 2 3 4 5 6 
#
# 1 0.009097 0.000671 -0.007355 0.000000 0.000000 0.000000
# 2 0.000671 0.003725 -0.002791 0.000000 0.000000 0.000000
# 3 -0.007355 -0.002791 0.015202 0.000000 0.000000 0.000000
# 4 0.000000 0.000000 0.000000 -0.039854 0.000000 0.000000
# 5 0.000000 0.000000 0.000000 0.000000 0.013910 0.000000
# 6 0.000000 0.000000 0.000000 0.000000 0.000000 0.023317
#
#
# Mechanical properties :
#
#
# Convention : Reuss Voigt Hill
#
# Bulk Modulus (GPa) = 110.20193 117.69418 113.94806
# Shear Modulus (GPa) = 105.54848 45.81304 75.68076
#
# Velocity S-wave (km/s) = 5.96653 3.93088 5.05229
# Velocity P-wave (km/s) = 9.19972 7.76520 8.51273
#
# Compressibility (1/GPa) = 0.00907425
#
# Stress axis : x y z
#
# Youngs Moduli (GPa) = 109.92153 268.47428 65.78060
#
# Poissons Ratio (x) = -0.18012 0.48381
# Poissons Ratio (y) = -0.07375 0.18359
# Poissons Ratio (z) = 0.80847 0.74930
#
# Static dielectric constant tensor:
#      x y z
#    x 2.352560 0.000000 0.000000 
#    y 0.000000 2.356100 0.000000 
#    z 0.000000 0.000000 2.237200 
# 
# From -- ./inp_files/4534.got.cif
#   From: 2010.05.17/outbox.cif.g08.bks.cpg/sg39_3_cif.got.tgz:4534.got - 2010.06.03 18:22:40.
