data_PCOD9362924
_publ_section_title
;
Structure prediction by ZEFSAII (Michael W. Deem and Ramdas Pophale) SiO2 
 PCOD9362924
Probable space group: A M A 2
;
_chemical_formula_sum "Si O2"
_cell_formula_units_Z 56
_cell_length_a 8.715482
_cell_length_b 19.656461
_cell_length_c 17.507303
_cell_angle_alpha 90.000000
_cell_angle_beta 90.000000
_cell_angle_gamma 90.000000
_cell_volume 2999.272928
_symmetry_space_group_name_H-M "A M A 2"
_symmetry_group_IT_number 40
_symmetry_cell_setting 'orthorhombic'
loop_
_space_group_symop_operation_xyz
x,y,z
-x,-y,z
1/2-x,y,z
1/2+x,-y,z
x,1/2+y,1/2+z
-x,1/2-y,1/2+z
1/2-x,1/2+y,1/2+z
1/2+x,1/2-y,1/2+z
loop_
_atom_site_type_symbol
_atom_site_label
_atom_site_fract_x
_atom_site_fract_y
_atom_site_fract_z
Si Si1 0.068390 0.213524 0.084750
Si Si2 0.069471 0.354765 0.168114
Si Si3 0.935060 0.205180 0.435896
Si Si4 0.423372 0.069217 0.107195
Si Si5 0.424993 0.569401 0.422793
Si Si6 0.566746 0.424693 0.019591
Si Si7 0.068074 0.313006 0.332828
O O1 0.250000 0.198890 0.071776
O O2 0.058580 0.276528 0.141226
O O3 0.001375 0.143576 0.117914
O O4 0.011278 0.244234 0.004732
O O5 0.250000 0.374544 0.166357
O O6 0.013255 0.349896 0.254904
O O7 0.983693 0.399495 0.104675
O O8 0.750000 0.202032 0.437345
O O9 0.000265 0.131644 0.460261
O O10 0.991489 0.242024 0.358832
O O11 0.250000 0.069864 0.137234
O O12 0.500000 0.000000 0.135273
O O13 0.419786 0.065178 0.014639
O O14 0.500000 0.500000 0.393641
O O15 0.250000 0.578311 0.396266
O O16 0.527011 0.632006 0.396982
O O17 0.500000 0.500000 0.006249
O O18 0.750000 0.425564 0.014613
O O19 0.250000 0.302368 0.325540
#
# Coordination Sequence:
#
# PCOD9362924 Si02
#       7
#     8   8   8   8   8   8   8
#     4   8  14  30  51  69  93 129 171 211 259 313
#     4   9  20  36  54  76 106 144 181 222 275 330
#     4  10  19  35  57  79 106 142 182 228 278 326
#     4   9  16  27  44  68  93 123 160 198 246 299
#     4  10  19  31  46  69 100 136 170 208 257 309
#     4  11  22  38  60  86 112 143 186 235 286 342
#     4  11  21  33  51  79 110 143 185 228 271 326
#
# _framework density 18.671192999999999
#
# number of rings (size 3 to 8) (size 9 to 14) (size 15 to 20)
#    0.000    2.286    1.429    3.429    0.000    2.286 
#    0.000    0.714    0.000    0.857    0.000    2.000 
#    0.000    0.000    0.000    0.000    0.000    0.000 
#
# Total GULP energy -155927.882850 kJ/mol
# GULP energy per Si atom -5568.852959 kJ/mol
# Density = 1.862870 g / cm^3
# Si number density = 18.671193 Si / 1000 Ang^3
#
#
#
# Elastic Constant Matrix: (Units=GPa)
#
#
# Indices 1 2 3 4 5 6 
#
# 1 63.2514 28.2092 10.4593 0.0000 0.0000 0.0000
# 2 28.2092 129.5654 0.6548 0.0000 0.0000 0.0000
# 3 10.4593 0.6548 20.8970 0.0000 0.0000 0.0000
# 4 0.0000 0.0000 0.0000 6.0204 0.0000 0.0000
# 5 0.0000 0.0000 0.0000 0.0000 15.5640 0.0000
# 6 0.0000 0.0000 0.0000 0.0000 0.0000 29.6414
#
#
#
# Elastic Compliance Matrix: (Units=1/GPa)
#
#
# Indices 1 2 3 4 5 6 
#
# 1 0.019225 -0.004138 -0.009493 0.000000 0.000000 0.000000
# 2 -0.004138 0.008610 0.001801 0.000000 0.000000 0.000000
# 3 -0.009493 0.001801 0.052549 0.000000 0.000000 0.000000
# 4 0.000000 0.000000 0.000000 0.166101 0.000000 0.000000
# 5 0.000000 0.000000 0.000000 0.000000 0.064251 0.000000
# 6 0.000000 0.000000 0.000000 0.000000 0.000000 0.033737
#
#
# Mechanical properties :
#
#
# Convention : Reuss Voigt Hill
#
# Bulk Modulus (GPa) = 17.62897 32.48449 25.05673
# Shear Modulus (GPa) = 12.91861 21.87121 17.39491
#
# Velocity S-wave (km/s) = 2.63325 3.42627 3.05560
# Velocity P-wave (km/s) = 4.32524 5.75225 5.08901
#
# Compressibility (1/GPa) = 0.05672482
#
# Stress axis : x y z
#
# Youngs Moduli (GPa) = 52.01557 116.14565 19.03004
#
# Poissons Ratio (x) = 0.48058 0.18065
# Poissons Ratio (y) = 0.21523 -0.03428
# Poissons Ratio (z) = 0.49377 -0.20920
#
# Static dielectric constant tensor:
#      x y z
#    x 1.648140 0.000000 0.000000 
#    y 0.000000 1.683750 0.000000 
#    z 0.000000 0.000000 1.679720 
# 
# From -- ./inp_files/22481.got.cif
#   From: 2010.05.17/outbox.cif.g08.bks.cpg/sg40_12_cif.got.tgz:22481.got - 2010.06.03 18:35:42.
