data_PCOD9362119
_publ_section_title
;
Structure prediction by ZEFSAII (Michael W. Deem and Ramdas Pophale) SiO2 
 PCOD9362119
Probable space group: A B M 2
;
_chemical_formula_sum "Si O2"
_cell_formula_units_Z 60
_cell_length_a 12.405406
_cell_length_b 24.789696
_cell_length_c 9.232419
_cell_angle_alpha 90.000000
_cell_angle_beta 90.000000
_cell_angle_gamma 90.000000
_cell_volume 2839.211133
_symmetry_space_group_name_H-M "A B M 2"
_symmetry_group_IT_number 39
_symmetry_cell_setting 'orthorhombic'
loop_
_space_group_symop_operation_xyz
x,y,z
-x,-y,z
-x,1/2+y,z
x,1/2-y,z
x,1/2+y,1/2+z
-x,1/2-y,1/2+z
-x,y,1/2+z
x,-y,1/2+z
loop_
_atom_site_type_symbol
_atom_site_label
_atom_site_fract_x
_atom_site_fract_y
_atom_site_fract_z
Si Si1 0.294443 0.311978 0.064990
Si Si2 0.672806 0.160848 0.228537
Si Si3 0.611044 0.467884 0.943585
Si Si4 0.592692 0.250000 0.995542
Si Si5 0.239615 0.009146 0.183725
Si Si6 0.889579 0.111504 0.565812
Si Si7 0.886987 0.095828 0.223081
Si Si8 0.552376 0.642757 0.305990
O O1 0.312815 0.250000 0.106203
O O2 0.175094 0.333461 0.097147
O O3 0.375624 0.347640 0.161870
O O4 0.307646 0.317196 0.892237
O O5 0.638389 0.203973 0.109785
O O6 0.781713 0.130937 0.182828
O O7 0.566267 0.125339 0.254643
O O8 0.500000 0.500000 0.915132
O O9 0.711714 0.483130 0.841645
O O10 0.593780 0.404676 0.909770
O O11 0.657700 0.486783 0.096282
O O12 0.551193 0.200969 0.885881
O O13 0.188381 0.063769 0.122048
O O14 0.145791 0.965050 0.186950
O O15 0.902782 0.103318 0.394497
O O16 0.004567 0.111027 0.641492
#
# Coordination Sequence:
#
# PCOD9362119 Si02
#       8
#     8   8   8   4   8   8   8   8
#     4  11  24  47  70  98 144 184 230 287 356 426
#     4  11  25  43  68 103 141 183 230 289 357 419
#     4  12  27  44  70 108 150 193 226 290 362 434
#     4  12  24  40  68 110 136 186 234 290 338 418
#     4  12  24  45  71 102 143 185 239 289 355 431
#     4  11  26  46  73 101 132 188 239 295 357 417
#     4  11  26  47  71 101 138 182 241 301 352 424
#     4  12  25  41  72 106 145 185 235 283 352 433
#
# _framework density 21.132632000000001
#
# number of rings (size 3 to 8) (size 9 to 14) (size 15 to 20)
#    0.000    0.533    4.000    3.600    5.600    4.267 
#    1.200    0.000    0.000    0.000    0.000    0.000 
#    0.000    0.000    0.000    0.000    0.000    0.000 
#
# Total GULP energy -167235.501133 kJ/mol
# GULP energy per Si atom -5574.516704 kJ/mol
# Density = 2.108453 g / cm^3
# Si number density = 21.132632 Si / 1000 Ang^3
#
#
#
# Elastic Constant Matrix: (Units=GPa)
#
#
# Indices 1 2 3 4 5 6 
#
# 1 129.0602 19.0985 24.3077 0.0000 0.0000 0.0000
# 2 19.0985 65.7946 10.9588 0.0000 0.0000 0.0000
# 3 24.3077 10.9588 38.1580 0.0000 0.0000 0.0000
# 4 0.0000 0.0000 0.0000 29.5549 0.0000 0.0000
# 5 0.0000 0.0000 0.0000 0.0000 35.8811 0.0000
# 6 0.0000 0.0000 0.0000 0.0000 0.0000 19.7154
#
#
#
# Elastic Compliance Matrix: (Units=1/GPa)
#
#
# Indices 1 2 3 4 5 6 
#
# 1 0.008990 -0.001739 -0.005228 0.000000 0.000000 0.000000
# 2 -0.001739 0.016299 -0.003573 0.000000 0.000000 0.000000
# 3 -0.005228 -0.003573 0.030563 0.000000 0.000000 0.000000
# 4 0.000000 0.000000 0.000000 0.033835 0.000000 0.000000
# 5 0.000000 0.000000 0.000000 0.000000 0.027870 0.000000
# 6 0.000000 0.000000 0.000000 0.000000 0.000000 0.050722
#
#
# Mechanical properties :
#
#
# Convention : Reuss Voigt Hill
#
# Bulk Modulus (GPa) = 28.75820 37.97141 33.36481
# Shear Modulus (GPa) = 24.88190 28.94014 26.91102
#
# Velocity S-wave (km/s) = 3.43507 3.70463 3.57239
# Velocity P-wave (km/s) = 5.41950 6.02546 5.73049
#
# Compressibility (1/GPa) = 0.03477269
#
# Stress axis : x y z
#
# Youngs Moduli (GPa) = 111.23175 61.35442 32.71917
#
# Poissons Ratio (x) = 0.10669 0.17104
# Poissons Ratio (y) = 0.19342 0.11691
# Poissons Ratio (z) = 0.58148 0.21923
#
# Static dielectric constant tensor:
#      x y z
#    x 1.732830 0.000000 0.000000 
#    y 0.000000 1.775340 0.000000 
#    z 0.000000 0.000000 1.761920 
# 
# From -- ./inp_files/2829.got.cif
#   From: 2010.05.17/outbox.cif.g08.bks.cpg/sg39_2_cif.got.tgz:2829.got - 2010.06.03 18:22:40.
