data_PCOD9362933
_publ_section_title
;
Structure prediction by ZEFSAII (Michael W. Deem and Ramdas Pophale) SiO2 
 PCOD9362933
Probable space group: A M A 2
;
_chemical_formula_sum "Si O2"
_cell_formula_units_Z 64
_cell_length_a 8.403227
_cell_length_b 16.706099
_cell_length_c 23.188940
_cell_angle_alpha 90.000000
_cell_angle_beta 90.000000
_cell_angle_gamma 90.000000
_cell_volume 3255.382639
_symmetry_space_group_name_H-M "A M A 2"
_symmetry_group_IT_number 40
_symmetry_cell_setting 'orthorhombic'
loop_
_space_group_symop_operation_xyz
x,y,z
-x,-y,z
1/2-x,y,z
1/2+x,-y,z
x,1/2+y,1/2+z
-x,1/2-y,1/2+z
1/2-x,1/2+y,1/2+z
1/2+x,1/2-y,1/2+z
loop_
_atom_site_type_symbol
_atom_site_label
_atom_site_fract_x
_atom_site_fract_y
_atom_site_fract_z
Si Si1 0.066652 0.613284 0.065230
Si Si2 0.942342 0.418653 0.190910
Si Si3 0.056049 0.756774 0.225991
Si Si4 0.442608 0.270191 0.852462
Si Si5 0.057109 0.587562 0.382685
Si Si6 0.565124 0.919312 0.013382
Si Si7 0.932445 0.701884 0.600729
Si Si8 0.941620 0.912602 0.435637
O O1 0.250000 0.583959 0.063564
O O2 0.992217 0.582653 0.125005
O O3 0.071450 0.707791 0.077329
O O4 0.997492 0.595873 0.002249
O O5 0.750000 0.417661 0.188731
O O6 0.991818 0.336574 0.221274
O O7 0.000000 0.500000 0.219301
O O8 0.250000 0.757244 0.224168
O O9 0.007718 0.792559 0.287094
O O10 0.004696 0.797473 0.166248
O O11 0.250000 0.271502 0.856286
O O12 0.490326 0.176207 0.859883
O O13 0.504525 0.335716 0.898087
O O14 0.250000 0.586059 0.378725
O O15 0.996500 0.590416 0.449207
O O16 0.000000 0.500000 0.360084
O O17 0.750000 0.928506 0.004311
O O18 0.530886 0.847812 0.055635
O O19 0.500000 0.000000 0.040499
O O20 0.750000 0.672226 0.601175
O O21 0.750000 0.911969 0.436552
O O22 0.000000 0.000000 0.414251
#
# Coordination Sequence:
#
# PCOD9362933 Si02
#       8
#     8   8   8   8   8   8   8   8
#     4   8  16  30  50  74 102 131 160 195 246 305
#     4   9  16  29  48  73 102 132 161 194 238 294
#     4   8  17  33  52  70  95 131 168 201 244 297
#     4  10  20  37  56  75 102 139 177 216 256 299
#     4   9  19  33  52  78 109 140 171 206 252 306
#     4  10  19  31  47  72 101 128 158 199 248 300
#     4   9  16  31  53  74  95 126 163 201 245 297
#     4  11  22  36  54  78 104 135 173 216 261 308
#
# _framework density 19.659748
#
# number of rings (size 3 to 8) (size 9 to 14) (size 15 to 20)
#    0.000    2.750    0.000    3.375    0.000    1.500 
#    0.000    5.625    0.000    0.000    0.000    0.000 
#    0.000    0.000    0.000    0.000    0.000    0.000 
#
# Total GULP energy -178189.689738 kJ/mol
# GULP energy per Si atom -5568.427804 kJ/mol
# Density = 1.961500 g / cm^3
# Si number density = 19.659748 Si / 1000 Ang^3
#
#
#
# Elastic Constant Matrix: (Units=GPa)
#
#
# Indices 1 2 3 4 5 6 
#
# 1 14.3928 12.5264 8.6714 0.0000 0.0000 0.0000
# 2 12.5264 72.5543 38.3417 0.0000 0.0000 0.0000
# 3 8.6714 38.3417 102.1025 0.0000 0.0000 0.0000
# 4 0.0000 0.0000 0.0000 3.6156 0.0000 0.0000
# 5 0.0000 0.0000 0.0000 0.0000 11.1344 0.0000
# 6 0.0000 0.0000 0.0000 0.0000 0.0000 30.2928
#
#
#
# Elastic Compliance Matrix: (Units=1/GPa)
#
#
# Indices 1 2 3 4 5 6 
#
# 1 0.082110 -0.013088 -0.002058 0.000000 0.000000 0.000000
# 2 -0.013088 0.019281 -0.006129 0.000000 0.000000 0.000000
# 3 -0.002058 -0.006129 0.012270 0.000000 0.000000 0.000000
# 4 0.000000 0.000000 0.000000 0.276579 0.000000 0.000000
# 5 0.000000 0.000000 0.000000 0.000000 0.089811 0.000000
# 6 0.000000 0.000000 0.000000 0.000000 0.000000 0.033011
#
#
# Mechanical properties :
#
#
# Convention : Reuss Voigt Hill
#
# Bulk Modulus (GPa) = 14.06266 34.23652 24.14959
# Shear Modulus (GPa) = 8.63082 17.64258 13.13670
#
# Velocity S-wave (km/s) = 2.09753 2.99891 2.58777
# Velocity P-wave (km/s) = 3.61036 5.42619 4.60860
#
# Compressibility (1/GPa) = 0.07111032
#
# Stress axis : x y z
#
# Youngs Moduli (GPa) = 12.17874 51.86343 81.49638
#
# Poissons Ratio (x) = 0.67881 0.16776
# Poissons Ratio (y) = 0.15940 0.49949
# Poissons Ratio (z) = 0.02507 0.31787
#
# Static dielectric constant tensor:
#      x y z
#    x 1.698560 0.000000 0.000000 
#    y 0.000000 1.706390 0.000000 
#    z 0.000000 0.000000 1.721840 
# 
# From -- ./inp_files/24277.got.cif
#   From: 2010.05.17/outbox.cif.g08.bks.cpg/sg40_13_cif.got.tgz:24277.got - 2010.06.03 18:35:42.
