data_PCOD9362387
_publ_section_title
;
Structure prediction by ZEFSAII (Michael W. Deem and Ramdas Pophale) SiO2 
 PCOD9362387
Probable space group: A M A 2
;
_chemical_formula_sum "Si O2"
_cell_formula_units_Z 64
_cell_length_a 8.205465
_cell_length_b 19.096987
_cell_length_c 27.520439
_cell_angle_alpha 90.000000
_cell_angle_beta 90.000000
_cell_angle_gamma 90.000000
_cell_volume 4312.443391
_symmetry_space_group_name_H-M "A M A 2"
_symmetry_group_IT_number 40
_symmetry_cell_setting 'orthorhombic'
loop_
_space_group_symop_operation_xyz
x,y,z
-x,-y,z
1/2-x,y,z
1/2+x,-y,z
x,1/2+y,1/2+z
-x,1/2-y,1/2+z
1/2-x,1/2+y,1/2+z
1/2+x,1/2-y,1/2+z
loop_
_atom_site_type_symbol
_atom_site_label
_atom_site_fract_x
_atom_site_fract_y
_atom_site_fract_z
Si Si1 0.560140 0.205789 0.587270
Si Si2 0.947385 0.165822 0.433165
Si Si3 0.944857 0.920135 0.232416
Si Si4 0.444652 0.919991 0.340270
Si Si5 0.440577 0.286005 0.494107
Si Si6 0.050339 0.160280 0.137450
Si Si7 0.945099 0.920298 0.039096
Si Si8 0.446837 0.420369 0.029011
O O1 0.750000 0.195629 0.599354
O O2 0.545636 0.249122 0.536764
O O3 0.491188 0.260705 0.626216
O O4 0.490643 0.130271 0.572419
O O5 0.750000 0.169251 0.433083
O O6 0.003473 0.131333 0.382865
O O7 0.997847 0.114669 0.477766
O O8 0.014940 0.242540 0.446076
O O9 0.750000 0.919153 0.231870
O O10 0.004963 0.871963 0.188271
O O11 0.001076 0.899176 0.286218
O O12 0.000000 0.000000 0.224233
O O13 0.250000 0.920113 0.341481
O O14 0.500000 0.000000 0.349021
O O15 0.250000 0.276120 0.504790
O O16 0.482961 0.367599 0.498733
O O17 0.250000 0.161747 0.137474
O O18 0.002695 0.111052 0.091843
O O19 0.750000 0.916721 0.036995
O O20 0.000000 0.000000 0.034133
O O21 0.500000 0.500000 0.032757
O O22 0.250000 0.417755 0.029794
#
# Coordination Sequence:
#
# PCOD9362387 Si02
#       8
#     8   8   8   8   8   8   8   8
#     4   8  15  29  42  54  77 108 137 165 200 240
#     4   9  18  31  43  55  76 109 140 165 199 240
#     4  10  18  28  41  58  80 105 135 170 205 238
#     4  10  19  30  43  59  81 108 138 171 207 242
#     4  10  18  27  41  61  81 103 133 168 204 240
#     4   8  15  27  43  58  76 107 141 170 201 239
#     4  10  18  29  43  60  84 111 140 170 201 239
#     4   9  16  25  39  57  78 103 131 163 196 234
#
# _framework density 14.840775000000001
#
# number of rings (size 3 to 8) (size 9 to 14) (size 15 to 20)
#    0.000    2.750    0.000    5.250    0.000    3.000 
#    0.000    5.625    0.000    0.000    0.000    0.000 
#    0.000    1.000    0.000    9.250    0.000    2.750 
#
# Total GULP energy -178179.371589 kJ/mol
# GULP energy per Si atom -5568.105362 kJ/mol
# Density = 1.480700 g / cm^3
# Si number density = 14.840775 Si / 1000 Ang^3
#
#
#
# Elastic Constant Matrix: (Units=GPa)
#
#
# Indices 1 2 3 4 5 6 
#
# 1 24.0148 12.2225 14.5610 0.0000 0.0000 0.0000
# 2 12.2225 124.8162 70.0258 0.0000 0.0000 0.0000
# 3 14.5610 70.0258 102.5490 0.0000 0.0000 0.0000
# 4 0.0000 0.0000 0.0000 29.8373 0.0000 0.0000
# 5 0.0000 0.0000 0.0000 0.0000 92.7961 0.0000
# 6 0.0000 0.0000 0.0000 0.0000 0.0000 19.1130
#
#
#
# Elastic Compliance Matrix: (Units=1/GPa)
#
#
# Indices 1 2 3 4 5 6 
#
# 1 0.045704 -0.001353 -0.005566 0.000000 0.000000 0.000000
# 2 -0.001353 0.013027 -0.008704 0.000000 0.000000 0.000000
# 3 -0.005566 -0.008704 0.016485 0.000000 0.000000 0.000000
# 4 0.000000 0.000000 0.000000 0.033515 0.000000 0.000000
# 5 0.000000 0.000000 0.000000 0.000000 0.010776 0.000000
# 6 0.000000 0.000000 0.000000 0.000000 0.000000 0.052320
#
#
# Mechanical properties :
#
#
# Convention : Reuss Voigt Hill
#
# Bulk Modulus (GPa) = 22.74178 49.44430 36.09304
# Shear Modulus (GPa) = 22.96421 38.65400 30.80910
#
# Velocity S-wave (km/s) = 3.93793 5.10905 4.56123
# Velocity P-wave (km/s) = 6.00279 8.25784 7.21892
#
# Compressibility (1/GPa) = 0.04397194
#
# Stress axis : x y z
#
# Youngs Moduli (GPa) = 21.87981 76.76209 60.66133
#
# Poissons Ratio (x) = 0.10386 0.33762
# Poissons Ratio (y) = 0.02960 0.52797
# Poissons Ratio (z) = 0.12178 0.66810
#
# Static dielectric constant tensor:
#      x y z
#    x 1.519730 0.000000 0.000000 
#    y 0.000000 1.509300 0.000000 
#    z 0.000000 0.000000 1.494630 
# 
# From -- ./inp_files/25549.got.cif
#   From: 2010.05.17/outbox.cif.g08.bks.cpg/sg40_13_cif.got.tgz:25549.got - 2010.06.03 18:35:42.
