data_PCOD9362685
_publ_section_title
;
Structure prediction by ZEFSAII (Michael W. Deem and Ramdas Pophale) SiO2 
 PCOD9362685
Probable space group: A M A 2
;
_chemical_formula_sum "Si O2"
_cell_formula_units_Z 64
_cell_length_a 29.426940
_cell_length_b 11.539024
_cell_length_c 8.464695
_cell_angle_alpha 90.000000
_cell_angle_beta 90.000000
_cell_angle_gamma 90.000000
_cell_volume 2874.256318
_symmetry_space_group_name_H-M "A M A 2"
_symmetry_group_IT_number 40
_symmetry_cell_setting 'orthorhombic'
loop_
_space_group_symop_operation_xyz
x,y,z
-x,-y,z
1/2-x,y,z
1/2+x,-y,z
x,1/2+y,1/2+z
-x,1/2-y,1/2+z
1/2-x,1/2+y,1/2+z
1/2+x,1/2-y,1/2+z
loop_
_atom_site_type_symbol
_atom_site_label
_atom_site_fract_x
_atom_site_fract_y
_atom_site_fract_z
Si Si1 0.102044 0.163082 0.524280
Si Si2 0.887683 0.106539 0.180613
Si Si3 0.456205 0.307287 0.937173
Si Si4 0.981732 0.387416 0.214827
Si Si5 0.299869 0.057474 0.472207
Si Si6 0.396389 0.657861 0.672845
Si Si7 0.299884 0.198311 0.162982
Si Si8 0.699935 0.190486 0.358218
O O1 0.096985 0.300463 0.552091
O O2 0.070246 0.104539 0.655681
O O3 0.154171 0.116886 0.534161
O O4 0.084440 0.141863 0.348044
O O5 0.922388 0.117846 0.328434
O O6 0.840616 0.163336 0.241551
O O7 0.884147 0.974492 0.124540
O O8 0.484969 0.227127 0.819323
O O9 0.487283 0.374788 0.059570
O O10 0.426553 0.219315 0.043534
O O11 0.000000 0.500000 0.303739
O O12 0.250000 0.093476 0.536560
O O13 0.298404 0.089705 0.284183
O O14 0.303020 0.919049 0.479364
O O15 0.351218 0.737374 0.699094
O O16 0.250000 0.254297 0.194544
O O17 0.302523 0.196867 0.971455
O O18 0.750000 0.186485 0.284608
#
# Coordination Sequence:
#
# PCOD9362685 Si02
#       8
#     8   8   8   8   8   8   8   8
#     4  10  22  39  61  93 121 154 205 247 296 361
#     4  11  22  38  61  93 120 159 207 249 300 363
#     4  11  25  42  63  90 120 155 206 248 309 363
#     4  11  25  43  65  91 122 159 200 253 306 362
#     4   9  18  35  58  86 123 161 199 245 298 353
#     4  11  21  39  63  84 123 163 195 253 305 352
#     4   9  17  30  55  86 115 157 203 238 291 356
#     4  10  18  32  59  88 120 163 202 244 298 353
#
# _framework density 22.266629999999999
#
# number of rings (size 3 to 8) (size 9 to 14) (size 15 to 20)
#    0.000    1.750    3.750    1.500    0.000    3.500 
#    0.000    4.375    0.000    0.000    0.000    0.000 
#    0.000    0.000    0.000    0.000    0.000    0.000 
#
# Total GULP energy -178145.574773 kJ/mol
# GULP energy per Si atom -5567.049212 kJ/mol
# Density = 2.221595 g / cm^3
# Si number density = 22.266630 Si / 1000 Ang^3
#
#
#
# Elastic Constant Matrix: (Units=GPa)
#
#
# Indices 1 2 3 4 5 6 
#
# 1 92.0096 39.2925 4.0263 0.0000 0.0000 0.0000
# 2 39.2925 88.9868 32.2784 0.0000 0.0000 0.0000
# 3 4.0263 32.2784 27.3364 0.0000 0.0000 0.0000
# 4 0.0000 0.0000 0.0000 21.1064 0.0000 0.0000
# 5 0.0000 0.0000 0.0000 0.0000 19.8670 0.0000
# 6 0.0000 0.0000 0.0000 0.0000 0.0000 25.4438
#
#
#
# Elastic Compliance Matrix: (Units=1/GPa)
#
#
# Indices 1 2 3 4 5 6 
#
# 1 0.014713 -0.009989 0.009628 0.000000 0.000000 0.000000
# 2 -0.009989 0.026438 -0.029747 0.000000 0.000000 0.000000
# 3 0.009628 -0.029747 0.070288 0.000000 0.000000 0.000000
# 4 0.000000 0.000000 0.000000 0.047379 0.000000 0.000000
# 5 0.000000 0.000000 0.000000 0.000000 0.050335 0.000000
# 6 0.000000 0.000000 0.000000 0.000000 0.000000 0.039302
#
#
# Mechanical properties :
#
#
# Convention : Reuss Voigt Hill
#
# Bulk Modulus (GPa) = 19.52251 39.94746 29.73498
# Shear Modulus (GPa) = 15.34944 22.13248 18.74096
#
# Velocity S-wave (km/s) = 2.62839 3.15616 2.90429
# Velocity P-wave (km/s) = 4.24239 5.59117 4.96282
#
# Compressibility (1/GPa) = 0.05122293
#
# Stress axis : x y z
#
# Youngs Moduli (GPa) = 67.96809 37.82398 14.22726
#
# Poissons Ratio (x) = 0.37781 -0.13697
# Poissons Ratio (y) = 0.67891 0.42321
# Poissons Ratio (z) = -0.65436 1.12514
#
# Static dielectric constant tensor:
#      x y z
#    x 1.879790 0.000000 0.000000 
#    y 0.000000 1.821750 0.000000 
#    z 0.000000 0.000000 1.830460 
# 
# From -- ./inp_files/9437.got.cif
#   From: 2010.05.17/outbox.cif.g08.bks.cpg/sg40_5_cif.got.tgz:9437.got - 2010.06.03 18:35:42.
