data_PCOD9362570
_publ_section_title
;
Structure prediction by ZEFSAII (Michael W. Deem and Ramdas Pophale) SiO2 
 PCOD9362570
Probable space group: A M A 2
;
_chemical_formula_sum "Si O2"
_cell_formula_units_Z 52
_cell_length_a 9.229739
_cell_length_b 10.960544
_cell_length_c 27.053396
_cell_angle_alpha 90.000000
_cell_angle_beta 90.000000
_cell_angle_gamma 90.000000
_cell_volume 2736.801629
_symmetry_space_group_name_H-M "A M A 2"
_symmetry_group_IT_number 40
_symmetry_cell_setting 'orthorhombic'
loop_
_space_group_symop_operation_xyz
x,y,z
-x,-y,z
1/2-x,y,z
1/2+x,-y,z
x,1/2+y,1/2+z
-x,1/2-y,1/2+z
1/2-x,1/2+y,1/2+z
1/2+x,1/2-y,1/2+z
loop_
_atom_site_type_symbol
_atom_site_label
_atom_site_fract_x
_atom_site_fract_y
_atom_site_fract_z
Si Si1 0.422721 0.875139 0.625000
Si Si2 0.421831 0.373034 0.785361
Si Si3 0.083909 0.762757 0.383309
Si Si4 0.075256 0.367314 0.668888
Si Si5 0.905669 0.349941 0.030886
Si Si6 0.414919 0.881229 0.966305
Si Si7 0.500000 0.000000 0.440712
O O1 0.250000 0.874710 0.633885
O O2 0.498759 0.749451 0.643384
O O3 0.460626 0.877088 0.566423
O O4 0.500000 0.000000 0.644706
O O5 0.500000 0.500000 0.795696
O O6 0.250000 0.389182 0.792453
O O7 0.468047 0.275686 0.826769
O O8 0.445442 0.344896 0.727857
O O9 0.250000 0.720962 0.384438
O O10 0.988574 0.679238 0.418519
O O11 0.075665 0.898798 0.407008
O O12 0.250000 0.372402 0.658995
O O13 0.000000 0.500000 0.657676
O O14 0.750000 0.368144 0.056953
O O15 0.918230 0.212834 0.011538
O O16 0.904514 0.425558 0.980033
O O17 0.250000 0.909958 0.954563
O O18 0.500000 0.000000 0.980836
#
# Coordination Sequence:
#
# PCOD9362570 Si02
#       7
#     8   8   8   8   8   8   4
#     4  12  25  41  63  89 120 158 202 254 312 366
#     4   9  18  33  56  86 117 151 190 240 293 348
#     4  10  19  32  54  84 117 151 187 230 282 340
#     4  10  21  40  64  90 122 157 202 253 307 367
#     4  10  21  36  56  83 114 148 189 235 287 348
#     4  10  22  38  55  78 111 152 195 237 284 344
#     4  10  18  30  56  86 120 146 184 220 284 336
#
# _framework density 19.000281999999999
#
# number of rings (size 3 to 8) (size 9 to 14) (size 15 to 20)
#    0.000    1.846    1.538    2.769    0.000    5.538 
#    0.000    2.308    0.000    0.000    0.000    0.000 
#    0.000    0.000    0.000    0.000    0.000    0.000 
#
# Total GULP energy -144930.081331 kJ/mol
# GULP energy per Si atom -5574.233897 kJ/mol
# Density = 1.895704 g / cm^3
# Si number density = 19.000282 Si / 1000 Ang^3
#
#
#
# Elastic Constant Matrix: (Units=GPa)
#
#
# Indices 1 2 3 4 5 6 
#
# 1 117.2386 54.7084 23.2268 0.0000 0.0000 0.0000
# 2 54.7084 111.4290 16.9110 0.0000 0.0000 0.0000
# 3 23.2268 16.9110 49.2720 0.0000 0.0000 0.0000
# 4 0.0000 0.0000 0.0000 17.4003 0.0000 0.0000
# 5 0.0000 0.0000 0.0000 0.0000 32.6915 0.0000
# 6 0.0000 0.0000 0.0000 0.0000 0.0000 13.2346
#
#
#
# Elastic Compliance Matrix: (Units=1/GPa)
#
#
# Indices 1 2 3 4 5 6 
#
# 1 0.011681 -0.005169 -0.003732 0.000000 0.000000 0.000000
# 2 -0.005169 0.011754 -0.001598 0.000000 0.000000 0.000000
# 3 -0.003732 -0.001598 0.022603 0.000000 0.000000 0.000000
# 4 0.000000 0.000000 0.000000 0.057470 0.000000 0.000000
# 5 0.000000 0.000000 0.000000 0.000000 0.030589 0.000000
# 6 0.000000 0.000000 0.000000 0.000000 0.000000 0.075559
#
#
# Mechanical properties :
#
#
# Convention : Reuss Voigt Hill
#
# Bulk Modulus (GPa) = 39.93451 51.95914 45.94683
# Shear Modulus (GPa) = 20.92033 24.87153 22.89593
#
# Velocity S-wave (km/s) = 3.32181 3.62195 3.47512
# Velocity P-wave (km/s) = 5.98131 6.70054 6.35111
#
# Compressibility (1/GPa) = 0.02504100
#
# Stress axis : x y z
#
# Youngs Moduli (GPa) = 85.60963 85.07432 44.24116
#
# Poissons Ratio (x) = 0.43971 0.16513
# Poissons Ratio (y) = 0.44248 0.07069
# Poissons Ratio (z) = 0.31953 0.13594
#
# Static dielectric constant tensor:
#      x y z
#    x 1.659430 0.000000 0.000000 
#    y 0.000000 1.684250 0.000000 
#    z 0.000000 0.000000 1.673170 
# 
# From -- ./inp_files/25335.got.cif
#   From: 2010.05.17/outbox.cif.g08.bks.cpg/sg40_13_cif.got.tgz:25335.got - 2010.06.03 18:35:42.
