data_PCOD9362885
_publ_section_title
;
Structure prediction by ZEFSAII (Michael W. Deem and Ramdas Pophale) SiO2 
 PCOD9362885
Probable space group: A M A 2
;
_chemical_formula_sum "Si O2"
_cell_formula_units_Z 64
_cell_length_a 7.712676
_cell_length_b 21.222995
_cell_length_c 20.387518
_cell_angle_alpha 90.000000
_cell_angle_beta 90.000000
_cell_angle_gamma 90.000000
_cell_volume 3337.152988
_symmetry_space_group_name_H-M "A M A 2"
_symmetry_group_IT_number 40
_symmetry_cell_setting 'orthorhombic'
loop_
_space_group_symop_operation_xyz
x,y,z
-x,-y,z
1/2-x,y,z
1/2+x,-y,z
x,1/2+y,1/2+z
-x,1/2-y,1/2+z
1/2-x,1/2+y,1/2+z
1/2+x,1/2-y,1/2+z
loop_
_atom_site_type_symbol
_atom_site_label
_atom_site_fract_x
_atom_site_fract_y
_atom_site_fract_z
Si Si1 0.043988 0.752036 0.947200
Si Si2 0.040625 0.689554 0.582760
Si Si3 0.049574 0.391646 0.944541
Si Si4 0.962918 0.688412 0.166218
Si Si5 0.456307 0.070547 0.165164
Si Si6 0.951104 0.729717 0.304017
Si Si7 0.541556 0.569021 0.082833
Si Si8 0.045363 0.872989 0.301895
O O1 0.250000 0.740355 0.940494
O O2 0.976332 0.777739 0.877323
O O3 0.959312 0.683563 0.958489
O O4 0.014097 0.797325 0.008381
O O5 0.250000 0.688928 0.583568
O O6 0.983502 0.749502 0.626023
O O7 0.977767 0.625254 0.616560
O O8 0.250000 0.411925 0.941000
O O9 0.975832 0.399945 0.871203
O O10 0.970149 0.423950 0.008550
O O11 0.750000 0.688889 0.167339
O O12 0.026140 0.694644 0.240950
O O13 0.020614 0.626057 0.128288
O O14 0.250000 0.076660 0.168069
O O15 0.521861 0.083889 0.238751
O O16 0.500000 0.000000 0.144141
O O17 0.750000 0.710908 0.307739
O O18 0.960966 0.804749 0.289649
O O19 0.500000 0.500000 0.108679
O O20 0.750000 0.575844 0.078970
O O21 0.250000 0.860985 0.311123
#
# Coordination Sequence:
#
# PCOD9362885 Si02
#       8
#     8   8   8   8   8   8   8   8
#     4  10  19  29  50  82 109 129 164 222 262 295
#     4  10  19  35  57  75  99 139 176 208 256 317
#     4   9  18  33  50  71 104 144 178 203 246 310
#     4   9  16  32  56  74  95 134 176 207 247 307
#     4  11  23  38  55  75 103 139 176 217 263 317
#     4   9  17  32  52  77 105 136 172 208 259 311
#     4  10  20  34  51  71  99 135 172 210 248 296
#     4  10  19  31  50  77 107 138 173 213 252 301
#
# _framework density 19.178024000000001
#
# number of rings (size 3 to 8) (size 9 to 14) (size 15 to 20)
#    0.000    2.250    2.500    1.125    0.000    3.000 
#    0.000    1.875    0.000    0.750    0.000    3.500 
#    0.000    0.000    0.000    0.000    0.000    0.000 
#
# Total GULP energy -178539.380034 kJ/mol
# GULP energy per Si atom -5579.355626 kJ/mol
# Density = 1.913437 g / cm^3
# Si number density = 19.178024 Si / 1000 Ang^3
#
#
#
# Elastic Constant Matrix: (Units=GPa)
#
#
# Indices 1 2 3 4 5 6 
#
# 1 35.0309 -7.5664 -1.6819 0.0000 0.0000 0.0000
# 2 -7.5664 111.6065 69.9914 0.0000 0.0000 0.0000
# 3 -1.6819 69.9914 130.0940 0.0000 0.0000 0.0000
# 4 0.0000 0.0000 0.0000 8.7315 0.0000 0.0000
# 5 0.0000 0.0000 0.0000 0.0000 19.6105 0.0000
# 6 0.0000 0.0000 0.0000 0.0000 0.0000 17.9329
#
#
#
# Elastic Compliance Matrix: (Units=1/GPa)
#
#
# Indices 1 2 3 4 5 6 
#
# 1 0.029062 0.002618 -0.001033 0.000000 0.000000 0.000000
# 2 0.002618 0.013758 -0.007368 0.000000 0.000000 0.000000
# 3 -0.001033 -0.007368 0.011638 0.000000 0.000000 0.000000
# 4 0.000000 0.000000 0.000000 0.114528 0.000000 0.000000
# 5 0.000000 0.000000 0.000000 0.000000 0.050993 0.000000
# 6 0.000000 0.000000 0.000000 0.000000 0.000000 0.055763
#
#
# Mechanical properties :
#
#
# Convention : Reuss Voigt Hill
#
# Bulk Modulus (GPa) = 23.31442 44.24638 33.78040
# Shear Modulus (GPa) = 16.57795 23.65422 20.11608
#
# Velocity S-wave (km/s) = 2.94330 3.51579 3.24221
# Velocity P-wave (km/s) = 4.87175 6.29306 5.62745
#
# Compressibility (1/GPa) = 0.04289191
#
# Stress axis : x y z
#
# Youngs Moduli (GPa) = 34.40911 72.68315 85.92876
#
# Poissons Ratio (x) = -0.19028 0.08874
# Poissons Ratio (y) = -0.09008 0.63314
# Poissons Ratio (z) = 0.03554 0.53555
#
# Static dielectric constant tensor:
#      x y z
#    x 1.717890 0.000000 0.000000 
#    y 0.000000 1.669350 0.000000 
#    z 0.000000 0.000000 1.702430 
# 
# From -- ./inp_files/22368.got.cif
#   From: 2010.05.17/outbox.cif.g08.bks.cpg/sg40_12_cif.got.tgz:22368.got - 2010.06.03 18:35:42.
