data_PCOD9362985
_publ_section_title
;
Structure prediction by ZEFSAII (Michael W. Deem and Ramdas Pophale) SiO2 
 PCOD9362985
Probable space group: A M A 2
;
_chemical_formula_sum "Si O2"
_cell_formula_units_Z 56
_cell_length_a 8.964317
_cell_length_b 24.369670
_cell_length_c 13.877198
_cell_angle_alpha 90.000000
_cell_angle_beta 90.000000
_cell_angle_gamma 90.000000
_cell_volume 3031.577248
_symmetry_space_group_name_H-M "A M A 2"
_symmetry_group_IT_number 40
_symmetry_cell_setting 'orthorhombic'
loop_
_space_group_symop_operation_xyz
x,y,z
-x,-y,z
1/2-x,y,z
1/2+x,-y,z
x,1/2+y,1/2+z
-x,1/2-y,1/2+z
1/2-x,1/2+y,1/2+z
1/2+x,1/2-y,1/2+z
loop_
_atom_site_type_symbol
_atom_site_label
_atom_site_fract_x
_atom_site_fract_y
_atom_site_fract_z
Si Si1 0.428613 0.558200 0.184930
Si Si2 0.571782 0.731100 0.467679
Si Si3 0.928355 0.165345 0.372605
Si Si4 0.926545 0.940548 0.050200
Si Si5 0.428763 0.838501 0.152328
Si Si6 0.071255 0.558618 0.959890
Si Si7 0.927831 0.368819 0.360611
O O1 0.500000 0.500000 0.211918
O O2 0.250000 0.553059 0.192970
O O3 0.474729 0.605526 0.258842
O O4 0.464034 0.569181 0.073188
O O5 0.750000 0.737040 0.464172
O O6 0.494852 0.787891 0.440903
O O7 0.529243 0.706885 0.572586
O O8 0.516502 0.684822 0.392749
O O9 0.750000 0.162865 0.382461
O O10 0.964714 0.178239 0.261041
O O11 0.000254 0.107254 0.399068
O O12 0.750000 0.944971 0.065398
O O13 0.994702 0.895603 0.122630
O O14 0.951359 0.914645 0.943681
O O15 0.000000 0.000000 0.058823
O O16 0.250000 0.846034 0.145447
O O17 0.250000 0.556864 0.949221
O O18 0.000000 0.500000 0.934621
O O19 0.750000 0.356414 0.358359
#
# Coordination Sequence:
#
# PCOD9362985 Si02
#       7
#     8   8   8   8   8   8   8
#     4   9  18  32  52  78 111 147 182 221 267 317
#     4  10  21  38  58  81 108 139 177 223 268 316
#     4  11  23  40  61  82 106 141 179 218 266 320
#     4  10  19  31  52  80 111 145 182 224 269 316
#     4   9  21  40  58  77 106 142 180 220 265 317
#     4  10  21  38  58  82 111 143 180 223 267 315
#     4   9  18  33  52  78 111 147 183 221 266 317
#
# _framework density 18.472231000000001
#
# number of rings (size 3 to 8) (size 9 to 14) (size 15 to 20)
#    0.000    2.286    0.000    2.143    0.000    5.143 
#    0.000    5.714    0.000    0.000    0.000    0.000 
#    0.000    0.000    0.000    0.000    0.000    0.000 
#
# Total GULP energy -156335.971905 kJ/mol
# GULP energy per Si atom -5583.427568 kJ/mol
# Density = 1.843019 g / cm^3
# Si number density = 18.472231 Si / 1000 Ang^3
#
#
#
# Elastic Constant Matrix: (Units=GPa)
#
#
# Indices 1 2 3 4 5 6 
#
# 1 47.7195 52.9941 41.4828 0.0000 0.0000 0.0000
# 2 52.9941 126.5304 64.3595 0.0000 0.0000 0.0000
# 3 41.4828 64.3595 76.8708 0.0000 0.0000 0.0000
# 4 0.0000 0.0000 0.0000 19.8791 0.0000 0.0000
# 5 0.0000 0.0000 0.0000 0.0000 -12.8651 0.0000
# 6 0.0000 0.0000 0.0000 0.0000 0.0000 39.1269
#
#
#
# Elastic Compliance Matrix: (Units=1/GPa)
#
#
# Indices 1 2 3 4 5 6 
#
# 1 0.048211 -0.012120 -0.015869 0.000000 0.000000 0.000000
# 2 -0.012120 0.016812 -0.007536 0.000000 0.000000 0.000000
# 3 -0.015869 -0.007536 0.027882 0.000000 0.000000 0.000000
# 4 0.000000 0.000000 0.000000 0.050304 0.000000 0.000000
# 5 0.000000 0.000000 0.000000 0.000000 -0.077730 0.000000
# 6 0.000000 0.000000 0.000000 0.000000 0.000000 0.025558
#
#
# Mechanical properties :
#
#
# Convention : Reuss Voigt Hill
#
# Bulk Modulus (GPa) = 45.75570 63.19928 54.47749
# Shear Modulus (GPa) = 29.52096 15.38047 22.45072
#
# Velocity S-wave (km/s) = 4.00199 2.88866 3.49001
# Velocity P-wave (km/s) = 6.79547 6.73893 6.76726
#
# Compressibility (1/GPa) = 0.02185520
#
# Stress axis : x y z
#
# Youngs Moduli (GPa) = 20.74232 59.48007 35.86599
#
# Poissons Ratio (x) = 0.72090 0.56916
# Poissons Ratio (y) = 0.25140 0.27027
# Poissons Ratio (z) = 0.32916 0.44821
#
# Static dielectric constant tensor:
#      x y z
#    x 1.617070 0.000000 0.000000 
#    y 0.000000 1.599800 0.000000 
#    z 0.000000 0.000000 1.647240 
# 
# From -- ./inp_files/15305.got.cif
#   From: 2010.05.17/outbox.cif.g08.bks.cpg/sg40_8_cif.got.tgz:15305.got - 2010.06.03 18:35:42.
