data_PCOD9362082
_publ_section_title
;
Structure prediction by ZEFSAII (Michael W. Deem and Ramdas Pophale) SiO2 
 PCOD9362082
Probable space group: A B M 2
;
_chemical_formula_sum "Si O2"
_cell_formula_units_Z 32
_cell_length_a 6.607272
_cell_length_b 15.458293
_cell_length_c 14.107055
_cell_angle_alpha 90.000000
_cell_angle_beta 90.000000
_cell_angle_gamma 90.000000
_cell_volume 1440.854343
_symmetry_space_group_name_H-M "A B M 2"
_symmetry_group_IT_number 39
_symmetry_cell_setting 'orthorhombic'
loop_
_space_group_symop_operation_xyz
x,y,z
-x,-y,z
-x,1/2+y,z
x,1/2-y,z
x,1/2+y,1/2+z
-x,1/2-y,1/2+z
-x,y,1/2+z
x,-y,1/2+z
loop_
_atom_site_type_symbol
_atom_site_label
_atom_site_fract_x
_atom_site_fract_y
_atom_site_fract_z
Si Si1 0.038076 0.250000 0.597750
Si Si2 0.302803 0.894943 0.803088
Si Si3 0.982281 0.750000 0.376944
Si Si4 0.500000 0.000000 0.468357
Si Si5 0.823511 0.933993 0.109162
Si Si6 0.630952 0.250000 0.263031
O O1 0.908678 0.336846 0.613611
O O2 0.084783 0.250000 0.485923
O O3 0.228671 0.250000 0.669219
O O4 0.114443 0.833751 0.827986
O O5 0.364143 0.943665 0.897970
O O6 0.249299 0.956436 0.715400
O O7 0.486056 0.833069 0.769521
O O8 0.219143 0.750000 0.353713
O O9 0.358456 0.942615 0.535584
O O10 0.000000 0.000000 0.080735
#
# Coordination Sequence:
#
# PCOD9362082 Si02
#       6
#     4   8   4   4   8   4
#     4  12  25  46  79 105 151 197 250 309 378 454
#     4  11  26  45  71 105 143 194 251 306 385 449
#     4  11  23  45  71 105 141 193 245 310 370 450
#     4  12  28  44  72 106 148 202 248 318 380 464
#     4  12  28  49  73 113 150 199 256 319 388 452
#     4  11  24  47  72 104 144 194 245 317 374 450
#
# _framework density 22.209045
#
# number of rings (size 3 to 8) (size 9 to 14) (size 15 to 20)
#    0.000    0.500    2.500    4.500   10.500    4.000 
#    0.000    0.000    0.000    0.000    0.000    0.000 
#    0.000    0.000    0.000    0.000    0.000    0.000 
#
# Total GULP energy -89620.687746 kJ/mol
# GULP energy per Si atom -5601.292984 kJ/mol
# Density = 2.215850 g / cm^3
# Si number density = 22.209045 Si / 1000 Ang^3
#
#
#
# Elastic Constant Matrix: (Units=GPa)
#
#
# Indices 1 2 3 4 5 6 
#
# 1 58.6298 9.3050 -0.7193 0.0000 0.0000 0.0000
# 2 9.3050 65.4702 -3.2656 0.0000 0.0000 0.0000
# 3 -0.7193 -3.2656 134.9595 0.0000 0.0000 0.0000
# 4 0.0000 0.0000 0.0000 38.7232 0.0000 0.0000
# 5 0.0000 0.0000 0.0000 0.0000 41.4046 0.0000
# 6 0.0000 0.0000 0.0000 0.0000 0.0000 16.0628
#
#
#
# Elastic Compliance Matrix: (Units=1/GPa)
#
#
# Indices 1 2 3 4 5 6 
#
# 1 0.017450 -0.002478 0.000033 0.000000 0.000000 0.000000
# 2 -0.002478 0.015645 0.000365 0.000000 0.000000 0.000000
# 3 0.000033 0.000365 0.007419 0.000000 0.000000 0.000000
# 4 0.000000 0.000000 0.000000 0.025824 0.000000 0.000000
# 5 0.000000 0.000000 0.000000 0.000000 0.024152 0.000000
# 6 0.000000 0.000000 0.000000 0.000000 0.000000 0.062256
#
#
# Mechanical properties :
#
#
# Convention : Reuss Voigt Hill
#
# Bulk Modulus (GPa) = 27.50800 29.96663 28.73732
# Shear Modulus (GPa) = 29.58179 36.15407 32.86793
#
# Velocity S-wave (km/s) = 3.65358 4.03910 3.85117
# Velocity P-wave (km/s) = 5.49645 5.93925 5.72214
#
# Compressibility (1/GPa) = 0.03635306
#
# Stress axis : x y z
#
# Youngs Moduli (GPa) = 57.30680 63.91980 134.79552
#
# Poissons Ratio (x) = 0.15842 -0.00445
# Poissons Ratio (y) = 0.14203 -0.04925
# Poissons Ratio (z) = -0.00189 -0.02335
#
# Static dielectric constant tensor:
#      x y z
#    x 1.790350 0.000000 0.000000 
#    y 0.000000 1.737790 0.000000 
#    z 0.000000 0.000000 1.824230 
# 
# From -- ./inp_files/7263.got.cif
#   From: 2010.05.17/outbox.cif.g08.bks.cpg/sg39_4_cif.got.tgz:7263.got - 2010.06.03 18:22:40.
