data_PCOD9362897
_publ_section_title
;
Structure prediction by ZEFSAII (Michael W. Deem and Ramdas Pophale) SiO2 
 PCOD9362897
Probable space group: A M A 2
;
_chemical_formula_sum "Si O2"
_cell_formula_units_Z 48
_cell_length_a 8.632726
_cell_length_b 24.676281
_cell_length_c 14.152183
_cell_angle_alpha 90.000000
_cell_angle_beta 90.000000
_cell_angle_gamma 90.000000
_cell_volume 3014.748582
_symmetry_space_group_name_H-M "A M A 2"
_symmetry_group_IT_number 40
_symmetry_cell_setting 'orthorhombic'
loop_
_space_group_symop_operation_xyz
x,y,z
-x,-y,z
1/2-x,y,z
1/2+x,-y,z
x,1/2+y,1/2+z
-x,1/2-y,1/2+z
1/2-x,1/2+y,1/2+z
1/2+x,1/2-y,1/2+z
loop_
_atom_site_type_symbol
_atom_site_label
_atom_site_fract_x
_atom_site_fract_y
_atom_site_fract_z
Si Si1 0.935220 0.941520 0.356350
Si Si2 0.936969 0.441653 0.636827
Si Si3 0.438786 0.166603 0.035350
Si Si4 0.936701 0.274328 0.347905
Si Si5 0.563040 0.164599 0.452933
Si Si6 0.563335 0.224581 0.641291
O O1 0.750000 0.942968 0.359156
O O2 0.983557 0.933092 0.246503
O O3 0.995400 0.891782 0.418081
O O4 0.000000 0.000000 0.386302
O O5 0.750000 0.443045 0.634203
O O6 0.991576 0.391255 0.573784
O O7 0.000000 0.500000 0.606383
O O8 0.250000 0.166066 0.035579
O O9 0.485340 0.215631 0.104952
O O10 0.487130 0.183952 0.930025
O O11 0.750000 0.274923 0.345621
O O12 0.984006 0.214274 0.383905
O O13 0.999407 0.286552 0.244638
O O14 0.750000 0.161843 0.450923
O O15 0.516404 0.182839 0.558645
O O16 0.750000 0.224401 0.644775
#
# Coordination Sequence:
#
# PCOD9362897 Si02
#       6
#     8   8   8   8   8   8
#     4  10  19  30  47  69  92 119 150 184 222 267
#     4   9  17  29  45  65  89 117 147 179 217 262
#     4   8  15  29  46  63  88 121 148 173 217 269
#     4   9  17  29  46  67  90 117 149 185 223 264
#     4   9  18  31  46  66  93 121 148 184 228 270
#     4   9  17  30  47  66  90 119 149 183 223 266
#
# _framework density 15.921726
#
# number of rings (size 3 to 8) (size 9 to 14) (size 15 to 20)
#    0.000    3.000    0.000    3.500    0.000    3.333 
#    0.000    4.167    0.000    1.000    0.000    4.667 
#    0.000    0.000    0.000    0.000    0.000    0.000 
#
# Total GULP energy -133731.230475 kJ/mol
# GULP energy per Si atom -5572.134603 kJ/mol
# Density = 1.588549 g / cm^3
# Si number density = 15.921726 Si / 1000 Ang^3
#
#
#
# Elastic Constant Matrix: (Units=GPa)
#
#
# Indices 1 2 3 4 5 6 
#
# 1 10.1344 28.2594 22.8288 0.0000 0.0000 0.0000
# 2 28.2594 162.2841 88.3266 0.0000 0.0000 0.0000
# 3 22.8288 88.3266 122.3128 0.0000 0.0000 0.0000
# 4 0.0000 0.0000 0.0000 22.6509 0.0000 0.0000
# 5 0.0000 0.0000 0.0000 0.0000 25.0527 0.0000
# 6 0.0000 0.0000 0.0000 0.0000 0.0000 23.5587
#
#
#
# Elastic Compliance Matrix: (Units=1/GPa)
#
#
# Indices 1 2 3 4 5 6 
#
# 1 0.223903 -0.026763 -0.022463 0.000000 0.000000 0.000000
# 2 -0.026763 0.013351 -0.004646 0.000000 0.000000 0.000000
# 3 -0.022463 -0.004646 0.015724 0.000000 0.000000 0.000000
# 4 0.000000 0.000000 0.000000 0.044148 0.000000 0.000000
# 5 0.000000 0.000000 0.000000 0.000000 0.039916 0.000000
# 6 0.000000 0.000000 0.000000 0.000000 0.000000 0.042447
#
#
# Mechanical properties :
#
#
# Convention : Reuss Voigt Hill
#
# Bulk Modulus (GPa) = 6.88553 63.72899 35.30726
# Shear Modulus (GPa) = 9.33454 24.60690 16.97072
#
# Velocity S-wave (km/s) = 2.42394 3.93554 3.26833
# Velocity P-wave (km/s) = 3.48827 7.79517 6.03873
#
# Compressibility (1/GPa) = 0.14523213
#
# Stress axis : x y z
#
# Youngs Moduli (GPa) = 4.46623 74.89905 63.59866
#
# Poissons Ratio (x) = 2.00455 1.42862
# Poissons Ratio (y) = 0.11953 0.29550
# Poissons Ratio (z) = 0.10033 0.34800
#
# Static dielectric constant tensor:
#      x y z
#    x 1.542630 0.000000 0.000000 
#    y 0.000000 1.519310 0.000000 
#    z 0.000000 0.000000 1.524120 
# 
# From -- ./inp_files/10222.got.cif
#   From: 2010.05.17/outbox.cif.g08.bks.cpg/sg40_6_cif.got.tgz:10222.got - 2010.06.03 18:35:42.
