data_PCOD9362860
_publ_section_title
;
Structure prediction by ZEFSAII (Michael W. Deem and Ramdas Pophale) SiO2 
 PCOD9362860
Probable space group: A M A 2
;
_chemical_formula_sum "Si O2"
_cell_formula_units_Z 64
_cell_length_a 8.859264
_cell_length_b 27.011616
_cell_length_c 18.651203
_cell_angle_alpha 90.000000
_cell_angle_beta 90.000000
_cell_angle_gamma 90.000000
_cell_volume 4463.289526
_symmetry_space_group_name_H-M "A M A 2"
_symmetry_group_IT_number 40
_symmetry_cell_setting 'orthorhombic'
loop_
_space_group_symop_operation_xyz
x,y,z
-x,-y,z
1/2-x,y,z
1/2+x,-y,z
x,1/2+y,1/2+z
-x,1/2-y,1/2+z
1/2-x,1/2+y,1/2+z
1/2+x,1/2-y,1/2+z
loop_
_atom_site_type_symbol
_atom_site_label
_atom_site_fract_x
_atom_site_fract_y
_atom_site_fract_z
Si Si1 0.076436 0.798840 0.736470
Si Si2 0.071601 0.256146 0.861425
Si Si3 0.424028 0.697904 0.641914
Si Si4 0.430820 0.053340 0.353819
Si Si5 0.070502 0.744555 0.017053
Si Si6 0.068865 0.947423 0.510602
Si Si7 0.929998 0.644178 0.770674
Si Si8 0.568236 0.150574 0.597193
O O1 0.250000 0.807825 0.758272
O O2 0.075011 0.749088 0.687713
O O3 0.025146 0.840690 0.680263
O O4 0.976686 0.786096 0.804971
O O5 0.250000 0.254576 0.874905
O O6 0.037310 0.308854 0.822938
O O7 0.983834 0.251448 0.935561
O O8 0.250000 0.683284 0.632091
O O9 0.500883 0.712466 0.567206
O O10 0.512242 0.659416 0.691915
O O11 0.250000 0.050636 0.356450
O O12 0.496391 0.064403 0.433211
O O13 0.486415 0.096379 0.301345
O O14 0.500000 0.000000 0.333426
O O15 0.250000 0.745655 0.022002
O O16 0.009651 0.692656 0.049230
O O17 0.250000 0.951542 0.502352
O O18 0.035486 0.903151 0.565328
O O19 0.000000 0.000000 0.533418
O O20 0.750000 0.636791 0.770637
O O21 0.750000 0.158580 0.593226
#
# Coordination Sequence:
#
# PCOD9362860 Si02
#       8
#     8   8   8   8   8   8   8   8
#     4   8  15  28  43  59  80 107 139 173 208 248
#     4  10  19  29  42  61  86 114 142 174 211 251
#     4   9  17  30  45  61  84 112 141 174 212 253
#     4  11  21  32  45  62  85 114 147 183 220 254
#     4  11  20  28  42  63  86 113 145 178 210 249
#     4  10  19  31  45  62  85 113 145 182 220 255
#     4  10  19  31  46  64  86 113 146 180 215 256
#     4   9  18  31  45  60  83 114 144 176 215 256
#
# _framework density 14.339200999999999
#
# number of rings (size 3 to 8) (size 9 to 14) (size 15 to 20)
#    0.000    2.250    0.000    6.000    0.000    8.500 
#    0.000    0.000    0.000    0.000    0.000    0.000 
#    0.000    1.000    0.000    8.500    0.000    4.750 
#
# Total GULP energy -178441.672947 kJ/mol
# GULP energy per Si atom -5576.302280 kJ/mol
# Density = 1.430656 g / cm^3
# Si number density = 14.339201 Si / 1000 Ang^3
#
#
#
# Elastic Constant Matrix: (Units=GPa)
#
#
# Indices 1 2 3 4 5 6 
#
# 1 82.8543 42.4528 48.8053 0.0000 0.0000 0.0000
# 2 42.4528 80.6381 46.8532 0.0000 0.0000 0.0000
# 3 48.8053 46.8532 84.9527 0.0000 0.0000 0.0000
# 4 0.0000 0.0000 0.0000 25.7537 0.0000 0.0000
# 5 0.0000 0.0000 0.0000 0.0000 24.1946 0.0000
# 6 0.0000 0.0000 0.0000 0.0000 0.0000 13.1853
#
#
#
# Elastic Compliance Matrix: (Units=1/GPa)
#
#
# Indices 1 2 3 4 5 6 
#
# 1 0.019837 -0.005624 -0.008295 0.000000 0.000000 0.000000
# 2 -0.005624 0.019843 -0.007713 0.000000 0.000000 0.000000
# 3 -0.008295 -0.007713 0.020790 0.000000 0.000000 0.000000
# 4 0.000000 0.000000 0.000000 0.038829 0.000000 0.000000
# 5 0.000000 0.000000 0.000000 0.000000 0.041332 0.000000
# 6 0.000000 0.000000 0.000000 0.000000 0.000000 0.075842
#
#
# Mechanical properties :
#
#
# Convention : Reuss Voigt Hill
#
# Bulk Modulus (GPa) = 58.11420 58.29640 58.20530
# Shear Modulus (GPa) = 18.83435 19.98232 19.40833
#
# Velocity S-wave (km/s) = 3.62814 3.73707 3.68301
# Velocity P-wave (km/s) = 7.62675 7.70483 7.66589
#
# Compressibility (1/GPa) = 0.01720750
#
# Stress axis : x y z
#
# Youngs Moduli (GPa) = 50.41113 50.39456 48.09909
#
# Poissons Ratio (x) = 0.28342 0.39896
# Poissons Ratio (y) = 0.28351 0.37099
# Poissons Ratio (z) = 0.41814 0.38870
#
# Static dielectric constant tensor:
#      x y z
#    x 1.479540 0.000000 0.000000 
#    y 0.000000 1.460610 0.000000 
#    z 0.000000 0.000000 1.467170 
# 
# From -- ./inp_files/19764.got.cif
#   From: 2010.05.17/outbox.cif.g08.bks.cpg/sg40_10_cif.got.tgz:19764.got - 2010.06.03 18:35:42.
