data_PCOD9362007
_publ_section_title
;
Structure prediction by ZEFSAII (Michael W. Deem and Ramdas Pophale) SiO2 
 PCOD9362007
Probable space group: A B M 2
;
_chemical_formula_sum "Si O2"
_cell_formula_units_Z 40
_cell_length_a 13.056428
_cell_length_b 15.312307
_cell_length_c 10.096419
_cell_angle_alpha 90.000000
_cell_angle_beta 90.000000
_cell_angle_gamma 90.000000
_cell_volume 2018.516814
_symmetry_space_group_name_H-M "A B M 2"
_symmetry_group_IT_number 39
_symmetry_cell_setting 'orthorhombic'
loop_
_space_group_symop_operation_xyz
x,y,z
-x,-y,z
-x,1/2+y,z
x,1/2-y,z
x,1/2+y,1/2+z
-x,1/2-y,1/2+z
-x,y,1/2+z
x,-y,1/2+z
loop_
_atom_site_type_symbol
_atom_site_label
_atom_site_fract_x
_atom_site_fract_y
_atom_site_fract_z
Si Si1 0.402222 0.856580 0.763010
Si Si2 0.104135 0.750000 0.928216
Si Si3 0.746315 0.589311 0.493043
Si Si4 0.253659 0.393099 0.022072
Si Si5 0.638451 0.850478 0.749913
Si Si6 0.906850 0.250000 0.614808
O O1 0.394278 0.750000 0.766363
O O2 0.340058 0.890719 0.636302
O O3 0.521307 0.881319 0.758474
O O4 0.347431 0.895076 0.892100
O O5 0.074559 0.750000 0.772750
O O6 0.171832 0.836186 0.957601
O O7 0.008473 0.750000 0.027000
O O8 0.783401 0.490038 0.485622
O O9 0.704446 0.600852 0.640882
O O10 0.162185 0.333200 0.075017
O O11 0.306957 0.355490 0.891035
O O12 0.633803 0.750000 0.705006
#
# Coordination Sequence:
#
# PCOD9362007 Si02
#       6
#     8   4   8   8   8   4
#     4  11  21  43  65  97 145 188 219 264 322 386
#     4  12  28  52  73  95 130 170 221 287 347 398
#     4  12  24  43  69 100 137 176 221 272 331 394
#     4  12  24  43  69 100 137 176 221 272 331 394
#     4  11  23  37  69 103 139 182 225 262 318 398
#     4  12  28  52  73  95 130 170 221 287 347 398
#
# _framework density 19.816531000000001
#
# number of rings (size 3 to 8) (size 9 to 14) (size 15 to 20)
#    0.000    0.400    6.000    2.400    2.800    8.800 
#    0.000    2.000    0.000    0.000    0.000    0.000 
#    0.000    0.000    0.000    0.000    0.000    0.000 
#
# Total GULP energy -111897.153619 kJ/mol
# GULP energy per Si atom -5594.857681 kJ/mol
# Density = 1.977143 g / cm^3
# Si number density = 19.816531 Si / 1000 Ang^3
#
#
#
# Elastic Constant Matrix: (Units=GPa)
#
#
# Indices 1 2 3 4 5 6 
#
# 1 106.7990 33.8315 41.0606 0.0000 0.0000 0.0000
# 2 33.8315 125.7092 8.7126 0.0000 0.0000 0.0000
# 3 41.0606 8.7126 119.8692 0.0000 0.0000 0.0000
# 4 0.0000 0.0000 0.0000 -32.3104 0.0000 0.0000
# 5 0.0000 0.0000 0.0000 0.0000 43.0669 0.0000
# 6 0.0000 0.0000 0.0000 0.0000 0.0000 -8.4330
#
#
#
# Elastic Compliance Matrix: (Units=1/GPa)
#
#
# Indices 1 2 3 4 5 6 
#
# 1 0.011747 -0.002897 -0.003813 0.000000 0.000000 0.000000
# 2 -0.002897 0.008710 0.000359 0.000000 0.000000 0.000000
# 3 -0.003813 0.000359 0.009623 0.000000 0.000000 0.000000
# 4 0.000000 0.000000 0.000000 -0.030950 0.000000 0.000000
# 5 0.000000 0.000000 0.000000 0.000000 0.023220 0.000000
# 6 0.000000 0.000000 0.000000 0.000000 0.000000 -0.118581
#
#
# Mechanical properties :
#
#
# Convention : Reuss Voigt Hill
#
# Bulk Modulus (GPa) = 57.54709 57.73185 57.63947
# Shear Modulus (GPa) = -64.31939 18.38289 -22.96825
#
# Velocity S-wave (km/s) = -5.70332 3.04905 -3.40817
# Velocity P-wave (km/s) = 3.77724 6.44919 3.69624
#
# Compressibility (1/GPa) = 0.01737707
#
# Stress axis : x y z
#
# Youngs Moduli (GPa) = 85.12623 114.81499 103.92243
#
# Poissons Ratio (x) = 0.33264 0.39630
# Poissons Ratio (y) = 0.24663 -0.03735
# Poissons Ratio (z) = 0.32462 -0.04126
#
# Static dielectric constant tensor:
#      x y z
#    x 1.660330 0.000000 0.000000 
#    y 0.000000 1.724230 0.000000 
#    z 0.000000 0.000000 1.666000 
# 
# From -- ./inp_files/3095.got.cif
#   From: 2010.05.17/outbox.cif.g08.bks.cpg/sg39_2_cif.got.tgz:3095.got - 2010.06.03 18:22:40.
