data_PCOD9362516
_publ_section_title
;
Structure prediction by ZEFSAII (Michael W. Deem and Ramdas Pophale) SiO2 
 PCOD9362516
Probable space group: A M A 2
;
_chemical_formula_sum "Si O2"
_cell_formula_units_Z 64
_cell_length_a 17.888395
_cell_length_b 9.199903
_cell_length_c 19.380546
_cell_angle_alpha 90.000000
_cell_angle_beta 90.000000
_cell_angle_gamma 90.000000
_cell_volume 3189.485503
_symmetry_space_group_name_H-M "A M A 2"
_symmetry_group_IT_number 40
_symmetry_cell_setting 'orthorhombic'
loop_
_space_group_symop_operation_xyz
x,y,z
-x,-y,z
1/2-x,y,z
1/2+x,-y,z
x,1/2+y,1/2+z
-x,1/2-y,1/2+z
1/2-x,1/2+y,1/2+z
1/2+x,1/2-y,1/2+z
loop_
_atom_site_type_symbol
_atom_site_label
_atom_site_fract_x
_atom_site_fract_y
_atom_site_fract_z
Si Si1 0.334208 0.959992 0.054640
Si Si2 0.523797 0.233560 0.772918
Si Si3 0.931784 0.300695 0.060848
Si Si4 0.575436 0.313387 0.638881
Si Si5 0.005365 0.679944 0.423696
Si Si6 0.668520 0.381533 0.412697
Si Si7 0.879965 0.439719 0.259741
Si Si8 0.333295 0.967751 0.615012
O O1 0.250000 0.189436 0.920755
O O2 0.398509 0.054024 0.091822
O O3 0.357808 0.796944 0.070563
O O4 0.335335 0.995988 0.972709
O O5 0.559187 0.346160 0.719256
O O6 0.527880 0.250617 0.854682
O O7 0.437186 0.195401 0.758537
O O8 0.569512 0.084879 0.758921
O O9 0.900004 0.461528 0.070232
O O10 0.998473 0.260098 0.112972
O O11 0.964790 0.248385 0.988365
O O12 0.641726 0.196950 0.629687
O O13 0.000000 0.500000 0.419832
O O14 0.094096 0.710685 0.426345
O O15 0.750000 0.006807 0.078733
O O16 0.660968 0.436289 0.333737
O O17 0.834810 0.450212 0.189134
O O18 0.250000 0.974128 0.585298
#
# Coordination Sequence:
#
# PCOD9362516 Si02
#       8
#     8   8   8   8   8   8   8   8
#     4  11  22  36  56  84 116 148 185 234 288 338
#     4   9  16  29  55  80 106 139 186 236 268 324
#     4  12  21  36  57  85 111 148 188 234 279 341
#     4  11  21  37  58  82 112 149 191 228 281 339
#     4  11  17  33  55  80 109 142 184 234 284 325
#     4  10  18  29  51  82 112 139 180 234 284 328
#     4   9  15  30  50  79 110 139 179 229 282 322
#     4  11  23  36  54  82 117 150 185 235 288 337
#
# _framework density 20.065933000000001
#
# number of rings (size 3 to 8) (size 9 to 14) (size 15 to 20)
#    0.000    1.500    6.250    1.875    0.000    0.000 
#    0.000    0.000    0.000    4.500    0.000    0.000 
#    0.000    0.000    0.000    0.000    0.000    0.000 
#
# Total GULP energy -178344.221812 kJ/mol
# GULP energy per Si atom -5573.256932 kJ/mol
# Density = 2.002026 g / cm^3
# Si number density = 20.065933 Si / 1000 Ang^3
#
#
#
# Elastic Constant Matrix: (Units=GPa)
#
#
# Indices 1 2 3 4 5 6 
#
# 1 111.1736 0.5454 15.3725 0.0000 0.0000 0.0000
# 2 0.5454 22.0950 11.3601 0.0000 0.0000 0.0000
# 3 15.3725 11.3601 98.5601 0.0000 0.0000 0.0000
# 4 0.0000 0.0000 0.0000 12.2611 0.0000 0.0000
# 5 0.0000 0.0000 0.0000 0.0000 23.4421 0.0000
# 6 0.0000 0.0000 0.0000 0.0000 0.0000 18.8517
#
#
#
# Elastic Compliance Matrix: (Units=1/GPa)
#
#
# Indices 1 2 3 4 5 6 
#
# 1 0.009199 0.000543 -0.001497 0.000000 0.000000 0.000000
# 2 0.000543 0.048142 -0.005634 0.000000 0.000000 0.000000
# 3 -0.001497 -0.005634 0.011029 0.000000 0.000000 0.000000
# 4 0.000000 0.000000 0.000000 0.081559 0.000000 0.000000
# 5 0.000000 0.000000 0.000000 0.000000 0.042658 0.000000
# 6 0.000000 0.000000 0.000000 0.000000 0.000000 0.053046
#
#
# Mechanical properties :
#
#
# Convention : Reuss Voigt Hill
#
# Bulk Modulus (GPa) = 18.11786 31.82053 24.96920
# Shear Modulus (GPa) = 18.03702 24.54769 21.29235
#
# Velocity S-wave (km/s) = 3.00140 3.50144 3.26102
# Velocity P-wave (km/s) = 4.58911 5.67796 5.16232
#
# Compressibility (1/GPa) = 0.05519414
#
# Stress axis : x y z
#
# Youngs Moduli (GPa) = 108.70357 20.77184 90.67032
#
# Poissons Ratio (x) = -0.01128 0.13577
# Poissons Ratio (y) = -0.05901 0.51080
# Poissons Ratio (z) = 0.16277 0.11702
#
# Static dielectric constant tensor:
#      x y z
#    x 1.730190 0.000000 0.000000 
#    y 0.000000 1.700930 0.000000 
#    z 0.000000 0.000000 1.757560 
# 
# From -- ./inp_files/23399.got.cif
#   From: 2010.05.17/outbox.cif.g08.bks.cpg/sg40_12_cif.got.tgz:23399.got - 2010.06.03 18:35:42.
