data_PCOD9362591
_publ_section_title
;
Structure prediction by ZEFSAII (Michael W. Deem and Ramdas Pophale) SiO2 
 PCOD9362591
Probable space group: A M A 2
;
_chemical_formula_sum "Si O2"
_cell_formula_units_Z 64
_cell_length_a 16.444339
_cell_length_b 9.374093
_cell_length_c 21.118963
_cell_angle_alpha 90.000000
_cell_angle_beta 90.000000
_cell_angle_gamma 90.000000
_cell_volume 3255.504263
_symmetry_space_group_name_H-M "A M A 2"
_symmetry_group_IT_number 40
_symmetry_cell_setting 'orthorhombic'
loop_
_space_group_symop_operation_xyz
x,y,z
-x,-y,z
1/2-x,y,z
1/2+x,-y,z
x,1/2+y,1/2+z
-x,1/2-y,1/2+z
1/2-x,1/2+y,1/2+z
1/2+x,1/2-y,1/2+z
loop_
_atom_site_type_symbol
_atom_site_label
_atom_site_fract_x
_atom_site_fract_y
_atom_site_fract_z
Si Si1 0.340074 0.854211 0.883550
Si Si2 0.090133 0.020680 0.993861
Si Si3 0.847894 0.745380 0.906948
Si Si4 0.158693 0.883056 0.114341
Si Si5 0.655644 0.456979 0.845247
Si Si6 0.908581 0.950247 0.795685
Si Si7 0.531396 0.345825 0.163290
Si Si8 0.079635 0.096259 0.208678
O O1 0.250000 0.901914 0.903037
O O2 0.345599 0.686583 0.885396
O O3 0.402938 0.924527 0.930999
O O4 0.354962 0.911434 0.812415
O O5 0.112496 0.177566 0.967836
O O6 0.000000 0.000000 0.020489
O O7 0.149344 0.955625 0.045857
O O8 0.750000 0.748558 0.914409
O O9 0.875094 0.586929 0.887995
O O10 0.874174 0.835380 0.844927
O O11 0.250000 0.826713 0.123512
O O12 0.090500 0.758647 0.123319
O O13 0.142091 0.013302 0.163224
O O14 0.750000 0.489389 0.828642
O O15 0.609303 0.420964 0.780620
O O16 0.915751 0.887194 0.725815
O O17 0.000000 0.000000 0.810663
O O18 0.500000 0.500000 0.137475
O O19 0.453066 0.251458 0.186254
O O20 0.000000 0.000000 0.203695
#
# Coordination Sequence:
#
# PCOD9362591 Si02
#       8
#     8   8   8   8   8   8   8   8
#     4  10  20  34  53  79 114 149 181 224 280 340
#     4  11  22  39  59  79 104 142 192 236 282 342
#     4  10  19  32  53  81 112 146 188 233 277 333
#     4  11  23  41  63  83 110 152 199 243 294 355
#     4  10  20  33  52  83 118 146 179 228 284 336
#     4  10  18  31  51  78 109 145 182 221 272 332
#     4  10  21  37  58  87 122 154 195 246 295 349
#     4  10  20  35  57  84 116 154 193 237 288 345
#
# _framework density 19.659012000000001
#
# number of rings (size 3 to 8) (size 9 to 14) (size 15 to 20)
#    0.000    1.750    0.000    8.250    0.000    3.000 
#    0.000    3.750    0.000    0.000    0.000    0.000 
#    0.000    0.000    0.000    0.000    0.000    0.000 
#
# Total GULP energy -178335.471979 kJ/mol
# GULP energy per Si atom -5572.983499 kJ/mol
# Density = 1.961427 g / cm^3
# Si number density = 19.659012 Si / 1000 Ang^3
#
#
#
# Elastic Constant Matrix: (Units=GPa)
#
#
# Indices 1 2 3 4 5 6 
#
# 1 66.1593 20.3428 6.9780 0.0000 0.0000 0.0000
# 2 20.3428 137.8732 21.8551 0.0000 0.0000 0.0000
# 3 6.9780 21.8551 56.3926 0.0000 0.0000 0.0000
# 4 0.0000 0.0000 0.0000 19.5985 0.0000 0.0000
# 5 0.0000 0.0000 0.0000 0.0000 26.2030 0.0000
# 6 0.0000 0.0000 0.0000 0.0000 0.0000 24.2272
#
#
#
# Elastic Compliance Matrix: (Units=1/GPa)
#
#
# Indices 1 2 3 4 5 6 
#
# 1 0.015900 -0.002167 -0.001128 0.000000 0.000000 0.000000
# 2 -0.002167 0.008023 -0.002841 0.000000 0.000000 0.000000
# 3 -0.001128 -0.002841 0.018973 0.000000 0.000000 0.000000
# 4 0.000000 0.000000 0.000000 0.051024 0.000000 0.000000
# 5 0.000000 0.000000 0.000000 0.000000 0.038164 0.000000
# 6 0.000000 0.000000 0.000000 0.000000 0.000000 0.041276
#
#
# Mechanical properties :
#
#
# Convention : Reuss Voigt Hill
#
# Bulk Modulus (GPa) = 32.65325 39.86411 36.25868
# Shear Modulus (GPa) = 25.53086 28.08901 26.80994
#
# Velocity S-wave (km/s) = 3.60764 3.78406 3.69690
# Velocity P-wave (km/s) = 5.83089 6.27805 6.05860
#
# Compressibility (1/GPa) = 0.03062483
#
# Stress axis : x y z
#
# Youngs Moduli (GPa) = 62.89166 124.63847 52.70519
#
# Poissons Ratio (x) = 0.27013 0.05943
# Poissons Ratio (y) = 0.13631 0.14975
# Poissons Ratio (z) = 0.07091 0.35413
#
# Static dielectric constant tensor:
#      x y z
#    x 1.711030 0.000000 0.000000 
#    y 0.000000 1.734730 0.000000 
#    z 0.000000 0.000000 1.692770 
# 
# From -- ./inp_files/24820.got.cif
#   From: 2010.05.17/outbox.cif.g08.bks.cpg/sg40_13_cif.got.tgz:24820.got - 2010.06.03 18:35:42.
