data_PCOD9362718
_publ_section_title
;
Structure prediction by ZEFSAII (Michael W. Deem and Ramdas Pophale) SiO2 
 PCOD9362718
Probable space group: A M A 2
;
_chemical_formula_sum "Si O2"
_cell_formula_units_Z 64
_cell_length_a 14.148550
_cell_length_b 14.563861
_cell_length_c 16.470211
_cell_angle_alpha 90.000000
_cell_angle_beta 90.000000
_cell_angle_gamma 90.000000
_cell_volume 3393.810759
_symmetry_space_group_name_H-M "A M A 2"
_symmetry_group_IT_number 40
_symmetry_cell_setting 'orthorhombic'
loop_
_space_group_symop_operation_xyz
x,y,z
-x,-y,z
1/2-x,y,z
1/2+x,-y,z
x,1/2+y,1/2+z
-x,1/2-y,1/2+z
1/2-x,1/2+y,1/2+z
1/2+x,1/2-y,1/2+z
loop_
_atom_site_type_symbol
_atom_site_label
_atom_site_fract_x
_atom_site_fract_y
_atom_site_fract_z
Si Si1 0.642238 0.463230 0.005030
Si Si2 0.642623 0.339034 0.550569
Si Si3 0.137283 0.456286 0.170741
Si Si4 0.860890 0.745005 0.218982
Si Si5 0.851682 0.666029 0.928623
Si Si6 0.446772 0.187404 0.386857
Si Si7 0.138837 0.532648 0.350197
Si Si8 0.485403 0.379900 0.438082
O O1 0.750000 0.428288 0.011140
O O2 0.602863 0.481260 0.095816
O O3 0.645265 0.565931 0.968955
O O4 0.589691 0.396094 0.942485
O O5 0.750000 0.377452 0.538885
O O6 0.631223 0.314223 0.644103
O O7 0.641323 0.243459 0.499052
O O8 0.551466 0.393865 0.517301
O O9 0.250000 0.444895 0.152830
O O10 0.098846 0.353355 0.187666
O O11 0.127460 0.505871 0.256840
O O12 0.750000 0.727105 0.234967
O O13 0.900120 0.788856 0.301136
O O14 0.750000 0.678875 0.888092
O O15 0.942277 0.672108 0.872809
O O16 0.438342 0.280794 0.439343
O O17 0.250000 0.546083 0.366077
O O18 0.069881 0.616860 0.370633
O O19 0.092204 0.452537 0.406652
#
# Coordination Sequence:
#
# PCOD9362718 Si02
#       8
#     8   8   8   8   8   8   8   8
#     4  10  19  34  56  85 120 156 194 236 298 363
#     4   9  17  33  58  81 109 150 195 242 285 348
#     4   9  17  33  56  85 118 153 187 226 285 358
#     4  10  18  33  58  87 117 152 195 241 293 351
#     4   9  18  34  53  76 111 158 200 232 281 352
#     4  11  21  33  52  90 118 148 194 253 298 344
#     4  10  20  37  59  79 112 152 190 239 294 359
#     4  10  21  35  51  87 111 142 195 241 300 354
#
# _framework density 18.857856999999999
#
# number of rings (size 3 to 8) (size 9 to 14) (size 15 to 20)
#    0.000    2.250    2.500    1.125    0.000    1.000 
#    9.000    0.000    5.500    0.750    0.000    0.875 
#    0.000    0.000    0.000    0.000    0.000    0.000 
#
# Total GULP energy -178148.400320 kJ/mol
# GULP energy per Si atom -5567.137510 kJ/mol
# Density = 1.881494 g / cm^3
# Si number density = 18.857857 Si / 1000 Ang^3
#
#
#
# Elastic Constant Matrix: (Units=GPa)
#
#
# Indices 1 2 3 4 5 6 
#
# 1 88.5780 14.3399 39.4791 0.0000 0.0000 0.0000
# 2 14.3399 63.8721 28.0221 0.0000 0.0000 0.0000
# 3 39.4791 28.0221 105.2109 0.0000 0.0000 0.0000
# 4 0.0000 0.0000 0.0000 22.6383 0.0000 0.0000
# 5 0.0000 0.0000 0.0000 0.0000 1.1180 0.0000
# 6 0.0000 0.0000 0.0000 0.0000 0.0000 21.6400
#
#
#
# Elastic Compliance Matrix: (Units=1/GPa)
#
#
# Indices 1 2 3 4 5 6 
#
# 1 0.013605 -0.000923 -0.004859 0.000000 0.000000 0.000000
# 2 -0.000923 0.017790 -0.004392 0.000000 0.000000 0.000000
# 3 -0.004859 -0.004392 0.012498 0.000000 0.000000 0.000000
# 4 0.000000 0.000000 0.000000 0.044173 0.000000 0.000000
# 5 0.000000 0.000000 0.000000 0.000000 0.894479 0.000000
# 6 0.000000 0.000000 0.000000 0.000000 0.000000 0.046211
#
#
# Mechanical properties :
#
#
# Convention : Reuss Voigt Hill
#
# Bulk Modulus (GPa) = 42.47187 46.81593 44.64390
# Shear Modulus (GPa) = 4.73058 20.80059 12.76559
#
# Velocity S-wave (km/s) = 1.58556 3.32478 2.60462
# Velocity P-wave (km/s) = 5.09146 6.29432 5.72457
#
# Compressibility (1/GPa) = 0.02354499
#
# Stress axis : x y z
#
# Youngs Moduli (GPa) = 73.50465 56.21033 80.01343
#
# Poissons Ratio (x) = 0.05185 0.38880
# Poissons Ratio (y) = 0.06781 0.35143
# Poissons Ratio (z) = 0.35718 0.24688
#
# Static dielectric constant tensor:
#      x y z
#    x 1.718410 0.000000 0.000000 
#    y 0.000000 1.716300 0.000000 
#    z 0.000000 0.000000 1.662350 
# 
# From -- ./inp_files/20854.got.cif
#   From: 2010.05.17/outbox.cif.g08.bks.cpg/sg40_11_cif.got.tgz:20854.got - 2010.06.03 18:35:42.
