data_PCOD9362164
_publ_section_title
;
Structure prediction by ZEFSAII (Michael W. Deem and Ramdas Pophale) SiO2 
 PCOD9362164
Probable space group: A B M 2
;
_chemical_formula_sum "Si O2"
_cell_formula_units_Z 32
_cell_length_a 4.760647
_cell_length_b 32.410401
_cell_length_c 8.443674
_cell_angle_alpha 90.000000
_cell_angle_beta 90.000000
_cell_angle_gamma 90.000000
_cell_volume 1302.812275
_symmetry_space_group_name_H-M "A B M 2"
_symmetry_group_IT_number 39
_symmetry_cell_setting 'orthorhombic'
loop_
_space_group_symop_operation_xyz
x,y,z
-x,-y,z
-x,1/2+y,z
x,1/2-y,z
x,1/2+y,1/2+z
-x,1/2-y,1/2+z
-x,y,1/2+z
x,-y,1/2+z
loop_
_atom_site_type_symbol
_atom_site_label
_atom_site_fract_x
_atom_site_fract_y
_atom_site_fract_z
Si Si1 0.101092 0.546556 0.134020
Si Si2 0.396042 0.170752 0.395555
Si Si3 0.597479 0.078069 0.448675
Si Si4 0.906995 0.702511 0.709304
O O1 0.252373 0.563508 0.289205
O O2 0.000000 0.500000 0.154641
O O3 0.333793 0.549779 0.995843
O O4 0.833728 0.573657 0.083865
O O5 0.485368 0.124198 0.430279
O O6 0.240511 0.189781 0.546613
O O7 0.670999 0.195734 0.343685
O O8 0.171795 0.174366 0.253240
O O9 0.997945 0.750000 0.705295
#
# Coordination Sequence:
#
# PCOD9362164 Si02
#       4
#     8   8   8   8
#     4  12  27  50  77 110 150 197 249 307 371 443
#     4  12  27  47  74 109 148 194 247 308 372 443
#     4  12  27  50  77 111 150 196 249 309 372 443
#     4  12  25  47  74 108 148 195 247 306 371 443
#
# _framework density 24.562252000000001
#
# number of rings (size 3 to 8) (size 9 to 14) (size 15 to 20)
#    0.000    0.000    0.000    9.750    0.000    6.000 
#    0.000    1.250    0.000    0.000    0.000    0.000 
#    0.000    0.000    0.000    0.000    0.000    0.000 
#
# Total GULP energy -89934.523260 kJ/mol
# GULP energy per Si atom -5620.907704 kJ/mol
# Density = 2.450635 g / cm^3
# Si number density = 24.562252 Si / 1000 Ang^3
#
#
#
# Elastic Constant Matrix: (Units=GPa)
#
#
# Indices 1 2 3 4 5 6 
#
# 1 139.3755 32.7944 20.9817 0.0000 0.0000 0.0000
# 2 32.7944 127.0730 37.0556 0.0000 0.0000 0.0000
# 3 20.9817 37.0556 73.6193 0.0000 0.0000 0.0000
# 4 0.0000 0.0000 0.0000 38.9604 0.0000 0.0000
# 5 0.0000 0.0000 0.0000 0.0000 45.5747 0.0000
# 6 0.0000 0.0000 0.0000 0.0000 0.0000 38.5725
#
#
#
# Elastic Compliance Matrix: (Units=1/GPa)
#
#
# Indices 1 2 3 4 5 6 
#
# 1 0.007762 -0.001592 -0.001411 0.000000 0.000000 0.000000
# 2 -0.001592 0.009550 -0.004353 0.000000 0.000000 0.000000
# 3 -0.001411 -0.004353 0.016177 0.000000 0.000000 0.000000
# 4 0.000000 0.000000 0.000000 0.025667 0.000000 0.000000
# 5 0.000000 0.000000 0.000000 0.000000 0.021942 0.000000
# 6 0.000000 0.000000 0.000000 0.000000 0.000000 0.025925
#
#
# Mechanical properties :
#
#
# Convention : Reuss Voigt Hill
#
# Bulk Modulus (GPa) = 53.25790 57.97016 55.61403
# Shear Modulus (GPa) = 39.06471 41.23725 40.15098
#
# Velocity S-wave (km/s) = 3.99235 4.10187 4.04748
# Velocity P-wave (km/s) = 6.55605 6.78869 6.67338
#
# Compressibility (1/GPa) = 0.01877656
#
# Stress axis : x y z
#
# Youngs Moduli (GPa) = 128.83635 104.71560 61.81759
#
# Poissons Ratio (x) = 0.16667 0.08722
# Poissons Ratio (y) = 0.20507 0.26910
# Poissons Ratio (z) = 0.18178 0.45584
#
# Static dielectric constant tensor:
#      x y z
#    x 1.921710 0.000000 0.000000 
#    y 0.000000 1.823160 0.000000 
#    z 0.000000 0.000000 2.010250 
# 
# From -- ./inp_files/1742.got.cif
#   From: 2010.05.17/outbox.cif.g08.bks.cpg/sg39_1_cif.got.tgz:1742.got - 2010.06.03 18:22:40.
