data_PCOD9362262
_publ_section_title
;
Structure prediction by ZEFSAII (Michael W. Deem and Ramdas Pophale) SiO2 
 PCOD9362262
Probable space group: A M A 2
;
_chemical_formula_sum "Si O2"
_cell_formula_units_Z 52
_cell_length_a 19.915104
_cell_length_b 11.423279
_cell_length_c 9.910088
_cell_angle_alpha 90.000000
_cell_angle_beta 90.000000
_cell_angle_gamma 90.000000
_cell_volume 2254.503292
_symmetry_space_group_name_H-M "A M A 2"
_symmetry_group_IT_number 40
_symmetry_cell_setting 'orthorhombic'
loop_
_space_group_symop_operation_xyz
x,y,z
-x,-y,z
1/2-x,y,z
1/2+x,-y,z
x,1/2+y,1/2+z
-x,1/2-y,1/2+z
1/2-x,1/2+y,1/2+z
1/2+x,1/2-y,1/2+z
loop_
_atom_site_type_symbol
_atom_site_label
_atom_site_fract_x
_atom_site_fract_y
_atom_site_fract_z
Si Si1 0.570792 0.070020 0.713830
Si Si2 0.250000 0.660089 0.083939
Si Si3 0.250000 0.592667 0.381633
Si Si4 0.527445 0.744699 0.703862
Si Si5 0.901925 0.496258 0.703526
Si Si6 0.393133 0.096536 0.491703
Si Si7 0.250000 0.932046 0.134910
Si Si8 0.106564 0.612228 0.422838
O O1 0.548238 0.203644 0.711950
O O2 0.500000 0.000000 0.720743
O O3 0.603679 0.024320 0.577113
O O4 0.609345 0.011736 0.839125
O O5 0.250000 0.580474 0.219723
O O6 0.317022 0.639629 0.999940
O O7 0.250000 0.792600 0.136394
O O8 0.250000 0.480407 0.480499
O O9 0.182063 0.659371 0.420289
O O10 0.553292 0.613047 0.697039
O O11 0.561679 0.810938 0.574899
O O12 0.561204 0.799415 0.839167
O O13 0.821343 0.525546 0.697188
O O14 0.916678 0.421018 0.570285
O O15 0.916295 0.430689 0.842517
#
# Coordination Sequence:
#
# PCOD9362262 Si02
#       8
#     8   4   4   8   8   8   4   8
#     4   8  17  35  55  79 109 144 184 222 265 321
#     4  12  17  37  61  74 110 152 171 221 287 316
#     4  10  16  30  58  80 100 140 186 214 264 334
#     4  10  20  39  57  76 114 149 179 225 269 320
#     4  11  21  35  56  83 110 139 184 225 273 327
#     4  10  20  34  58  84 107 143 184 224 271 326
#     4  10  21  33  53  84 106 140 181 223 275 328
#     4   9  18  34  55  80 107 143 179 223 271 319
#
# _framework density 23.064947
#
# number of rings (size 3 to 8) (size 9 to 14) (size 15 to 20)
#    0.000    2.462    4.615    0.462    0.000    1.231 
#    0.000   11.538    0.000    1.846    0.000    0.000 
#    0.000    0.000    0.000    0.000    0.000    0.000 
#
# Total GULP energy -145263.856062 kJ/mol
# GULP energy per Si atom -5587.071387 kJ/mol
# Density = 2.301245 g / cm^3
# Si number density = 23.064947 Si / 1000 Ang^3
#
#
#
# Elastic Constant Matrix: (Units=GPa)
#
#
# Indices 1 2 3 4 5 6 
#
# 1 57.3323 14.6954 -4.0572 0.0000 0.0000 0.0000
# 2 14.6954 101.0435 54.5977 0.0000 0.0000 0.0000
# 3 -4.0572 54.5977 166.4368 0.0000 0.0000 0.0000
# 4 0.0000 0.0000 0.0000 -1.2643 0.0000 0.0000
# 5 0.0000 0.0000 0.0000 0.0000 10.3700 0.0000
# 6 0.0000 0.0000 0.0000 0.0000 0.0000 25.5180
#
#
#
# Elastic Compliance Matrix: (Units=1/GPa)
#
#
# Indices 1 2 3 4 5 6 
#
# 1 0.018469 -0.003560 0.001618 0.000000 0.000000 0.000000
# 2 -0.003560 0.012715 -0.004258 0.000000 0.000000 0.000000
# 3 0.001618 -0.004258 0.007444 0.000000 0.000000 0.000000
# 4 0.000000 0.000000 0.000000 -0.790962 0.000000 0.000000
# 5 0.000000 0.000000 0.000000 0.000000 0.096432 0.000000
# 6 0.000000 0.000000 0.000000 0.000000 0.000000 0.039188
#
#
# Mechanical properties :
#
#
# Convention : Reuss Voigt Hill
#
# Bulk Modulus (GPa) = 38.12619 50.58717 44.35668
# Shear Modulus (GPa) = -8.39533 24.22986 7.91727
#
# Velocity S-wave (km/s) = -1.90991 3.24467 1.85474
# Velocity P-wave (km/s) = 3.42084 6.00144 4.88464
#
# Compressibility (1/GPa) = 0.02622869
#
# Stress axis : x y z
#
# Youngs Moduli (GPa) = 54.14389 78.64571 134.32768
#
# Poissons Ratio (x) = 0.28002 -0.21737
# Poissons Ratio (y) = 0.19278 0.57195
# Poissons Ratio (z) = -0.08762 0.33486
#
# Static dielectric constant tensor:
#      x y z
#    x 1.922070 0.000000 0.000000 
#    y 0.000000 1.909790 0.000000 
#    z 0.000000 0.000000 1.873860 
# 
# From -- ./inp_files/8850.got.cif
#   From: 2010.05.17/outbox.cif.g08.bks.cpg/sg40_5_cif.got.tgz:8850.got - 2010.06.03 18:35:42.
