data_PCOD9362317
_publ_section_title
;
Structure prediction by ZEFSAII (Michael W. Deem and Ramdas Pophale) SiO2 
 PCOD9362317
Probable space group: A M A 2
;
_chemical_formula_sum "Si O2"
_cell_formula_units_Z 48
_cell_length_a 16.963064
_cell_length_b 27.750071
_cell_length_c 5.474395
_cell_angle_alpha 90.000000
_cell_angle_beta 90.000000
_cell_angle_gamma 90.000000
_cell_volume 2576.941322
_symmetry_space_group_name_H-M "A M A 2"
_symmetry_group_IT_number 40
_symmetry_cell_setting 'orthorhombic'
loop_
_space_group_symop_operation_xyz
x,y,z
-x,-y,z
1/2-x,y,z
1/2+x,-y,z
x,1/2+y,1/2+z
-x,1/2-y,1/2+z
1/2-x,1/2+y,1/2+z
1/2+x,1/2-y,1/2+z
loop_
_atom_site_type_symbol
_atom_site_label
_atom_site_fract_x
_atom_site_fract_y
_atom_site_fract_z
Si Si1 0.024201 0.444643 0.587560
Si Si2 0.430251 0.781236 0.087560
Si Si3 0.574707 0.598488 0.087560
Si Si4 0.840745 0.692941 0.087560
Si Si5 0.577359 0.829561 0.587560
Si Si6 0.918284 0.353374 0.587560
O O1 0.069799 0.431569 0.337344
O O2 0.000000 0.500000 0.587559
O O3 0.949355 0.408036 0.587560
O O4 0.069799 0.431570 0.837776
O O5 0.381065 0.789700 0.335563
O O6 0.453140 0.725147 0.087560
O O7 0.503236 0.818610 0.087560
O O8 0.381065 0.789700 0.839557
O O9 0.646965 0.635192 0.087560
O O10 0.497054 0.633642 0.087560
O O11 0.750000 0.706737 0.087560
O O12 0.623234 0.840167 0.338991
O O13 0.623234 0.840167 0.836128
#
# Coordination Sequence:
#
# PCOD9362317 Si02
#       6
#     8   8   8   8   8   8
#     4  10  18  30  49  69  99 127 146 195 253 300
#     4  12  19  33  49  70  99 138 164 201 238 288
#     4  10  19  34  46  74 102 128 161 198 251 305
#     4  12  23  34  47  67 104 143 172 198 228 289
#     4  10  18  28  51  71  97 130 157 202 245 294
#     4  10  17  29  45  73 100 124 158 188 254 306
#
# _framework density 18.626732000000001
#
# number of rings (size 3 to 8) (size 9 to 14) (size 15 to 20)
#    0.000    1.333    6.667    3.000    0.000    0.000 
#    0.000    0.000    0.000    0.000    0.000    0.000 
#    0.000  106.667    0.000    0.000    0.000    0.000 
#
# Total GULP energy -133883.294907 kJ/mol
# GULP energy per Si atom -5578.470621 kJ/mol
# Density = 1.858434 g / cm^3
# Si number density = 18.626732 Si / 1000 Ang^3
#
#
#
# Elastic Constant Matrix: (Units=GPa)
#
#
# Indices 1 2 3 4 5 6 
#
# 1 26.6324 5.2510 33.1866 0.0000 0.0000 0.0000
# 2 5.2510 129.4693 48.9440 0.0000 0.0000 0.0000
# 3 33.1866 48.9440 222.2892 0.0000 0.0000 0.0000
# 4 0.0000 0.0000 0.0000 26.7279 0.0000 0.0000
# 5 0.0000 0.0000 0.0000 0.0000 10.2827 0.0000
# 6 0.0000 0.0000 0.0000 0.0000 0.0000 9.0115
#
#
#
# Elastic Compliance Matrix: (Units=1/GPa)
#
#
# Indices 1 2 3 4 5 6 
#
# 1 0.046206 0.000800 -0.007075 0.000000 0.000000 0.000000
# 2 0.000800 0.008439 -0.001978 0.000000 0.000000 0.000000
# 3 -0.007075 -0.001978 0.005990 0.000000 0.000000 0.000000
# 4 0.000000 0.000000 0.000000 0.037414 0.000000 0.000000
# 5 0.000000 0.000000 0.000000 0.000000 0.097251 0.000000
# 6 0.000000 0.000000 0.000000 0.000000 0.000000 0.110969
#
#
# Mechanical properties :
#
#
# Convention : Reuss Voigt Hill
#
# Bulk Modulus (GPa) = 22.65938 61.46155 42.06047
# Shear Modulus (GPa) = 14.81552 28.60504 21.71028
#
# Velocity S-wave (km/s) = 2.82333 3.92305 3.41771
# Velocity P-wave (km/s) = 4.77699 7.32042 6.18094
#
# Compressibility (1/GPa) = 0.04413184
#
# Stress axis : x y z
#
# Youngs Moduli (GPa) = 21.64217 118.49767 166.93742
#
# Poissons Ratio (x) = -0.09485 1.18101
# Poissons Ratio (y) = -0.01732 0.33014
# Poissons Ratio (z) = 0.15311 0.23434
#
# Static dielectric constant tensor:
#      x y z
#    x 1.628390 0.000000 0.000000 
#    y 0.000000 1.636190 0.000000 
#    z 0.000000 0.000000 1.771410 
# 
# From -- ./inp_files/1864.got.cif
#   From: 2010.05.17/outbox.cif.g08.bks.cpg/sg40_1_cif.got.tgz:1864.got - 2010.06.03 18:35:42.
