data_PCOD9362154
_publ_section_title
;
Structure prediction by ZEFSAII (Michael W. Deem and Ramdas Pophale) SiO2 
 PCOD9362154
Probable space group: A B M 2
;
_chemical_formula_sum "Si O2"
_cell_formula_units_Z 28
_cell_length_a 5.951744
_cell_length_b 19.707856
_cell_length_c 9.965638
_cell_angle_alpha 90.000000
_cell_angle_beta 90.000000
_cell_angle_gamma 90.000000
_cell_volume 1168.930608
_symmetry_space_group_name_H-M "A B M 2"
_symmetry_group_IT_number 39
_symmetry_cell_setting 'orthorhombic'
loop_
_space_group_symop_operation_xyz
x,y,z
-x,-y,z
-x,1/2+y,z
x,1/2-y,z
x,1/2+y,1/2+z
-x,1/2-y,1/2+z
-x,y,1/2+z
x,-y,1/2+z
loop_
_atom_site_type_symbol
_atom_site_label
_atom_site_fract_x
_atom_site_fract_y
_atom_site_fract_z
Si Si1 0.392812 0.066016 0.297530
Si Si2 0.729177 0.323896 0.358832
Si Si3 0.000000 0.500000 0.478617
Si Si4 0.932158 0.138528 0.625316
O O1 0.577889 0.108851 0.380069
O O2 0.293969 0.127669 0.210303
O O3 0.500000 0.000000 0.224393
O O4 0.199182 0.030048 0.385345
O O5 0.614885 0.250000 0.352601
O O6 0.893332 0.322580 0.487537
O O7 0.874305 0.335528 0.223853
O O8 0.032204 0.562005 0.578393
#
# Coordination Sequence:
#
# PCOD9362154 Si02
#       4
#     8   8   4   8
#     4  12  25  47  76 114 148 194 265 324 388 455
#     4  12  29  49  77 111 156 209 255 317 394 468
#     4  12  24  48  76 114 148 196 258 328 384 444
#     4  12  26  49  74 111 153 200 255 323 380 461
#
# _framework density 23.953517000000002
#
# number of rings (size 3 to 8) (size 9 to 14) (size 15 to 20)
#    0.000    0.000    5.714    3.429    8.000    2.286 
#    0.000    0.000    0.000    0.000    0.000    0.000 
#    0.000    0.000    0.000    0.000    0.000    0.000 
#
# Total GULP energy -78140.885497 kJ/mol
# GULP energy per Si atom -5581.491821 kJ/mol
# Density = 2.389900 g / cm^3
# Si number density = 23.953517 Si / 1000 Ang^3
#
#
#
# Elastic Constant Matrix: (Units=GPa)
#
#
# Indices 1 2 3 4 5 6 
#
# 1 63.1576 26.4160 30.9159 0.0000 0.0000 0.0000
# 2 26.4160 174.0734 19.5885 0.0000 0.0000 0.0000
# 3 30.9159 19.5885 103.4144 0.0000 0.0000 0.0000
# 4 0.0000 0.0000 0.0000********** 0.0000 0.0000
# 5 0.0000 0.0000 0.0000 0.0000 27.5493 0.0000
# 6 0.0000 0.0000 0.0000 0.0000 0.0000 20.4551
#
#
#
# Elastic Compliance Matrix: (Units=1/GPa)
#
#
# Indices 1 2 3 4 5 6 
#
# 1 0.019442 -0.002346 -0.005368 0.000000 0.000000 0.000000
# 2 -0.002346 0.006153 -0.000464 0.000000 0.000000 0.000000
# 3 -0.005368 -0.000464 0.011362 0.000000 0.000000 0.000000
# 4 0.000000 0.000000 0.000000 -0.000099 0.000000 0.000000
# 5 0.000000 0.000000 0.000000 0.000000 0.036299 0.000000
# 6 0.000000 0.000000 0.000000 0.000000 0.000000 0.048888
#
#
# Mechanical properties :
#
#
# Convention : Reuss Voigt Hill
#
# Bulk Modulus (GPa) = 48.54070 54.94290 51.74180
# Shear Modulus (GPa) = 34.41910 -1982.89657 -974.23873
#
# Velocity S-wave (km/s) = 3.79478 -28.80290 -20.18919
# Velocity P-wave (km/s) = 6.28562 32.91133 22.84346
#
# Compressibility (1/GPa) = 0.02060127
#
# Stress axis : x y z
#
# Youngs Moduli (GPa) = 51.43395 162.52272 88.00905
#
# Poissons Ratio (x) = 0.38134 0.47242
# Poissons Ratio (y) = 0.12068 0.04084
# Poissons Ratio (z) = 0.27609 0.07542
#
# Static dielectric constant tensor:
#      x y z
#    x 2.103190 0.000000 0.000000 
#    y 0.000000 24.459820 0.000000 
#    z 0.000000 0.000000 2.051810 
# 
# From -- ./inp_files/4340.got.cif
#   From: 2010.05.17/outbox.cif.g08.bks.cpg/sg39_3_cif.got.tgz:4340.got - 2010.06.03 18:22:40.
