data_PCOD9362580
_publ_section_title
;
Structure prediction by ZEFSAII (Michael W. Deem and Ramdas Pophale) SiO2 
 PCOD9362580
Probable space group: A M A 2
;
_chemical_formula_sum "Si O2"
_cell_formula_units_Z 64
_cell_length_a 8.741328
_cell_length_b 22.493099
_cell_length_c 15.999727
_cell_angle_alpha 90.000000
_cell_angle_beta 90.000000
_cell_angle_gamma 90.000000
_cell_volume 3145.859220
_symmetry_space_group_name_H-M "A M A 2"
_symmetry_group_IT_number 40
_symmetry_cell_setting 'orthorhombic'
loop_
_space_group_symop_operation_xyz
x,y,z
-x,-y,z
1/2-x,y,z
1/2+x,-y,z
x,1/2+y,1/2+z
-x,1/2-y,1/2+z
1/2-x,1/2+y,1/2+z
1/2+x,1/2-y,1/2+z
loop_
_atom_site_type_symbol
_atom_site_label
_atom_site_fract_x
_atom_site_fract_y
_atom_site_fract_z
Si Si1 0.569476 0.066123 0.296070
Si Si2 0.569994 0.064131 0.636682
Si Si3 0.432701 0.266905 0.564577
Si Si4 0.067615 0.062986 0.948500
Si Si5 0.065832 0.810899 0.888245
Si Si6 0.567767 0.433052 0.962919
Si Si7 0.568252 0.186998 0.704936
Si Si8 0.069839 0.611143 0.628167
O O1 0.750000 0.062168 0.308136
O O2 0.494709 0.095824 0.378169
O O3 0.526135 0.096968 0.210035
O O4 0.500000 0.000000 0.288866
O O5 0.750000 0.055787 0.621545
O O6 0.494592 0.088707 0.551313
O O7 0.548597 0.115581 0.704225
O O8 0.500000 0.000000 0.657450
O O9 0.250000 0.276146 0.570723
O O10 0.470382 0.266617 0.465333
O O11 0.481279 0.214526 0.626307
O O12 0.524947 0.323447 0.598571
O O13 0.250000 0.063123 0.936865
O O14 0.035674 0.069664 0.048225
O O15 0.000000 0.000000 0.918628
O O16 0.999923 0.123482 0.908916
O O17 0.250000 0.816677 0.885004
O O18 0.016185 0.790454 0.795916
O O19 0.500000 0.500000 0.960762
O O20 0.750000 0.433861 0.962442
O O21 0.750000 0.198958 0.694360
O O22 0.250000 0.606399 0.647117
#
# Coordination Sequence:
#
# PCOD9362580 Si02
#       8
#     8   8   8   8   8   8   8   8
#     4  11  20  31  49  76 111 150 196 244 294 351
#     4  10  20  36  58  84 115 151 188 236 293 351
#     4  10  21  39  62  86 114 151 196 247 296 347
#     4  10  20  33  54  84 118 156 195 238 291 351
#     4   9  20  40  62  85 117 155 196 245 297 348
#     4  10  18  31  50  73 106 147 186 231 285 340
#     4  10  22  41  64  88 118 156 194 241 299 353
#     4  10  20  35  54  78 111 152 196 244 297 349
#
# _framework density 20.344204000000001
#
# number of rings (size 3 to 8) (size 9 to 14) (size 15 to 20)
#    0.000    2.000    0.000    5.625    0.000    5.000 
#    2.250    1.250    0.000    0.000    0.000    0.000 
#    0.000    0.000    0.000    0.000    0.000    0.000 
#
# Total GULP energy -178570.440723 kJ/mol
# GULP energy per Si atom -5580.326273 kJ/mol
# Density = 2.029790 g / cm^3
# Si number density = 20.344204 Si / 1000 Ang^3
#
#
#
# Elastic Constant Matrix: (Units=GPa)
#
#
# Indices 1 2 3 4 5 6 
#
# 1 80.7958 9.4844 35.0652 0.0000 0.0000 0.0000
# 2 9.4844 49.4393 22.0448 0.0000 0.0000 0.0000
# 3 35.0652 22.0448 111.1567 0.0000 0.0000 0.0000
# 4 0.0000 0.0000 0.0000 19.5942 0.0000 0.0000
# 5 0.0000 0.0000 0.0000 0.0000 20.9839 0.0000
# 6 0.0000 0.0000 0.0000 0.0000 0.0000 24.6230
#
#
#
# Elastic Compliance Matrix: (Units=1/GPa)
#
#
# Indices 1 2 3 4 5 6 
#
# 1 0.014369 -0.000807 -0.004373 0.000000 0.000000 0.000000
# 2 -0.000807 0.022234 -0.004155 0.000000 0.000000 0.000000
# 3 -0.004373 -0.004155 0.011200 0.000000 0.000000 0.000000
# 4 0.000000 0.000000 0.000000 0.051036 0.000000 0.000000
# 5 0.000000 0.000000 0.000000 0.000000 0.047656 0.000000
# 6 0.000000 0.000000 0.000000 0.000000 0.000000 0.040612
#
#
# Mechanical properties :
#
#
# Convention : Reuss Voigt Hill
#
# Bulk Modulus (GPa) = 34.32408 41.62008 37.97208
# Shear Modulus (GPa) = 23.20314 24.69337 23.94826
#
# Velocity S-wave (km/s) = 3.38083 3.48771 3.43469
# Velocity P-wave (km/s) = 5.66995 6.05980 5.86812
#
# Compressibility (1/GPa) = 0.02913407
#
# Stress axis : x y z
#
# Youngs Moduli (GPa) = 69.59215 44.97556 89.28703
#
# Poissons Ratio (x) = 0.03628 0.39045
# Poissons Ratio (y) = 0.05614 0.37099
# Poissons Ratio (z) = 0.30432 0.18688
#
# Static dielectric constant tensor:
#      x y z
#    x 1.684630 0.000000 0.000000 
#    y 0.000000 1.731370 0.000000 
#    z 0.000000 0.000000 1.785390 
# 
# From -- ./inp_files/15568.got.cif
#   From: 2010.05.17/outbox.cif.g08.bks.cpg/sg40_8_cif.got.tgz:15568.got - 2010.06.03 18:35:42.
