data_PCOD9362020
_publ_section_title
;
Structure prediction by ZEFSAII (Michael W. Deem and Ramdas Pophale) SiO2 
 PCOD9362020
Probable space group: A B M 2
;
_chemical_formula_sum "Si O2"
_cell_formula_units_Z 40
_cell_length_a 11.008503
_cell_length_b 23.240731
_cell_length_c 7.504740
_cell_angle_alpha 90.000000
_cell_angle_beta 90.000000
_cell_angle_gamma 90.000000
_cell_volume 1920.055135
_symmetry_space_group_name_H-M "A B M 2"
_symmetry_group_IT_number 39
_symmetry_cell_setting 'orthorhombic'
loop_
_space_group_symop_operation_xyz
x,y,z
-x,-y,z
-x,1/2+y,z
x,1/2-y,z
x,1/2+y,1/2+z
-x,1/2-y,1/2+z
-x,y,1/2+z
x,-y,1/2+z
loop_
_atom_site_type_symbol
_atom_site_label
_atom_site_fract_x
_atom_site_fract_y
_atom_site_fract_z
Si Si1 0.297003 0.685135 0.578250
Si Si2 0.330532 0.956098 0.023472
Si Si3 0.405970 0.424706 0.916815
Si Si4 0.840639 0.136799 0.908096
Si Si5 0.085634 0.684247 0.284022
O O1 0.345171 0.750000 0.572763
O O2 0.386880 0.636733 0.505601
O O3 0.250265 0.668981 0.774095
O O4 0.181171 0.681972 0.444937
O O5 0.352482 0.930286 0.219280
O O6 0.451499 0.939051 0.913868
O O7 0.212548 0.926664 0.940886
O O8 0.336247 0.025126 0.026459
O O9 0.973893 0.141937 0.822452
O O10 0.851681 0.168111 0.098523
O O11 0.037804 0.750000 0.273119
#
# Coordination Sequence:
#
# PCOD9362020 Si02
#       5
#     8   8   8   8   8
#     4  11  23  40  65  95 134 173 218 271 326 397
#     4  11  23  41  73  95 131 175 223 278 330 411
#     4  11  22  45  67 101 131 173 222 271 346 395
#     4  12  22  40  66  99 127 176 225 269 323 390
#     4  11  22  38  62  91 131 178 219 262 325 392
#
# _framework density 20.832735
#
# number of rings (size 3 to 8) (size 9 to 14) (size 15 to 20)
#    0.000    0.800    4.000    6.600    0.000    0.000 
#    0.000    7.000    0.000    0.000    0.000    0.000 
#    0.000    0.000    0.000    0.000    0.000    0.000 
#
# Total GULP energy -111847.950555 kJ/mol
# GULP energy per Si atom -5592.397528 kJ/mol
# Density = 2.078532 g / cm^3
# Si number density = 20.832735 Si / 1000 Ang^3
#
#
#
# Elastic Constant Matrix: (Units=GPa)
#
#
# Indices 1 2 3 4 5 6 
#
# 1 41.5293 32.3346 11.8788 0.0000 0.0000 0.0000
# 2 32.3346 126.9676 28.4794 0.0000 0.0000 0.0000
# 3 11.8788 28.4794 116.7695 0.0000 0.0000 0.0000
# 4 0.0000 0.0000 0.0000 25.1253 0.0000 0.0000
# 5 0.0000 0.0000 0.0000 0.0000 30.1983 0.0000
# 6 0.0000 0.0000 0.0000 0.0000 0.0000 35.8990
#
#
#
# Elastic Compliance Matrix: (Units=1/GPa)
#
#
# Indices 1 2 3 4 5 6 
#
# 1 0.030211 -0.007410 -0.001266 0.000000 0.000000 0.000000
# 2 -0.007410 0.010149 -0.001722 0.000000 0.000000 0.000000
# 3 -0.001266 -0.001722 0.009113 0.000000 0.000000 0.000000
# 4 0.000000 0.000000 0.000000 0.039800 0.000000 0.000000
# 5 0.000000 0.000000 0.000000 0.000000 0.033114 0.000000
# 6 0.000000 0.000000 0.000000 0.000000 0.000000 0.027856
#
#
# Mechanical properties :
#
#
# Convention : Reuss Voigt Hill
#
# Bulk Modulus (GPa) = 34.87024 47.85023 41.36023
# Shear Modulus (GPa) = 27.68588 32.41608 30.05098
#
# Velocity S-wave (km/s) = 3.64945 3.94892 3.80213
# Velocity P-wave (km/s) = 5.87643 6.61895 6.25872
#
# Compressibility (1/GPa) = 0.02867775
#
# Stress axis : x y z
#
# Youngs Moduli (GPa) = 33.10079 98.52996 109.73873
#
# Poissons Ratio (x) = 0.73008 0.13894
# Poissons Ratio (y) = 0.24527 0.18892
# Poissons Ratio (z) = 0.04191 0.16962
#
# Static dielectric constant tensor:
#      x y z
#    x 1.719790 0.000000 0.000000 
#    y 0.000000 1.755000 0.000000 
#    z 0.000000 0.000000 1.768410 
# 
# From -- ./inp_files/2617.got.cif
#   From: 2010.05.17/outbox.cif.g08.bks.cpg/sg39_2_cif.got.tgz:2617.got - 2010.06.03 18:22:40.
