data_PCOD9362266
_publ_section_title
;
Structure prediction by ZEFSAII (Michael W. Deem and Ramdas Pophale) SiO2 
 PCOD9362266
Probable space group: A M A 2
;
_chemical_formula_sum "Si O2"
_cell_formula_units_Z 52
_cell_length_a 17.003357
_cell_length_b 19.715239
_cell_length_c 7.007827
_cell_angle_alpha 90.000000
_cell_angle_beta 90.000000
_cell_angle_gamma 90.000000
_cell_volume 2349.200537
_symmetry_space_group_name_H-M "A M A 2"
_symmetry_group_IT_number 40
_symmetry_cell_setting 'orthorhombic'
loop_
_space_group_symop_operation_xyz
x,y,z
-x,-y,z
1/2-x,y,z
1/2+x,-y,z
x,1/2+y,1/2+z
-x,1/2-y,1/2+z
1/2-x,1/2+y,1/2+z
1/2+x,1/2-y,1/2+z
loop_
_atom_site_type_symbol
_atom_site_label
_atom_site_fract_x
_atom_site_fract_y
_atom_site_fract_z
Si Si1 0.837811 0.452448 0.482190
Si Si2 0.419053 0.667598 0.973689
Si Si3 0.838201 0.804976 0.859405
Si Si4 0.500000 0.000000 0.935036
Si Si5 0.564073 0.596810 0.117667
Si Si6 0.159626 0.280366 0.220006
Si Si7 0.838853 0.973257 0.522949
O O1 0.750000 0.472076 0.550011
O O2 0.846403 0.371381 0.492667
O O3 0.837596 0.465372 0.253489
O O4 0.918686 0.487626 0.548068
O O5 0.397929 0.692939 0.186936
O O6 0.508332 0.642557 0.985962
O O7 0.368891 0.598369 0.941542
O O8 0.395172 0.728172 0.834881
O O9 0.750000 0.809372 0.774982
O O10 0.842762 0.742049 0.999118
O O11 0.513279 0.062601 0.787979
O O12 0.628410 0.643372 0.221563
O O13 0.603707 0.536650 0.997474
O O14 0.250000 0.274274 0.286538
O O15 0.750000 0.987161 0.463378
#
# Coordination Sequence:
#
# PCOD9362266 Si02
#       7
#     8   8   8   4   8   8   8
#     4   8  14  26  51  79 102 142 193 234 281 349
#     4  11  20  37  63  89 116 156 205 251 306 367
#     4   9  18  36  58  80 114 153 194 242 299 363
#     4  10  16  32  56  82 114 152 200 240 296 366
#     4  11  20  34  56  89 122 154 203 252 304 370
#     4  11  25  38  58  91 122 156 202 252 308 369
#     4   9  16  32  59  83 113 159 204 247 302 367
#
# _framework density 22.135190000000001
#
# number of rings (size 3 to 8) (size 9 to 14) (size 15 to 20)
#    0.000    2.154    4.615    2.769    2.154    0.615 
#    0.000    0.000    3.385    3.692    0.000   10.769 
#    0.000    0.000    0.000    0.000    0.000    0.000 
#
# Total GULP energy -145173.119494 kJ/mol
# GULP energy per Si atom -5583.581519 kJ/mol
# Density = 2.208481 g / cm^3
# Si number density = 22.135190 Si / 1000 Ang^3
#
#
#
# Elastic Constant Matrix: (Units=GPa)
#
#
# Indices 1 2 3 4 5 6 
#
# 1 112.4545 21.7701 3.0316 0.0000 0.0000 0.0000
# 2 21.7701 75.2373 17.2462 0.0000 0.0000 0.0000
# 3 3.0316 17.2462 57.3348 0.0000 0.0000 0.0000
# 4 0.0000 0.0000 0.0000 20.7205 0.0000 0.0000
# 5 0.0000 0.0000 0.0000 0.0000 4.6926 0.0000
# 6 0.0000 0.0000 0.0000 0.0000 0.0000 35.4641
#
#
#
# Elastic Compliance Matrix: (Units=1/GPa)
#
#
# Indices 1 2 3 4 5 6 
#
# 1 0.009427 -0.002807 0.000346 0.000000 0.000000 0.000000
# 2 -0.002807 0.015111 -0.004397 0.000000 0.000000 0.000000
# 3 0.000346 -0.004397 0.018746 0.000000 0.000000 0.000000
# 4 0.000000 0.000000 0.000000 0.048261 0.000000 0.000000
# 5 0.000000 0.000000 0.000000 0.000000 0.213101 0.000000
# 6 0.000000 0.000000 0.000000 0.000000 0.000000 0.028198
#
#
# Mechanical properties :
#
#
# Convention : Reuss Voigt Hill
#
# Bulk Modulus (GPa) = 33.82085 36.56914 35.19500
# Shear Modulus (GPa) = 14.02859 25.70737 19.86798
#
# Velocity S-wave (km/s) = 2.52021 3.41160 2.99920
# Velocity P-wave (km/s) = 4.87658 5.66351 5.28471
#
# Compressibility (1/GPa) = 0.02956756
#
# Stress axis : x y z
#
# Youngs Moduli (GPa) = 106.08340 66.17536 53.34541
#
# Poissons Ratio (x) = 0.18575 -0.01845
# Poissons Ratio (y) = 0.29776 0.23456
# Poissons Ratio (z) = -0.03669 0.29098
#
# Static dielectric constant tensor:
#      x y z
#    x 1.901630 0.000000 0.000000 
#    y 0.000000 1.811260 0.000000 
#    z 0.000000 0.000000 1.803530 
# 
# From -- ./inp_files/7634.got.cif
#   From: 2010.05.17/outbox.cif.g08.bks.cpg/sg40_4_cif.got.tgz:7634.got - 2010.06.03 18:35:42.
