data_PCOD9362324
_publ_section_title
;
Structure prediction by ZEFSAII (Michael W. Deem and Ramdas Pophale) SiO2 
 PCOD9362324
Probable space group: A M A 2
;
_chemical_formula_sum "Si O2"
_cell_formula_units_Z 60
_cell_length_a 12.240803
_cell_length_b 25.048703
_cell_length_c 8.785885
_cell_angle_alpha 90.000000
_cell_angle_beta 90.000000
_cell_angle_gamma 90.000000
_cell_volume 2693.895013
_symmetry_space_group_name_H-M "A M A 2"
_symmetry_group_IT_number 40
_symmetry_cell_setting 'orthorhombic'
loop_
_space_group_symop_operation_xyz
x,y,z
-x,-y,z
1/2-x,y,z
1/2+x,-y,z
x,1/2+y,1/2+z
-x,1/2-y,1/2+z
1/2-x,1/2+y,1/2+z
1/2+x,1/2-y,1/2+z
loop_
_atom_site_type_symbol
_atom_site_label
_atom_site_fract_x
_atom_site_fract_y
_atom_site_fract_z
Si Si1 0.548579 0.865926 0.022750
Si Si2 0.878117 0.525787 0.188507
Si Si3 0.500000 0.500000 0.792423
Si Si4 0.468034 0.701979 0.062576
Si Si5 0.131594 0.517230 0.523815
Si Si6 0.369763 0.235209 0.852964
Si Si7 0.381278 0.609444 0.858533
Si Si8 0.624716 0.644960 0.285119
O O1 0.576506 0.862868 0.201303
O O2 0.571478 0.927745 0.988926
O O3 0.621081 0.824587 0.924925
O O4 0.429208 0.857220 0.952073
O O5 0.750000 0.511942 0.126704
O O6 0.868132 0.512860 0.366642
O O7 0.887744 0.589544 0.190048
O O8 0.000000 0.500000 0.143968
O O9 0.409308 0.483102 0.666974
O O10 0.445214 0.552254 0.866740
O O11 0.384267 0.733308 0.170770
O O12 0.560460 0.687017 0.184640
O O13 0.531020 0.733352 0.931205
O O14 0.413180 0.649048 0.994078
O O15 0.250000 0.535931 0.568300
O O16 0.250000 0.257250 0.891715
O O17 0.250000 0.602320 0.856259
O O18 0.750000 0.657612 0.298346
#
# Coordination Sequence:
#
# PCOD9362324 Si02
#       8
#     8   8   4   8   8   8   8   8
#     4  10  19  36  65  96 128 163 216 263 324 385
#     4  10  17  30  52  85 125 167 211 256 309 370
#     4  10  18  34  58  86 126 166 212 248 312 384
#     4  11  25  45  66  93 128 165 222 274 332 405
#     4  10  17  29  52  88 129 168 212 257 302 373
#     4  11  23  43  69  98 127 168 216 274 336 392
#     4  11  23  43  66  95 132 173 216 271 325 389
#     4  10  21  39  60  90 132 171 213 269 323 384
#
# _framework density 22.272582
#
# number of rings (size 3 to 8) (size 9 to 14) (size 15 to 20)
#    0.000    1.600    2.000    4.800    0.000    0.000 
#    1.200   16.000    0.000    0.000    0.000    0.000 
#    0.000    0.000    0.000    0.000    0.000    0.000 
#
# Total GULP energy -167045.361555 kJ/mol
# GULP energy per Si atom -5568.178719 kJ/mol
# Density = 2.222189 g / cm^3
# Si number density = 22.272582 Si / 1000 Ang^3
#
#
#
# Elastic Constant Matrix: (Units=GPa)
#
#
# Indices 1 2 3 4 5 6 
#
# 1 138.9865 36.2835 45.1046 0.0000 0.0000 0.0000
# 2 36.2835 65.7806 26.4200 0.0000 0.0000 0.0000
# 3 45.1046 26.4200 98.4058 0.0000 0.0000 0.0000
# 4 0.0000 0.0000 0.0000 45.7735 0.0000 0.0000
# 5 0.0000 0.0000 0.0000 0.0000 9.5163 0.0000
# 6 0.0000 0.0000 0.0000 0.0000 0.0000 19.1932
#
#
#
# Elastic Compliance Matrix: (Units=1/GPa)
#
#
# Indices 1 2 3 4 5 6 
#
# 1 0.009229 -0.003801 -0.003209 0.000000 0.000000 0.000000
# 2 -0.003801 0.018605 -0.003253 0.000000 0.000000 0.000000
# 3 -0.003209 -0.003253 0.012506 0.000000 0.000000 0.000000
# 4 0.000000 0.000000 0.000000 0.021847 0.000000 0.000000
# 5 0.000000 0.000000 0.000000 0.000000 0.105083 0.000000
# 6 0.000000 0.000000 0.000000 0.000000 0.000000 0.052102
#
#
# Mechanical properties :
#
#
# Convention : Reuss Voigt Hill
#
# Bulk Modulus (GPa) = 50.47137 57.64322 54.05730
# Shear Modulus (GPa) = 20.28365 27.92091 24.10228
#
# Velocity S-wave (km/s) = 3.02105 3.54446 3.29317
# Velocity P-wave (km/s) = 5.90584 6.53360 6.22764
#
# Compressibility (1/GPa) = 0.01981321
#
# Stress axis : x y z
#
# Youngs Moduli (GPa) = 108.35528 53.74819 79.95925
#
# Poissons Ratio (x) = 0.20432 0.25663
# Poissons Ratio (y) = 0.41191 0.26009
# Poissons Ratio (z) = 0.34776 0.17483
#
# Static dielectric constant tensor:
#      x y z
#    x 1.923060 0.000000 0.000000 
#    y 0.000000 1.824660 0.000000 
#    z 0.000000 0.000000 1.853720 
# 
# From -- ./inp_files/5574.got.cif
#   From: 2010.05.17/outbox.cif.g08.bks.cpg/sg40_3_cif.got.tgz:5574.got - 2010.06.03 18:35:42.
