data_PCOD9362221
_publ_section_title
;
Structure prediction by ZEFSAII (Michael W. Deem and Ramdas Pophale) SiO2 
 PCOD9362221
Probable space group: A B M 2
;
_chemical_formula_sum "Si O2"
_cell_formula_units_Z 24
_cell_length_a 9.000000
_cell_length_b 30.000000
_cell_length_c 9.000000
_cell_angle_alpha 90.000000
_cell_angle_beta 90.000000
_cell_angle_gamma 90.000000
_cell_volume 2430.000000
_symmetry_space_group_name_H-M "A B M 2"
_symmetry_group_IT_number 39
_symmetry_cell_setting 'orthorhombic'
loop_
_space_group_symop_operation_xyz
x,y,z
-x,-y,z
-x,1/2+y,z
x,1/2-y,z
x,1/2+y,1/2+z
-x,1/2-y,1/2+z
-x,y,1/2+z
x,-y,1/2+z
loop_
_atom_site_type_symbol
_atom_site_label
_atom_site_fract_x
_atom_site_fract_y
_atom_site_fract_z
Si Si1 0.727332 0.003590 0.958380
Si Si2 0.793356 0.660597 0.163239
Si Si3 0.240910 0.065975 0.714067
Si Si4 0.634498 0.250000 0.800730
Si Si5 0.601012 0.566117 0.200056
Si Si6 0.701003 0.750000 0.667101
Si Si7 0.123648 0.836740 0.305120
O O1 0.641156 0.037734 0.848165
O O2 0.802509 0.967910 0.847407
O O3 0.809851 0.038591 0.067369
O O4 0.641840 0.968908 0.068343
O O5 0.838101 0.664758 0.985089
O O6 0.703377 0.704621 0.224144
O O7 0.694950 0.613638 0.185190
O O8 0.947640 0.662115 0.259709
O O9 0.421787 0.071515 0.702533
O O10 0.181421 0.115510 0.742974
O O11 0.458400 0.250000 0.755111
O O12 0.668788 0.250000 0.983727
O O13 0.794144 0.705657 0.722709
#
# Coordination Sequence:
#
# PCOD9362221 Si02
#       7
#     8   8   8   4   8   4   8
#     4  10  21  38  65 100 133 180 231 294 341 404
#     4  12  27  47  69 101 143 186 229 280 347 414
#     4  11  21  39  68  98 135 177 236 287 348 401
#     4  12  27  50  81 110 136 172 222 282 341 408
#     4  11  21  39  68  98 135 177 236 287 348 401
#     4  12  27  50  81 110 136 172 222 282 341 408
#     4  12  27  47  69 101 143 186 229 280 347 414
#
# _framework density 9.8765429999999999
#
# number of rings (size 3 to 8) (size 9 to 14) (size 15 to 20)
#    0.000    0.667    1.667    8.000    4.667    0.000 
#    0.000    5.000    0.000    0.000    0.000    0.000 
#    0.000    0.000    0.000    0.000    0.000    0.000 
#
# Total GULP energy -133919.832166 kJ/mol
# GULP energy per Si atom -5579.993007 kJ/mol
# Density = 0.985406 g / cm^3
# Si number density = 9.876543 Si / 1000 Ang^3
#
#
#
# Elastic Constant Matrix: (Units=GPa)
#
#
# Indices 1 2 3 4 5 6 
#
# 1 91.2454 55.9300 16.1230 0.0000 0.0000 0.0000
# 2 55.9300 208.9349 51.8611 0.0000 0.0000 0.0000
# 3 16.1230 51.8611 152.4415 0.0000 0.0000 0.0000
# 4 0.0000 0.0000 0.0000 48.5290 0.0000 0.0000
# 5 0.0000 0.0000 0.0000 0.0000 30.3918 0.0000
# 6 0.0000 0.0000 0.0000 0.0000 0.0000 39.6590
#
#
#
# Elastic Compliance Matrix: (Units=1/GPa)
#
#
# Indices 1 2 3 4 5 6 
#
# 1 0.013117 -0.003459 -0.000211 0.000000 0.000000 0.000000
# 2 -0.003459 0.006140 -0.001723 0.000000 0.000000 0.000000
# 3 -0.000211 -0.001723 0.007168 0.000000 0.000000 0.000000
# 4 0.000000 0.000000 0.000000 0.020606 0.000000 0.000000
# 5 0.000000 0.000000 0.000000 0.000000 0.032904 0.000000
# 6 0.000000 0.000000 0.000000 0.000000 0.000000 0.025215
#
#
# Mechanical properties :
#
#
# Convention : Reuss Voigt Hill
#
# Bulk Modulus (GPa) = 63.93856 77.82777 70.88316
# Shear Modulus (GPa) = 41.27179 45.62981 43.45080
#
# Velocity S-wave (km/s) = 4.57594 4.81147 4.69518
# Velocity P-wave (km/s) = 7.76905 8.38766 8.08427
#
# Compressibility (1/GPa) = 0.01564001
#
# Stress axis : x y z
#
# Youngs Moduli (GPa) = 76.23754 162.87214 139.50291
#
# Poissons Ratio (x) = 0.56338 0.02937
# Poissons Ratio (y) = 0.26371 0.24035
# Poissons Ratio (z) = 0.01605 0.28062
#
# Static dielectric constant tensor:
#      x y z
#    x 1.726660 0.000000 0.000000 
#    y 0.000000 1.678520 0.000000 
#    z 0.000000 0.000000 1.748430 
# 
# From -- ./inp_files/2332.got.cif
#   From: 2010.05.17/outbox.ucp.g08.bks.cvg/sg39_2_cif.got.tgz:2332.got - 2010.06.11 10:41:16.
