data_PCOD9362907
_publ_section_title
;
Structure prediction by ZEFSAII (Michael W. Deem and Ramdas Pophale) SiO2 
 PCOD9362907
Probable space group: A M A 2
;
_chemical_formula_sum "Si O2"
_cell_formula_units_Z 60
_cell_length_a 14.089853
_cell_length_b 12.220693
_cell_length_c 20.405164
_cell_angle_alpha 90.000000
_cell_angle_beta 90.000000
_cell_angle_gamma 90.000000
_cell_volume 3513.519643
_symmetry_space_group_name_H-M "A M A 2"
_symmetry_group_IT_number 40
_symmetry_cell_setting 'orthorhombic'
loop_
_space_group_symop_operation_xyz
x,y,z
-x,-y,z
1/2-x,y,z
1/2+x,-y,z
x,1/2+y,1/2+z
-x,1/2-y,1/2+z
1/2-x,1/2+y,1/2+z
1/2+x,1/2-y,1/2+z
loop_
_atom_site_type_symbol
_atom_site_label
_atom_site_fract_x
_atom_site_fract_y
_atom_site_fract_z
Si Si1 0.362265 0.702914 0.330900
Si Si2 0.365035 0.062855 0.513703
Si Si3 0.863954 0.539963 0.360350
Si Si4 0.365110 0.936089 0.381636
Si Si5 0.000000 0.500000 0.128483
Si Si6 0.532080 0.666522 0.242470
Si Si7 0.359644 0.140379 0.301082
Si Si8 0.860008 0.730970 0.440503
O O1 0.250000 0.713171 0.317767
O O2 0.377325 0.588947 0.368767
O O3 0.396371 0.812361 0.367756
O O4 0.425105 0.688108 0.266528
O O5 0.250000 0.063364 0.517552
O O6 0.400248 0.184091 0.492537
O O7 0.391212 0.983261 0.452739
O O8 0.413158 0.027934 0.580541
O O9 0.750000 0.558310 0.351969
O O10 0.915901 0.586904 0.295775
O O11 0.898649 0.612481 0.421586
O O12 0.250000 0.937133 0.380760
O O13 0.393826 0.020373 0.323900
O O14 0.971409 0.601532 0.174919
O O15 0.584304 0.783557 0.250259
O O16 0.250000 0.132287 0.280263
O O17 0.361118 0.205572 0.370609
O O18 0.750000 0.715512 0.459307
#
# Coordination Sequence:
#
# PCOD9362907 Si02
#       8
#     8   8   8   8   4   8   8   8
#     4  10  19  30  48  75 106 128 150 203 265 306
#     4   9  19  34  49  69  99 130 163 210 248 286
#     4   9  16  29  50  75 100 124 151 202 261 300
#     4   8  16  33  54  81 102 121 161 205 261 318
#     4  12  24  32  44  72 100 140 182 198 236 306
#     4  11  20  32  43  68 102 133 171 198 234 302
#     4   8  15  29  52  75  96 119 152 207 257 295
#     4   7  12  26  48  71  91 114 151 194 245 294
#
# _framework density 17.076893999999999
#
# number of rings (size 3 to 8) (size 9 to 14) (size 15 to 20)
#    0.000    2.933    1.333    2.800    0.000    5.333 
#    0.000    0.000    0.000    0.000    6.933    0.000 
#    0.000    0.000    0.000    0.000    0.000    0.000 
#
# Total GULP energy -167022.800241 kJ/mol
# GULP energy per Si atom -5567.426675 kJ/mol
# Density = 1.703803 g / cm^3
# Si number density = 17.076894 Si / 1000 Ang^3
#
#
#
# Elastic Constant Matrix: (Units=GPa)
#
#
# Indices 1 2 3 4 5 6 
#
# 1 73.8403 32.4503 31.0618 0.0000 0.0000 0.0000
# 2 32.4503 149.3518 62.6612 0.0000 0.0000 0.0000
# 3 31.0618 62.6612 94.3330 0.0000 0.0000 0.0000
# 4 0.0000 0.0000 0.0000 28.8706 0.0000 0.0000
# 5 0.0000 0.0000 0.0000 0.0000 30.8981 0.0000
# 6 0.0000 0.0000 0.0000 0.0000 0.0000 19.3437
#
#
#
# Elastic Compliance Matrix: (Units=1/GPa)
#
#
# Indices 1 2 3 4 5 6 
#
# 1 0.016047 -0.001760 -0.004115 0.000000 0.000000 0.000000
# 2 -0.001760 0.009476 -0.005715 0.000000 0.000000 0.000000
# 3 -0.004115 -0.005715 0.015752 0.000000 0.000000 0.000000
# 4 0.000000 0.000000 0.000000 0.034637 0.000000 0.000000
# 5 0.000000 0.000000 0.000000 0.000000 0.032364 0.000000
# 6 0.000000 0.000000 0.000000 0.000000 0.000000 0.051696
#
#
# Mechanical properties :
#
#
# Convention : Reuss Voigt Hill
#
# Bulk Modulus (GPa) = 55.26324 63.31907 59.29116
# Shear Modulus (GPa) = 26.42935 28.57928 27.50432
#
# Velocity S-wave (km/s) = 3.93831 4.09536 4.01760
# Velocity P-wave (km/s) = 7.28780 7.71505 7.50446
#
# Compressibility (1/GPa) = 0.01809521
#
# Stress axis : x y z
#
# Youngs Moduli (GPa) = 62.31600 105.53344 63.48553
#
# Poissons Ratio (x) = 0.18577 0.26123
# Poissons Ratio (y) = 0.10969 0.36280
# Poissons Ratio (z) = 0.25641 0.60309
#
# Static dielectric constant tensor:
#      x y z
#    x 1.616610 0.000000 0.000000 
#    y 0.000000 1.648670 0.000000 
#    z 0.000000 0.000000 1.529980 
# 
# From -- ./inp_files/23220.got.cif
#   From: 2010.05.17/outbox.cif.g08.bks.cpg/sg40_12_cif.got.tgz:23220.got - 2010.06.03 18:35:42.
