data_PCOD9362244
_publ_section_title
;
Structure prediction by ZEFSAII (Michael W. Deem and Ramdas Pophale) SiO2 
 PCOD9362244
Probable space group: A M A 2
;
_chemical_formula_sum "Si O2"
_cell_formula_units_Z 52
_cell_length_a 9.709383
_cell_length_b 33.154782
_cell_length_c 6.852845
_cell_angle_alpha 90.000000
_cell_angle_beta 90.000000
_cell_angle_gamma 90.000000
_cell_volume 2206.016307
_symmetry_space_group_name_H-M "A M A 2"
_symmetry_group_IT_number 40
_symmetry_cell_setting 'orthorhombic'
loop_
_space_group_symop_operation_xyz
x,y,z
-x,-y,z
1/2-x,y,z
1/2+x,-y,z
x,1/2+y,1/2+z
-x,1/2-y,1/2+z
1/2-x,1/2+y,1/2+z
1/2+x,1/2-y,1/2+z
loop_
_atom_site_type_symbol
_atom_site_label
_atom_site_fract_x
_atom_site_fract_y
_atom_site_fract_z
Si Si1 0.587109 0.960196 0.805430
Si Si2 0.092615 0.300310 0.418994
Si Si3 0.091343 0.210460 0.556023
Si Si4 0.909725 0.641260 0.925546
Si Si5 0.250000 0.000586 0.252977
Si Si6 0.403133 0.886982 0.884272
Si Si7 0.511910 0.444594 0.849115
O O1 0.750000 0.966899 0.831281
O O2 0.517707 0.920903 0.900564
O O3 0.562913 0.953324 0.571766
O O4 0.500000 0.000000 0.855712
O O5 0.250000 0.298974 0.332266
O O6 0.081641 0.258597 0.533024
O O7 0.082769 0.345336 0.504349
O O8 0.968222 0.298179 0.268148
O O9 0.250000 0.198535 0.531586
O O10 0.995196 0.182882 0.418555
O O11 0.750000 0.646252 0.870824
O O12 0.906352 0.627878 0.157386
O O13 0.983750 0.602812 0.830063
O O14 0.369869 0.035153 0.222772
O O15 0.370247 0.967588 0.309968
O O16 0.250000 0.904511 0.920096
#
# Coordination Sequence:
#
# PCOD9362244 Si02
#       7
#     8   8   8   8   4   8   8
#     4  11  17  22  32  51  77 110 146 182 218 269
#     4   9  19  36  50  71  98 128 158 201 244 287
#     4  10  20  32  52  73  94 126 165 197 243 291
#     4   9  17  27  39  58  85 119 151 192 236 280
#     4  10  16  22  32  48  74 112 150 186 222 272
#     4   8  16  27  41  54  81 116 147 183 230 273
#     4  10  16  23  32  50  76 112 152 185 223 271
#
# _framework density 23.571902000000001
#
# number of rings (size 3 to 8) (size 9 to 14) (size 15 to 20)
#    0.000    2.462    3.077    1.846    2.154    4.923 
#    0.000    0.000    0.000    0.000    0.000    0.000 
#    0.000    0.000    5.231    2.615    0.000    8.308 
#
# Total GULP energy -144842.568541 kJ/mol
# GULP energy per Si atom -5570.868021 kJ/mol
# Density = 2.351825 g / cm^3
# Si number density = 23.571902 Si / 1000 Ang^3
#
#
#
# Elastic Constant Matrix: (Units=GPa)
#
#
# Indices 1 2 3 4 5 6 
#
# 1 221.8428 107.7605 34.0376 0.0000 0.0000 0.0000
# 2 107.7605 186.2363 31.3338 0.0000 0.0000 0.0000
# 3 34.0376 31.3338 59.2678 0.0000 0.0000 0.0000
# 4 0.0000 0.0000 0.0000 33.1906 0.0000 0.0000
# 5 0.0000 0.0000 0.0000 0.0000 26.1541 0.0000
# 6 0.0000 0.0000 0.0000 0.0000 0.0000 52.0292
#
#
#
# Elastic Compliance Matrix: (Units=1/GPa)
#
#
# Indices 1 2 3 4 5 6 
#
# 1 0.006460 -0.003418 -0.001903 0.000000 0.000000 0.000000
# 2 -0.003418 0.007702 -0.002109 0.000000 0.000000 0.000000
# 3 -0.001903 -0.002109 0.019081 0.000000 0.000000 0.000000
# 4 0.000000 0.000000 0.000000 0.030129 0.000000 0.000000
# 5 0.000000 0.000000 0.000000 0.000000 0.038235 0.000000
# 6 0.000000 0.000000 0.000000 0.000000 0.000000 0.019220
#
#
# Mechanical properties :
#
#
# Convention : Reuss Voigt Hill
#
# Bulk Modulus (GPa) = 54.39900 90.40121 72.40011
# Shear Modulus (GPa) = 35.25765 41.88912 38.57339
#
# Velocity S-wave (km/s) = 3.87169 4.22011 4.04965
# Velocity P-wave (km/s) = 6.56617 7.88545 7.25586
#
# Compressibility (1/GPa) = 0.01838269
#
# Stress axis : x y z
#
# Youngs Moduli (GPa) = 154.80392 129.83853 52.40944
#
# Poissons Ratio (x) = 0.44374 0.09974
# Poissons Ratio (y) = 0.52906 0.11054
# Poissons Ratio (z) = 0.29460 0.27384
#
# Static dielectric constant tensor:
#      x y z
#    x 1.776310 0.000000 0.000000 
#    y 0.000000 1.885860 0.000000 
#    z 0.000000 0.000000 2.123890 
# 
# From -- ./inp_files/10487.got.cif
#   From: 2010.05.17/outbox.cif.g08.bks.cpg/sg40_6_cif.got.tgz:10487.got - 2010.06.03 18:35:42.
