data_PCOD9362958
_publ_section_title
;
Structure prediction by ZEFSAII (Michael W. Deem and Ramdas Pophale) SiO2 
 PCOD9362958
Probable space group: A M A 2
;
_chemical_formula_sum "Si O2"
_cell_formula_units_Z 64
_cell_length_a 9.204854
_cell_length_b 16.402645
_cell_length_c 22.604940
_cell_angle_alpha 90.000000
_cell_angle_beta 90.000000
_cell_angle_gamma 90.000000
_cell_volume 3412.983186
_symmetry_space_group_name_H-M "A M A 2"
_symmetry_group_IT_number 40
_symmetry_cell_setting 'orthorhombic'
loop_
_space_group_symop_operation_xyz
x,y,z
-x,-y,z
1/2-x,y,z
1/2+x,-y,z
x,1/2+y,1/2+z
-x,1/2-y,1/2+z
1/2-x,1/2+y,1/2+z
1/2+x,1/2-y,1/2+z
loop_
_atom_site_type_symbol
_atom_site_label
_atom_site_fract_x
_atom_site_fract_y
_atom_site_fract_z
Si Si1 0.585827 0.390054 0.823990
Si Si2 0.919419 0.421403 0.369743
Si Si3 0.588501 0.200174 0.794579
Si Si4 0.078817 0.242834 0.166836
Si Si5 0.075334 0.584774 0.962711
Si Si6 0.923696 0.916466 0.009102
Si Si7 0.078027 0.919941 0.204953
Si Si8 0.923622 0.729239 0.035860
O O1 0.750000 0.421908 0.810851
O O2 0.593760 0.293007 0.816158
O O3 0.548937 0.408812 0.891749
O O4 0.471873 0.415712 0.773922
O O5 0.750000 0.433384 0.365818
O O6 0.956122 0.412335 0.438880
O O7 0.000000 0.500000 0.345542
O O8 0.971222 0.345135 0.332907
O O9 0.750000 0.164444 0.803546
O O10 0.554536 0.203040 0.725008
O O11 0.250000 0.218474 0.168110
O O12 0.052713 0.288133 0.105347
O O13 0.984896 0.161304 0.174687
O O14 0.250000 0.582313 0.971344
O O15 0.000000 0.500000 0.982819
O O16 0.007929 0.664243 0.995265
O O17 0.750000 0.924789 0.018256
O O18 0.965837 0.825468 0.030506
O O19 0.000000 0.000000 0.031271
O O20 0.250000 0.924534 0.199476
O O21 0.000000 0.000000 0.179797
O O22 0.750000 0.724467 0.022582
#
# Coordination Sequence:
#
# PCOD9362958 Si02
#       8
#     8   8   8   8   8   8   8   8
#     4   9  19  35  55  81 112 143 175 217 273 333
#     4  10  19  31  49  75 105 134 167 210 261 317
#     4   9  17  32  53  76 103 134 169 212 264 319
#     4   9  20  38  56  75 104 141 180 222 270 323
#     4  11  23  38  58  84 113 147 188 234 283 336
#     4   9  19  34  54  82 113 143 176 216 265 323
#     4  11  21  33  53  80 111 144 178 219 267 324
#     4  10  21  39  60  81 110 148 188 232 279 327
#
# _framework density 18.751925
#
# number of rings (size 3 to 8) (size 9 to 14) (size 15 to 20)
#    0.000    2.250    0.000    3.750    0.000    6.000 
#    0.000    1.875    0.000    0.000    0.000    0.000 
#    0.000    0.000    0.000    0.000    0.000    0.000 
#
# Total GULP energy -178477.522315 kJ/mol
# GULP energy per Si atom -5577.422572 kJ/mol
# Density = 1.870924 g / cm^3
# Si number density = 18.751925 Si / 1000 Ang^3
#
#
#
# Elastic Constant Matrix: (Units=GPa)
#
#
# Indices 1 2 3 4 5 6 
#
# 1 47.2360 22.7963 43.8030 0.0000 0.0000 0.0000
# 2 22.7963 71.3748 30.8696 0.0000 0.0000 0.0000
# 3 43.8030 30.8696 70.1958 0.0000 0.0000 0.0000
# 4 0.0000 0.0000 0.0000 3.5611 0.0000 0.0000
# 5 0.0000 0.0000 0.0000 0.0000 16.3054 0.0000
# 6 0.0000 0.0000 0.0000 0.0000 0.0000 34.8121
#
#
#
# Elastic Compliance Matrix: (Units=1/GPa)
#
#
# Indices 1 2 3 4 5 6 
#
# 1 0.050797 -0.003105 -0.030332 0.000000 0.000000 0.000000
# 2 -0.003105 0.017491 -0.005754 0.000000 0.000000 0.000000
# 3 -0.030332 -0.005754 0.035704 0.000000 0.000000 0.000000
# 4 0.000000 0.000000 0.000000 0.280810 0.000000 0.000000
# 5 0.000000 0.000000 0.000000 0.000000 0.061329 0.000000
# 6 0.000000 0.000000 0.000000 0.000000 0.000000 0.028726
#
#
# Mechanical properties :
#
#
# Convention : Reuss Voigt Hill
#
# Bulk Modulus (GPa) = 39.04960 42.63827 40.84394
# Shear Modulus (GPa) = 8.90034 17.02490 12.96262
#
# Velocity S-wave (km/s) = 2.18098 3.01641 2.63205
# Velocity P-wave (km/s) = 5.21649 5.90924 5.57364
#
# Compressibility (1/GPa) = 0.02560846
#
# Stress axis : x y z
#
# Youngs Moduli (GPa) = 19.68638 57.17215 28.00810
#
# Poissons Ratio (x) = 0.17753 0.84954
# Poissons Ratio (y) = 0.06113 0.16117
# Poissons Ratio (z) = 0.59713 0.32898
#
# Static dielectric constant tensor:
#      x y z
#    x 1.651150 0.000000 0.000000 
#    y 0.000000 1.663350 0.000000 
#    z 0.000000 0.000000 1.655480 
# 
# From -- ./inp_files/24278.got.cif
#   From: 2010.05.17/outbox.cif.g08.bks.cpg/sg40_13_cif.got.tgz:24278.got - 2010.06.03 18:35:42.
