data_PCOD9362957
_publ_section_title
;
Structure prediction by ZEFSAII (Michael W. Deem and Ramdas Pophale) SiO2 
 PCOD9362957
Probable space group: A M A 2
;
_chemical_formula_sum "Si O2"
_cell_formula_units_Z 64
_cell_length_a 7.862176
_cell_length_b 21.530046
_cell_length_c 16.392662
_cell_angle_alpha 90.000000
_cell_angle_beta 90.000000
_cell_angle_gamma 90.000000
_cell_volume 2774.835254
_symmetry_space_group_name_H-M "A M A 2"
_symmetry_group_IT_number 40
_symmetry_cell_setting 'orthorhombic'
loop_
_space_group_symop_operation_xyz
x,y,z
-x,-y,z
1/2-x,y,z
1/2+x,-y,z
x,1/2+y,1/2+z
-x,1/2-y,1/2+z
1/2-x,1/2+y,1/2+z
1/2+x,1/2-y,1/2+z
loop_
_atom_site_type_symbol
_atom_site_label
_atom_site_fract_x
_atom_site_fract_y
_atom_site_fract_z
Si Si1 0.453914 0.427979 0.294010
Si Si2 0.453870 0.701496 0.051924
Si Si3 0.454589 0.926986 0.974812
Si Si4 0.949115 0.307515 0.226120
Si Si5 0.555409 0.932270 0.498199
Si Si6 0.052072 0.892431 0.327314
Si Si7 0.445821 0.250204 0.885893
Si Si8 0.544777 0.072962 0.150192
O O1 0.500000 0.500000 0.282748
O O2 0.250000 0.422541 0.290688
O O3 0.517018 0.407619 0.385236
O O4 0.534774 0.381920 0.228356
O O5 0.250000 0.696781 0.059477
O O6 0.519707 0.718639 0.141563
O O7 0.525850 0.632611 0.029258
O O8 0.482475 0.747840 0.976902
O O9 0.250000 0.920235 0.973176
O O10 0.500000 0.000000 0.977631
O O11 0.517130 0.901420 0.062196
O O12 0.750000 0.289115 0.230330
O O13 0.030959 0.285989 0.311050
O O14 0.750000 0.927603 0.520807
O O15 0.538106 0.929279 0.399801
O O16 0.500000 0.000000 0.527263
O O17 0.250000 0.912554 0.327064
O O18 0.047203 0.821014 0.354095
O O19 0.982802 0.899452 0.235814
O O20 0.250000 0.230832 0.894582
O O21 0.750000 0.079966 0.149281
O O22 0.500000 0.000000 0.152889
#
# Coordination Sequence:
#
# PCOD9362957 Si02
#       8
#     8   8   8   8   8   8   8   8
#     4  10  20  35  56  83 112 146 183 227 280 336
#     4   9  20  38  58  81 111 147 185 229 278 330
#     4   8  15  28  44  66  97 133 170 210 257 309
#     4  10  21  39  60  84 113 147 186 230 282 338
#     4  10  19  31  49  74 106 141 178 219 268 324
#     4   9  17  30  48  71 100 137 179 222 270 322
#     4   9  19  37  58  79 107 144 184 230 280 326
#     4   9  16  26  42  66  98 133 173 217 262 317
#
# _framework density 23.064432
#
# number of rings (size 3 to 8) (size 9 to 14) (size 15 to 20)
#    0.000    2.750    0.000    1.125    0.000    4.000 
#    2.250    1.250    0.000    0.000    0.000    0.000 
#    0.000    0.000    0.000    0.000    0.000    0.000 
#
# Total GULP energy -178390.880662 kJ/mol
# GULP energy per Si atom -5574.715021 kJ/mol
# Density = 2.301194 g / cm^3
# Si number density = 23.064432 Si / 1000 Ang^3
#
#
#
# Elastic Constant Matrix: (Units=GPa)
#
#
# Indices 1 2 3 4 5 6 
#
# 1 29.4867 1.6883 4.0955 0.0000 0.0000 0.0000
# 2 1.6883 28.8986 26.7748 0.0000 0.0000 0.0000
# 3 4.0955 26.7748 161.5688 0.0000 0.0000 0.0000
# 4 0.0000 0.0000 0.0000 -68.6682 0.0000 0.0000
# 5 0.0000 0.0000 0.0000 0.0000 15.1587 0.0000
# 6 0.0000 0.0000 0.0000 0.0000 0.0000 62.7591
#
#
#
# Elastic Compliance Matrix: (Units=1/GPa)
#
#
# Indices 1 2 3 4 5 6 
#
# 1 0.034082 -0.001407 -0.000631 0.000000 0.000000 0.000000
# 2 -0.001407 0.040939 -0.006749 0.000000 0.000000 0.000000
# 3 -0.000631 -0.006749 0.007324 0.000000 0.000000 0.000000
# 4 0.000000 0.000000 0.000000 -0.014563 0.000000 0.000000
# 5 0.000000 0.000000 0.000000 0.000000 0.065969 0.000000
# 6 0.000000 0.000000 0.000000 0.000000 0.000000 0.015934
#
#
# Mechanical properties :
#
#
# Convention : Reuss Voigt Hill
#
# Bulk Modulus (GPa) = 15.43881 31.67460 23.55671
# Shear Modulus (GPa) = 26.47654 14.34296 20.40975
#
# Velocity S-wave (km/s) = 3.39180 2.49643 2.97796
# Velocity P-wave (km/s) = 4.69546 4.69813 4.69680
#
# Compressibility (1/GPa) = 0.06477183
#
# Stress axis : x y z
#
# Youngs Moduli (GPa) = 29.34122 24.42683 136.54361
#
# Poissons Ratio (x) = 0.03436 0.08613
# Poissons Ratio (y) = 0.04127 0.92148
# Poissons Ratio (z) = 0.01851 0.16485
#
# Static dielectric constant tensor:
#      x y z
#    x 1.844890 0.000000 0.000000 
#    y 0.000000 1.908100 0.000000 
#    z 0.000000 0.000000 1.937020 
# 
# From -- ./inp_files/15708.got.cif
#   From: 2010.05.17/outbox.cif.g08.bks.cpg/sg40_8_cif.got.tgz:15708.got - 2010.06.03 18:35:42.
