data_PCOD9362030
_publ_section_title
;
Structure prediction by ZEFSAII (Michael W. Deem and Ramdas Pophale) SiO2 
 PCOD9362030
Probable space group: A B M 2
;
_chemical_formula_sum "Si O2"
_cell_formula_units_Z 32
_cell_length_a 9.896299
_cell_length_b 18.242305
_cell_length_c 8.362576
_cell_angle_alpha 90.000000
_cell_angle_beta 90.000000
_cell_angle_gamma 90.000000
_cell_volume 1509.706756
_symmetry_space_group_name_H-M "A B M 2"
_symmetry_group_IT_number 39
_symmetry_cell_setting 'orthorhombic'
loop_
_space_group_symop_operation_xyz
x,y,z
-x,-y,z
-x,1/2+y,z
x,1/2-y,z
x,1/2+y,1/2+z
-x,1/2-y,1/2+z
-x,y,1/2+z
x,-y,1/2+z
loop_
_atom_site_type_symbol
_atom_site_label
_atom_site_fract_x
_atom_site_fract_y
_atom_site_fract_z
Si Si1 0.655670 0.666399 0.818630
Si Si2 0.439395 0.418675 0.511147
Si Si3 0.100560 0.596122 0.457970
Si Si4 0.170619 0.937013 0.824390
O O1 0.623788 0.750000 0.777850
O O2 0.628776 0.612999 0.669708
O O3 0.557839 0.635248 0.956125
O O4 0.807698 0.658764 0.882795
O O5 0.500000 0.500000 0.534283
O O6 0.322967 0.421026 0.376314
O O7 0.138681 0.581536 0.641500
O O8 0.142865 0.522374 0.361931
O O9 0.940893 0.604972 0.432055
#
# Coordination Sequence:
#
# PCOD9362030 Si02
#       4
#     8   8   8   8
#     4  12  26  44  65 100 143 182 224 284 352 410
#     4  12  24  42  70 102 133 183 234 284 334 412
#     4  11  22  41  67 100 135 175 223 285 343 405
#     4  11  22  40  70 101 131 172 232 287 333 401
#
# _framework density 21.196169999999999
#
# number of rings (size 3 to 8) (size 9 to 14) (size 15 to 20)
#    0.000    0.500    2.500    9.000    0.000    0.000 
#    0.000    7.500    0.000    0.000    0.000    0.000 
#    0.000    0.000    0.000    0.000    0.000    0.000 
#
# Total GULP energy -89565.797423 kJ/mol
# GULP energy per Si atom -5597.862339 kJ/mol
# Density = 2.114793 g / cm^3
# Si number density = 21.196170 Si / 1000 Ang^3
#
#
#
# Elastic Constant Matrix: (Units=GPa)
#
#
# Indices 1 2 3 4 5 6 
#
# 1 102.1815 51.1365 13.3374 0.0000 0.0000 0.0000
# 2 51.1365 87.9222 39.9197 0.0000 0.0000 0.0000
# 3 13.3374 39.9197 129.3681 0.0000 0.0000 0.0000
# 4 0.0000 0.0000 0.0000 12.0913 0.0000 0.0000
# 5 0.0000 0.0000 0.0000 0.0000 38.8882 0.0000
# 6 0.0000 0.0000 0.0000 0.0000 0.0000 13.0691
#
#
#
# Elastic Compliance Matrix: (Units=1/GPa)
#
#
# Indices 1 2 3 4 5 6 
#
# 1 0.013974 -0.008691 0.001241 0.000000 0.000000 0.000000
# 2 -0.008691 0.018632 -0.004853 0.000000 0.000000 0.000000
# 3 0.001241 -0.004853 0.009100 0.000000 0.000000 0.000000
# 4 0.000000 0.000000 0.000000 0.082704 0.000000 0.000000
# 5 0.000000 0.000000 0.000000 0.000000 0.025715 0.000000
# 6 0.000000 0.000000 0.000000 0.000000 0.000000 0.076516
#
#
# Mechanical properties :
#
#
# Convention : Reuss Voigt Hill
#
# Bulk Modulus (GPa) = 58.48231 58.69545 58.58888
# Shear Modulus (GPa) = 19.45934 27.14827 23.30380
#
# Velocity S-wave (km/s) = 3.03324 3.58272 3.31937
# Velocity P-wave (km/s) = 6.31809 6.69822 6.51093
#
# Compressibility (1/GPa) = 0.01709919
#
# Stress axis : x y z
#
# Youngs Moduli (GPa) = 71.56239 53.67115 109.89549
#
# Poissons Ratio (x) = 0.46645 -0.13639
# Poissons Ratio (y) = 0.62194 0.53336
# Poissons Ratio (z) = -0.08882 0.26049
#
# Static dielectric constant tensor:
#      x y z
#    x 1.802340 0.000000 0.000000 
#    y 0.000000 1.723330 0.000000 
#    z 0.000000 0.000000 1.773690 
# 
# From -- ./inp_files/2424.got.cif
#   From: 2010.05.17/outbox.cif.g08.bks.cpg/sg39_2_cif.got.tgz:2424.got - 2010.06.03 18:22:40.
