data_PCOD9362000
_publ_section_title
;
Structure prediction by ZEFSAII (Michael W. Deem and Ramdas Pophale) SiO2 
 PCOD9362000
Probable space group: A B M 2
;
_chemical_formula_sum "Si O2"
_cell_formula_units_Z 48
_cell_length_a 5.002684
_cell_length_b 28.182268
_cell_length_c 16.926847
_cell_angle_alpha 90.000000
_cell_angle_beta 90.000000
_cell_angle_gamma 90.000000
_cell_volume 2386.465060
_symmetry_space_group_name_H-M "A B M 2"
_symmetry_group_IT_number 39
_symmetry_cell_setting 'orthorhombic'
loop_
_space_group_symop_operation_xyz
x,y,z
-x,-y,z
-x,1/2+y,z
x,1/2-y,z
x,1/2+y,1/2+z
-x,1/2-y,1/2+z
-x,y,1/2+z
x,-y,1/2+z
loop_
_atom_site_type_symbol
_atom_site_label
_atom_site_fract_x
_atom_site_fract_y
_atom_site_fract_z
Si Si1 0.745405 0.032623 0.603690
Si Si2 0.230091 0.250000 0.872169
Si Si3 0.632572 0.355381 0.316354
Si Si4 0.269724 0.250000 0.477313
Si Si5 0.880754 0.379471 0.718120
Si Si6 0.446893 0.109374 0.990572
Si Si7 0.060047 0.842468 0.060947
O O1 0.816387 0.073027 0.668362
O O2 0.660757 0.059464 0.523054
O O3 0.500000 0.000000 0.630845
O O4 0.000000 0.000000 0.590983
O O5 0.293548 0.200053 0.829624
O O6 0.923266 0.250000 0.900475
O O7 0.427481 0.250000 0.948045
O O8 0.392710 0.360378 0.254493
O O9 0.535259 0.379496 0.398142
O O10 0.894907 0.382811 0.285422
O O11 0.190610 0.295378 0.527687
O O12 0.009434 0.344045 0.653716
O O13 0.728728 0.117573 0.033912
O O14 0.224578 0.146658 0.021524
#
# Coordination Sequence:
#
# PCOD9362000 Si02
#       7
#     8   4   8   4   8   8   8
#     4  11  23  45  70  93 122 167 221 273 327 395
#     4  12  24  38  64  96 134 178 218 256 312 368
#     4  12  23  42  63  98 137 173 209 262 321 383
#     4  12  20  38  62  94 122 176 232 266 284 372
#     4  11  25  41  64  95 133 171 206 269 338 378
#     4  11  22  41  66  93 125 166 217 263 321 383
#     4  11  21  39  62  91 125 173 222 258 309 373
#
# _framework density 20.113430000000001
#
# number of rings (size 3 to 8) (size 9 to 14) (size 15 to 20)
#    0.000    0.667    3.333    7.000    0.000    1.333 
#    0.000    5.000    0.000    0.000    0.000    0.000 
#    0.000    0.000    0.000    0.000    0.000    0.000 
#
# Total GULP energy -134158.852655 kJ/mol
# GULP energy per Si atom -5589.952194 kJ/mol
# Density = 2.006765 g / cm^3
# Si number density = 20.113430 Si / 1000 Ang^3
#
#
#
# Elastic Constant Matrix: (Units=GPa)
#
#
# Indices 1 2 3 4 5 6 
#
# 1 102.4350 19.9906 20.1959 0.0000 0.0000 0.0000
# 2 19.9906 94.5468 43.0312 0.0000 0.0000 0.0000
# 3 20.1959 43.0312 70.9001 0.0000 0.0000 0.0000
# 4 0.0000 0.0000 0.0000 8.7684 0.0000 0.0000
# 5 0.0000 0.0000 0.0000 0.0000 35.3405 0.0000
# 6 0.0000 0.0000 0.0000 0.0000 0.0000 552.9016
#
#
#
# Elastic Compliance Matrix: (Units=1/GPa)
#
#
# Indices 1 2 3 4 5 6 
#
# 1 0.010438 -0.001180 -0.002257 0.000000 0.000000 0.000000
# 2 -0.001180 0.014747 -0.008614 0.000000 0.000000 0.000000
# 3 -0.002257 -0.008614 0.019976 0.000000 0.000000 0.000000
# 4 0.000000 0.000000 0.000000 0.114046 0.000000 0.000000
# 5 0.000000 0.000000 0.000000 0.000000 0.028296 0.000000
# 6 0.000000 0.000000 0.000000 0.000000 0.000000 0.001809
#
#
# Mechanical properties :
#
#
# Convention : Reuss Voigt Hill
#
# Bulk Modulus (GPa) = 47.48826 48.25747 47.87287
# Shear Modulus (GPa) = 22.68271 131.71302 77.19787
#
# Velocity S-wave (km/s) = 3.36183 8.10107 6.20198
# Velocity P-wave (km/s) = 6.22340 10.56162 8.66829
#
# Compressibility (1/GPa) = 0.02105783
#
# Stress axis : x y z
#
# Youngs Moduli (GPa) = 95.80827 67.81145 50.06124
#
# Poissons Ratio (x) = 0.07999 0.11300
# Poissons Ratio (y) = 0.11301 0.43124
# Poissons Ratio (z) = 0.21626 0.58414
#
# Static dielectric constant tensor:
#      x y z
#    x 1.696370 0.000000 0.000000 
#    y 0.000000 1.729740 0.000000 
#    z 0.000000 0.000000 1.727060 
# 
# From -- ./inp_files/7636.got.cif
#   From: 2010.05.17/outbox.cif.g08.bks.cpg/sg39_4_cif.got.tgz:7636.got - 2010.06.03 18:22:40.
