data_PCOD9362871
_publ_section_title
;
Structure prediction by ZEFSAII (Michael W. Deem and Ramdas Pophale) SiO2 
 PCOD9362871
Probable space group: A M A 2
;
_chemical_formula_sum "Si O2"
_cell_formula_units_Z 56
_cell_length_a 9.039298
_cell_length_b 18.774757
_cell_length_c 20.992283
_cell_angle_alpha 90.000000
_cell_angle_beta 90.000000
_cell_angle_gamma 90.000000
_cell_volume 3562.613435
_symmetry_space_group_name_H-M "A M A 2"
_symmetry_group_IT_number 40
_symmetry_cell_setting 'orthorhombic'
loop_
_space_group_symop_operation_xyz
x,y,z
-x,-y,z
1/2-x,y,z
1/2+x,-y,z
x,1/2+y,1/2+z
-x,1/2-y,1/2+z
1/2-x,1/2+y,1/2+z
1/2+x,1/2-y,1/2+z
loop_
_atom_site_type_symbol
_atom_site_label
_atom_site_fract_x
_atom_site_fract_y
_atom_site_fract_z
Si Si1 0.574362 0.347639 0.750000
Si Si2 0.427187 0.921994 0.370348
Si Si3 0.428987 0.150983 0.492234
Si Si4 0.079220 0.217094 0.692757
Si Si5 0.580289 0.705084 0.554721
Si Si6 0.074987 0.576247 0.614492
Si Si7 0.928125 0.423709 0.126686
O O1 0.750000 0.350566 0.762235
O O2 0.484028 0.381042 0.807831
O O3 0.521514 0.267109 0.736056
O O4 0.543396 0.392620 0.685407
O O5 0.250000 0.927288 0.371016
O O6 0.487373 0.881099 0.432360
O O7 0.500000 0.000000 0.370054
O O8 0.250000 0.147306 0.484019
O O9 0.468095 0.233641 0.505693
O O10 0.465836 0.106182 0.556144
O O11 0.250000 0.216855 0.715271
O O12 0.080520 0.254304 0.622975
O O13 0.028348 0.136777 0.678051
O O14 0.750000 0.685302 0.540788
O O15 0.484344 0.634991 0.564890
O O16 0.250000 0.569222 0.608659
O O17 0.000000 0.500000 0.606761
O O18 0.750000 0.428644 0.128954
O O19 0.000000 0.500000 0.137156
#
# Coordination Sequence:
#
# PCOD9362871 Si02
#       7
#     8   8   8   8   8   8   8
#     4  10  20  33  48  67  91 122 158 194 230 272
#     4  12  24  35  48  67  93 126 160 194 227 265
#     4   9  18  33  49  67  93 125 158 191 227 270
#     4   8  15  29  46  65  90 120 152 187 229 276
#     4   8  15  29  48  66  89 120 151 186 230 275
#     4  10  19  29  45  69  95 121 152 190 232 275
#     4   9  17  28  45  69  96 124 153 188 231 273
#
# _framework density 15.718798
#
# number of rings (size 3 to 8) (size 9 to 14) (size 15 to 20)
#    0.000    2.571    0.000    4.714    0.000    5.714 
#    0.000    2.857    0.000    0.000    0.000    1.000 
#    0.000    2.286    0.000    0.000    0.000    0.000 
#
# Total GULP energy -156080.652081 kJ/mol
# GULP energy per Si atom -5574.309003 kJ/mol
# Density = 1.568302 g / cm^3
# Si number density = 15.718798 Si / 1000 Ang^3
#
#
#
# Elastic Constant Matrix: (Units=GPa)
#
#
# Indices 1 2 3 4 5 6 
#
# 1 67.9866 71.2229 46.8002 0.0000 0.0000 0.0000
# 2 71.2229 160.4957 58.2784 0.0000 0.0000 0.0000
# 3 46.8002 58.2784 63.8823 0.0000 0.0000 0.0000
# 4 0.0000 0.0000 0.0000 22.7782 0.0000 0.0000
# 5 0.0000 0.0000 0.0000 0.0000 9.8742 0.0000
# 6 0.0000 0.0000 0.0000 0.0000 0.0000 30.7427
#
#
#
# Elastic Compliance Matrix: (Units=1/GPa)
#
#
# Indices 1 2 3 4 5 6 
#
# 1 0.038288 -0.010177 -0.018766 0.000000 0.000000 0.000000
# 2 -0.010177 0.012022 -0.003512 0.000000 0.000000 0.000000
# 3 -0.018766 -0.003512 0.032605 0.000000 0.000000 0.000000
# 4 0.000000 0.000000 0.000000 0.043902 0.000000 0.000000
# 5 0.000000 0.000000 0.000000 0.000000 0.101274 0.000000
# 6 0.000000 0.000000 0.000000 0.000000 0.000000 0.032528
#
#
# Mechanical properties :
#
#
# Convention : Reuss Voigt Hill
#
# Bulk Modulus (GPa) = 55.53538 71.66309 63.59923
# Shear Modulus (GPa) = 15.08160 20.41657 17.74908
#
# Velocity S-wave (km/s) = 3.10088 3.60788 3.36395
# Velocity P-wave (km/s) = 6.94463 7.94012 7.45900
#
# Compressibility (1/GPa) = 0.01800654
#
# Stress axis : x y z
#
# Youngs Moduli (GPa) = 26.11796 83.18019 30.66984
#
# Poissons Ratio (x) = 0.84651 0.57554
# Poissons Ratio (y) = 0.26580 0.10771
# Poissons Ratio (z) = 0.49012 0.29212
#
# Static dielectric constant tensor:
#      x y z
#    x 1.522010 0.000000 0.000000 
#    y 0.000000 1.529010 0.000000 
#    z 0.000000 0.000000 1.507630 
# 
# From -- ./inp_files/22298.got.cif
#   From: 2010.05.17/outbox.cif.g08.bks.cpg/sg40_12_cif.got.tgz:22298.got - 2010.06.03 18:35:42.
