data_PCOD9362705
_publ_section_title
;
Structure prediction by ZEFSAII (Michael W. Deem and Ramdas Pophale) SiO2 
 PCOD9362705
Probable space group: A M A 2
;
_chemical_formula_sum "Si O2"
_cell_formula_units_Z 56
_cell_length_a 13.737051
_cell_length_b 18.523683
_cell_length_c 12.369694
_cell_angle_alpha 90.000000
_cell_angle_beta 90.000000
_cell_angle_gamma 90.000000
_cell_volume 3147.601960
_symmetry_space_group_name_H-M "A M A 2"
_symmetry_group_IT_number 40
_symmetry_cell_setting 'orthorhombic'
loop_
_space_group_symop_operation_xyz
x,y,z
-x,-y,z
1/2-x,y,z
1/2+x,-y,z
x,1/2+y,1/2+z
-x,1/2-y,1/2+z
1/2-x,1/2+y,1/2+z
1/2+x,1/2-y,1/2+z
loop_
_atom_site_type_symbol
_atom_site_label
_atom_site_fract_x
_atom_site_fract_y
_atom_site_fract_z
Si Si1 0.137257 0.942427 0.908100
Si Si2 0.542014 0.420590 0.088845
Si Si3 0.865038 0.817115 0.423659
Si Si4 0.501596 0.678336 0.480014
Si Si5 0.639841 0.807501 0.183092
Si Si6 0.865859 0.400357 0.325318
Si Si7 0.356445 0.861717 0.679504
O O1 0.250000 0.935482 0.939252
O O2 0.070858 0.892027 0.981287
O O3 0.127558 0.908794 0.787107
O O4 0.114729 0.026932 0.895239
O O5 0.500000 0.500000 0.067947
O O6 0.596067 0.416399 0.204734
O O7 0.555903 0.626310 0.098989
O O8 0.610323 0.384059 0.000867
O O9 0.750000 0.798113 0.430309
O O10 0.931631 0.748665 0.458611
O O11 0.885621 0.839702 0.299685
O O12 0.437021 0.682022 0.587944
O O13 0.426940 0.663614 0.380519
O O14 0.750000 0.829970 0.150121
O O15 0.644452 0.722021 0.208543
O O16 0.750000 0.387515 0.324253
O O17 0.250000 0.881526 0.635262
#
# Coordination Sequence:
#
# PCOD9362705 Si02
#       7
#     8   8   8   8   8   8   8
#     4  10  19  34  57  86 120 151 186 238 299 355
#     4  12  21  37  59  88 121 152 192 244 303 351
#     4  11  24  40  59  85 118 160 200 239 290 355
#     4  12  20  35  60  84 115 153 199 241 288 354
#     4  10  21  38  57  81 116 157 197 233 286 356
#     4  11  22  35  57  94 125 148 190 252 305 345
#     4  10  18  33  56  82 112 151 190 231 292 358
#
# _framework density 17.791322000000001
#
# number of rings (size 3 to 8) (size 9 to 14) (size 15 to 20)
#    0.000    1.143    5.714    1.714    0.000    0.571 
#    0.000    1.429    0.000    1.714    0.000    0.000 
#    0.000    0.000    0.000    0.000    0.000    0.000 
#
# Total GULP energy -156222.266710 kJ/mol
# GULP energy per Si atom -5579.366668 kJ/mol
# Density = 1.775083 g / cm^3
# Si number density = 17.791322 Si / 1000 Ang^3
#
#
#
# Elastic Constant Matrix: (Units=GPa)
#
#
# Indices 1 2 3 4 5 6 
#
# 1 116.5670 33.2069 58.0504 0.0000 0.0000 0.0000
# 2 33.2069 61.6111 39.6876 0.0000 0.0000 0.0000
# 3 58.0504 39.6876 94.3660 0.0000 0.0000 0.0000
# 4 0.0000 0.0000 0.0000 21.7530 0.0000 0.0000
# 5 0.0000 0.0000 0.0000 0.0000 26.0814 0.0000
# 6 0.0000 0.0000 0.0000 0.0000 0.0000 26.7410
#
#
#
# Elastic Compliance Matrix: (Units=1/GPa)
#
#
# Indices 1 2 3 4 5 6 
#
# 1 0.012637 -0.002473 -0.006733 0.000000 0.000000 0.000000
# 2 -0.002473 0.022746 -0.008045 0.000000 0.000000 0.000000
# 3 -0.006733 -0.008045 0.018122 0.000000 0.000000 0.000000
# 4 0.000000 0.000000 0.000000 0.045971 0.000000 0.000000
# 5 0.000000 0.000000 0.000000 0.000000 0.038341 0.000000
# 6 0.000000 0.000000 0.000000 0.000000 0.000000 0.037396
#
#
# Mechanical properties :
#
#
# Convention : Reuss Voigt Hill
#
# Bulk Modulus (GPa) = 52.62562 59.38153 56.00357
# Shear Modulus (GPa) = 23.14279 24.35504 23.74891
#
# Velocity S-wave (km/s) = 3.61056 3.70392 3.65754
# Velocity P-wave (km/s) = 6.85749 7.19313 7.02731
#
# Compressibility (1/GPa) = 0.01900215
#
# Stress axis : x y z
#
# Youngs Moduli (GPa) = 79.13555 43.96354 55.18018
#
# Poissons Ratio (x) = 0.10874 0.37154
# Poissons Ratio (y) = 0.19574 0.44391
# Poissons Ratio (z) = 0.53284 0.35368
#
# Static dielectric constant tensor:
#      x y z
#    x 1.645480 0.000000 0.000000 
#    y 0.000000 1.647350 0.000000 
#    z 0.000000 0.000000 1.612020 
# 
# From -- ./inp_files/12211.got.cif
#   From: 2010.05.17/outbox.cif.g08.bks.cpg/sg40_7_cif.got.tgz:12211.got - 2010.06.03 18:35:42.
