data_PCOD9362890
_publ_section_title
;
Structure prediction by ZEFSAII (Michael W. Deem and Ramdas Pophale) SiO2 
 PCOD9362890
Probable space group: A M A 2
;
_chemical_formula_sum "Si O2"
_cell_formula_units_Z 64
_cell_length_a 8.324655
_cell_length_b 15.276304
_cell_length_c 28.410436
_cell_angle_alpha 90.000000
_cell_angle_beta 90.000000
_cell_angle_gamma 90.000000
_cell_volume 3612.954023
_symmetry_space_group_name_H-M "A M A 2"
_symmetry_group_IT_number 40
_symmetry_cell_setting 'orthorhombic'
loop_
_space_group_symop_operation_xyz
x,y,z
-x,-y,z
1/2-x,y,z
1/2+x,-y,z
x,1/2+y,1/2+z
-x,1/2-y,1/2+z
1/2-x,1/2+y,1/2+z
1/2+x,1/2-y,1/2+z
loop_
_atom_site_type_symbol
_atom_site_label
_atom_site_fract_x
_atom_site_fract_y
_atom_site_fract_z
Si Si1 0.558132 0.903871 0.605430
Si Si2 0.942623 0.096830 0.712108
Si Si3 0.943905 0.724010 0.295155
Si Si4 0.558214 0.096353 0.259641
Si Si5 0.446484 0.777364 0.068215
Si Si6 0.944106 0.596940 0.485317
Si Si7 0.444066 0.403059 0.377607
Si Si8 0.056209 0.903271 0.152021
O O1 0.750000 0.904758 0.605123
O O2 0.504394 0.887839 0.659315
O O3 0.500751 0.822796 0.573851
O O4 0.500000 0.000000 0.591196
O O5 0.750000 0.096682 0.711161
O O6 0.998822 0.169627 0.749101
O O7 0.000000 0.000000 0.726770
O O8 0.750000 0.723259 0.295108
O O9 0.999162 0.670561 0.341045
O O10 0.999990 0.823424 0.291084
O O11 0.750000 0.095922 0.258733
O O12 0.499208 0.111699 0.205627
O O13 0.500000 0.000000 0.274092
O O14 0.250000 0.777552 0.067812
O O15 0.497920 0.831477 0.114496
O O16 0.499917 0.829870 0.022080
O O17 0.750000 0.597232 0.485414
O O18 0.998530 0.611771 0.431470
O O19 0.000000 0.500000 0.499810
O O20 0.500000 0.500000 0.363101
O O21 0.250000 0.402972 0.377514
O O22 0.250000 0.902230 0.152510
O O23 0.000000 0.000000 0.137638
#
# Coordination Sequence:
#
# PCOD9362890 Si02
#       8
#     8   8   8   8   8   8   8   8
#     4  10  19  32  47  64  90 122 157 194 231 273
#     4  10  19  30  45  67  96 126 157 193 232 276
#     4  10  20  32  47  69  95 124 159 195 230 273
#     4  10  20  33  49  68  93 126 160 195 233 273
#     4   9  17  29  47  68  91 121 154 185 223 274
#     4   9  17  31  50  72  96 122 150 182 226 275
#     4   9  18  32  50  72  98 124 151 187 230 277
#     4   9  17  29  44  66  94 121 150 183 221 267
#
# _framework density 17.714036
#
# number of rings (size 3 to 8) (size 9 to 14) (size 15 to 20)
#    0.000    2.500    0.000    3.375    0.000    3.000 
#    0.000    2.500    0.000    0.750    0.000    1.750 
#    0.000    0.000    0.000    0.000    0.000    0.000 
#
# Total GULP energy -178531.111880 kJ/mol
# GULP energy per Si atom -5579.097246 kJ/mol
# Density = 1.767372 g / cm^3
# Si number density = 17.714036 Si / 1000 Ang^3
#
#
#
# Elastic Constant Matrix: (Units=GPa)
#
#
# Indices 1 2 3 4 5 6 
#
# 1 15.4496 17.5500 13.9861 0.0000 0.0000 0.0000
# 2 17.5500 176.1278 95.9178 0.0000 0.0000 0.0000
# 3 13.9861 95.9178 81.0793 0.0000 0.0000 0.0000
# 4 0.0000 0.0000 0.0000 31.2777 0.0000 0.0000
# 5 0.0000 0.0000 0.0000 0.0000 17.5497 0.0000
# 6 0.0000 0.0000 0.0000 0.0000 0.0000 25.9160
#
#
#
# Elastic Compliance Matrix: (Units=1/GPa)
#
#
# Indices 1 2 3 4 5 6 
#
# 1 0.076799 -0.001231 -0.011791 0.000000 0.000000 0.000000
# 2 -0.001231 0.015980 -0.018692 0.000000 0.000000 0.000000
# 3 -0.011791 -0.018692 0.036481 0.000000 0.000000 0.000000
# 4 0.000000 0.000000 0.000000 0.031972 0.000000 0.000000
# 5 0.000000 0.000000 0.000000 0.000000 0.056981 0.000000
# 6 0.000000 0.000000 0.000000 0.000000 0.000000 0.038586
#
#
# Mechanical properties :
#
#
# Convention : Reuss Voigt Hill
#
# Bulk Modulus (GPa) = 15.19050 58.61826 36.90438
# Shear Modulus (GPa) = 14.61257 24.62889 19.62073
#
# Velocity S-wave (km/s) = 2.87525 3.73280 3.33173
# Velocity P-wave (km/s) = 4.42908 7.19317 5.97321
#
# Compressibility (1/GPa) = 0.06583063
#
# Stress axis : x y z
#
# Youngs Moduli (GPa) = 13.02096 62.57862 27.41186
#
# Poissons Ratio (x) = 0.07703 0.32323
# Poissons Ratio (y) = 0.01603 0.51238
# Poissons Ratio (z) = 0.15354 1.16972
#
# Static dielectric constant tensor:
#      x y z
#    x 1.607440 0.000000 0.000000 
#    y 0.000000 1.597260 0.000000 
#    z 0.000000 0.000000 1.609330 
# 
# From -- ./inp_files/26450.got.cif
#   From: 2010.05.17/outbox.cif.g08.bks.cpg/sg40_14_cif.got.tgz:26450.got - 2010.06.03 18:35:42.
