data_PCOD9362428
_publ_section_title
;
Structure prediction by ZEFSAII (Michael W. Deem and Ramdas Pophale) SiO2 
 PCOD9362428
Probable space group: A M A 2
;
_chemical_formula_sum "Si O2"
_cell_formula_units_Z 64
_cell_length_a 8.835501
_cell_length_b 18.895777
_cell_length_c 26.959469
_cell_angle_alpha 90.000000
_cell_angle_beta 90.000000
_cell_angle_gamma 90.000000
_cell_volume 4500.981929
_symmetry_space_group_name_H-M "A M A 2"
_symmetry_group_IT_number 40
_symmetry_cell_setting 'orthorhombic'
loop_
_space_group_symop_operation_xyz
x,y,z
-x,-y,z
1/2-x,y,z
1/2+x,-y,z
x,1/2+y,1/2+z
-x,1/2-y,1/2+z
1/2-x,1/2+y,1/2+z
1/2+x,1/2-y,1/2+z
loop_
_atom_site_type_symbol
_atom_site_label
_atom_site_fract_x
_atom_site_fract_y
_atom_site_fract_z
Si Si1 0.930583 0.662148 0.302280
Si Si2 0.932068 0.077647 0.011683
Si Si3 0.076066 0.791464 0.255578
Si Si4 0.568251 0.076597 0.897659
Si Si5 0.567654 0.422279 0.209416
Si Si6 0.575543 0.790106 0.649519
Si Si7 0.070057 0.161199 0.101081
Si Si8 0.067088 0.422280 0.694896
O O1 0.750000 0.656024 0.297421
O O2 0.977280 0.633006 0.356077
O O3 0.979549 0.742698 0.291820
O O4 0.006392 0.613259 0.260007
O O5 0.750000 0.075331 0.016158
O O6 0.000611 0.133297 0.049948
O O7 0.973365 0.094066 0.954432
O O8 0.000000 0.000000 0.023053
O O9 0.250000 0.793355 0.272621
O O10 0.074596 0.750519 0.202599
O O11 0.025343 0.870078 0.240531
O O12 0.750000 0.070647 0.896299
O O13 0.500000 0.000000 0.885361
O O14 0.500000 0.500000 0.203733
O O15 0.750000 0.424314 0.211711
O O16 0.525452 0.369004 0.164354
O O17 0.750000 0.791086 0.632308
O O18 0.476607 0.741866 0.613523
O O19 0.250000 0.153336 0.101438
O O20 0.998562 0.113003 0.144885
O O21 0.250000 0.423396 0.691483
O O22 0.000000 0.500000 0.700698
#
# Coordination Sequence:
#
# PCOD9362428 Si02
#       8
#     8   8   8   8   8   8   8   8
#     4  10  18  28  43  62  83 109 142 173 204 242
#     4  10  19  32  45  58  81 109 139 174 209 242
#     4   8  16  29  42  58  81 108 136 167 203 242
#     4   9  19  31  43  60  81 108 140 174 207 240
#     4  10  19  29  42  61  85 112 141 170 203 242
#     4   8  16  30  43  57  80 109 138 168 202 240
#     4  11  20  29  43  62  82 107 140 172 206 245
#     4  10  19  30  43  60  83 110 140 170 203 243
#
# _framework density 14.21912
#
# number of rings (size 3 to 8) (size 9 to 14) (size 15 to 20)
#    0.000    2.500    0.000    4.875    0.000    8.000 
#    0.000    0.000    0.000    0.000    0.000    0.000 
#    0.000    1.000    0.000    8.500    0.000    5.875 
#
# Total GULP energy -178315.871184 kJ/mol
# GULP energy per Si atom -5572.370974 kJ/mol
# Density = 1.418676 g / cm^3
# Si number density = 14.219120 Si / 1000 Ang^3
#
#
#
# Elastic Constant Matrix: (Units=GPa)
#
#
# Indices 1 2 3 4 5 6 
#
# 1 58.5006 40.0137 36.8379 0.0000 0.0000 0.0000
# 2 40.0137 109.4635 49.8610 0.0000 0.0000 0.0000
# 3 36.8379 49.8610 73.2617 0.0000 0.0000 0.0000
# 4 0.0000 0.0000 0.0000 25.0481 0.0000 0.0000
# 5 0.0000 0.0000 0.0000 0.0000 17.4611 0.0000
# 6 0.0000 0.0000 0.0000 0.0000 0.0000 22.1207
#
#
#
# Elastic Compliance Matrix: (Units=1/GPa)
#
#
# Indices 1 2 3 4 5 6 
#
# 1 0.027011 -0.005344 -0.009945 0.000000 0.000000 0.000000
# 2 -0.005344 0.014297 -0.007043 0.000000 0.000000 0.000000
# 3 -0.009945 -0.007043 0.023444 0.000000 0.000000 0.000000
# 4 0.000000 0.000000 0.000000 0.039923 0.000000 0.000000
# 5 0.000000 0.000000 0.000000 0.000000 0.057270 0.000000
# 6 0.000000 0.000000 0.000000 0.000000 0.000000 0.045207
#
#
# Mechanical properties :
#
#
# Convention : Reuss Voigt Hill
#
# Bulk Modulus (GPa) = 49.78134 54.96121 52.37128
# Shear Modulus (GPa) = 19.34136 20.56018 19.95077
#
# Velocity S-wave (km/s) = 3.69214 3.80669 3.74985
# Velocity P-wave (km/s) = 7.29808 7.61959 7.46057
#
# Compressibility (1/GPa) = 0.02008785
#
# Stress axis : x y z
#
# Youngs Moduli (GPa) = 37.02145 69.94377 42.65475
#
# Poissons Ratio (x) = 0.37377 0.42421
# Poissons Ratio (y) = 0.19784 0.30044
# Poissons Ratio (z) = 0.36818 0.49265
#
# Static dielectric constant tensor:
#      x y z
#    x 1.477480 0.000000 0.000000 
#    y 0.000000 1.477900 0.000000 
#    z 0.000000 0.000000 1.456710 
# 
# From -- ./inp_files/24433.got.cif
#   From: 2010.05.17/outbox.cif.g08.bks.cpg/sg40_13_cif.got.tgz:24433.got - 2010.06.03 18:35:42.
