data_PCOD9362755
_publ_section_title
;
Structure prediction by ZEFSAII (Michael W. Deem and Ramdas Pophale) SiO2 
 PCOD9362755
Probable space group: A M A 2
;
_chemical_formula_sum "Si O2"
_cell_formula_units_Z 64
_cell_length_a 15.074910
_cell_length_b 16.956976
_cell_length_c 12.501744
_cell_angle_alpha 90.000000
_cell_angle_beta 90.000000
_cell_angle_gamma 90.000000
_cell_volume 3195.756898
_symmetry_space_group_name_H-M "A M A 2"
_symmetry_group_IT_number 40
_symmetry_cell_setting 'orthorhombic'
loop_
_space_group_symop_operation_xyz
x,y,z
-x,-y,z
1/2-x,y,z
1/2+x,-y,z
x,1/2+y,1/2+z
-x,1/2-y,1/2+z
1/2-x,1/2+y,1/2+z
1/2+x,1/2-y,1/2+z
loop_
_atom_site_type_symbol
_atom_site_label
_atom_site_fract_x
_atom_site_fract_y
_atom_site_fract_z
Si Si1 0.643612 0.194217 0.354560
Si Si2 0.101361 0.529259 0.640809
Si Si3 0.351470 0.898686 0.972498
Si Si4 0.145919 0.081599 0.588022
Si Si5 0.395103 0.489074 0.875105
Si Si6 0.640638 0.241020 0.114937
Si Si7 0.642987 0.344706 0.478082
Si Si8 0.858243 0.982053 0.808308
O O1 0.750000 0.202725 0.351691
O O2 0.612465 0.215541 0.234357
O O3 0.611486 0.258722 0.440578
O O4 0.623974 0.103849 0.380708
O O5 0.149553 0.467195 0.562627
O O6 0.137608 0.522357 0.760810
O O7 0.107115 0.614382 0.585339
O O8 0.000000 0.500000 0.642296
O O9 0.250000 0.878201 0.944859
O O10 0.394170 0.940995 0.870000
O O11 0.392008 0.822166 0.027739
O O12 0.250000 0.091445 0.612073
O O13 0.138809 0.036503 0.476974
O O14 0.110377 0.170710 0.588164
O O15 0.109711 0.032190 0.688477
O O16 0.500000 0.500000 0.875865
O O17 0.750000 0.237721 0.113960
O O18 0.750000 0.342869 0.489755
O O19 0.623043 0.405479 0.381049
O O20 0.750000 0.989769 0.808628
#
# Coordination Sequence:
#
# PCOD9362755 Si02
#       8
#     8   8   8   8   8   8   8   8
#     4  10  18  34  60  84 104 138 190 231 268 327
#     4  10  20  34  51  77 114 145 180 222 280 330
#     4   9  16  29  53  81 105 132 174 223 265 315
#     4  10  19  34  55  77 103 138 179 225 275 323
#     4  11  24  39  50  75 113 154 188 222 272 334
#     4   9  16  29  54  84 103 129 178 220 256 317
#     4   9  17  32  58  87 108 131 179 240 276 314
#     4   8  14  27  50  79 106 127 160 221 277 308
#
# _framework density 20.026554999999998
#
# number of rings (size 3 to 8) (size 9 to 14) (size 15 to 20)
#    0.000    2.500    2.500    1.500    0.000    1.500 
#    2.250    3.750    0.000    3.000    0.000    0.000 
#    0.000    0.000    0.000    0.000    0.000    0.000 
#
# Total GULP energy -178452.118431 kJ/mol
# GULP energy per Si atom -5576.628701 kJ/mol
# Density = 1.998097 g / cm^3
# Si number density = 20.026555 Si / 1000 Ang^3
#
#
#
# Elastic Constant Matrix: (Units=GPa)
#
#
# Indices 1 2 3 4 5 6 
#
# 1 17.9388 -3.4224 -16.5443 0.0000 0.0000 0.0000
# 2 -3.4224 165.0067 94.4444 0.0000 0.0000 0.0000
# 3 -16.5443 94.4444 128.1366 0.0000 0.0000 0.0000
# 4 0.0000 0.0000 0.0000 66.6913 0.0000 0.0000
# 5 0.0000 0.0000 0.0000 0.0000 10.4582 0.0000
# 6 0.0000 0.0000 0.0000 0.0000 0.0000 0.1301
#
#
#
# Elastic Compliance Matrix: (Units=1/GPa)
#
#
# Indices 1 2 3 4 5 6 
#
# 1 0.066684 -0.006132 0.013129 0.000000 0.000000 0.000000
# 2 -0.006132 0.011047 -0.008934 0.000000 0.000000 0.000000
# 3 0.013129 -0.008934 0.016084 0.000000 0.000000 0.000000
# 4 0.000000 0.000000 0.000000 0.014994 0.000000 0.000000
# 5 0.000000 0.000000 0.000000 0.000000 0.095619 0.000000
# 6 0.000000 0.000000 0.000000 0.000000 0.000000 7.685668
#
#
# Mechanical properties :
#
#
# Convention : Reuss Voigt Hill
#
# Bulk Modulus (GPa) = 11.11821 51.11528 31.11674
# Shear Modulus (GPa) = 0.63100 31.22955 15.93027
#
# Velocity S-wave (km/s) = 0.56193 3.95322 2.82345
# Velocity P-wave (km/s) = 2.44639 6.81296 5.11865
#
# Compressibility (1/GPa) = 0.08994255
#
# Stress axis : x y z
#
# Youngs Moduli (GPa) = 14.99609 90.52632 62.17358
#
# Poissons Ratio (x) = 0.55508 -0.81630
# Poissons Ratio (y) = 0.09195 0.55544
# Poissons Ratio (z) = -0.19689 0.80873
#
# Static dielectric constant tensor:
#      x y z
#    x 1.733980 0.000000 0.000000 
#    y 0.000000 1.176630 0.000000 
#    z 0.000000 0.000000 1.736640 
# 
# From -- ./inp_files/12428.got.cif
#   From: 2010.05.17/outbox.cif.g08.bks.cpg/sg40_7_cif.got.tgz:12428.got - 2010.06.03 18:35:42.
