data_PCOD9362398
_publ_section_title
;
Structure prediction by ZEFSAII (Michael W. Deem and Ramdas Pophale) SiO2 
 PCOD9362398
Probable space group: A M A 2
;
_chemical_formula_sum "Si O2"
_cell_formula_units_Z 64
_cell_length_a 8.873484
_cell_length_b 27.006146
_cell_length_c 18.953802
_cell_angle_alpha 90.000000
_cell_angle_beta 90.000000
_cell_angle_gamma 90.000000
_cell_volume 4542.062660
_symmetry_space_group_name_H-M "A M A 2"
_symmetry_group_IT_number 40
_symmetry_cell_setting 'orthorhombic'
loop_
_space_group_symop_operation_xyz
x,y,z
-x,-y,z
1/2-x,y,z
1/2+x,-y,z
x,1/2+y,1/2+z
-x,1/2-y,1/2+z
1/2-x,1/2+y,1/2+z
1/2+x,1/2-y,1/2+z
loop_
_atom_site_type_symbol
_atom_site_label
_atom_site_fract_x
_atom_site_fract_y
_atom_site_fract_z
Si Si1 0.071388 0.757683 0.895320
Si Si2 0.568999 0.947345 0.895903
Si Si3 0.427803 0.201961 0.674156
Si Si4 0.070922 0.643277 0.629133
Si Si5 0.428559 0.207562 0.256031
Si Si6 0.570229 0.552942 0.549872
Si Si7 0.931375 0.349694 0.310565
Si Si8 0.429323 0.246107 0.048451
O O1 0.250000 0.762857 0.904475
O O2 0.044462 0.713081 0.839206
O O3 0.008311 0.807197 0.857773
O O4 0.996008 0.750398 0.970646
O O5 0.750000 0.951246 0.902623
O O6 0.532770 0.903134 0.842338
O O7 0.500000 0.000000 0.873992
O O8 0.499143 0.935618 0.972623
O O9 0.250000 0.199157 0.661550
O O10 0.469808 0.250694 0.719565
O O11 0.473568 0.158519 0.728467
O O12 0.510583 0.211208 0.600585
O O13 0.250000 0.634230 0.619354
O O14 0.044966 0.658134 0.710973
O O15 0.031540 0.692568 0.583517
O O16 0.979191 0.596647 0.601814
O O17 0.250000 0.220046 0.244205
O O18 0.500000 0.500000 0.571098
O O19 0.750000 0.549029 0.544838
O O20 0.750000 0.342679 0.315337
O O21 0.250000 0.248281 0.045849
#
# Coordination Sequence:
#
# PCOD9362398 Si02
#       8
#     8   8   8   8   8   8   8   8
#     4  10  18  27  42  63  84 109 142 172 198 239
#     4  10  19  31  44  59  81 108 138 171 207 242
#     4   9  16  27  42  59  79 105 138 171 201 240
#     4   9  17  30  44  57  79 110 139 167 203 243
#     4   8  16  29  42  58  82 109 134 165 205 243
#     4  11  21  31  43  60  81 106 138 173 206 238
#     4   9  18  30  43  59  82 111 138 169 210 247
#     4  10  19  29  41  59  85 114 139 168 207 242
#
# _framework density 14.090514000000001
#
# number of rings (size 3 to 8) (size 9 to 14) (size 15 to 20)
#    0.000    2.500    0.000    4.875    0.000    7.500 
#    0.000    0.000    0.000    0.000    0.000    0.000 
#    0.000    1.000    0.000    6.000    0.000    4.250 
#
# Total GULP energy -178242.804534 kJ/mol
# GULP energy per Si atom -5570.087642 kJ/mol
# Density = 1.405844 g / cm^3
# Si number density = 14.090514 Si / 1000 Ang^3
#
#
#
# Elastic Constant Matrix: (Units=GPa)
#
#
# Indices 1 2 3 4 5 6 
#
# 1 53.3572 40.6740 45.9607 0.0000 0.0000 0.0000
# 2 40.6740 80.8387 56.6466 0.0000 0.0000 0.0000
# 3 45.9607 56.6466 116.8603 0.0000 0.0000 0.0000
# 4 0.0000 0.0000 0.0000 24.1005 0.0000 0.0000
# 5 0.0000 0.0000 0.0000 0.0000 22.3043 0.0000
# 6 0.0000 0.0000 0.0000 0.0000 0.0000 19.1066
#
#
#
# Elastic Compliance Matrix: (Units=1/GPa)
#
#
# Indices 1 2 3 4 5 6 
#
# 1 0.034552 -0.011907 -0.007817 0.000000 0.000000 0.000000
# 2 -0.011907 0.022837 -0.006387 0.000000 0.000000 0.000000
# 3 -0.007817 -0.006387 0.014728 0.000000 0.000000 0.000000
# 4 0.000000 0.000000 0.000000 0.041493 0.000000 0.000000
# 5 0.000000 0.000000 0.000000 0.000000 0.044834 0.000000
# 6 0.000000 0.000000 0.000000 0.000000 0.000000 0.052338
#
#
# Mechanical properties :
#
#
# Convention : Reuss Voigt Hill
#
# Bulk Modulus (GPa) = 50.26629 59.73542 55.00086
# Shear Modulus (GPa) = 18.54356 20.28728 19.41542
#
# Velocity S-wave (km/s) = 3.63165 3.79856 3.71604
# Velocity P-wave (km/s) = 7.30318 7.85652 7.58490
#
# Compressibility (1/GPa) = 0.01989405
#
# Stress axis : x y z
#
# Youngs Moduli (GPa) = 28.94200 43.78900 67.89893
#
# Poissons Ratio (x) = 0.52139 0.53079
# Poissons Ratio (y) = 0.34461 0.43367
# Poissons Ratio (z) = 0.22625 0.27968
#
# Static dielectric constant tensor:
#      x y z
#    x 1.476450 0.000000 0.000000 
#    y 0.000000 1.451510 0.000000 
#    z 0.000000 0.000000 1.478160 
# 
# From -- ./inp_files/19763.got.cif
#   From: 2010.05.17/outbox.cif.g08.bks.cpg/sg40_10_cif.got.tgz:19763.got - 2010.06.03 18:35:42.
