data_PCOD9362267
_publ_section_title
;
Structure prediction by ZEFSAII (Michael W. Deem and Ramdas Pophale) SiO2 
 PCOD9362267
Probable space group: A M A 2
;
_chemical_formula_sum "Si O2"
_cell_formula_units_Z 64
_cell_length_a 19.942475
_cell_length_b 17.517996
_cell_length_c 10.126034
_cell_angle_alpha 90.000000
_cell_angle_beta 90.000000
_cell_angle_gamma 90.000000
_cell_volume 3537.552228
_symmetry_space_group_name_H-M "A M A 2"
_symmetry_group_IT_number 40
_symmetry_cell_setting 'orthorhombic'
loop_
_space_group_symop_operation_xyz
x,y,z
-x,-y,z
1/2-x,y,z
1/2+x,-y,z
x,1/2+y,1/2+z
-x,1/2-y,1/2+z
1/2-x,1/2+y,1/2+z
1/2+x,1/2-y,1/2+z
loop_
_atom_site_type_symbol
_atom_site_label
_atom_site_fract_x
_atom_site_fract_y
_atom_site_fract_z
Si Si1 0.326669 0.922109 0.192820
Si Si2 0.169553 0.842478 0.465445
Si Si3 0.824736 0.019551 0.665478
Si Si4 0.176788 0.358583 0.397975
Si Si5 0.935876 0.281362 0.568444
Si Si6 0.469186 0.295015 0.333365
Si Si7 0.428882 0.036916 0.074565
Si Si8 0.555208 0.944618 0.769785
O O1 0.250000 0.946032 0.221714
O O2 0.347510 0.868127 0.315334
O O3 0.373577 0.994157 0.161512
O O4 0.326305 0.878621 0.052530
O O5 0.250000 0.826912 0.472604
O O6 0.156126 0.916723 0.557051
O O7 0.126632 0.771485 0.521802
O O8 0.750000 0.991554 0.635450
O O9 0.821944 0.067752 0.802011
O O10 0.877897 0.952207 0.684631
O O11 0.250000 0.320033 0.373117
O O12 0.107256 0.318222 0.363857
O O13 0.963568 0.259830 0.710569
O O14 0.922182 0.371787 0.577423
O O15 0.994239 0.265004 0.462795
O O16 0.516940 0.365602 0.290268
O O17 0.500000 0.000000 0.116072
O O18 0.426973 0.022603 0.916026
O O19 0.500000 0.000000 0.707761
#
# Coordination Sequence:
#
# PCOD9362267 Si02
#       8
#     8   8   8   8   8   8   8   8
#     4  10  20  36  60  88 117 151 195 249 303 361
#     4  10  22  39  59  88 124 158 196 251 313 361
#     4  10  18  33  59  86 113 151 200 240 290 366
#     4  10  18  34  63  85 108 154 203 237 284 363
#     4  11  24  39  60  87 120 163 200 257 307 368
#     4  11  23  38  57  86 121 153 199 251 311 361
#     4  10  21  36  57  84 115 153 195 242 294 358
#     4  10  16  32  57  83 111 146 190 243 290 347
#
# _framework density 18.091607
#
# number of rings (size 3 to 8) (size 9 to 14) (size 15 to 20)
#    0.000    1.750    3.750    1.500    3.500    0.500 
#    2.250    2.500    0.000    0.750    0.000    0.000 
#    0.000    0.000    0.000    0.000    0.000    0.000 
#
# Total GULP energy -178198.064375 kJ/mol
# GULP energy per Si atom -5568.689512 kJ/mol
# Density = 1.805043 g / cm^3
# Si number density = 18.091607 Si / 1000 Ang^3
#
#
#
# Elastic Constant Matrix: (Units=GPa)
#
#
# Indices 1 2 3 4 5 6 
#
# 1 114.9069 48.3797 22.5248 0.0000 0.0000 0.0000
# 2 48.3797 50.4500 24.7076 0.0000 0.0000 0.0000
# 3 22.5248 24.7076 47.7031 0.0000 0.0000 0.0000
# 4 0.0000 0.0000 0.0000 12.6084 0.0000 0.0000
# 5 0.0000 0.0000 0.0000 0.0000 25.6528 0.0000
# 6 0.0000 0.0000 0.0000 0.0000 0.0000 -7.5624
#
#
#
# Elastic Compliance Matrix: (Units=1/GPa)
#
#
# Indices 1 2 3 4 5 6 
#
# 1 0.014604 -0.014240 0.000479 0.000000 0.000000 0.000000
# 2 -0.014240 0.040443 -0.014223 0.000000 0.000000 0.000000
# 3 0.000479 -0.014223 0.028103 0.000000 0.000000 0.000000
# 4 0.000000 0.000000 0.000000 0.079312 0.000000 0.000000
# 5 0.000000 0.000000 0.000000 0.000000 0.038982 0.000000
# 6 0.000000 0.000000 0.000000 0.000000 0.000000 -0.132234
#
#
# Mechanical properties :
#
#
# Convention : Reuss Voigt Hill
#
# Bulk Modulus (GPa) = 36.78726 44.92046 40.85386
# Shear Modulus (GPa) = 37.24712 13.96964 25.60838
#
# Velocity S-wave (km/s) = 4.54233 2.78179 3.76637
# Velocity P-wave (km/s) = 6.92014 5.93306 6.44552
#
# Compressibility (1/GPa) = 0.02718333
#
# Stress axis : x y z
#
# Youngs Moduli (GPa) = 68.47417 24.72636 35.58276
#
# Poissons Ratio (x) = 0.35209 -0.01706
# Poissons Ratio (y) = 0.97504 0.50611
# Poissons Ratio (z) = -0.03283 0.35169
#
# Static dielectric constant tensor:
#      x y z
#    x 1.671710 0.000000 0.000000 
#    y 0.000000 1.623840 0.000000 
#    z 0.000000 0.000000 1.633340 
# 
# From -- ./inp_files/13246.got.cif
#   From: 2010.05.17/outbox.cif.g08.bks.cpg/sg40_7_cif.got.tgz:13246.got - 2010.06.03 18:35:42.
