data_PCOD9362069
_publ_section_title
;
Structure prediction by ZEFSAII (Michael W. Deem and Ramdas Pophale) SiO2 
 PCOD9362069
Probable space group: A B M 2
;
_chemical_formula_sum "Si O2"
_cell_formula_units_Z 48
_cell_length_a 8.777996
_cell_length_b 19.400960
_cell_length_c 13.923874
_cell_angle_alpha 90.000000
_cell_angle_beta 90.000000
_cell_angle_gamma 90.000000
_cell_volume 2371.257314
_symmetry_space_group_name_H-M "A B M 2"
_symmetry_group_IT_number 39
_symmetry_cell_setting 'orthorhombic'
loop_
_space_group_symop_operation_xyz
x,y,z
-x,-y,z
-x,1/2+y,z
x,1/2-y,z
x,1/2+y,1/2+z
-x,1/2-y,1/2+z
-x,y,1/2+z
x,-y,1/2+z
loop_
_atom_site_type_symbol
_atom_site_label
_atom_site_fract_x
_atom_site_fract_y
_atom_site_fract_z
Si Si1 0.098882 0.568272 0.411420
Si Si2 0.397795 0.932486 0.287672
Si Si3 0.892614 0.168532 0.812374
Si Si4 0.428590 0.331468 0.414455
Si Si5 0.126493 0.937372 0.639313
Si Si6 0.519976 0.073109 0.588790
O O1 0.247387 0.555583 0.348208
O O2 0.110185 0.574801 0.525750
O O3 0.000000 0.500000 0.393497
O O4 0.030182 0.639741 0.374890
O O5 0.470590 0.863753 0.330587
O O6 0.394610 0.921621 0.173190
O O7 0.500000 0.000000 0.303237
O O8 0.894703 0.250000 0.793015
O O9 0.742971 0.152908 0.877643
O O10 0.904185 0.123314 0.715308
O O11 0.443321 0.250000 0.423851
O O12 0.487627 0.368147 0.511571
O O13 0.315035 0.936150 0.640845
O O14 0.000000 0.000000 0.659342
O O15 0.500000 0.000000 0.535919
#
# Coordination Sequence:
#
# PCOD9362069 Si02
#       6
#     8   8   8   8   8   8
#     4  11  25  42  71 100 133 174 226 282 341 401
#     4  11  23  42  70 100 129 172 226 286 332 399
#     4  11  26  45  66  97 142 182 222 273 339 415
#     4  11  24  43  67  97 139 181 221 272 335 406
#     4  11  25  44  71 102 132 176 228 286 339 401
#     4  11  25  42  71 102 133 171 229 285 339 396
#
# _framework density 20.242425999999998
#
# number of rings (size 3 to 8) (size 9 to 14) (size 15 to 20)
#    0.000    1.000    3.333    2.000   11.667    2.667 
#    0.000    1.667    0.000    0.000    0.000    0.000 
#    0.000    0.000    0.000    0.000    0.000    0.000 
#
# Total GULP energy -133716.730432 kJ/mol
# GULP energy per Si atom -5571.530435 kJ/mol
# Density = 2.019635 g / cm^3
# Si number density = 20.242426 Si / 1000 Ang^3
#
#
#
# Elastic Constant Matrix: (Units=GPa)
#
#
# Indices 1 2 3 4 5 6 
#
# 1 81.5330 48.0971 32.0840 0.0000 0.0000 0.0000
# 2 48.0971 108.5987 58.5851 0.0000 0.0000 0.0000
# 3 32.0840 58.5851 134.0603 0.0000 0.0000 0.0000
# 4 0.0000 0.0000 0.0000 16.5100 0.0000 0.0000
# 5 0.0000 0.0000 0.0000 0.0000 36.6052 0.0000
# 6 0.0000 0.0000 0.0000 0.0000 0.0000 24.6842
#
#
#
# Elastic Compliance Matrix: (Units=1/GPa)
#
#
# Indices 1 2 3 4 5 6 
#
# 1 0.016705 -0.006858 -0.001001 0.000000 0.000000 0.000000
# 2 -0.006858 0.014865 -0.004855 0.000000 0.000000 0.000000
# 3 -0.001001 -0.004855 0.009820 0.000000 0.000000 0.000000
# 4 0.000000 0.000000 0.000000 0.060569 0.000000 0.000000
# 5 0.000000 0.000000 0.000000 0.000000 0.027319 0.000000
# 6 0.000000 0.000000 0.000000 0.000000 0.000000 0.040512
#
#
# Mechanical properties :
#
#
# Convention : Reuss Voigt Hill
#
# Bulk Modulus (GPa) = 62.64793 66.85828 64.75310
# Shear Modulus (GPa) = 24.93306 27.92160 26.42733
#
# Velocity S-wave (km/s) = 3.51340 3.71800 3.61715
# Velocity P-wave (km/s) = 6.89018 7.17857 7.03586
#
# Compressibility (1/GPa) = 0.01596222
#
# Stress axis : x y z
#
# Youngs Moduli (GPa) = 59.86373 67.27404 101.83036
#
# Poissons Ratio (x) = 0.46140 0.10190
# Poissons Ratio (y) = 0.41057 0.49434
# Poissons Ratio (z) = 0.05990 0.32658
#
# Static dielectric constant tensor:
#      x y z
#    x 1.730620 0.000000 0.000000 
#    y 0.000000 1.692790 0.000000 
#    z 0.000000 0.000000 1.714310 
# 
# From -- ./inp_files/8363.got.cif
#   From: 2010.05.17/outbox.cif.g08.bks.cpg/sg39_5_cif.got.tgz:8363.got - 2010.06.03 18:22:40.
