data_PCOD9362739
_publ_section_title
;
Structure prediction by ZEFSAII (Michael W. Deem and Ramdas Pophale) SiO2 
 PCOD9362739
Probable space group: A M A 2
;
_chemical_formula_sum "Si O2"
_cell_formula_units_Z 48
_cell_length_a 16.656242
_cell_length_b 16.130457
_cell_length_c 9.460707
_cell_angle_alpha 90.000000
_cell_angle_beta 90.000000
_cell_angle_gamma 90.000000
_cell_volume 2541.834596
_symmetry_space_group_name_H-M "A M A 2"
_symmetry_group_IT_number 40
_symmetry_cell_setting 'orthorhombic'
loop_
_space_group_symop_operation_xyz
x,y,z
-x,-y,z
1/2-x,y,z
1/2+x,-y,z
x,1/2+y,1/2+z
-x,1/2-y,1/2+z
1/2-x,1/2+y,1/2+z
1/2+x,1/2-y,1/2+z
loop_
_atom_site_type_symbol
_atom_site_label
_atom_site_fract_x
_atom_site_fract_y
_atom_site_fract_z
Si Si1 0.603038 0.615841 0.202440
Si Si2 0.346342 0.549152 0.039328
Si Si3 0.655753 0.512493 0.447496
Si Si4 0.080965 0.640011 0.279393
Si Si5 0.847066 0.033435 0.266337
Si Si6 0.654663 0.702435 0.928748
O O1 0.612267 0.529669 0.115142
O O2 0.647344 0.593732 0.348867
O O3 0.512247 0.635895 0.242170
O O4 0.637496 0.683453 0.093820
O O5 0.250000 0.538199 0.051704
O O6 0.372661 0.627983 0.129869
O O7 0.369335 0.540358 0.874934
O O8 0.750000 0.489097 0.449647
O O9 0.606823 0.438462 0.374835
O O10 0.625067 0.526050 0.606198
O O11 0.107303 0.720959 0.363700
O O12 0.750000 0.033327 0.259773
O O13 0.868894 0.119938 0.340763
O O14 0.750000 0.715637 0.911725
#
# Coordination Sequence:
#
# PCOD9362739 Si02
#       6
#     8   8   8   8   8   8
#     4  10  20  34  52  76 108 144 181 223 277 335
#     4   9  16  33  57  80 105 142 183 221 270 342
#     4  10  18  34  57  81 106 140 182 226 275 340
#     4  11  21  33  53  82 110 137 182 238 281 321
#     4   8  17  32  54  78 103 135 178 220 265 329
#     4  10  20  38  58  77 105 150 193 228 276 343
#
# _framework density 18.883997999999998
#
# number of rings (size 3 to 8) (size 9 to 14) (size 15 to 20)
#    0.000    2.333    0.000    7.000    0.000    1.333 
#    0.000   10.000    0.000    4.000    0.000    0.000 
#    0.000    0.000    0.000    0.000    0.000    0.000 
#
# Total GULP energy -133757.344865 kJ/mol
# GULP energy per Si atom -5573.222703 kJ/mol
# Density = 1.884102 g / cm^3
# Si number density = 18.883998 Si / 1000 Ang^3
#
#
#
# Elastic Constant Matrix: (Units=GPa)
#
#
# Indices 1 2 3 4 5 6 
#
# 1 48.5050 1.7664 5.9550 0.0000 0.0000 0.0000
# 2 1.7664 42.1938 28.8940 0.0000 0.0000 0.0000
# 3 5.9550 28.8940 146.4986 0.0000 0.0000 0.0000
# 4 0.0000 0.0000 0.0000 23.7941 0.0000 0.0000
# 5 0.0000 0.0000 0.0000 0.0000 603.1769 0.0000
# 6 0.0000 0.0000 0.0000 0.0000 0.0000 18.7027
#
#
#
# Elastic Compliance Matrix: (Units=1/GPa)
#
#
# Indices 1 2 3 4 5 6 
#
# 1 0.020724 -0.000336 -0.000776 0.000000 0.000000 0.000000
# 2 -0.000336 0.027406 -0.005392 0.000000 0.000000 0.000000
# 3 -0.000776 -0.005392 0.007921 0.000000 0.000000 0.000000
# 4 0.000000 0.000000 0.000000 0.042027 0.000000 0.000000
# 5 0.000000 0.000000 0.000000 0.000000 0.001658 0.000000
# 6 0.000000 0.000000 0.000000 0.000000 0.000000 0.053468
#
#
# Mechanical properties :
#
#
# Convention : Reuss Voigt Hill
#
# Bulk Modulus (GPa) = 23.23233 34.49203 28.86218
# Shear Modulus (GPa) = 27.69156 142.50687 85.09922
#
# Velocity S-wave (km/s) = 3.83352 8.69645 6.72027
# Velocity P-wave (km/s) = 5.65012 10.91524 8.69098
#
# Compressibility (1/GPa) = 0.04304346
#
# Stress axis : x y z
#
# Youngs Moduli (GPa) = 48.25330 36.48772 126.24727
#
# Poissons Ratio (x) = 0.01226 0.09798
# Poissons Ratio (y) = 0.01622 0.68069
# Poissons Ratio (z) = 0.03745 0.19673
#
# Static dielectric constant tensor:
#      x y z
#    x 1.605690 0.000000 0.000000 
#    y 0.000000 1.656940 0.000000 
#    z 0.000000 0.000000 1.702090 
# 
# From -- ./inp_files/6423.got.cif
#   From: 2010.05.17/outbox.cif.g08.bks.cpg/sg40_4_cif.got.tgz:6423.got - 2010.06.03 18:35:42.
