data_PCOD9362634
_publ_section_title
;
Structure prediction by ZEFSAII (Michael W. Deem and Ramdas Pophale) SiO2 
 PCOD9362634
Probable space group: A M A 2
;
_chemical_formula_sum "Si O2"
_cell_formula_units_Z 64
_cell_length_a 8.952939
_cell_length_b 23.683079
_cell_length_c 19.557219
_cell_angle_alpha 90.000000
_cell_angle_beta 90.000000
_cell_angle_gamma 90.000000
_cell_volume 4146.778977
_symmetry_space_group_name_H-M "A M A 2"
_symmetry_group_IT_number 40
_symmetry_cell_setting 'orthorhombic'
loop_
_space_group_symop_operation_xyz
x,y,z
-x,-y,z
1/2-x,y,z
1/2+x,-y,z
x,1/2+y,1/2+z
-x,1/2-y,1/2+z
1/2-x,1/2+y,1/2+z
1/2+x,1/2-y,1/2+z
loop_
_atom_site_type_symbol
_atom_site_label
_atom_site_fract_x
_atom_site_fract_y
_atom_site_fract_z
Si Si1 0.427882 0.938498 0.547150
Si Si2 0.929317 0.749736 0.689725
Si Si3 0.428585 0.273677 0.536294
Si Si4 0.071609 0.227462 0.329778
Si Si5 0.070940 0.168646 0.911563
Si Si6 0.570340 0.383023 0.181361
Si Si7 0.427742 0.655907 0.959183
Si Si8 0.070673 0.560771 0.326529
O O1 0.250000 0.942765 0.549212
O O2 0.488559 0.910832 0.617347
O O3 0.481361 0.896810 0.486983
O O4 0.500000 0.000000 0.539519
O O5 0.750000 0.745527 0.697941
O O6 0.969844 0.724756 0.615765
O O7 0.965708 0.816672 0.688362
O O8 0.009557 0.721315 0.753751
O O9 0.250000 0.281909 0.529937
O O10 0.512011 0.317011 0.486930
O O11 0.458716 0.210627 0.507063
O O12 0.250000 0.234575 0.329664
O O13 0.037335 0.176688 0.382458
O O14 0.997518 0.283300 0.362433
O O15 0.250000 0.172866 0.908894
O O16 0.026224 0.107779 0.882177
O O17 0.750000 0.387079 0.170907
O O18 0.531155 0.414851 0.251557
O O19 0.250000 0.644457 0.964365
O O20 0.250000 0.555991 0.328264
O O21 0.000000 0.500000 0.337618
#
# Coordination Sequence:
#
# PCOD9362634 Si02
#       8
#     8   8   8   8   8   8   8   8
#     4  12  24  35  50  72  97 132 174 210 246 293
#     4  10  18  32  52  73 103 135 161 198 248 296
#     4   9  18  32  51  73  98 130 162 201 251 292
#     4  10  20  32  50  74 100 129 164 203 247 295
#     4  10  19  33  49  69  97 130 165 205 252 293
#     4  10  19  35  50  67 101 137 168 204 243 285
#     4   9  18  35  51  68  98 131 163 205 249 288
#     4  10  21  34  49  68  94 132 170 204 243 282
#
# _framework density 15.433665
#
# number of rings (size 3 to 8) (size 9 to 14) (size 15 to 20)
#    0.000    2.000    2.500    3.000    0.000    6.000 
#    0.000    0.000    0.000    0.000    0.000    0.875 
#    0.000    4.000    0.000    0.000    0.000    0.000 
#
# Total GULP energy -178586.703964 kJ/mol
# GULP energy per Si atom -5580.834499 kJ/mol
# Density = 1.539854 g / cm^3
# Si number density = 15.433665 Si / 1000 Ang^3
#
#
#
# Elastic Constant Matrix: (Units=GPa)
#
#
# Indices 1 2 3 4 5 6 
#
# 1 53.0635 47.6389 56.5793 0.0000 0.0000 0.0000
# 2 47.6389 89.2586 65.6567 0.0000 0.0000 0.0000
# 3 56.5793 65.6567 141.3985 0.0000 0.0000 0.0000
# 4 0.0000 0.0000 0.0000 18.3901 0.0000 0.0000
# 5 0.0000 0.0000 0.0000 0.0000 29.8632 0.0000
# 6 0.0000 0.0000 0.0000 0.0000 0.0000 24.9793
#
#
#
# Elastic Compliance Matrix: (Units=1/GPa)
#
#
# Indices 1 2 3 4 5 6 
#
# 1 0.044139 -0.016047 -0.010211 0.000000 0.000000 0.000000
# 2 -0.016047 0.022849 -0.004189 0.000000 0.000000 0.000000
# 3 -0.010211 -0.004189 0.013103 0.000000 0.000000 0.000000
# 4 0.000000 0.000000 0.000000 0.054377 0.000000 0.000000
# 5 0.000000 0.000000 0.000000 0.000000 0.033486 0.000000
# 6 0.000000 0.000000 0.000000 0.000000 0.000000 0.040033
#
#
# Mechanical properties :
#
#
# Convention : Reuss Voigt Hill
#
# Bulk Modulus (GPa) = 52.08771 69.27449 60.68110
# Shear Modulus (GPa) = 18.16338 22.23623 20.19981
#
# Velocity S-wave (km/s) = 3.43427 3.79985 3.62168
# Velocity P-wave (km/s) = 7.03906 8.01465 7.54264
#
# Compressibility (1/GPa) = 0.01919839
#
# Stress axis : x y z
#
# Youngs Moduli (GPa) = 22.65567 43.76546 76.31965
#
# Poissons Ratio (x) = 0.70231 0.77927
# Poissons Ratio (y) = 0.36356 0.31967
# Poissons Ratio (z) = 0.23133 0.18331
#
# Static dielectric constant tensor:
#      x y z
#    x 1.514390 0.000000 0.000000 
#    y 0.000000 1.487220 0.000000 
#    z 0.000000 0.000000 1.520570 
# 
# From -- ./inp_files/22392.got.cif
#   From: 2010.05.17/outbox.cif.g08.bks.cpg/sg40_12_cif.got.tgz:22392.got - 2010.06.03 18:35:42.
