data_PCOD9362495
_publ_section_title
;
Structure prediction by ZEFSAII (Michael W. Deem and Ramdas Pophale) SiO2 
 PCOD9362495
Probable space group: A M A 2
;
_chemical_formula_sum "Si O2"
_cell_formula_units_Z 64
_cell_length_a 8.346365
_cell_length_b 24.029123
_cell_length_c 19.875913
_cell_angle_alpha 90.000000
_cell_angle_beta 90.000000
_cell_angle_gamma 90.000000
_cell_volume 3986.230252
_symmetry_space_group_name_H-M "A M A 2"
_symmetry_group_IT_number 40
_symmetry_cell_setting 'orthorhombic'
loop_
_space_group_symop_operation_xyz
x,y,z
-x,-y,z
1/2-x,y,z
1/2+x,-y,z
x,1/2+y,1/2+z
-x,1/2-y,1/2+z
1/2-x,1/2+y,1/2+z
1/2+x,1/2-y,1/2+z
loop_
_atom_site_type_symbol
_atom_site_label
_atom_site_fract_x
_atom_site_fract_y
_atom_site_fract_z
Si Si1 0.941312 0.838803 0.539820
Si Si2 0.556449 0.753190 0.310402
Si Si3 0.556668 0.562496 0.672636
Si Si4 0.554726 0.229125 0.957431
Si Si5 0.558912 0.062703 0.451082
Si Si6 0.944092 0.119280 0.312100
Si Si7 0.556113 0.664711 0.584893
Si Si8 0.442066 0.273721 0.163940
O O1 0.750000 0.839570 0.538294
O O2 0.995233 0.788056 0.490697
O O3 0.005165 0.896185 0.510332
O O4 0.996424 0.821582 0.614213
O O5 0.750000 0.751582 0.310759
O O6 0.499096 0.726696 0.380627
O O7 0.505472 0.817694 0.309561
O O8 0.501942 0.724453 0.241259
O O9 0.500000 0.500000 0.661916
O O10 0.750000 0.562782 0.672584
O O11 0.504076 0.585904 0.745518
O O12 0.501094 0.606543 0.616193
O O13 0.750000 0.228909 0.956820
O O14 0.503168 0.181336 0.009616
O O15 0.750000 0.062268 0.448509
O O16 0.499960 0.088891 0.380178
O O17 0.500000 0.000000 0.459157
O O18 0.750000 0.120833 0.312369
O O19 0.750000 0.664775 0.585357
O O20 0.501333 0.715276 0.632626
O O21 0.250000 0.274109 0.162679
#
# Coordination Sequence:
#
# PCOD9362495 Si02
#       8
#     8   8   8   8   8   8   8   8
#     4  10  19  33  51  68  93 128 162 200 241 288
#     4  10  18  29  47  71  97 126 158 194 236 288
#     4  10  20  32  46  65  92 128 165 198 234 275
#     4   8  15  28  47  68  89 118 155 191 234 285
#     4  11  22  34  49  70  97 131 168 205 241 283
#     4  10  20  32  45  66  98 130 163 200 231 274
#     4   9  17  31  48  65  90 123 159 197 238 288
#     4  10  19  29  46  71  97 122 154 199 243 285
#
# _framework density 16.05527
#
# number of rings (size 3 to 8) (size 9 to 14) (size 15 to 20)
#    0.000    2.250    2.500    2.250    0.000    2.000 
#    0.000    0.000    0.000    0.000    0.000    0.875 
#    0.000    2.000    0.000    0.000    0.000    0.000 
#
# Total GULP energy -178453.225917 kJ/mol
# GULP energy per Si atom -5576.663310 kJ/mol
# Density = 1.601873 g / cm^3
# Si number density = 16.055270 Si / 1000 Ang^3
#
#
#
# Elastic Constant Matrix: (Units=GPa)
#
#
# Indices 1 2 3 4 5 6 
#
# 1 12.1325 15.6144 21.9342 0.0000 0.0000 0.0000
# 2 15.6144 104.7868 84.5286 0.0000 0.0000 0.0000
# 3 21.9342 84.5286 163.9135 0.0000 0.0000 0.0000
# 4 0.0000 0.0000 0.0000 -100.1801 0.0000 0.0000
# 5 0.0000 0.0000 0.0000 0.0000 22.2256 0.0000
# 6 0.0000 0.0000 0.0000 0.0000 0.0000 23.4878
#
#
#
# Elastic Compliance Matrix: (Units=1/GPa)
#
#
# Indices 1 2 3 4 5 6 
#
# 1 0.112425 -0.007905 -0.010968 0.000000 0.000000 0.000000
# 2 -0.007905 0.016897 -0.007656 0.000000 0.000000 0.000000
# 3 -0.010968 -0.007656 0.011516 0.000000 0.000000 0.000000
# 4 0.000000 0.000000 0.000000 -0.009982 0.000000 0.000000
# 5 0.000000 0.000000 0.000000 0.000000 0.044993 0.000000
# 6 0.000000 0.000000 0.000000 0.000000 0.000000 0.042575
#
#
# Mechanical properties :
#
#
# Convention : Reuss Voigt Hill
#
# Bulk Modulus (GPa) = 11.39194 58.33190 34.86192
# Shear Modulus (GPa) = 16.62552 -0.30963 8.15794
#
# Velocity S-wave (km/s) = 3.22144 -0.43963 2.25659
# Velocity P-wave (km/s) = 4.57687 6.01275 5.34326
#
# Compressibility (1/GPa) = 0.08778136
#
# Stress axis : x y z
#
# Youngs Moduli (GPa) = 8.89479 59.18298 86.83315
#
# Poissons Ratio (x) = 0.46786 0.95235
# Poissons Ratio (y) = 0.07032 0.66476
# Poissons Ratio (z) = 0.09755 0.45308
#
# Static dielectric constant tensor:
#      x y z
#    x 1.548020 0.000000 0.000000 
#    y 0.000000 1.526500 0.000000 
#    z 0.000000 0.000000 1.569130 
# 
# From -- ./inp_files/19700.got.cif
#   From: 2010.05.17/outbox.cif.g08.bks.cpg/sg40_10_cif.got.tgz:19700.got - 2010.06.03 18:35:42.
