data_PCOD9362734
_publ_section_title
;
Structure prediction by ZEFSAII (Michael W. Deem and Ramdas Pophale) SiO2 
 PCOD9362734
Probable space group: A M A 2
;
_chemical_formula_sum "Si O2"
_cell_formula_units_Z 64
_cell_length_a 7.803442
_cell_length_b 20.075948
_cell_length_c 21.479722
_cell_angle_alpha 90.000000
_cell_angle_beta 90.000000
_cell_angle_gamma 90.000000
_cell_volume 3365.045378
_symmetry_space_group_name_H-M "A M A 2"
_symmetry_group_IT_number 40
_symmetry_cell_setting 'orthorhombic'
loop_
_space_group_symop_operation_xyz
x,y,z
-x,-y,z
1/2-x,y,z
1/2+x,-y,z
x,1/2+y,1/2+z
-x,1/2-y,1/2+z
1/2-x,1/2+y,1/2+z
1/2+x,1/2-y,1/2+z
loop_
_atom_site_type_symbol
_atom_site_label
_atom_site_fract_x
_atom_site_fract_y
_atom_site_fract_z
Si Si1 0.461288 0.712017 0.731280
Si Si2 0.454790 0.926261 0.408900
Si Si3 0.048931 0.284881 0.491830
Si Si4 0.043970 0.426796 0.052666
Si Si5 0.049396 0.716333 0.867198
Si Si6 0.955458 0.426639 0.676467
Si Si7 0.954618 0.425964 0.532940
Si Si8 0.451300 0.794083 0.613411
O O1 0.250000 0.711848 0.731640
O O2 0.521349 0.734105 0.799369
O O3 0.516202 0.636406 0.715753
O O4 0.521368 0.758488 0.674722
O O5 0.250000 0.919130 0.408097
O O6 0.517265 0.922424 0.480952
O O7 0.532826 0.863305 0.374159
O O8 0.500000 0.000000 0.385227
O O9 0.250000 0.268401 0.495882
O O10 0.976220 0.251295 0.429026
O O11 0.026614 0.364233 0.494296
O O12 0.966075 0.254097 0.553752
O O13 0.250000 0.421286 0.049870
O O14 0.975396 0.365308 0.092661
O O15 0.000000 0.500000 0.076750
O O16 0.250000 0.734274 0.866570
O O17 0.750000 0.422678 0.673685
O O18 0.018962 0.421214 0.604798
O O19 0.000000 0.500000 0.700557
O O20 0.750000 0.419237 0.533964
O O21 0.000000 0.500000 0.510364
O O22 0.250000 0.804251 0.625820
#
# Coordination Sequence:
#
# PCOD9362734 Si02
#       8
#     8   8   8   8   8   8   8   8
#     4   9  18  34  53  72  99 136 176 212 253 302
#     4  10  19  32  50  73 104 139 174 212 253 303
#     4  11  21  32  51  79 107 136 170 212 259 304
#     4   9  18  30  50  76 101 129 165 208 258 304
#     4  10  21  35  51  74 105 140 175 212 254 305
#     4   9  17  30  49  71  98 132 167 205 246 293
#     4  10  19  33  54  79 105 134 170 215 259 304
#     4  10  18  34  56  76  98 134 177 215 258 304
#
# _framework density 19.01906
#
# number of rings (size 3 to 8) (size 9 to 14) (size 15 to 20)
#    0.000    2.250    2.500    1.125    0.000    2.500 
#    0.000    2.500    0.000    0.750    0.000    1.750 
#    0.000    0.000    0.000    0.000    0.000    0.000 
#
# Total GULP energy -178553.280656 kJ/mol
# GULP energy per Si atom -5579.790020 kJ/mol
# Density = 1.897577 g / cm^3
# Si number density = 19.019060 Si / 1000 Ang^3
#
#
#
# Elastic Constant Matrix: (Units=GPa)
#
#
# Indices 1 2 3 4 5 6 
#
# 1 22.2730 -15.4364 -4.4307 0.0000 0.0000 0.0000
# 2 -15.4364 98.4047 48.8341 0.0000 0.0000 0.0000
# 3 -4.4307 48.8341 112.8575 0.0000 0.0000 0.0000
# 4 0.0000 0.0000 0.0000 20.1893 0.0000 0.0000
# 5 0.0000 0.0000 0.0000 0.0000 7.3464 0.0000
# 6 0.0000 0.0000 0.0000 0.0000 0.0000 21.4189
#
#
#
# Elastic Compliance Matrix: (Units=1/GPa)
#
#
# Indices 1 2 3 4 5 6 
#
# 1 0.050674 0.008866 -0.001847 0.000000 0.000000 0.000000
# 2 0.008866 0.014492 -0.005923 0.000000 0.000000 0.000000
# 3 -0.001847 -0.005923 0.011351 0.000000 0.000000 0.000000
# 4 0.000000 0.000000 0.000000 0.049531 0.000000 0.000000
# 5 0.000000 0.000000 0.000000 0.000000 0.136120 0.000000
# 6 0.000000 0.000000 0.000000 0.000000 0.000000 0.046688
#
#
# Mechanical properties :
#
#
# Convention : Reuss Voigt Hill
#
# Bulk Modulus (GPa) = 12.70495 32.38547 22.54521
# Shear Modulus (GPa) = 15.01949 23.42881 19.22415
#
# Velocity S-wave (km/s) = 2.81322 3.51359 3.18273
# Velocity P-wave (km/s) = 4.15294 5.79011 5.03846
#
# Compressibility (1/GPa) = 0.07870951
#
# Stress axis : x y z
#
# Youngs Moduli (GPa) = 19.73387 69.00346 88.09779
#
# Poissons Ratio (x) = -0.61175 0.16269
# Poissons Ratio (y) = -0.17495 0.52178
# Poissons Ratio (z) = 0.03644 0.40869
#
# Static dielectric constant tensor:
#      x y z
#    x 1.702970 0.000000 0.000000 
#    y 0.000000 1.667230 0.000000 
#    z 0.000000 0.000000 1.676000 
# 
# From -- ./inp_files/19564.got.cif
#   From: 2010.05.17/outbox.cif.g08.bks.cpg/sg40_10_cif.got.tgz:19564.got - 2010.06.03 18:35:42.
