data_PCOD9362283
_publ_section_title
;
Structure prediction by ZEFSAII (Michael W. Deem and Ramdas Pophale) SiO2 
 PCOD9362283
Probable space group: A M A 2
;
_chemical_formula_sum "Si O2"
_cell_formula_units_Z 64
_cell_length_a 8.411972
_cell_length_b 19.379252
_cell_length_c 22.220031
_cell_angle_alpha 90.000000
_cell_angle_beta 90.000000
_cell_angle_gamma 90.000000
_cell_volume 3622.258908
_symmetry_space_group_name_H-M "A M A 2"
_symmetry_group_IT_number 40
_symmetry_cell_setting 'orthorhombic'
loop_
_space_group_symop_operation_xyz
x,y,z
-x,-y,z
1/2-x,y,z
1/2+x,-y,z
x,1/2+y,1/2+z
-x,1/2-y,1/2+z
1/2-x,1/2+y,1/2+z
1/2+x,1/2-y,1/2+z
loop_
_atom_site_type_symbol
_atom_site_label
_atom_site_fract_x
_atom_site_fract_y
_atom_site_fract_z
Si Si1 0.560111 0.922928 0.696760
Si Si2 0.068672 0.067153 0.895536
Si Si3 0.433188 0.682908 0.294404
Si Si4 0.434857 0.925521 0.026753
Si Si5 0.441047 0.369309 0.070008
Si Si6 0.057983 0.273914 0.520592
Si Si7 0.940732 0.074107 0.440977
Si Si8 0.443892 0.780768 0.391826
O O1 0.750000 0.924092 0.704758
O O2 0.495151 0.861454 0.739924
O O3 0.516060 0.902788 0.628850
O O4 0.500000 0.000000 0.710344
O O5 0.250000 0.055984 0.915900
O O6 0.068976 0.129542 0.850005
O O7 0.000000 0.000000 0.862908
O O8 0.962898 0.075836 0.954602
O O9 0.250000 0.699674 0.277343
O O10 0.502871 0.749441 0.328493
O O11 0.250000 0.925733 0.040928
O O12 0.498865 0.849276 0.044005
O O13 0.500000 0.000000 0.047762
O O14 0.250000 0.372440 0.074143
O O15 0.493220 0.290132 0.059260
O O16 0.492707 0.409777 0.009570
O O17 0.250000 0.273115 0.521063
O O18 0.001393 0.259779 0.451727
O O19 0.750000 0.073825 0.441179
O O20 0.991776 0.139992 0.401910
O O21 0.000000 0.000000 0.420918
O O22 0.250000 0.776285 0.392235
#
# Coordination Sequence:
#
# PCOD9362283 Si02
#       8
#     8   8   8   8   8   8   8   8
#     4  11  22  36  52  73 101 135 174 215 251 294
#     4  10  17  26  41  60  87 125 162 196 232 275
#     4   9  18  31  48  67  93 131 170 204 243 289
#     4  10  19  28  41  65  96 127 160 195 240 291
#     4  10  21  36  53  72  95 132 172 209 256 306
#     4  10  19  31  48  73  99 126 163 211 257 299
#     4   9  18  30  49  72  96 124 156 196 246 299
#     4   9  17  32  49  68  96 132 167 199 244 306
#
# _framework density 17.668533
#
# number of rings (size 3 to 8) (size 9 to 14) (size 15 to 20)
#    0.000    2.250    1.250    4.125    0.000    5.000 
#    0.000    3.125    0.000    0.000    0.000    0.875 
#    0.000    2.000    0.000    0.000    0.000    0.125 
#
# Total GULP energy -178234.605412 kJ/mol
# GULP energy per Si atom -5569.831419 kJ/mol
# Density = 1.762832 g / cm^3
# Si number density = 17.668533 Si / 1000 Ang^3
#
#
#
# Elastic Constant Matrix: (Units=GPa)
#
#
# Indices 1 2 3 4 5 6 
#
# 1 18.4369 15.5495 5.3623 0.0000 0.0000 0.0000
# 2 15.5495 141.2028 35.0087 0.0000 0.0000 0.0000
# 3 5.3623 35.0087 61.3290 0.0000 0.0000 0.0000
# 4 0.0000 0.0000 0.0000 18.7614 0.0000 0.0000
# 5 0.0000 0.0000 0.0000 0.0000 8.8004 0.0000
# 6 0.0000 0.0000 0.0000 0.0000 0.0000 26.7662
#
#
#
# Elastic Compliance Matrix: (Units=1/GPa)
#
#
# Indices 1 2 3 4 5 6 
#
# 1 0.059947 -0.006176 -0.001716 0.000000 0.000000 0.000000
# 2 -0.006176 0.008886 -0.004532 0.000000 0.000000 0.000000
# 3 -0.001716 -0.004532 0.019043 0.000000 0.000000 0.000000
# 4 0.000000 0.000000 0.000000 0.053301 0.000000 0.000000
# 5 0.000000 0.000000 0.000000 0.000000 0.113632 0.000000
# 6 0.000000 0.000000 0.000000 0.000000 0.000000 0.037360
#
#
# Mechanical properties :
#
#
# Convention : Reuss Voigt Hill
#
# Bulk Modulus (GPa) = 15.86622 36.97887 26.42254
# Shear Modulus (GPa) = 14.79174 21.86880 18.33027
#
# Velocity S-wave (km/s) = 2.89655 3.52195 3.22445
# Velocity P-wave (km/s) = 4.49289 6.12483 5.37120
#
# Compressibility (1/GPa) = 0.06302698
#
# Stress axis : x y z
#
# Youngs Moduli (GPa) = 16.68138 112.53849 52.51340
#
# Poissons Ratio (x) = 0.69504 0.09011
# Poissons Ratio (y) = 0.10303 0.23801
# Poissons Ratio (z) = 0.02862 0.51006
#
# Static dielectric constant tensor:
#      x y z
#    x 1.617630 0.000000 0.000000 
#    y 0.000000 1.682390 0.000000 
#    z 0.000000 0.000000 1.586240 
# 
# From -- ./inp_files/22539.got.cif
#   From: 2010.05.17/outbox.cif.g08.bks.cpg/sg40_12_cif.got.tgz:22539.got - 2010.06.03 18:35:42.
