data_PCOD9362289
_publ_section_title
;
Structure prediction by ZEFSAII (Michael W. Deem and Ramdas Pophale) SiO2 
 PCOD9362289
Probable space group: A M A 2
;
_chemical_formula_sum "Si O2"
_cell_formula_units_Z 56
_cell_length_a 8.800909
_cell_length_b 22.755628
_cell_length_c 18.334445
_cell_angle_alpha 90.000000
_cell_angle_beta 90.000000
_cell_angle_gamma 90.000000
_cell_volume 3671.843174
_symmetry_space_group_name_H-M "A M A 2"
_symmetry_group_IT_number 40
_symmetry_cell_setting 'orthorhombic'
loop_
_space_group_symop_operation_xyz
x,y,z
-x,-y,z
1/2-x,y,z
1/2+x,-y,z
x,1/2+y,1/2+z
-x,1/2-y,1/2+z
1/2-x,1/2+y,1/2+z
1/2+x,1/2-y,1/2+z
loop_
_atom_site_type_symbol
_atom_site_label
_atom_site_fract_x
_atom_site_fract_y
_atom_site_fract_z
Si Si1 0.932523 0.845291 0.547820
Si Si2 0.931276 0.935375 0.674633
Si Si3 0.432208 0.813272 0.949786
Si Si4 0.068972 0.813206 0.403777
Si Si5 0.932160 0.781258 0.092579
Si Si6 0.432057 0.717009 0.758373
Si Si7 0.931928 0.147471 0.795585
O O1 0.750000 0.840304 0.544131
O O2 0.974917 0.896543 0.603973
O O3 0.999276 0.854115 0.466770
O O4 0.999359 0.783762 0.578348
O O5 0.750000 0.939151 0.676171
O O6 0.987678 0.899826 0.745343
O O7 0.000000 0.000000 0.672002
O O8 0.250000 0.807607 0.954031
O O9 0.502716 0.750842 0.925520
O O10 0.467949 0.855835 0.881960
O O11 0.500536 0.823116 0.029694
O O12 0.250000 0.813170 0.408031
O O13 0.013281 0.820645 0.320946
O O14 0.750000 0.777617 0.085339
O O15 0.968780 0.799258 0.175282
O O16 0.250000 0.713047 0.769078
O O17 0.472522 0.786175 0.769496
O O18 0.750000 0.141878 0.787213
#
# Coordination Sequence:
#
# PCOD9362289 Si02
#       7
#     8   8   8   8   8   8   8
#     4  10  19  31  44  60  84 114 147 183 224 263
#     4  11  23  34  48  66  85 114 152 192 228 264
#     4   9  17  28  41  60  86 116 144 177 219 261
#     4  10  18  26  41  62  83 113 148 180 215 260
#     4  10  17  26  43  65  88 118 149 179 215 258
#     4   9  17  28  42  62  90 120 146 178 219 259
#     4   9  17  31  46  59  84 117 148 183 223 261
#
# _framework density 15.251196
#
# number of rings (size 3 to 8) (size 9 to 14) (size 15 to 20)
#    0.000    2.286    1.429    5.571    0.000    5.714 
#    0.000    0.000    0.000    0.000    0.000    0.000 
#    0.000    1.143    0.000    6.286    0.000    4.857 
#
# Total GULP energy -156004.185543 kJ/mol
# GULP energy per Si atom -5571.578055 kJ/mol
# Density = 1.521648 g / cm^3
# Si number density = 15.251196 Si / 1000 Ang^3
#
#
#
# Elastic Constant Matrix: (Units=GPa)
#
#
# Indices 1 2 3 4 5 6 
#
# 1 62.5643 25.3303 63.6316 0.0000 0.0000 0.0000
# 2 25.3303 49.5742 47.3652 0.0000 0.0000 0.0000
# 3 63.6316 47.3652 172.0172 0.0000 0.0000 0.0000
# 4 0.0000 0.0000 0.0000 11.8313 0.0000 0.0000
# 5 0.0000 0.0000 0.0000 0.0000 -2.4656 0.0000
# 6 0.0000 0.0000 0.0000 0.0000 0.0000 1.1362
#
#
#
# Elastic Compliance Matrix: (Units=1/GPa)
#
#
# Indices 1 2 3 4 5 6 
#
# 1 0.026769 -0.005722 -0.008327 0.000000 0.000000 0.000000
# 2 -0.005722 0.028596 -0.005757 0.000000 0.000000 0.000000
# 3 -0.008327 -0.005757 0.010479 0.000000 0.000000 0.000000
# 4 0.000000 0.000000 0.000000 0.084521 0.000000 0.000000
# 5 0.000000 0.000000 0.000000 0.000000 -0.405583 0.000000
# 6 0.000000 0.000000 0.000000 0.000000 0.000000 0.880095
#
#
# Mechanical properties :
#
#
# Convention : Reuss Voigt Hill
#
# Bulk Modulus (GPa) = 38.12161 61.86777 49.99469
# Shear Modulus (GPa) = 7.42684 11.95563 9.69123
#
# Velocity S-wave (km/s) = 2.20913 2.80288 2.52353
# Velocity P-wave (km/s) = 5.61757 7.15044 6.42985
#
# Compressibility (1/GPa) = 0.02623184
#
# Stress axis : x y z
#
# Youngs Moduli (GPa) = 37.35668 34.96941 95.43082
#
# Poissons Ratio (x) = 0.20010 0.79461
# Poissons Ratio (y) = 0.21376 0.54943
# Poissons Ratio (z) = 0.31105 0.20133
#
# Static dielectric constant tensor:
#      x y z
#    x 1.520420 0.000000 0.000000 
#    y 0.000000 1.463090 0.000000 
#    z 0.000000 0.000000 1.571270 
# 
# From -- ./inp_files/19507.got.cif
#   From: 2010.05.17/outbox.cif.g08.bks.cpg/sg40_10_cif.got.tgz:19507.got - 2010.06.03 18:35:42.
