data_PCOD9362511
_publ_section_title
;
Structure prediction by ZEFSAII (Michael W. Deem and Ramdas Pophale) SiO2 
 PCOD9362511
Probable space group: A M A 2
;
_chemical_formula_sum "Si O2"
_cell_formula_units_Z 40
_cell_length_a 8.530406
_cell_length_b 21.607959
_cell_length_c 13.012173
_cell_angle_alpha 90.000000
_cell_angle_beta 90.000000
_cell_angle_gamma 90.000000
_cell_volume 2398.464404
_symmetry_space_group_name_H-M "A M A 2"
_symmetry_group_IT_number 40
_symmetry_cell_setting 'orthorhombic'
loop_
_space_group_symop_operation_xyz
x,y,z
-x,-y,z
1/2-x,y,z
1/2+x,-y,z
x,1/2+y,1/2+z
-x,1/2-y,1/2+z
1/2-x,1/2+y,1/2+z
1/2+x,1/2-y,1/2+z
loop_
_atom_site_type_symbol
_atom_site_label
_atom_site_fract_x
_atom_site_fract_y
_atom_site_fract_z
Si Si1 0.440482 0.161608 0.377520
Si Si2 0.937441 0.831978 0.722633
Si Si3 0.937402 0.302004 0.656706
Si Si4 0.060757 0.569364 0.052951
Si Si5 0.437202 0.801296 0.936450
O O1 0.250000 0.160754 0.378453
O O2 0.489636 0.160451 0.258411
O O3 0.494634 0.107119 0.452017
O O4 0.485949 0.228992 0.422172
O O5 0.750000 0.824813 0.714693
O O6 0.985323 0.889540 0.651769
O O7 0.014560 0.769001 0.679963
O O8 0.986909 0.837350 0.841237
O O9 0.750000 0.305508 0.649215
O O10 0.011581 0.321881 0.549258
O O11 0.250000 0.567963 0.050517
O O12 0.000000 0.500000 0.056470
O O13 0.250000 0.803898 0.926648
#
# Coordination Sequence:
#
# PCOD9362511 Si02
#       5
#     8   8   8   8   8
#     4   8  16  31  47  68 100 132 160 199 250 296
#     4  10  19  32  49  72 103 134 167 208 257 302
#     4  10  18  29  50  76 102 132 165 204 257 309
#     4  10  20  35  52  71 101 136 169 209 250 296
#     4  10  18  31  50  73 104 133 163 207 256 304
#
# _framework density 16.677336
#
# number of rings (size 3 to 8) (size 9 to 14) (size 15 to 20)
#    0.000    2.400    2.000    3.000    0.000    1.600 
#    0.000    2.000    0.000    1.200    0.000    2.800 
#    0.000    0.000    0.000    0.000    0.000    0.000 
#
# Total GULP energy -111502.591126 kJ/mol
# GULP energy per Si atom -5575.129556 kJ/mol
# Density = 1.663938 g / cm^3
# Si number density = 16.677336 Si / 1000 Ang^3
#
#
#
# Elastic Constant Matrix: (Units=GPa)
#
#
# Indices 1 2 3 4 5 6 
#
# 1 18.0100 9.2500 8.5913 0.0000 0.0000 0.0000
# 2 9.2500 89.8190 59.2295 0.0000 0.0000 0.0000
# 3 8.5913 59.2295 150.0536 0.0000 0.0000 0.0000
# 4 0.0000 0.0000 0.0000 19.5858 0.0000 0.0000
# 5 0.0000 0.0000 0.0000 0.0000 23.3547 0.0000
# 6 0.0000 0.0000 0.0000 0.0000 0.0000 20.8994
#
#
#
# Elastic Compliance Matrix: (Units=1/GPa)
#
#
# Indices 1 2 3 4 5 6 
#
# 1 0.058819 -0.005187 -0.001320 0.000000 0.000000 0.000000
# 2 -0.005187 0.015509 -0.005825 0.000000 0.000000 0.000000
# 3 -0.001320 -0.005825 0.009039 0.000000 0.000000 0.000000
# 4 0.000000 0.000000 0.000000 0.051057 0.000000 0.000000
# 5 0.000000 0.000000 0.000000 0.000000 0.042818 0.000000
# 6 0.000000 0.000000 0.000000 0.000000 0.000000 0.047848
#
#
# Mechanical properties :
#
#
# Convention : Reuss Voigt Hill
#
# Bulk Modulus (GPa) = 17.03498 45.78047 31.40773
# Shear Modulus (GPa) = 18.56522 24.82210 21.69366
#
# Velocity S-wave (km/s) = 3.34009 3.86213 3.61055
# Velocity P-wave (km/s) = 5.01114 6.88465 6.02121
#
# Compressibility (1/GPa) = 0.05870274
#
# Stress axis : x y z
#
# Youngs Moduli (GPa) = 17.00142 64.48032 110.63186
#
# Poissons Ratio (x) = 0.33445 0.14607
# Poissons Ratio (y) = 0.08818 0.64439
# Poissons Ratio (z) = 0.02245 0.37557
#
# Static dielectric constant tensor:
#      x y z
#    x 1.569600 0.000000 0.000000 
#    y 0.000000 1.525390 0.000000 
#    z 0.000000 0.000000 1.594020 
# 
# From -- ./inp_files/10008.got.cif
#   From: 2010.05.17/outbox.cif.g08.bks.cpg/sg40_6_cif.got.tgz:10008.got - 2010.06.03 18:35:42.
