data_PCOD9362573
_publ_section_title
;
Structure prediction by ZEFSAII (Michael W. Deem and Ramdas Pophale) SiO2 
 PCOD9362573
Probable space group: A M A 2
;
_chemical_formula_sum "Si O2"
_cell_formula_units_Z 64
_cell_length_a 8.818170
_cell_length_b 30.957042
_cell_length_c 14.897203
_cell_angle_alpha 90.000000
_cell_angle_beta 90.000000
_cell_angle_gamma 90.000000
_cell_volume 4066.704902
_symmetry_space_group_name_H-M "A M A 2"
_symmetry_group_IT_number 40
_symmetry_cell_setting 'orthorhombic'
loop_
_space_group_symop_operation_xyz
x,y,z
-x,-y,z
1/2-x,y,z
1/2+x,-y,z
x,1/2+y,1/2+z
-x,1/2-y,1/2+z
1/2-x,1/2+y,1/2+z
1/2+x,1/2-y,1/2+z
loop_
_atom_site_type_symbol
_atom_site_label
_atom_site_fract_x
_atom_site_fract_y
_atom_site_fract_z
Si Si1 0.073410 0.277617 0.726430
Si Si2 0.576545 0.825418 0.744906
Si Si3 0.432889 0.046387 0.636270
Si Si4 0.572012 0.635450 0.414983
Si Si5 0.432909 0.795200 0.424155
Si Si6 0.932967 0.546515 0.334557
Si Si7 0.430921 0.709218 0.533276
Si Si8 0.570245 0.366065 0.049731
O O1 0.250000 0.290178 0.715222
O O2 0.069009 0.226019 0.739986
O O3 0.013822 0.296083 0.820878
O O4 0.987260 0.288570 0.635363
O O5 0.750000 0.837614 0.770847
O O6 0.462975 0.843519 0.818208
O O7 0.546974 0.843820 0.646580
O O8 0.250000 0.044696 0.643221
O O9 0.499260 0.056341 0.735483
O O10 0.474140 0.084271 0.566860
O O11 0.500000 0.000000 0.610553
O O12 0.750000 0.636882 0.434480
O O13 0.526293 0.585387 0.401940
O O14 0.486995 0.665625 0.485631
O O15 0.250000 0.792821 0.421509
O O16 0.485743 0.751763 0.477161
O O17 0.483869 0.837522 0.477410
O O18 0.750000 0.544282 0.327543
O O19 0.000000 0.500000 0.360795
O O20 0.250000 0.710385 0.531044
O O21 0.750000 0.364475 0.030244
#
# Coordination Sequence:
#
# PCOD9362573 Si02
#       8
#     8   8   8   8   8   8   8   8
#     4  10  20  36  51  69 100 135 169 210 251 288
#     4  10  18  31  49  70 102 137 168 206 246 289
#     4  10  19  31  48  71 100 133 166 204 250 298
#     4  11  22  33  49  74 101 135 173 207 246 297
#     4  10  21  34  50  72 100 132 170 209 247 293
#     4  10  20  32  48  72 100 131 167 204 247 298
#     4  11  22  35  51  74 100 132 172 208 247 297
#     4  10  20  32  49  72  99 135 171 204 248 294
#
# _framework density 15.737557000000001
#
# number of rings (size 3 to 8) (size 9 to 14) (size 15 to 20)
#    0.000    1.750    3.750    2.250    0.000    4.500 
#    0.000    0.000    0.000    0.000    0.000    0.875 
#    0.000    6.000    0.000    0.000    0.000    0.000 
#
# Total GULP energy -178507.669880 kJ/mol
# GULP energy per Si atom -5578.364684 kJ/mol
# Density = 1.570174 g / cm^3
# Si number density = 15.737557 Si / 1000 Ang^3
#
#
#
# Elastic Constant Matrix: (Units=GPa)
#
#
# Indices 1 2 3 4 5 6 
#
# 1 36.0271 29.1094 31.4619 0.0000 0.0000 0.0000
# 2 29.1094 97.3267 55.8494 0.0000 0.0000 0.0000
# 3 31.4619 55.8494 86.9818 0.0000 0.0000 0.0000
# 4 0.0000 0.0000 0.0000 20.8207 0.0000 0.0000
# 5 0.0000 0.0000 0.0000 0.0000 27.1778 0.0000
# 6 0.0000 0.0000 0.0000 0.0000 0.0000 -62.6883
#
#
#
# Elastic Compliance Matrix: (Units=1/GPa)
#
#
# Indices 1 2 3 4 5 6 
#
# 1 0.042815 -0.006205 -0.011502 0.000000 0.000000 0.000000
# 2 -0.006205 0.017168 -0.008779 0.000000 0.000000 0.000000
# 3 -0.011502 -0.008779 0.021294 0.000000 0.000000 0.000000
# 4 0.000000 0.000000 0.000000 0.048029 0.000000 0.000000
# 5 0.000000 0.000000 0.000000 0.000000 0.036795 0.000000
# 6 0.000000 0.000000 0.000000 0.000000 0.000000 -0.015952
#
#
# Mechanical properties :
#
#
# Convention : Reuss Voigt Hill
#
# Bulk Modulus (GPa) = 35.32999 50.35299 42.84149
# Shear Modulus (GPa) = 23.52307 3.98971 13.75639
#
# Velocity S-wave (km/s) = 3.87034 1.59394 2.95975
# Velocity P-wave (km/s) = 6.51697 5.95419 6.24193
#
# Compressibility (1/GPa) = 0.02830457
#
# Stress axis : x y z
#
# Youngs Moduli (GPa) = 23.35608 58.24712 46.96166
#
# Poissons Ratio (x) = 0.36143 0.54017
# Poissons Ratio (y) = 0.14493 0.41227
# Poissons Ratio (z) = 0.26865 0.51135
#
# Static dielectric constant tensor:
#      x y z
#    x 1.537370 0.000000 0.000000 
#    y 0.000000 1.540400 0.000000 
#    z 0.000000 0.000000 1.506380 
# 
# From -- ./inp_files/15882.got.cif
#   From: 2010.05.17/outbox.cif.g08.bks.cpg/sg40_8_cif.got.tgz:15882.got - 2010.06.03 18:35:42.
