data_PCOD9362971
_publ_section_title
;
Structure prediction by ZEFSAII (Michael W. Deem and Ramdas Pophale) SiO2 
 PCOD9362971
Probable space group: A M A 2
;
_chemical_formula_sum "Si O2"
_cell_formula_units_Z 56
_cell_length_a 9.007868
_cell_length_b 20.817823
_cell_length_c 14.010158
_cell_angle_alpha 90.000000
_cell_angle_beta 90.000000
_cell_angle_gamma 90.000000
_cell_volume 2627.243694
_symmetry_space_group_name_H-M "A M A 2"
_symmetry_group_IT_number 40
_symmetry_cell_setting 'orthorhombic'
loop_
_space_group_symop_operation_xyz
x,y,z
-x,-y,z
1/2-x,y,z
1/2+x,-y,z
x,1/2+y,1/2+z
-x,1/2-y,1/2+z
1/2-x,1/2+y,1/2+z
1/2+x,1/2-y,1/2+z
loop_
_atom_site_type_symbol
_atom_site_label
_atom_site_fract_x
_atom_site_fract_y
_atom_site_fract_z
Si Si1 0.583053 0.061249 0.568530
Si Si2 0.924353 0.251090 0.076940
Si Si3 0.424659 0.066838 0.861586
Si Si4 0.078951 0.400688 0.550216
Si Si5 0.075674 0.433277 0.769741
Si Si6 0.073608 0.647511 0.918558
Si Si7 0.416639 0.831562 0.731718
O O1 0.750000 0.046857 0.535079
O O2 0.480404 0.089218 0.485573
O O3 0.593485 0.114634 0.649388
O O4 0.500000 0.000000 0.608233
O O5 0.750000 0.267028 0.090340
O O6 0.938536 0.176016 0.058569
O O7 0.007655 0.273827 0.173004
O O8 0.972991 0.290411 0.981574
O O9 0.250000 0.063830 0.843844
O O10 0.492427 0.131025 0.812828
O O11 0.500000 0.000000 0.828582
O O12 0.465002 0.072912 0.973126
O O13 0.250000 0.414174 0.519000
O O14 0.058075 0.427727 0.655968
O O15 0.250000 0.434855 0.791811
O O16 0.000000 0.500000 0.801100
O O17 0.004652 0.370669 0.819799
O O18 0.250000 0.649166 0.906038
O O19 0.250000 0.814733 0.765156
#
# Coordination Sequence:
#
# PCOD9362971 Si02
#       7
#     8   8   8   8   8   8   8
#     4  10  19  31  50  78 112 149 189 234 287 346
#     4   9  20  40  63  90 123 158 197 241 294 354
#     4  12  25  41  63  90 121 158 202 252 306 363
#     4  10  23  43  64  87 119 158 200 250 301 353
#     4  11  23  39  60  85 116 152 194 243 293 347
#     4  10  20  35  57  83 115 152 190 235 286 345
#     4  10  21  37  59  87 120 157 197 243 294 354
#
# _framework density 21.315116
#
# number of rings (size 3 to 8) (size 9 to 14) (size 15 to 20)
#    0.000    1.714    0.000    4.286    0.000    7.429 
#    0.000    2.857    0.000    0.000    0.000    0.000 
#    0.000    0.000    0.000    0.000    0.000    0.000 
#
# Total GULP energy -156432.702239 kJ/mol
# GULP energy per Si atom -5586.882223 kJ/mol
# Density = 2.126660 g / cm^3
# Si number density = 21.315116 Si / 1000 Ang^3
#
#
#
# Elastic Constant Matrix: (Units=GPa)
#
#
# Indices 1 2 3 4 5 6 
#
# 1 94.4241 30.0069 30.0855 0.0000 0.0000 0.0000
# 2 30.0069 67.4341 4.7592 0.0000 0.0000 0.0000
# 3 30.0855 4.7592 60.3289 0.0000 0.0000 0.0000
# 4 0.0000 0.0000 0.0000 27.2416 0.0000 0.0000
# 5 0.0000 0.0000 0.0000 0.0000 27.1376 0.0000
# 6 0.0000 0.0000 0.0000 0.0000 0.0000 17.3664
#
#
#
# Elastic Compliance Matrix: (Units=1/GPa)
#
#
# Indices 1 2 3 4 5 6 
#
# 1 0.014699 -0.006057 -0.006852 0.000000 0.000000 0.000000
# 2 -0.006057 0.017408 0.001647 0.000000 0.000000 0.000000
# 3 -0.006852 0.001647 0.019863 0.000000 0.000000 0.000000
# 4 0.000000 0.000000 0.000000 0.036709 0.000000 0.000000
# 5 0.000000 0.000000 0.000000 0.000000 0.036849 0.000000
# 6 0.000000 0.000000 0.000000 0.000000 0.000000 0.057582
#
#
# Mechanical properties :
#
#
# Convention : Reuss Voigt Hill
#
# Bulk Modulus (GPa) = 33.96052 39.09892 36.52972
# Shear Modulus (GPa) = 23.20729 24.83815 24.02272
#
# Velocity S-wave (km/s) = 3.30323 3.41733 3.36076
# Velocity P-wave (km/s) = 5.52410 5.82700 5.67757
#
# Compressibility (1/GPa) = 0.02944595
#
# Stress axis : x y z
#
# Youngs Moduli (GPa) = 68.03357 57.44391 50.34483
#
# Poissons Ratio (x) = 0.34794 0.34498
# Poissons Ratio (y) = 0.41208 -0.08293
# Poissons Ratio (z) = 0.46618 -0.09463
#
# Static dielectric constant tensor:
#      x y z
#    x 1.734490 0.000000 0.000000 
#    y 0.000000 1.805320 0.000000 
#    z 0.000000 0.000000 1.799660 
# 
# From -- ./inp_files/15275.got.cif
#   From: 2010.05.17/outbox.cif.g08.bks.cpg/sg40_8_cif.got.tgz:15275.got - 2010.06.03 18:35:42.
