data_PCOD9362576
_publ_section_title
;
Structure prediction by ZEFSAII (Michael W. Deem and Ramdas Pophale) SiO2 
 PCOD9362576
Probable space group: A M A 2
;
_chemical_formula_sum "Si O2"
_cell_formula_units_Z 48
_cell_length_a 8.564190
_cell_length_b 14.070430
_cell_length_c 24.510519
_cell_angle_alpha 90.000000
_cell_angle_beta 90.000000
_cell_angle_gamma 90.000000
_cell_volume 2953.562538
_symmetry_space_group_name_H-M "A M A 2"
_symmetry_group_IT_number 40
_symmetry_cell_setting 'orthorhombic'
loop_
_space_group_symop_operation_xyz
x,y,z
-x,-y,z
1/2-x,y,z
1/2+x,-y,z
x,1/2+y,1/2+z
-x,1/2-y,1/2+z
1/2-x,1/2+y,1/2+z
1/2+x,1/2-y,1/2+z
loop_
_atom_site_type_symbol
_atom_site_label
_atom_site_fract_x
_atom_site_fract_y
_atom_site_fract_z
Si Si1 0.436500 0.893026 0.529830
Si Si2 0.436438 0.210949 0.424890
Si Si3 0.561623 0.893293 0.648381
Si Si4 0.937692 0.895001 0.867519
Si Si5 0.060654 0.209763 0.757233
Si Si6 0.437732 0.395685 0.819237
O O1 0.250000 0.895888 0.529634
O O2 0.498331 0.825505 0.482232
O O3 0.497250 0.863023 0.589514
O O4 0.500000 0.000000 0.520326
O O5 0.250000 0.209293 0.425277
O O6 0.496803 0.315387 0.408391
O O7 0.498463 0.140916 0.377338
O O8 0.750000 0.895256 0.646340
O O9 0.508660 0.827491 0.698583
O O10 0.500000 0.000000 0.658221
O O11 0.750000 0.893645 0.869807
O O12 0.986482 0.860267 0.806651
O O13 0.000000 0.000000 0.878247
O O14 0.250000 0.209113 0.756346
O O15 0.012819 0.315471 0.775392
O O16 0.500000 0.500000 0.806952
O O17 0.250000 0.396700 0.821881
#
# Coordination Sequence:
#
# PCOD9362576 Si02
#       6
#     8   8   8   8   8   8
#     4  11  21  34  50  72  99 129 162 202 246 295
#     4  11  21  34  51  73  98 130 165 203 246 291
#     4  10  18  31  49  72  98 128 161 198 241 289
#     4  10  19  33  51  75 103 133 164 200 241 288
#     4   8  17  31  49  71 100 131 162 198 240 285
#     4  10  19  33  50  73 101 131 163 201 244 292
#
# _framework density 16.251560999999999
#
# number of rings (size 3 to 8) (size 9 to 14) (size 15 to 20)
#    0.000    2.000    0.000    7.500    0.000    0.000 
#    0.000    9.167    0.000    1.000    0.000    4.667 
#    0.000    0.000    0.000    0.000    0.000    0.000 
#
# Total GULP energy -133959.689974 kJ/mol
# GULP energy per Si atom -5581.653749 kJ/mol
# Density = 1.621457 g / cm^3
# Si number density = 16.251561 Si / 1000 Ang^3
#
#
#
# Elastic Constant Matrix: (Units=GPa)
#
#
# Indices 1 2 3 4 5 6 
#
# 1 107.1629 45.0634 51.3009 0.0000 0.0000 0.0000
# 2 45.0634 125.7535 95.4057 0.0000 0.0000 0.0000
# 3 51.3009 95.4057 159.1493 0.0000 0.0000 0.0000
# 4 0.0000 0.0000 0.0000 19.6285 0.0000 0.0000
# 5 0.0000 0.0000 0.0000 0.0000 9.7072 0.0000
# 6 0.0000 0.0000 0.0000 0.0000 0.0000 23.1612
#
#
#
# Elastic Compliance Matrix: (Units=1/GPa)
#
#
# Indices 1 2 3 4 5 6 
#
# 1 0.011410 -0.002382 -0.002250 0.000000 0.000000 0.000000
# 2 -0.002382 0.015083 -0.008274 0.000000 0.000000 0.000000
# 3 -0.002250 -0.008274 0.011969 0.000000 0.000000 0.000000
# 4 0.000000 0.000000 0.000000 0.050946 0.000000 0.000000
# 5 0.000000 0.000000 0.000000 0.000000 0.103016 0.000000
# 6 0.000000 0.000000 0.000000 0.000000 0.000000 0.043176
#
#
# Mechanical properties :
#
#
# Convention : Reuss Voigt Hill
#
# Bulk Modulus (GPa) = 79.05112 86.17841 82.61476
# Shear Modulus (GPa) = 18.82327 23.85242 21.33784
#
# Velocity S-wave (km/s) = 3.40699 3.83521 3.62743
# Velocity P-wave (km/s) = 8.01402 8.52964 8.27585
#
# Compressibility (1/GPa) = 0.01265004
#
# Stress axis : x y z
#
# Youngs Moduli (GPa) = 87.63951 66.30081 83.55013
#
# Poissons Ratio (x) = 0.15790 0.18802
# Poissons Ratio (y) = 0.20872 0.69130
# Poissons Ratio (z) = 0.19722 0.54857
#
# Static dielectric constant tensor:
#      x y z
#    x 1.547080 0.000000 0.000000 
#    y 0.000000 1.527550 0.000000 
#    z 0.000000 0.000000 1.537540 
# 
# From -- ./inp_files/22004.got.cif
#   From: 2010.05.17/outbox.cif.g08.bks.cpg/sg40_12_cif.got.tgz:22004.got - 2010.06.03 18:35:42.
