data_PCOD9362253
_publ_section_title
;
Structure prediction by ZEFSAII (Michael W. Deem and Ramdas Pophale) SiO2 
 PCOD9362253
Probable space group: A M A 2
;
_chemical_formula_sum "Si O2"
_cell_formula_units_Z 36
_cell_length_a 9.565355
_cell_length_b 22.284046
_cell_length_c 6.899072
_cell_angle_alpha 90.000000
_cell_angle_beta 90.000000
_cell_angle_gamma 90.000000
_cell_volume 1470.570387
_symmetry_space_group_name_H-M "A M A 2"
_symmetry_group_IT_number 40
_symmetry_cell_setting 'orthorhombic'
loop_
_space_group_symop_operation_xyz
x,y,z
-x,-y,z
1/2-x,y,z
1/2+x,-y,z
x,1/2+y,1/2+z
-x,1/2-y,1/2+z
1/2-x,1/2+y,1/2+z
1/2+x,1/2-y,1/2+z
loop_
_atom_site_type_symbol
_atom_site_label
_atom_site_fract_x
_atom_site_fract_y
_atom_site_fract_z
Si Si1 0.092187 0.790035 0.860880
Si Si2 0.491217 0.584533 0.456675
Si Si3 0.083638 0.561079 0.003421
Si Si4 0.250000 0.003215 0.047536
Si Si5 0.408730 0.825948 0.413801
O O1 0.250000 0.773418 0.926197
O O2 0.025588 0.845109 0.980585
O O3 0.104795 0.815842 0.645020
O O4 0.989534 0.733592 0.848239
O O5 0.436064 0.573885 0.235173
O O6 0.370845 0.554476 0.581178
O O7 0.629545 0.546340 0.490302
O O8 0.250000 0.553791 0.973939
O O9 0.000000 0.500000 0.962829
O O10 0.004008 0.615332 0.898165
O O11 0.250000 0.833476 0.338899
#
# Coordination Sequence:
#
# PCOD9362253 Si02
#       5
#     8   8   8   4   8
#     4  10  21  37  52  80 111 145 181 223 269 321
#     4  10  17  27  47  75 109 136 171 219 275 316
#     4  11  18  29  49  77 106 137 174 224 270 315
#     4  10  16  26  44  76 106 138 168 222 272 318
#     4  10  23  36  56  81 109 145 183 223 269 322
#
# _framework density 24.480295999999999
#
# number of rings (size 3 to 8) (size 9 to 14) (size 15 to 20)
#    0.000    1.778    4.444    1.333    3.111    1.778 
#    0.000    0.000    0.000    0.000    5.778    0.000 
#    0.000    0.000    0.000    0.000    0.000    0.000 
#
# Total GULP energy -100320.462613 kJ/mol
# GULP energy per Si atom -5573.359034 kJ/mol
# Density = 2.442458 g / cm^3
# Si number density = 24.480296 Si / 1000 Ang^3
#
#
#
# Elastic Constant Matrix: (Units=GPa)
#
#
# Indices 1 2 3 4 5 6 
#
# 1 328.7090 143.6053 35.2135 0.0000 0.0000 0.0000
# 2 143.6053 236.0336 25.1035 0.0000 0.0000 0.0000
# 3 35.2135 25.1035 70.9386 0.0000 0.0000 0.0000
# 4 0.0000 0.0000 0.0000 32.4106 0.0000 0.0000
# 5 0.0000 0.0000 0.0000 0.0000 39.5960 0.0000
# 6 0.0000 0.0000 0.0000 0.0000 0.0000 43.0290
#
#
#
# Elastic Compliance Matrix: (Units=1/GPa)
#
#
# Indices 1 2 3 4 5 6 
#
# 1 0.004246 -0.002451 -0.001240 0.000000 0.000000 0.000000
# 2 -0.002451 0.005818 -0.000842 0.000000 0.000000 0.000000
# 3 -0.001240 -0.000842 0.015010 0.000000 0.000000 0.000000
# 4 0.000000 0.000000 0.000000 0.030854 0.000000 0.000000
# 5 0.000000 0.000000 0.000000 0.000000 0.025255 0.000000
# 6 0.000000 0.000000 0.000000 0.000000 0.000000 0.023240
#
#
# Mechanical properties :
#
#
# Convention : Reuss Voigt Hill
#
# Bulk Modulus (GPa) = 62.47279 115.94730 89.21005
# Shear Modulus (GPa) = 42.07835 51.79106 46.93471
#
# Velocity S-wave (km/s) = 4.15042 4.60458 4.38338
# Velocity P-wave (km/s) = 6.96728 8.70264 7.88286
#
# Compressibility (1/GPa) = 0.01600697
#
# Stress axis : x y z
#
# Youngs Moduli (GPa) = 235.51385 171.88931 66.62119
#
# Poissons Ratio (x) = 0.42137 0.08262
# Poissons Ratio (y) = 0.57735 0.05609
# Poissons Ratio (z) = 0.29208 0.14471
#
# Static dielectric constant tensor:
#      x y z
#    x 1.810860 0.000000 0.000000 
#    y 0.000000 1.879480 0.000000 
#    z 0.000000 0.000000 2.157150 
# 
# From -- ./inp_files/4112.got.cif
#   From: 2010.05.17/outbox.cif.g08.bks.cpg/sg40_3_cif.got.tgz:4112.got - 2010.06.03 18:35:42.
