data_PCOD9362991
_publ_section_title
;
Structure prediction by ZEFSAII (Michael W. Deem and Ramdas Pophale) SiO2 
 PCOD9362991
Probable space group: A M A 2
;
_chemical_formula_sum "Si O2"
_cell_formula_units_Z 64
_cell_length_a 22.156834
_cell_length_b 15.027071
_cell_length_c 9.990807
_cell_angle_alpha 90.000000
_cell_angle_beta 90.000000
_cell_angle_gamma 90.000000
_cell_volume 3326.462346
_symmetry_space_group_name_H-M "A M A 2"
_symmetry_group_IT_number 40
_symmetry_cell_setting 'orthorhombic'
loop_
_space_group_symop_operation_xyz
x,y,z
-x,-y,z
1/2-x,y,z
1/2+x,-y,z
x,1/2+y,1/2+z
-x,1/2-y,1/2+z
1/2-x,1/2+y,1/2+z
1/2+x,1/2-y,1/2+z
loop_
_atom_site_type_symbol
_atom_site_label
_atom_site_fract_x
_atom_site_fract_y
_atom_site_fract_z
Si Si1 0.130852 0.560004 0.652530
Si Si2 0.004960 0.133477 0.251935
Si Si3 0.395247 0.688549 0.432354
Si Si4 0.681478 0.223561 0.213229
Si Si5 0.517946 0.655398 0.295219
Si Si6 0.317936 0.459006 0.891071
Si Si7 0.898314 0.122943 0.034378
Si Si8 0.934558 0.112578 0.515006
O O1 0.063282 0.580863 0.704019
O O2 0.141835 0.638940 0.547975
O O3 0.169269 0.538208 0.784853
O O4 0.131888 0.471351 0.563095
O O5 0.018781 0.238009 0.271900
O O6 0.953004 0.129493 0.140759
O O7 0.978081 0.096508 0.389365
O O8 0.355313 0.707586 0.302414
O O9 0.455627 0.638926 0.377514
O O10 0.415392 0.783621 0.493543
O O11 0.750000 0.249823 0.192476
O O12 0.680171 0.131537 0.300525
O O13 0.647367 0.200553 0.076488
O O14 0.573356 0.630939 0.390087
O O15 0.529307 0.607773 0.153723
O O16 0.250000 0.466217 0.947032
O O17 0.373720 0.445753 0.993680
#
# Coordination Sequence:
#
# PCOD9362991 Si02
#       8
#     8   8   8   8   8   8   8   8
#     4  11  20  34  56  84 113 142 181 237 288 332
#     4  11  18  33  55  80 112 144 180 227 281 343
#     4  10  19  31  54  82 112 146 181 242 279 333
#     4   9  18  35  55  79 108 151 197 224 265 340
#     4  11  20  32  54  85 114 141 182 231 289 337
#     4   9  19  35  56  78 109 152 197 230 268 334
#     4  11  20  34  57  82 113 145 181 231 286 336
#     4  10  19  34  53  83 109 150 188 222 284 335
#
# _framework density 19.239659
#
# number of rings (size 3 to 8) (size 9 to 14) (size 15 to 20)
#    0.000    1.750    7.500    1.125    0.000    0.500 
#    0.000    3.125    0.000    0.750    0.000    0.000 
#    0.000    0.000    0.000    0.000    0.000    0.000 
#
# Total GULP energy -178478.264233 kJ/mol
# GULP energy per Si atom -5577.445757 kJ/mol
# Density = 1.919587 g / cm^3
# Si number density = 19.239659 Si / 1000 Ang^3
#
#
#
# Elastic Constant Matrix: (Units=GPa)
#
#
# Indices 1 2 3 4 5 6 
#
# 1 70.1165 -4.3310 12.2342 0.0000 0.0000 0.0000
# 2 -4.3310 41.7881 7.1151 0.0000 0.0000 0.0000
# 3 12.2342 7.1151 76.3341 0.0000 0.0000 0.0000
# 4 0.0000 0.0000 0.0000 18.3960 0.0000 0.0000
# 5 0.0000 0.0000 0.0000 0.0000 10.9693 0.0000
# 6 0.0000 0.0000 0.0000 0.0000 0.0000 10.9501
#
#
#
# Elastic Compliance Matrix: (Units=1/GPa)
#
#
# Indices 1 2 3 4 5 6 
#
# 1 0.014831 0.001973 -0.002561 0.000000 0.000000 0.000000
# 2 0.001973 0.024579 -0.002607 0.000000 0.000000 0.000000
# 3 -0.002561 -0.002607 0.013754 0.000000 0.000000 0.000000
# 4 0.000000 0.000000 0.000000 0.054360 0.000000 0.000000
# 5 0.000000 0.000000 0.000000 0.000000 0.091163 0.000000
# 6 0.000000 0.000000 0.000000 0.000000 0.000000 0.091323
#
#
# Mechanical properties :
#
#
# Convention : Reuss Voigt Hill
#
# Bulk Modulus (GPa) = 21.37977 24.25281 22.81629
# Shear Modulus (GPa) = 16.02614 19.61111 17.81862
#
# Velocity S-wave (km/s) = 2.88926 3.19612 3.04656
# Velocity P-wave (km/s) = 4.71878 5.12379 4.92545
#
# Compressibility (1/GPa) = 0.04677319
#
# Stress axis : x y z
#
# Youngs Moduli (GPa) = 67.42783 40.68564 72.70738
#
# Poissons Ratio (x) = -0.08028 0.18619
# Poissons Ratio (y) = -0.13304 0.18956
# Poissons Ratio (z) = 0.17267 0.10608
#
# Static dielectric constant tensor:
#      x y z
#    x 1.677900 0.000000 0.000000 
#    y 0.000000 1.714340 0.000000 
#    z 0.000000 0.000000 1.658190 
# 
# From -- ./inp_files/8984.got.cif
#   From: 2010.05.17/outbox.cif.g08.bks.cpg/sg40_5_cif.got.tgz:8984.got - 2010.06.03 18:35:42.
