data_PCOD9362946
_publ_section_title
;
Structure prediction by ZEFSAII (Michael W. Deem and Ramdas Pophale) SiO2 
 PCOD9362946
Probable space group: A M A 2
;
_chemical_formula_sum "Si O2"
_cell_formula_units_Z 64
_cell_length_a 8.736954
_cell_length_b 29.092562
_cell_length_c 14.759827
_cell_angle_alpha 90.000000
_cell_angle_beta 90.000000
_cell_angle_gamma 90.000000
_cell_volume 3751.658376
_symmetry_space_group_name_H-M "A M A 2"
_symmetry_group_IT_number 40
_symmetry_cell_setting 'orthorhombic'
loop_
_space_group_symop_operation_xyz
x,y,z
-x,-y,z
1/2-x,y,z
1/2+x,-y,z
x,1/2+y,1/2+z
-x,1/2-y,1/2+z
1/2-x,1/2+y,1/2+z
1/2+x,1/2-y,1/2+z
loop_
_atom_site_type_symbol
_atom_site_label
_atom_site_fract_x
_atom_site_fract_y
_atom_site_fract_z
Si Si1 0.434783 0.679938 0.610480
Si Si2 0.434638 0.549974 0.909145
Si Si3 0.066453 0.550363 0.118880
Si Si4 0.068635 0.724284 0.902871
Si Si5 0.431695 0.864778 0.728463
Si Si6 0.069559 0.720046 0.117793
Si Si7 0.063714 0.135039 0.289980
Si Si8 0.932434 0.823551 0.902944
O O1 0.250000 0.683816 0.611240
O O2 0.501687 0.729615 0.637131
O O3 0.481227 0.642925 0.685918
O O4 0.481160 0.668826 0.507489
O O5 0.500000 0.500000 0.886939
O O6 0.250000 0.548119 0.905351
O O7 0.490014 0.589542 0.841253
O O8 0.475928 0.560801 0.013752
O O9 0.250000 0.549202 0.124525
O O10 0.000000 0.500000 0.140264
O O11 0.002674 0.589987 0.183076
O O12 0.250000 0.732276 0.886127
O O13 0.017745 0.680601 0.845103
O O14 0.979635 0.770966 0.881399
O O15 0.050743 0.713429 0.009494
O O16 0.250000 0.867478 0.725834
O O17 0.487624 0.820351 0.671832
O O18 0.488951 0.856477 0.830600
O O19 0.250000 0.718982 0.138522
O O20 0.250000 0.133879 0.292961
O O21 0.750000 0.828277 0.896770
#
# Coordination Sequence:
#
# PCOD9362946 Si02
#       8
#     8   8   8   8   8   8   8   8
#     4   9  18  32  50  72 100 135 172 209 250 297
#     4   9  18  33  53  76 103 131 158 193 241 296
#     4  10  20  36  56  79 105 130 158 198 250 306
#     4   9  17  30  49  73 102 134 164 198 246 304
#     4  12  23  34  51  73  98 134 176 214 252 296
#     4  10  19  31  48  73 105 137 168 206 251 299
#     4   9  16  29  50  72  95 128 166 198 237 294
#     4  10  20  33  48  70 100 133 170 212 253 294
#
# _framework density 17.059123
#
# number of rings (size 3 to 8) (size 9 to 14) (size 15 to 20)
#    0.000    2.250    0.000    3.750    0.000    4.500 
#    0.000    1.250    0.000    0.750    0.000    1.750 
#    0.000    0.000    0.000    0.000    0.000    0.000 
#
# Total GULP energy -178623.571778 kJ/mol
# GULP energy per Si atom -5581.986618 kJ/mol
# Density = 1.702030 g / cm^3
# Si number density = 17.059123 Si / 1000 Ang^3
#
#
#
# Elastic Constant Matrix: (Units=GPa)
#
#
# Indices 1 2 3 4 5 6 
#
# 1 49.6681 40.7899 41.3288 0.0000 0.0000 0.0000
# 2 40.7899 125.8772 102.2241 0.0000 0.0000 0.0000
# 3 41.3288 102.2241 111.2070 0.0000 0.0000 0.0000
# 4 0.0000 0.0000 0.0000 32.0318 0.0000 0.0000
# 5 0.0000 0.0000 0.0000 0.0000 30.8513 0.0000
# 6 0.0000 0.0000 0.0000 0.0000 0.0000 29.1484
#
#
#
# Elastic Compliance Matrix: (Units=1/GPa)
#
#
# Indices 1 2 3 4 5 6 
#
# 1 0.029357 -0.002575 -0.008543 0.000000 0.000000 0.000000
# 2 -0.002575 0.031564 -0.028057 0.000000 0.000000 0.000000
# 3 -0.008543 -0.028057 0.037958 0.000000 0.000000 0.000000
# 4 0.000000 0.000000 0.000000 0.031219 0.000000 0.000000
# 5 0.000000 0.000000 0.000000 0.000000 0.032414 0.000000
# 6 0.000000 0.000000 0.000000 0.000000 0.000000 0.034307
#
#
# Mechanical properties :
#
#
# Convention : Reuss Voigt Hill
#
# Bulk Modulus (GPa) = 48.71371 72.82646 60.77008
# Shear Modulus (GPa) = 17.72978 25.23360 21.48169
#
# Velocity S-wave (km/s) = 3.22734 3.85019 3.55244
# Velocity P-wave (km/s) = 6.51962 7.90877 7.24755
#
# Compressibility (1/GPa) = 0.02052810
#
# Stress axis : x y z
#
# Youngs Moduli (GPa) = 34.06311 31.68202 26.34516
#
# Poissons Ratio (x) = 0.08160 0.22506
# Poissons Ratio (y) = 0.08773 0.73916
# Poissons Ratio (z) = 0.29100 0.88890
#
# Static dielectric constant tensor:
#      x y z
#    x 1.569690 0.000000 0.000000 
#    y 0.000000 1.541040 0.000000 
#    z 0.000000 0.000000 1.600360 
# 
# From -- ./inp_files/15563.got.cif
#   From: 2010.05.17/outbox.cif.g08.bks.cpg/sg40_8_cif.got.tgz:15563.got - 2010.06.03 18:35:42.
