data_PCOD9362214
_publ_section_title
;
Structure prediction by ZEFSAII (Michael W. Deem and Ramdas Pophale) SiO2 
 PCOD9362214
Probable space group: A B M 2
;
_chemical_formula_sum "Si O2"
_cell_formula_units_Z 32
_cell_length_a 15.000000
_cell_length_b 24.000000
_cell_length_c 9.000000
_cell_angle_alpha 90.000000
_cell_angle_beta 90.000000
_cell_angle_gamma 90.000000
_cell_volume 3240.000000
_symmetry_space_group_name_H-M "A B M 2"
_symmetry_group_IT_number 39
_symmetry_cell_setting 'orthorhombic'
loop_
_space_group_symop_operation_xyz
x,y,z
-x,-y,z
-x,1/2+y,z
x,1/2-y,z
x,1/2+y,1/2+z
-x,1/2-y,1/2+z
-x,y,1/2+z
x,-y,1/2+z
loop_
_atom_site_type_symbol
_atom_site_label
_atom_site_fract_x
_atom_site_fract_y
_atom_site_fract_z
Si Si1 0.627494 0.407558 0.782750
Si Si2 0.212893 0.513643 0.892353
Si Si3 0.059506 0.845628 0.551851
Si Si4 0.540110 0.435682 0.454702
Si Si5 0.122045 0.815547 0.221058
Si Si6 0.275699 0.389230 0.837217
Si Si7 0.250184 0.683824 0.636519
Si Si8 0.093740 0.969997 0.634216
O O1 0.696845 0.452991 0.852585
O O2 0.581609 0.427407 0.623140
O O3 0.547213 0.401047 0.901481
O O4 0.687953 0.352836 0.747717
O O5 0.227396 0.448532 0.855590
O O6 0.135806 0.541272 0.794108
O O7 0.169781 0.507708 0.055135
O O8 0.079511 0.823268 0.386451
O O9 0.142417 0.822624 0.652714
O O10 0.074799 0.912110 0.552138
O O11 0.960348 0.831895 0.611659
O O12 0.500000 0.500000 0.441285
O O13 0.620427 0.412579 0.345175
O O14 0.144384 0.750000 0.200142
O O15 0.212855 0.854172 0.219601
O O16 0.269597 0.347737 0.979510
O O17 0.271060 0.750000 0.634823
O O18 0.000000 0.000000 0.647337
#
# Coordination Sequence:
#
# PCOD9362214 Si02
#       8
#     8   8   8   8   8   8   8   8
#     4  11  24  39  66  97 129 168 219 277 340 406
#     4  12  22  42  60  94 136 173 222 270 346 411
#     4  11  22  40  61  94 127 176 233 273 336 398
#     4  11  22  39  63  95 128 169 215 276 344 409
#     4  11  22  40  65  93 127 176 233 283 329 396
#     4  10  20  38  61  91 124 170 218 272 336 400
#     4  10  20  42  66  90 127 177 228 270 328 403
#     4  12  25  37  60  93 138 179 217 273 337 410
#
# _framework density 9.8765429999999999
#
# number of rings (size 3 to 8) (size 9 to 14) (size 15 to 20)
#    0.000    1.000    5.000    4.500    1.750    0.000 
#    0.000    4.375    0.000    0.000    0.000    4.375 
#    0.000    0.000    0.000    0.000    0.000    0.000 
#
# Total GULP energy -178305.853306 kJ/mol
# GULP energy per Si atom -5572.057916 kJ/mol
# Density = 0.985406 g / cm^3
# Si number density = 9.876543 Si / 1000 Ang^3
#
#
#
# Elastic Constant Matrix: (Units=GPa)
#
#
# Indices 1 2 3 4 5 6 
#
# 1 132.4581 55.4209 12.1857 0.0000 0.0000 0.0000
# 2 55.4209 80.1293 -5.0257 0.0000 0.0000 0.0000
# 3 12.1857 -5.0257 34.2696 0.0000 0.0000 0.0000
# 4 0.0000 0.0000 0.0000 24.2060 0.0000 0.0000
# 5 0.0000 0.0000 0.0000 0.0000 36.8639 0.0000
# 6 0.0000 0.0000 0.0000 0.0000 0.0000 37.4109
#
#
#
# Elastic Compliance Matrix: (Units=1/GPa)
#
#
# Indices 1 2 3 4 5 6 
#
# 1 0.011507 -0.008292 -0.005308 0.000000 0.000000 0.000000
# 2 -0.008292 0.018570 0.005672 0.000000 0.000000 0.000000
# 3 -0.005308 0.005672 0.031900 0.000000 0.000000 0.000000
# 4 0.000000 0.000000 0.000000 0.041312 0.000000 0.000000
# 5 0.000000 0.000000 0.000000 0.000000 0.027127 0.000000
# 6 0.000000 0.000000 0.000000 0.000000 0.000000 0.026730
#
#
# Mechanical properties :
#
#
# Convention : Reuss Voigt Hill
#
# Bulk Modulus (GPa) = 21.68171 41.33541 31.50856
# Shear Modulus (GPa) = 26.54274 31.98125 29.26200
#
# Velocity S-wave (km/s) = 3.66966 4.02811 3.85306
# Velocity P-wave (km/s) = 5.38103 6.52730 5.98169
#
# Compressibility (1/GPa) = 0.04612182
#
# Stress axis : x y z
#
# Youngs Moduli (GPa) = 86.90265 53.84894 31.34841
#
# Poissons Ratio (x) = 0.44650 0.16639
# Poissons Ratio (y) = 0.72057 -0.17780
# Poissons Ratio (z) = 0.46126 -0.30542
#
# Static dielectric constant tensor:
#      x y z
#    x 1.736750 0.000000 0.000000 
#    y 0.000000 1.692600 0.000000 
#    z 0.000000 0.000000 1.766610 
# 
# From -- ./inp_files/3515.got.cif
#   From: 2010.05.17/outbox.ucp.g08.bks.cvg/sg39_2_cif.got.tgz:3515.got - 2010.06.11 10:41:16.
