data_PCOD9362451
_publ_section_title
;
Structure prediction by ZEFSAII (Michael W. Deem and Ramdas Pophale) SiO2 
 PCOD9362451
Probable space group: A M A 2
;
_chemical_formula_sum "Si O2"
_cell_formula_units_Z 64
_cell_length_a 8.728584
_cell_length_b 30.949844
_cell_length_c 14.904801
_cell_angle_alpha 90.000000
_cell_angle_beta 90.000000
_cell_angle_gamma 90.000000
_cell_volume 4026.506848
_symmetry_space_group_name_H-M "A M A 2"
_symmetry_group_IT_number 40
_symmetry_cell_setting 'orthorhombic'
loop_
_space_group_symop_operation_xyz
x,y,z
-x,-y,z
1/2-x,y,z
1/2+x,-y,z
x,1/2+y,1/2+z
-x,1/2-y,1/2+z
1/2-x,1/2+y,1/2+z
1/2+x,1/2-y,1/2+z
loop_
_atom_site_type_symbol
_atom_site_label
_atom_site_fract_x
_atom_site_fract_y
_atom_site_fract_z
Si Si1 0.575285 0.673322 0.519910
Si Si2 0.932101 0.046687 0.929815
Si Si3 0.570469 0.276559 0.029201
Si Si4 0.931034 0.628362 0.712175
Si Si5 0.434547 0.795153 0.339312
Si Si6 0.929747 0.870076 0.854505
Si Si7 0.062709 0.208878 0.731382
Si Si8 0.932161 0.453408 0.628049
O O1 0.750000 0.662401 0.490490
O O2 0.560996 0.724642 0.524498
O O3 0.555016 0.654218 0.618540
O O4 0.458408 0.653716 0.449302
O O5 0.750000 0.044142 0.935810
O O6 0.983433 0.084646 0.863325
O O7 0.000000 0.000000 0.904872
O O8 0.997220 0.056922 0.029620
O O9 0.750000 0.288395 0.023283
O O10 0.512839 0.289699 0.127889
O O11 0.485505 0.294240 0.942113
O O12 0.750000 0.619309 0.725730
O O13 0.986244 0.661465 0.788324
O O14 0.019310 0.583845 0.696879
O O15 0.250000 0.794636 0.334101
O O16 0.487831 0.751570 0.286906
O O17 0.750000 0.878204 0.841426
O O18 0.983761 0.835174 0.781071
O O19 0.250000 0.210173 0.731563
O O20 0.750000 0.456015 0.619204
O O21 0.000000 0.500000 0.653670
#
# Coordination Sequence:
#
# PCOD9362451 Si02
#       8
#     8   8   8   8   8   8   8   8
#     4  10  18  28  46  69  97 133 169 205 245 290
#     4  11  21  34  50  71 101 131 164 201 248 298
#     4  10  19  33  49  69  98 135 173 211 249 289
#     4  10  19  32  50  70  99 137 171 202 250 298
#     4  10  19  33  50  71  98 134 171 208 249 293
#     4  11  20  31  49  72  98 132 172 207 245 294
#     4   9  18  32  49  69  98 134 169 203 247 295
#     4  11  21  33  50  73 101 130 166 203 246 296
#
# _framework density 15.89467
#
# number of rings (size 3 to 8) (size 9 to 14) (size 15 to 20)
#    0.000    1.750    3.750    3.375    0.000    0.500 
#    0.000    1.875    0.000    0.000    0.000    0.875 
#    0.000    6.000    0.000    0.000    0.000    0.000 
#
# Total GULP energy -178540.433028 kJ/mol
# GULP energy per Si atom -5579.388532 kJ/mol
# Density = 1.585849 g / cm^3
# Si number density = 15.894670 Si / 1000 Ang^3
#
#
#
# Elastic Constant Matrix: (Units=GPa)
#
#
# Indices 1 2 3 4 5 6 
#
# 1 61.8699 43.2220 24.0272 0.0000 0.0000 0.0000
# 2 43.2220 118.3423 57.0093 0.0000 0.0000 0.0000
# 3 24.0272 57.0093 87.7212 0.0000 0.0000 0.0000
# 4 0.0000 0.0000 0.0000 24.3412 0.0000 0.0000
# 5 0.0000 0.0000 0.0000 0.0000 20.2254 0.0000
# 6 0.0000 0.0000 0.0000 0.0000 0.0000 21.3146
#
#
#
# Elastic Compliance Matrix: (Units=1/GPa)
#
#
# Indices 1 2 3 4 5 6 
#
# 1 0.021780 -0.007397 -0.001159 0.000000 0.000000 0.000000
# 2 -0.007397 0.014813 -0.007601 0.000000 0.000000 0.000000
# 3 -0.001159 -0.007601 0.016657 0.000000 0.000000 0.000000
# 4 0.000000 0.000000 0.000000 0.041083 0.000000 0.000000
# 5 0.000000 0.000000 0.000000 0.000000 0.049443 0.000000
# 6 0.000000 0.000000 0.000000 0.000000 0.000000 0.046916
#
#
# Mechanical properties :
#
#
# Convention : Reuss Voigt Hill
#
# Bulk Modulus (GPa) = 47.76070 57.38336 52.57203
# Shear Modulus (GPa) = 21.74070 22.75457 22.24764
#
# Velocity S-wave (km/s) = 3.70239 3.78773 3.74530
# Velocity P-wave (km/s) = 6.95632 7.43706 7.20070
#
# Compressibility (1/GPa) = 0.02093772
#
# Stress axis : x y z
#
# Youngs Moduli (GPa) = 45.91349 67.50774 60.03500
#
# Poissons Ratio (x) = 0.49932 0.06956
# Poissons Ratio (y) = 0.33960 0.45633
# Poissons Ratio (z) = 0.05320 0.51313
#
# Static dielectric constant tensor:
#      x y z
#    x 1.545440 0.000000 0.000000 
#    y 0.000000 1.542500 0.000000 
#    z 0.000000 0.000000 1.513900 
# 
# From -- ./inp_files/15900.got.cif
#   From: 2010.05.17/outbox.cif.g08.bks.cpg/sg40_8_cif.got.tgz:15900.got - 2010.06.03 18:35:42.
