data_PCOD9362486
_publ_section_title
;
Structure prediction by ZEFSAII (Michael W. Deem and Ramdas Pophale) SiO2 
 PCOD9362486
Probable space group: A M A 2
;
_chemical_formula_sum "Si O2"
_cell_formula_units_Z 64
_cell_length_a 7.593001
_cell_length_b 28.436184
_cell_length_c 15.354002
_cell_angle_alpha 90.000000
_cell_angle_beta 90.000000
_cell_angle_gamma 90.000000
_cell_volume 3315.174290
_symmetry_space_group_name_H-M "A M A 2"
_symmetry_group_IT_number 40
_symmetry_cell_setting 'orthorhombic'
loop_
_space_group_symop_operation_xyz
x,y,z
-x,-y,z
1/2-x,y,z
1/2+x,-y,z
x,1/2+y,1/2+z
-x,1/2-y,1/2+z
1/2-x,1/2+y,1/2+z
1/2+x,1/2-y,1/2+z
loop_
_atom_site_type_symbol
_atom_site_label
_atom_site_fract_x
_atom_site_fract_y
_atom_site_fract_z
Si Si1 0.460794 0.218989 0.280740
Si Si2 0.961264 0.553918 0.971514
Si Si3 0.961548 0.053944 0.274261
Si Si4 0.465943 0.861936 0.592636
Si Si5 0.545527 0.224786 0.476338
Si Si6 0.534653 0.173096 0.775110
Si Si7 0.459977 0.864433 0.149943
Si Si8 0.045978 0.832408 0.967293
O O1 0.250000 0.218898 0.286542
O O2 0.531309 0.206828 0.376869
O O3 0.517296 0.272422 0.260494
O O4 0.514750 0.182106 0.207917
O O5 0.750000 0.558742 0.968042
O O6 0.026439 0.592276 0.040159
O O7 0.000000 0.500000 0.995061
O O8 0.028607 0.562237 0.872907
O O9 0.750000 0.059278 0.277627
O O10 0.030710 0.091585 0.205085
O O11 0.000000 0.000000 0.251110
O O12 0.250000 0.861886 0.591228
O O13 0.522751 0.815065 0.540978
O O14 0.520867 0.857642 0.692881
O O15 0.750000 0.232805 0.497635
O O16 0.457963 0.275859 0.480277
O O17 0.750000 0.172761 0.777486
O O18 0.469765 0.158756 0.871098
O O19 0.250000 0.871184 0.140809
O O20 0.533390 0.856159 0.053088
O O21 0.250000 0.846856 0.962716
#
# Coordination Sequence:
#
# PCOD9362486 Si02
#       8
#     8   8   8   8   8   8   8   8
#     4  10  19  30  45  68  97 125 156 193 230 273
#     4   9  17  30  47  66  87 111 142 182 228 276
#     4   9  18  32  48  67  91 117 148 188 235 286
#     4   9  16  27  46  67  87 117 154 185 217 267
#     4  10  18  29  46  68  95 126 158 190 228 274
#     4   8  15  28  44  64  90 120 154 187 217 258
#     4  10  19  31  48  69  94 124 157 193 235 282
#     4   9  18  31  46  67  96 126 156 192 231 270
#
# _framework density 19.305168999999999
#
# number of rings (size 3 to 8) (size 9 to 14) (size 15 to 20)
#    0.000    2.750    0.000    3.000    0.000    4.000 
#    0.000    3.750    0.000    5.250    0.000    0.000 
#    0.000    0.000    0.000    0.000    0.000    0.000 
#
# Total GULP energy -178535.941895 kJ/mol
# GULP energy per Si atom -5579.248184 kJ/mol
# Density = 1.926123 g / cm^3
# Si number density = 19.305169 Si / 1000 Ang^3
#
#
#
# Elastic Constant Matrix: (Units=GPa)
#
#
# Indices 1 2 3 4 5 6 
#
# 1 42.7440 2.1475 3.6081 0.0000 0.0000 0.0000
# 2 2.1475 86.8272 102.2422 0.0000 0.0000 0.0000
# 3 3.6081 102.2422 181.3645 0.0000 0.0000 0.0000
# 4 0.0000 0.0000 0.0000 28.8477 0.0000 0.0000
# 5 0.0000 0.0000 0.0000 0.0000 7.8324 0.0000
# 6 0.0000 0.0000 0.0000 0.0000 0.0000 14.6170
#
#
#
# Elastic Compliance Matrix: (Units=1/GPa)
#
#
# Indices 1 2 3 4 5 6 
#
# 1 0.023435 -0.000091 -0.000415 0.000000 0.000000 0.000000
# 2 -0.000091 0.034259 -0.019312 0.000000 0.000000 0.000000
# 3 -0.000415 -0.019312 0.016409 0.000000 0.000000 0.000000
# 4 0.000000 0.000000 0.000000 0.034665 0.000000 0.000000
# 5 0.000000 0.000000 0.000000 0.000000 0.127675 0.000000
# 6 0.000000 0.000000 0.000000 0.000000 0.000000 0.068414
#
#
# Mechanical properties :
#
#
# Convention : Reuss Voigt Hill
#
# Bulk Modulus (GPa) = 29.01256 58.54791 43.78023
# Shear Modulus (GPa) = 14.04570 23.78860 18.91715
#
# Velocity S-wave (km/s) = 2.70026 3.51414 3.13373
# Velocity P-wave (km/s) = 4.97824 6.84536 5.98506
#
# Compressibility (1/GPa) = 0.03446783
#
# Stress axis : x y z
#
# Youngs Moduli (GPa) = 42.67173 29.18901 60.94326
#
# Poissons Ratio (x) = 0.00266 0.02528
# Poissons Ratio (y) = 0.00389 1.17691
# Poissons Ratio (z) = 0.01770 0.56369
#
# Static dielectric constant tensor:
#      x y z
#    x 1.725330 0.000000 0.000000 
#    y 0.000000 1.638900 0.000000 
#    z 0.000000 0.000000 1.699980 
# 
# From -- ./inp_files/15898.got.cif
#   From: 2010.05.17/outbox.cif.g08.bks.cpg/sg40_8_cif.got.tgz:15898.got - 2010.06.03 18:35:42.
