data_PCOD9362788
_publ_section_title
;
Structure prediction by ZEFSAII (Michael W. Deem and Ramdas Pophale) SiO2 
 PCOD9362788
Probable space group: A M A 2
;
_chemical_formula_sum "Si O2"
_cell_formula_units_Z 56
_cell_length_a 21.208330
_cell_length_b 9.385472
_cell_length_c 13.900697
_cell_angle_alpha 90.000000
_cell_angle_beta 90.000000
_cell_angle_gamma 90.000000
_cell_volume 2766.936343
_symmetry_space_group_name_H-M "A M A 2"
_symmetry_group_IT_number 40
_symmetry_cell_setting 'orthorhombic'
loop_
_space_group_symop_operation_xyz
x,y,z
-x,-y,z
1/2-x,y,z
1/2+x,-y,z
x,1/2+y,1/2+z
-x,1/2-y,1/2+z
1/2-x,1/2+y,1/2+z
1/2+x,1/2-y,1/2+z
loop_
_atom_site_type_symbol
_atom_site_label
_atom_site_fract_x
_atom_site_fract_y
_atom_site_fract_z
Si Si1 0.568513 0.478609 0.180010
Si Si2 0.321447 0.226189 0.621735
Si Si3 0.681209 0.074431 0.945045
Si Si4 0.529581 0.751970 0.846890
Si Si5 0.395500 0.975901 0.224326
Si Si6 0.938196 0.409714 0.521566
Si Si7 0.113301 0.268037 0.289106
O O1 0.500000 0.500000 0.132388
O O2 0.623510 0.389672 0.130021
O O3 0.553019 0.386841 0.279173
O O4 0.593895 0.636975 0.198021
O O5 0.250000 0.182511 0.649071
O O6 0.319626 0.289430 0.514959
O O7 0.346088 0.360817 0.684277
O O8 0.750000 0.007227 0.949139
O O9 0.663104 0.133469 0.842137
O O10 0.626406 0.972247 0.980183
O O11 0.557937 0.614255 0.792660
O O12 0.453766 0.752995 0.844084
O O13 0.551646 0.768232 0.957523
O O14 0.431137 0.057070 0.135475
O O15 0.362750 0.109181 0.274800
O O16 0.000000 0.500000 0.492613
#
# Coordination Sequence:
#
# PCOD9362788 Si02
#       7
#     8   8   8   8   8   8   8
#     4   9  18  34  58  83 115 152 203 254 304 366
#     4   9  20  40  59  82 117 163 207 247 303 381
#     4  10  21  36  58  83 115 157 202 244 300 370
#     4  10  18  36  57  86 119 158 200 250 303 366
#     4  10  23  35  59  91 124 156 199 264 309 361
#     4  11  18  37  62  85 116 162 206 247 307 366
#     4  11  19  36  54  87 121 150 195 254 311 356
#
# _framework density 20.238992
#
# number of rings (size 3 to 8) (size 9 to 14) (size 15 to 20)
#    0.000    2.000    2.857    1.714    0.000    2.286 
#    2.571    0.000    0.000    0.000    0.000    0.000 
#    0.000    0.000    0.000    0.000    0.000    0.000 
#
# Total GULP energy -155932.613451 kJ/mol
# GULP energy per Si atom -5569.021909 kJ/mol
# Density = 2.019293 g / cm^3
# Si number density = 20.238992 Si / 1000 Ang^3
#
#
#
# Elastic Constant Matrix: (Units=GPa)
#
#
# Indices 1 2 3 4 5 6 
#
# 1 117.0765 13.7906 14.0698 0.0000 0.0000 0.0000
# 2 13.7906 81.7421 3.1446 0.0000 0.0000 0.0000
# 3 14.0698 3.1446 45.3679 0.0000 0.0000 0.0000
# 4 0.0000 0.0000 0.0000 -2.4860 0.0000 0.0000
# 5 0.0000 0.0000 0.0000 0.0000 151.6594 0.0000
# 6 0.0000 0.0000 0.0000 0.0000 0.0000 22.4986
#
#
#
# Elastic Compliance Matrix: (Units=1/GPa)
#
#
# Indices 1 2 3 4 5 6 
#
# 1 0.009034 -0.001420 -0.002703 0.000000 0.000000 0.000000
# 2 -0.001420 0.012490 -0.000425 0.000000 0.000000 0.000000
# 3 -0.002703 -0.000425 0.022910 0.000000 0.000000 0.000000
# 4 0.000000 0.000000 0.000000 -0.402252 0.000000 0.000000
# 5 0.000000 0.000000 0.000000 0.000000 0.006594 0.000000
# 6 0.000000 0.000000 0.000000 0.000000 0.000000 0.044447
#
#
# Mechanical properties :
#
#
# Convention : Reuss Voigt Hill
#
# Bulk Modulus (GPa) = 28.29979 34.02185 31.16082
# Shear Modulus (GPa) = -17.48847 48.54649 15.52901
#
# Velocity S-wave (km/s) = -2.94274 4.90293 2.77299
# Velocity P-wave (km/s) = 1.57062 6.99272 5.06779
#
# Compressibility (1/GPa) = 0.03533596
#
# Stress axis : x y z
#
# Youngs Moduli (GPa) = 110.69846 80.06703 43.64940
#
# Poissons Ratio (x) = 0.11370 0.11799
# Poissons Ratio (y) = 0.15720 0.01856
# Poissons Ratio (z) = 0.29923 0.03405
#
# Static dielectric constant tensor:
#      x y z
#    x 1.659580 0.000000 0.000000 
#    y 0.000000 1.733260 0.000000 
#    z 0.000000 0.000000 1.785070 
# 
# From -- ./inp_files/18224.got.cif
#   From: 2010.05.17/outbox.cif.g08.bks.cpg/sg40_10_cif.got.tgz:18224.got - 2010.06.03 18:35:42.
