data_PCOD9362080
_publ_section_title
;
Structure prediction by ZEFSAII (Michael W. Deem and Ramdas Pophale) SiO2 
 PCOD9362080
Probable space group: A B M 2
;
_chemical_formula_sum "Si O2"
_cell_formula_units_Z 48
_cell_length_a 5.038270
_cell_length_b 14.434443
_cell_length_c 29.408771
_cell_angle_alpha 90.000000
_cell_angle_beta 90.000000
_cell_angle_gamma 90.000000
_cell_volume 2138.741729
_symmetry_space_group_name_H-M "A B M 2"
_symmetry_group_IT_number 39
_symmetry_cell_setting 'orthorhombic'
loop_
_space_group_symop_operation_xyz
x,y,z
-x,-y,z
-x,1/2+y,z
x,1/2-y,z
x,1/2+y,1/2+z
-x,1/2-y,1/2+z
-x,y,1/2+z
x,-y,1/2+z
loop_
_atom_site_type_symbol
_atom_site_label
_atom_site_fract_x
_atom_site_fract_y
_atom_site_fract_z
Si Si1 0.089383 0.896640 0.966560
Si Si2 0.404845 0.145053 0.027915
Si Si3 0.280737 0.250000 0.830079
Si Si4 0.125212 0.092959 0.674364
Si Si5 0.508262 0.611424 0.756892
Si Si6 0.500000 0.500000 0.600840
Si Si7 0.176531 0.750000 0.706061
Si Si8 0.219527 0.250000 0.390551
O O1 0.161083 0.838012 0.922281
O O2 0.342167 0.892403 0.999862
O O3 0.000000 0.000000 0.954838
O O4 0.843904 0.854441 0.994240
O O5 0.460820 0.250000 0.043217
O O6 0.355574 0.074463 0.068907
O O7 0.353735 0.339222 0.799395
O O8 0.481307 0.250000 0.872652
O O9 0.983794 0.250000 0.848594
O O10 0.322292 0.136871 0.711516
O O11 0.900925 0.168801 0.668622
O O12 0.294059 0.056697 0.631998
O O13 0.000000 0.000000 0.694457
O O14 0.500000 0.500000 0.760779
O O15 0.242136 0.667722 0.744369
#
# Coordination Sequence:
#
# PCOD9362080 Si02
#       8
#     8   8   4   8   8   4   4   4
#     4  12  24  48  80 108 151 201 243 309 404 460
#     4  12  25  47  76 111 153 204 250 312 382 466
#     4  11  29  43  79 114 150 195 264 331 376 476
#     4  12  25  46  73 106 154 206 256 326 376 463
#     4  11  24  48  73 108 150 206 257 317 399 463
#     4  12  28  44  70 122 150 186 280 312 366 464
#     4  11  23  44  76 100 145 210 251 308 397 448
#     4  12  26  49  75 116 151 189 265 319 385 476
#
# _framework density 22.443104000000002
#
# number of rings (size 3 to 8) (size 9 to 14) (size 15 to 20)
#    0.000    0.333    5.833    2.000    8.167    1.333 
#    1.500    0.000    0.000    0.000    0.000    0.000 
#    0.000    0.000    0.000    0.000    0.000    0.000 
#
# Total GULP energy -133792.223810 kJ/mol
# GULP energy per Si atom -5574.675992 kJ/mol
# Density = 2.239202 g / cm^3
# Si number density = 22.443104 Si / 1000 Ang^3
#
#
#
# Elastic Constant Matrix: (Units=GPa)
#
#
# Indices 1 2 3 4 5 6 
#
# 1 66.2260 -1.7584 4.4068 0.0000 0.0000 0.0000
# 2 -1.7584 178.0845 35.3260 0.0000 0.0000 0.0000
# 3 4.4068 35.3260 82.4137 0.0000 0.0000 0.0000
# 4 0.0000 0.0000 0.0000 104.0669 0.0000 0.0000
# 5 0.0000 0.0000 0.0000 0.0000 21.0037 0.0000
# 6 0.0000 0.0000 0.0000 0.0000 0.0000 -20.6629
#
#
#
# Elastic Compliance Matrix: (Units=1/GPa)
#
#
# Indices 1 2 3 4 5 6 
#
# 1 0.015173 0.000340 -0.000957 0.000000 0.000000 0.000000
# 2 0.000340 0.006145 -0.002652 0.000000 0.000000 0.000000
# 3 -0.000957 -0.002652 0.013322 0.000000 0.000000 0.000000
# 4 0.000000 0.000000 0.000000 0.009609 0.000000 0.000000
# 5 0.000000 0.000000 0.000000 0.000000 0.047611 0.000000
# 6 0.000000 0.000000 0.000000 0.000000 0.000000 -0.048396
#
#
# Mechanical properties :
#
#
# Convention : Reuss Voigt Hill
#
# Bulk Modulus (GPa) = 35.58659 44.74146 40.16403
# Shear Modulus (GPa) = 84.21970 40.13153 62.17561
#
# Velocity S-wave (km/s) = 6.13248 4.23323 5.26914
# Velocity P-wave (km/s) = 8.12612 6.62363 7.41304
#
# Compressibility (1/GPa) = 0.02810047
#
# Stress axis : x y z
#
# Youngs Moduli (GPa) = 65.90868 162.74072 75.06462
#
# Poissons Ratio (x) = -0.05527 0.07183
# Poissons Ratio (y) = -0.02238 0.19908
# Poissons Ratio (z) = 0.06307 0.43160
#
# Static dielectric constant tensor:
#      x y z
#    x 1.999170 0.000000 0.000000 
#    y 0.000000 1.830150 0.000000 
#    z 0.000000 0.000000 1.814180 
# 
# From -- ./inp_files/16547.got.cif
#   From: 2010.05.17/outbox.cif.g08.bks.cpg/sg39_9_cif.got.tgz:16547.got - 2010.06.03 18:22:40.
