data_PCOD9362772
_publ_section_title
;
Structure prediction by ZEFSAII (Michael W. Deem and Ramdas Pophale) SiO2 
 PCOD9362772
Probable space group: A M A 2
;
_chemical_formula_sum "Si O2"
_cell_formula_units_Z 48
_cell_length_a 17.281220
_cell_length_b 16.313689
_cell_length_c 9.156407
_cell_angle_alpha 90.000000
_cell_angle_beta 90.000000
_cell_angle_gamma 90.000000
_cell_volume 2581.378369
_symmetry_space_group_name_H-M "A M A 2"
_symmetry_group_IT_number 40
_symmetry_cell_setting 'orthorhombic'
loop_
_space_group_symop_operation_xyz
x,y,z
-x,-y,z
1/2-x,y,z
1/2+x,-y,z
x,1/2+y,1/2+z
-x,1/2-y,1/2+z
1/2-x,1/2+y,1/2+z
1/2+x,1/2-y,1/2+z
loop_
_atom_site_type_symbol
_atom_site_label
_atom_site_fract_x
_atom_site_fract_y
_atom_site_fract_z
Si Si1 0.434230 0.808186 0.175600
Si Si2 0.388126 0.736253 0.737015
Si Si3 0.900133 0.423468 0.287527
Si Si4 0.577245 0.597296 0.392139
Si Si5 0.664035 0.255497 0.413606
Si Si6 0.657806 0.341968 0.022995
O O1 0.523185 0.783503 0.194920
O O2 0.395752 0.806561 0.335487
O O3 0.428439 0.884578 0.065484
O O4 0.386626 0.735794 0.094548
O O5 0.384417 0.823922 0.817349
O O6 0.343046 0.743326 0.586696
O O7 0.359294 0.667720 0.851360
O O8 0.882096 0.512176 0.353243
O O9 0.855416 0.348038 0.362186
O O10 0.990504 0.407737 0.324325
O O11 0.878900 0.416470 0.116042
O O12 0.750000 0.233440 0.365851
O O13 0.750000 0.339089 0.045886
#
# Coordination Sequence:
#
# PCOD9362772 Si02
#       6
#     8   8   8   8   8   8
#     4  10  18  35  58  84 112 148 197 243 282 338
#     4  11  19  36  60  89 111 150 197 247 283 350
#     4  10  19  36  56  83 113 146 191 241 297 351
#     4  10  20  34  60  86 109 141 198 250 286 335
#     4  11  21  36  58  84 119 156 187 234 298 355
#     4  10  20  35  56  84 118 157 192 235 300 359
#
# _framework density 18.594715999999998
#
# number of rings (size 3 to 8) (size 9 to 14) (size 15 to 20)
#    0.000    1.667    5.000    3.500    0.000    0.000 
#    0.000   11.667    0.000    0.000    0.000    0.000 
#    0.000    0.000    0.000    0.000    0.000    0.000 
#
# Total GULP energy -133731.278846 kJ/mol
# GULP energy per Si atom -5572.136619 kJ/mol
# Density = 1.855239 g / cm^3
# Si number density = 18.594716 Si / 1000 Ang^3
#
#
#
# Elastic Constant Matrix: (Units=GPa)
#
#
# Indices 1 2 3 4 5 6 
#
# 1 84.2042 7.2052 13.9804 0.0000 0.0000 0.0000
# 2 7.2052 81.2497 41.4221 0.0000 0.0000 0.0000
# 3 13.9804 41.4221 127.4652 0.0000 0.0000 0.0000
# 4 0.0000 0.0000 0.0000 29.3788 0.0000 0.0000
# 5 0.0000 0.0000 0.0000 0.0000 17.4763 0.0000
# 6 0.0000 0.0000 0.0000 0.0000 0.0000 10.9587
#
#
#
# Elastic Compliance Matrix: (Units=1/GPa)
#
#
# Indices 1 2 3 4 5 6 
#
# 1 0.012111 -0.000476 -0.001174 0.000000 0.000000 0.000000
# 2 -0.000476 0.014770 -0.004748 0.000000 0.000000 0.000000
# 3 -0.001174 -0.004748 0.009517 0.000000 0.000000 0.000000
# 4 0.000000 0.000000 0.000000 0.034038 0.000000 0.000000
# 5 0.000000 0.000000 0.000000 0.000000 0.057220 0.000000
# 6 0.000000 0.000000 0.000000 0.000000 0.000000 0.091251
#
#
# Mechanical properties :
#
#
# Convention : Reuss Voigt Hill
#
# Bulk Modulus (GPa) = 42.36499 46.45939 44.41219
# Shear Modulus (GPa) = 20.87063 26.91686 23.89375
#
# Velocity S-wave (km/s) = 3.35385 3.80880 3.58854
# Velocity P-wave (km/s) = 6.15066 6.66199 6.41142
#
# Compressibility (1/GPa) = 0.02360440
#
# Stress axis : x y z
#
# Youngs Moduli (GPa) = 82.56626 67.70314 105.07640
#
# Poissons Ratio (x) = 0.03220 0.12334
# Poissons Ratio (y) = 0.03927 0.49887
# Poissons Ratio (z) = 0.09692 0.32144
#
# Static dielectric constant tensor:
#      x y z
#    x 1.640620 0.000000 0.000000 
#    y 0.000000 1.644450 0.000000 
#    z 0.000000 0.000000 1.718060 
# 
# From -- ./inp_files/6440.got.cif
#   From: 2010.05.17/outbox.cif.g08.bks.cpg/sg40_4_cif.got.tgz:6440.got - 2010.06.03 18:35:42.
