data_PCOD9362293
_publ_section_title
;
Structure prediction by ZEFSAII (Michael W. Deem and Ramdas Pophale) SiO2 
 PCOD9362293
Probable space group: A M A 2
;
_chemical_formula_sum "Si O2"
_cell_formula_units_Z 48
_cell_length_a 8.779195
_cell_length_b 32.417646
_cell_length_c 9.241955
_cell_angle_alpha 90.000000
_cell_angle_beta 90.000000
_cell_angle_gamma 90.000000
_cell_volume 2630.268116
_symmetry_space_group_name_H-M "A M A 2"
_symmetry_group_IT_number 40
_symmetry_cell_setting 'orthorhombic'
loop_
_space_group_symop_operation_xyz
x,y,z
-x,-y,z
1/2-x,y,z
1/2+x,-y,z
x,1/2+y,1/2+z
-x,1/2-y,1/2+z
1/2-x,1/2+y,1/2+z
1/2+x,1/2-y,1/2+z
loop_
_atom_site_type_symbol
_atom_site_label
_atom_site_fract_x
_atom_site_fract_y
_atom_site_fract_z
Si Si1 0.933839 0.709755 0.778780
Si Si2 0.432103 0.709836 0.098544
Si Si3 0.932359 0.132830 0.766044
Si Si4 0.067369 0.458673 0.274516
Si Si5 0.933230 0.127372 0.107230
Si Si6 0.068431 0.541888 0.600404
O O1 0.750000 0.710216 0.786346
O O2 0.983090 0.749829 0.688144
O O3 0.977765 0.667643 0.697077
O O4 0.000088 0.711031 0.938643
O O5 0.250000 0.710716 0.090240
O O6 0.485439 0.668730 0.180230
O O7 0.750000 0.138439 0.754223
O O8 0.968304 0.086426 0.710838
O O9 0.970890 0.134235 0.937335
O O10 0.250000 0.462176 0.286509
O O11 0.000000 0.500000 0.203401
O O12 0.996640 0.457364 0.435953
O O13 0.750000 0.121989 0.114527
O O14 0.011228 0.085422 0.162322
O O15 0.250000 0.539638 0.598177
O O16 0.000000 0.500000 0.667783
#
# Coordination Sequence:
#
# PCOD9362293 Si02
#       6
#     8   8   8   8   8   8
#     4  10  22  39  57  77 105 139 171 211 264 312
#     4  11  23  37  56  81 105 134 175 216 255 309
#     4   9  18  33  53  77 108 142 173 212 263 311
#     4   9  16  27  45  71 103 138 175 214 257 303
#     4   9  18  34  54  76 104 139 177 215 259 309
#     4  10  17  26  44  72 105 138 173 214 258 302
#
# _framework density 18.249089999999999
#
# number of rings (size 3 to 8) (size 9 to 14) (size 15 to 20)
#    0.000    2.333    0.000    5.500    0.000    6.667 
#    0.000    0.000    0.000    1.000    0.000    4.667 
#    0.000    0.000    0.000    0.000    0.000    0.000 
#
# Total GULP energy -133858.917485 kJ/mol
# GULP energy per Si atom -5577.454895 kJ/mol
# Density = 1.820755 g / cm^3
# Si number density = 18.249090 Si / 1000 Ang^3
#
#
#
# Elastic Constant Matrix: (Units=GPa)
#
#
# Indices 1 2 3 4 5 6 
#
# 1 56.0931 69.1153 29.4958 0.0000 0.0000 0.0000
# 2 69.1153 220.5562 75.8747 0.0000 0.0000 0.0000
# 3 29.4958 75.8747 74.6516 0.0000 0.0000 0.0000
# 4 0.0000 0.0000 0.0000 19.5348 0.0000 0.0000
# 5 0.0000 0.0000 0.0000 0.0000 22.7890 0.0000
# 6 0.0000 0.0000 0.0000 0.0000 0.0000 32.1026
#
#
#
# Elastic Compliance Matrix: (Units=1/GPa)
#
#
# Indices 1 2 3 4 5 6 
#
# 1 0.029620 -0.008082 -0.003489 0.000000 0.000000 0.000000
# 2 -0.008082 0.009177 -0.006134 0.000000 0.000000 0.000000
# 3 -0.003489 -0.006134 0.021009 0.000000 0.000000 0.000000
# 4 0.000000 0.000000 0.000000 0.051191 0.000000 0.000000
# 5 0.000000 0.000000 0.000000 0.000000 0.043881 0.000000
# 6 0.000000 0.000000 0.000000 0.000000 0.000000 0.031150
#
#
# Mechanical properties :
#
#
# Convention : Reuss Voigt Hill
#
# Bulk Modulus (GPa) = 40.99054 77.80806 59.39930
# Shear Modulus (GPa) = 21.78000 26.67294 24.22647
#
# Velocity S-wave (km/s) = 3.45843 3.82724 3.64750
# Velocity P-wave (km/s) = 6.20146 7.89048 7.09640
#
# Compressibility (1/GPa) = 0.02439587
#
# Stress axis : x y z
#
# Youngs Moduli (GPa) = 33.76093 108.97208 47.59967
#
# Poissons Ratio (x) = 0.88067 0.16608
# Poissons Ratio (y) = 0.27284 0.29197
# Poissons Ratio (z) = 0.11780 0.66842
#
# Static dielectric constant tensor:
#      x y z
#    x 1.610610 0.000000 0.000000 
#    y 0.000000 1.674970 0.000000 
#    z 0.000000 0.000000 1.603210 
# 
# From -- ./inp_files/4602.got.cif
#   From: 2010.05.17/outbox.cif.g08.bks.cpg/sg40_3_cif.got.tgz:4602.got - 2010.06.03 18:35:42.
