data_PCOD9362330
_publ_section_title
;
Structure prediction by ZEFSAII (Michael W. Deem and Ramdas Pophale) SiO2 
 PCOD9362330
Probable space group: A M A 2
;
_chemical_formula_sum "Si O2"
_cell_formula_units_Z 48
_cell_length_a 16.208397
_cell_length_b 20.485605
_cell_length_c 8.238842
_cell_angle_alpha 90.000000
_cell_angle_beta 90.000000
_cell_angle_gamma 90.000000
_cell_volume 2735.615365
_symmetry_space_group_name_H-M "A M A 2"
_symmetry_group_IT_number 40
_symmetry_cell_setting 'orthorhombic'
loop_
_space_group_symop_operation_xyz
x,y,z
-x,-y,z
1/2-x,y,z
1/2+x,-y,z
x,1/2+y,1/2+z
-x,1/2-y,1/2+z
1/2-x,1/2+y,1/2+z
1/2+x,1/2-y,1/2+z
loop_
_atom_site_type_symbol
_atom_site_label
_atom_site_fract_x
_atom_site_fract_y
_atom_site_fract_z
Si Si1 0.899891 0.228239 0.814540
Si Si2 0.841833 0.349642 0.007097
Si Si3 0.156973 0.846974 0.507302
Si Si4 0.843762 0.294563 0.369744
Si Si5 0.492123 0.675760 0.595219
Si Si6 0.998185 0.077349 0.380968
O O1 0.853272 0.182797 0.687607
O O2 0.974821 0.262154 0.713410
O O3 0.848586 0.289311 0.881648
O O4 0.935631 0.190601 0.968974
O O5 0.750000 0.379165 0.994773
O O6 0.851460 0.319782 0.186950
O O7 0.918655 0.396200 0.967496
O O8 0.250000 0.872228 0.484473
O O9 0.145413 0.783641 0.390285
O O10 0.083287 0.896793 0.473400
O O11 0.750000 0.307940 0.424604
O O12 0.909477 0.328142 0.487037
O O13 0.504325 0.613213 0.706678
O O14 0.000000 0.000000 0.369254
#
# Coordination Sequence:
#
# PCOD9362330 Si02
#       6
#     8   8   8   8   8   8
#     4  10  17  30  54  85 109 130 163 213 273 320
#     4  10  19  33  57  85 109 133 167 214 265 317
#     4  10  20  35  56  81 109 136 167 213 265 316
#     4   9  17  31  55  86 111 130 160 213 276 320
#     4  10  18  31  52  78 110 140 169 211 260 313
#     4  11  24  38  52  71 102 149 189 214 248 298
#
# _framework density 17.546326000000001
#
# number of rings (size 3 to 8) (size 9 to 14) (size 15 to 20)
#    0.000    2.000    0.000    7.500    0.000    4.667 
#    0.000    4.167    0.000    0.000    0.000    0.000 
#    0.000    0.000    0.000    0.000    0.000    0.000 
#
# Total GULP energy -133931.913805 kJ/mol
# GULP energy per Si atom -5580.496409 kJ/mol
# Density = 1.750639 g / cm^3
# Si number density = 17.546326 Si / 1000 Ang^3
#
#
#
# Elastic Constant Matrix: (Units=GPa)
#
#
# Indices 1 2 3 4 5 6 
#
# 1 135.7445 55.2878 33.6420 0.0000 0.0000 0.0000
# 2 55.2878 94.6369 36.1497 0.0000 0.0000 0.0000
# 3 33.6420 36.1497 80.3742 0.0000 0.0000 0.0000
# 4 0.0000 0.0000 0.0000 12.0577 0.0000 0.0000
# 5 0.0000 0.0000 0.0000 0.0000 25.5771 0.0000
# 6 0.0000 0.0000 0.0000 0.0000 0.0000 7.7072
#
#
#
# Elastic Compliance Matrix: (Units=1/GPa)
#
#
# Indices 1 2 3 4 5 6 
#
# 1 0.009892 -0.005068 -0.001861 0.000000 0.000000 0.000000
# 2 -0.005068 0.015355 -0.004785 0.000000 0.000000 0.000000
# 3 -0.001861 -0.004785 0.015373 0.000000 0.000000 0.000000
# 4 0.000000 0.000000 0.000000 0.082935 0.000000 0.000000
# 5 0.000000 0.000000 0.000000 0.000000 0.039097 0.000000
# 6 0.000000 0.000000 0.000000 0.000000 0.000000 0.129749
#
#
# Mechanical properties :
#
#
# Convention : Reuss Voigt Hill
#
# Bulk Modulus (GPa) = 58.16645 62.32385 60.24515
# Shear Modulus (GPa) = 15.54915 21.44680 18.49797
#
# Velocity S-wave (km/s) = 2.98010 3.49993 3.25042
# Velocity P-wave (km/s) = 6.71294 7.20620 6.96394
#
# Compressibility (1/GPa) = 0.01719204
#
# Stress axis : x y z
#
# Youngs Moduli (GPa) = 101.08892 65.12365 65.04961
#
# Poissons Ratio (x) = 0.33006 0.12106
# Poissons Ratio (y) = 0.51235 0.31126
# Poissons Ratio (z) = 0.18813 0.31161
#
# Static dielectric constant tensor:
#      x y z
#    x 1.650520 0.000000 0.000000 
#    y 0.000000 1.551130 0.000000 
#    z 0.000000 0.000000 1.608400 
# 
# From -- ./inp_files/6594.got.cif
#   From: 2010.05.17/outbox.cif.g08.bks.cpg/sg40_4_cif.got.tgz:6594.got - 2010.06.03 18:35:42.
