data_PCOD9362185
_publ_section_title
;
Structure prediction by ZEFSAII (Michael W. Deem and Ramdas Pophale) SiO2 
 PCOD9362185
Probable space group: A B M 2
;
_chemical_formula_sum "Si O2"
_cell_formula_units_Z 32
_cell_length_a 21.000000
_cell_length_b 9.000000
_cell_length_c 21.000000
_cell_angle_alpha 90.000000
_cell_angle_beta 90.000000
_cell_angle_gamma 90.000000
_cell_volume 3969.000000
_symmetry_space_group_name_H-M "A B M 2"
_symmetry_group_IT_number 39
_symmetry_cell_setting 'orthorhombic'
loop_
_space_group_symop_operation_xyz
x,y,z
-x,-y,z
-x,1/2+y,z
x,1/2-y,z
x,1/2+y,1/2+z
-x,1/2-y,1/2+z
-x,y,1/2+z
x,-y,1/2+z
loop_
_atom_site_type_symbol
_atom_site_label
_atom_site_fract_x
_atom_site_fract_y
_atom_site_fract_z
Si Si1 0.318455 0.070117 0.227500
Si Si2 0.571595 0.069708 0.832569
Si Si3 0.304592 0.070597 0.083187
Si Si4 0.342258 0.569447 0.442741
Si Si5 0.071595 0.430292 0.662311
Si Si6 0.195408 0.070597 0.911692
Si Si7 0.181545 0.070117 0.767380
Si Si8 0.157742 0.569447 0.552139
O O1 0.311955 0.250000 0.229524
O O2 0.377527 0.032272 0.275110
O O3 0.329429 0.025090 0.153127
O O4 0.250000 0.000000 0.247440
O O5 0.566418 0.250000 0.835219
O O6 0.500000 0.000000 0.824891
O O7 0.605746 0.007118 0.896988
O O8 0.306504 0.250000 0.081631
O O9 0.229472 0.031285 0.076597
O O10 0.340882 0.024277 0.017978
O O11 0.349274 0.750000 0.439028
O O12 0.270528 0.531285 0.418283
O O13 0.066418 0.250000 0.659660
O O14 0.122473 0.467728 0.719770
O O15 0.105746 0.492882 0.597891
O O16 0.000000 0.500000 0.669989
O O17 0.193496 0.250000 0.913249
O O18 0.170571 0.025090 0.841753
O O19 0.159118 0.024277 0.976902
O O20 0.188045 0.250000 0.765356
O O21 0.150726 0.750000 0.555852
#
# Coordination Sequence:
#
# PCOD9362185 Si02
#       8
#     8   8   8   8   8   8   8   8
#     4  10  19  33  54  80 107 137 177 220 264 314
#     4  11  23  36  52  76 107 144 179 218 266 318
#     4   8  15  29  53  81 105 133 168 210 262 313
#     4   9  16  31  55  78 103 137 172 210 259 315
#     4  11  23  36  52  76 107 144 179 218 266 318
#     4   8  15  29  53  81 105 133 168 210 262 313
#     4  10  19  33  54  80 107 137 177 220 264 314
#     4   9  16  31  55  78 103 137 172 210 259 315
#
# _framework density 8.0624839999999995
#
# number of rings (size 3 to 8) (size 9 to 14) (size 15 to 20)
#    0.000    2.500    2.500    2.250    0.000    1.000 
#    0.000    5.000    0.000    3.000    0.000    0.000 
#    0.000    0.000    0.000    0.000    0.000    0.000 
#
# Total GULP energy -178196.153646 kJ/mol
# GULP energy per Si atom -5568.629801 kJ/mol
# Density = 0.804413 g / cm^3
# Si number density = 8.062484 Si / 1000 Ang^3
#
#
#
# Elastic Constant Matrix: (Units=GPa)
#
#
# Indices 1 2 3 4 5 6 
#
# 1 131.4603 36.5213 80.8438 0.0000 0.0000 0.0000
# 2 36.5213 43.2490 31.3191 0.0000 0.0000 0.0000
# 3 80.8438 31.3191 174.8895 0.0000 0.0000 0.0000
# 4 0.0000 0.0000 0.0000 24.2136 0.0000 0.0000
# 5 0.0000 0.0000 0.0000 0.0000 33.3496 0.0000
# 6 0.0000 0.0000 0.0000 0.0000 0.0000 28.5467
#
#
#
# Elastic Compliance Matrix: (Units=1/GPa)
#
#
# Indices 1 2 3 4 5 6 
#
# 1 0.012318 -0.007214 -0.004402 0.000000 0.000000 0.000000
# 2 -0.007214 0.030792 -0.002179 0.000000 0.000000 0.000000
# 3 -0.004402 -0.002179 0.008143 0.000000 0.000000 0.000000
# 4 0.000000 0.000000 0.000000 0.041299 0.000000 0.000000
# 5 0.000000 0.000000 0.000000 0.000000 0.029985 0.000000
# 6 0.000000 0.000000 0.000000 0.000000 0.000000 0.035030
#
#
# Mechanical properties :
#
#
# Convention : Reuss Voigt Hill
#
# Bulk Modulus (GPa) = 42.26220 71.88526 57.07373
# Shear Modulus (GPa) = 25.90035 30.61627 28.25831
#
# Velocity S-wave (km/s) = 4.01212 4.36212 4.19078
# Velocity P-wave (km/s) = 6.90861 8.36945 7.67387
#
# Compressibility (1/GPa) = 0.02366180
#
# Stress axis : x y z
#
# Youngs Moduli (GPa) = 81.17993 32.47585 122.80193
#
# Poissons Ratio (x) = 0.23429 0.54061
# Poissons Ratio (y) = 0.58564 0.26764
# Poissons Ratio (z) = 0.35738 0.07078
#
# Static dielectric constant tensor:
#      x y z
#    x 1.518290 0.000000 0.000000 
#    y 0.000000 1.543450 0.000000 
#    z 0.000000 0.000000 1.586360 
# 
# From -- ./inp_files/15082.got.cif
#   From: 2010.05.17/outbox.ucp.g08.bks.cvg/sg39_8_cif.got.tgz:15082.got - 2010.06.11 10:41:16.
