data_PCOD9362720
_publ_section_title
;
Structure prediction by ZEFSAII (Michael W. Deem and Ramdas Pophale) SiO2 
 PCOD9362720
Probable space group: A M A 2
;
_chemical_formula_sum "Si O2"
_cell_formula_units_Z 56
_cell_length_a 25.996785
_cell_length_b 7.489955
_cell_length_c 12.837608
_cell_angle_alpha 90.000000
_cell_angle_beta 90.000000
_cell_angle_gamma 90.000000
_cell_volume 2499.671630
_symmetry_space_group_name_H-M "A M A 2"
_symmetry_group_IT_number 40
_symmetry_cell_setting 'orthorhombic'
loop_
_space_group_symop_operation_xyz
x,y,z
-x,-y,z
1/2-x,y,z
1/2+x,-y,z
x,1/2+y,1/2+z
-x,1/2-y,1/2+z
1/2-x,1/2+y,1/2+z
1/2+x,1/2-y,1/2+z
loop_
_atom_site_type_symbol
_atom_site_label
_atom_site_fract_x
_atom_site_fract_y
_atom_site_fract_z
Si Si1 0.304183 0.244178 0.562850
Si Si2 0.120109 0.264235 0.960289
Si Si3 0.381013 0.347299 0.267496
Si Si4 0.191210 0.651991 0.629198
Si Si5 0.910539 0.419695 0.064131
Si Si6 0.945466 0.092555 0.961391
Si Si7 0.692897 0.357342 0.303564
O O1 0.250000 0.199018 0.509681
O O2 0.307299 0.455984 0.580057
O O3 0.356472 0.162887 0.522267
O O4 0.302357 0.172019 0.681274
O O5 0.079551 0.417028 0.986042
O O6 0.093198 0.073955 0.981287
O O7 0.148641 0.268264 0.850339
O O8 0.168408 0.279607 0.039838
O O9 0.353082 0.177834 0.215761
O O10 0.424487 0.321941 0.353472
O O11 0.332117 0.449041 0.319028
O O12 0.403308 0.483489 0.176971
O O13 0.250000 0.696673 0.661008
O O14 0.946222 0.247048 0.049648
O O15 0.000000 0.000000 0.947673
O O16 0.750000 0.337883 0.349627
#
# Coordination Sequence:
#
# PCOD9362720 Si02
#       7
#     8   8   8   8   8   8   8
#     4   9  18  32  54  86 125 164 199 235 300 377
#     4  10  21  36  61  88 117 159 205 250 314 373
#     4   9  21  38  59  88 120 162 203 250 311 374
#     4  10  18  33  58  91 127 163 199 245 310 384
#     4  10  21  41  63  86 122 157 198 258 305 370
#     4  11  24  45  63  87 121 158 211 276 319 364
#     4   9  17  31  52  81 120 157 195 240 292 365
#
# _framework density 22.402941999999999
#
# number of rings (size 3 to 8) (size 9 to 14) (size 15 to 20)
#    0.000    2.286    1.429    0.857    2.000    4.571 
#    5.143    0.714    0.000    0.000    0.000    0.000 
#    0.000    0.000    0.000    0.000    0.000    0.000 
#
# Total GULP energy -155963.999105 kJ/mol
# GULP energy per Si atom -5570.142825 kJ/mol
# Density = 2.235195 g / cm^3
# Si number density = 22.402942 Si / 1000 Ang^3
#
#
#
# Elastic Constant Matrix: (Units=GPa)
#
#
# Indices 1 2 3 4 5 6 
#
# 1 47.9515 -12.7547 12.1007 0.0000 0.0000 0.0000
# 2 -12.7547 65.1061 5.0883 0.0000 0.0000 0.0000
# 3 12.1007 5.0883 35.6272 0.0000 0.0000 0.0000
# 4 0.0000 0.0000 0.0000 23.7114 0.0000 0.0000
# 5 0.0000 0.0000 0.0000 0.0000 37.0226 0.0000
# 6 0.0000 0.0000 0.0000 0.0000 0.0000 -393.2599
#
#
#
# Elastic Compliance Matrix: (Units=1/GPa)
#
#
# Indices 1 2 3 4 5 6 
#
# 1 0.024641 0.005543 -0.009161 0.000000 0.000000 0.000000
# 2 0.005543 0.016780 -0.004279 0.000000 0.000000 0.000000
# 3 -0.009161 -0.004279 0.031791 0.000000 0.000000 0.000000
# 4 0.000000 0.000000 0.000000 0.042174 0.000000 0.000000
# 5 0.000000 0.000000 0.000000 0.000000 0.027011 0.000000
# 6 0.000000 0.000000 0.000000 0.000000 0.000000 -0.002543
#
#
# Mechanical properties :
#
#
# Convention : Reuss Voigt Hill
#
# Bulk Modulus (GPa) = 17.41618 17.50593 17.46105
# Shear Modulus (GPa) = 28.60639 -56.88847 -14.14104
#
# Velocity S-wave (km/s) = 3.57726 -5.04464 -2.51512
# Velocity P-wave (km/s) = 4.98531 5.10883 0.78958
#
# Compressibility (1/GPa) = 0.05741788
#
# Stress axis : x y z
#
# Youngs Moduli (GPa) = 40.58338 59.59504 31.45537
#
# Poissons Ratio (x) = -0.33035 0.28816
# Poissons Ratio (y) = -0.22496 0.13461
# Poissons Ratio (z) = 0.37178 0.25502
#
# Static dielectric constant tensor:
#      x y z
#    x 1.874750 0.000000 0.000000 
#    y 0.000000 1.913860 0.000000 
#    z 0.000000 0.000000 1.895920 
# 
# From -- ./inp_files/18236.got.cif
#   From: 2010.05.17/outbox.cif.g08.bks.cpg/sg40_10_cif.got.tgz:18236.got - 2010.06.03 18:35:42.
