data_PCOD9362725
_publ_section_title
;
Structure prediction by ZEFSAII (Michael W. Deem and Ramdas Pophale) SiO2 
 PCOD9362725
Probable space group: A M A 2
;
_chemical_formula_sum "Si O2"
_cell_formula_units_Z 64
_cell_length_a 15.844158
_cell_length_b 15.574816
_cell_length_c 11.868005
_cell_angle_alpha 90.000000
_cell_angle_beta 90.000000
_cell_angle_gamma 90.000000
_cell_volume 2928.665761
_symmetry_space_group_name_H-M "A M A 2"
_symmetry_group_IT_number 40
_symmetry_cell_setting 'orthorhombic'
loop_
_space_group_symop_operation_xyz
x,y,z
-x,-y,z
1/2-x,y,z
1/2+x,-y,z
x,1/2+y,1/2+z
-x,1/2-y,1/2+z
1/2-x,1/2+y,1/2+z
1/2+x,1/2-y,1/2+z
loop_
_atom_site_type_symbol
_atom_site_label
_atom_site_fract_x
_atom_site_fract_y
_atom_site_fract_z
Si Si1 0.647351 0.030528 0.939590
Si Si2 0.920099 0.184384 0.086975
Si Si3 0.847323 0.873118 0.089540
Si Si4 0.650339 0.675445 0.022976
Si Si5 0.461708 0.091424 0.265995
Si Si6 0.473683 0.124968 0.528894
Si Si7 0.156775 0.251173 0.793235
Si Si8 0.353014 0.067116 0.718840
O O1 0.750000 0.040539 0.950666
O O2 0.631618 0.008682 0.808298
O O3 0.614539 0.946430 0.008513
O O4 0.603118 0.112987 0.995535
O O5 0.948430 0.274385 0.035338
O O6 0.843397 0.205939 0.171352
O O7 0.988193 0.155054 0.181364
O O8 0.750000 0.882836 0.067432
O O9 0.862904 0.773157 0.065021
O O10 0.868455 0.898094 0.216922
O O11 0.750000 0.650718 0.041016
O O12 0.571932 0.620167 0.068336
O O13 0.628925 0.683436 0.889339
O O14 0.464504 0.100752 0.398794
O O15 0.500000 0.000000 0.237926
O O16 0.408707 0.071960 0.606371
O O17 0.250000 0.229886 0.834115
O O18 0.117591 0.157161 0.779458
O O19 0.250000 0.071215 0.698356
#
# Coordination Sequence:
#
# PCOD9362725 Si02
#       8
#     8   8   8   8   8   8   8   8
#     4  10  19  36  65 103 130 163 218 280 337 400
#     4  11  21  36  62  95 127 159 217 282 329 380
#     4  10  20  36  62  94 131 170 212 271 335 390
#     4  10  18  33  60  94 129 169 218 273 333 399
#     4  12  24  41  61  92 134 167 223 266 323 400
#     4  11  24  40  63  96 135 179 222 271 337 398
#     4   9  16  30  56  90 123 160 202 262 329 386
#     4   9  19  37  64  92 133 179 220 263 333 412
#
# _framework density 21.852955000000001
#
# number of rings (size 3 to 8) (size 9 to 14) (size 15 to 20)
#    0.000    1.750    5.000    0.375    0.000    1.000 
#    0.000    1.875    0.000    0.000    0.000    1.750 
#    0.000    0.000    0.000    0.000    0.000    0.000 
#
# Total GULP energy -178264.999619 kJ/mol
# GULP energy per Si atom -5570.781238 kJ/mol
# Density = 2.180322 g / cm^3
# Si number density = 21.852955 Si / 1000 Ang^3
#
#
#
# Elastic Constant Matrix: (Units=GPa)
#
#
# Indices 1 2 3 4 5 6 
#
# 1 82.6026 27.8752 54.6580 0.0000 0.0000 0.0000
# 2 27.8752 89.4042 47.3085 0.0000 0.0000 0.0000
# 3 54.6580 47.3085 113.8978 0.0000 0.0000 0.0000
# 4 0.0000 0.0000 0.0000 59.4307 0.0000 0.0000
# 5 0.0000 0.0000 0.0000 0.0000 15.6640 0.0000
# 6 0.0000 0.0000 0.0000 0.0000 0.0000 -3.6581
#
#
#
# Elastic Compliance Matrix: (Units=1/GPa)
#
#
# Indices 1 2 3 4 5 6 
#
# 1 0.017860 -0.001324 -0.008021 0.000000 0.000000 0.000000
# 2 -0.001324 0.014434 -0.005360 0.000000 0.000000 0.000000
# 3 -0.008021 -0.005360 0.014855 0.000000 0.000000 0.000000
# 4 0.000000 0.000000 0.000000 0.016826 0.000000 0.000000
# 5 0.000000 0.000000 0.000000 0.000000 0.063841 0.000000
# 6 0.000000 0.000000 0.000000 0.000000 0.000000 -0.273365
#
#
# Mechanical properties :
#
#
# Convention : Reuss Voigt Hill
#
# Bulk Modulus (GPa) = 56.37091 60.62087 58.49589
# Shear Modulus (GPa) = -45.36209 24.69151 -10.33529
#
# Velocity S-wave (km/s) = -4.56102 3.36504 -2.17709
# Velocity P-wave (km/s) = 1.37321 6.54970 4.52840
#
# Compressibility (1/GPa) = 0.01773965
#
# Stress axis : x y z
#
# Youngs Moduli (GPa) = 55.98950 69.27960 67.31664
#
# Poissons Ratio (x) = 0.09175 0.53994
# Poissons Ratio (y) = 0.07415 0.36081
# Poissons Ratio (z) = 0.44909 0.37133
#
# Static dielectric constant tensor:
#      x y z
#    x 2.740070 0.000000 0.000000 
#    y 0.000000 1.806360 0.000000 
#    z 0.000000 0.000000 1.816260 
# 
# From -- ./inp_files/13206.got.cif
#   From: 2010.05.17/outbox.cif.g08.bks.cpg/sg40_7_cif.got.tgz:13206.got - 2010.06.03 18:35:42.
