data_PCOD9362362
_publ_section_title
;
Structure prediction by ZEFSAII (Michael W. Deem and Ramdas Pophale) SiO2 
 PCOD9362362
Probable space group: A M A 2
;
_chemical_formula_sum "Si O2"
_cell_formula_units_Z 64
_cell_length_a 16.826394
_cell_length_b 20.214632
_cell_length_c 8.735474
_cell_angle_alpha 90.000000
_cell_angle_beta 90.000000
_cell_angle_gamma 90.000000
_cell_volume 2971.278558
_symmetry_space_group_name_H-M "A M A 2"
_symmetry_group_IT_number 40
_symmetry_cell_setting 'orthorhombic'
loop_
_space_group_symop_operation_xyz
x,y,z
-x,-y,z
1/2-x,y,z
1/2+x,-y,z
x,1/2+y,1/2+z
-x,1/2-y,1/2+z
1/2-x,1/2+y,1/2+z
1/2+x,1/2-y,1/2+z
loop_
_atom_site_type_symbol
_atom_site_label
_atom_site_fract_x
_atom_site_fract_y
_atom_site_fract_z
Si Si1 0.664138 0.161479 0.420740
Si Si2 0.435460 0.796687 0.949942
Si Si3 0.973442 0.077735 0.464897
Si Si4 0.161585 0.475569 0.792681
Si Si5 0.841674 0.419508 0.533532
Si Si6 0.160648 0.728980 0.181668
Si Si7 0.958328 0.886956 0.763561
Si Si8 0.055634 0.672740 0.723602
O O1 0.750000 0.158691 0.499101
O O2 0.590015 0.136140 0.514829
O O3 0.654041 0.231101 0.340868
O O4 0.665627 0.104333 0.288049
O O5 0.356204 0.781670 0.046888
O O6 0.500216 0.801845 0.086289
O O7 0.462916 0.859032 0.848501
O O8 0.437836 0.733296 0.839436
O O9 0.084276 0.980744 0.402100
O O10 0.021563 0.068719 0.618957
O O11 0.017423 0.112661 0.322031
O O12 0.250000 0.496534 0.851733
O O13 0.149348 0.514657 0.636879
O O14 0.750000 0.413373 0.486004
O O15 0.901919 0.418985 0.392140
O O16 0.866682 0.358362 0.644038
O O17 0.250000 0.702338 0.167367
O O18 0.093757 0.673240 0.191606
#
# Coordination Sequence:
#
# PCOD9362362 Si02
#       8
#     8   8   8   8   8   8   8   8
#     4   8  16  32  60  91 116 161 210 254 311 382
#     4  11  19  35  53  86 124 168 207 259 320 375
#     4  10  17  35  60  96 117 159 211 265 321 381
#     4   8  17  37  65  89 120 167 221 271 319 383
#     4  10  23  41  59  90 131 175 220 267 328 394
#     4  11  20  32  53  86 127 169 209 253 320 389
#     4  11  22  35  61  91 130 172 211 269 328 386
#     4  11  20  33  60  85 122 170 212 261 317 378
#
# _framework density 21.539549000000001
#
# number of rings (size 3 to 8) (size 9 to 14) (size 15 to 20)
#    0.750    1.250    3.750    0.375    0.000    1.000 
#    0.000    1.250    0.000   12.000    0.000    7.000 
#    0.000    5.000    0.000    0.000    0.000    0.000 
#
# Total GULP energy -178175.716522 kJ/mol
# GULP energy per Si atom -5567.991141 kJ/mol
# Density = 2.149052 g / cm^3
# Si number density = 21.539549 Si / 1000 Ang^3
#
#
#
# Elastic Constant Matrix: (Units=GPa)
#
#
# Indices 1 2 3 4 5 6 
#
# 1 55.9925 14.7390 30.4106 0.0000 0.0000 0.0000
# 2 14.7390 57.3114 23.2833 0.0000 0.0000 0.0000
# 3 30.4106 23.2833 112.0778 0.0000 0.0000 0.0000
# 4 0.0000 0.0000 0.0000 25.4583 0.0000 0.0000
# 5 0.0000 0.0000 0.0000 0.0000 17.4882 0.0000
# 6 0.0000 0.0000 0.0000 0.0000 0.0000 62.8294
#
#
#
# Elastic Compliance Matrix: (Units=1/GPa)
#
#
# Indices 1 2 3 4 5 6 
#
# 1 0.021557 -0.003460 -0.005130 0.000000 0.000000 0.000000
# 2 -0.003460 0.019612 -0.003136 0.000000 0.000000 0.000000
# 3 -0.005130 -0.003136 0.010966 0.000000 0.000000 0.000000
# 4 0.000000 0.000000 0.000000 0.039280 0.000000 0.000000
# 5 0.000000 0.000000 0.000000 0.000000 0.057181 0.000000
# 6 0.000000 0.000000 0.000000 0.000000 0.000000 0.015916
#
#
# Mechanical properties :
#
#
# Convention : Reuss Voigt Hill
#
# Bulk Modulus (GPa) = 34.86316 40.24971 37.55643
# Shear Modulus (GPa) = 25.31338 31.61843 28.46591
#
# Velocity S-wave (km/s) = 3.43184 3.83551 3.63928
# Velocity P-wave (km/s) = 5.65015 6.19208 5.92731
#
# Compressibility (1/GPa) = 0.02868358
#
# Stress axis : x y z
#
# Youngs Moduli (GPa) = 46.38956 50.98895 91.19259
#
# Poissons Ratio (x) = 0.17640 0.46785
# Poissons Ratio (y) = 0.16049 0.28594
# Poissons Ratio (z) = 0.23799 0.15988
#
# Static dielectric constant tensor:
#      x y z
#    x 1.885020 0.000000 0.000000 
#    y 0.000000 1.831340 0.000000 
#    z 0.000000 0.000000 1.772730 
# 
# From -- ./inp_files/7885.got.cif
#   From: 2010.05.17/outbox.cif.g08.bks.cpg/sg40_4_cif.got.tgz:7885.got - 2010.06.03 18:35:42.
