data_PCOD9362179
_publ_section_title
;
Structure prediction by ZEFSAII (Michael W. Deem and Ramdas Pophale) SiO2 
 PCOD9362179
Probable space group: A B M 2
;
_chemical_formula_sum "Si O2"
_cell_formula_units_Z 32
_cell_length_a 15.000000
_cell_length_b 9.000000
_cell_length_c 24.000000
_cell_angle_alpha 90.000000
_cell_angle_beta 90.000000
_cell_angle_gamma 90.000000
_cell_volume 3240.000000
_symmetry_space_group_name_H-M "A B M 2"
_symmetry_group_IT_number 39
_symmetry_cell_setting 'orthorhombic'
loop_
_space_group_symop_operation_xyz
x,y,z
-x,-y,z
-x,1/2+y,z
x,1/2-y,z
x,1/2+y,1/2+z
-x,1/2-y,1/2+z
-x,y,1/2+z
x,-y,1/2+z
loop_
_atom_site_type_symbol
_atom_site_label
_atom_site_fract_x
_atom_site_fract_y
_atom_site_fract_z
Si Si1 0.866929 0.574965 0.992440
Si Si2 0.909283 0.426614 0.363884
Si Si3 0.578493 0.082993 0.911420
Si Si4 0.712929 0.071581 0.136231
Si Si5 0.269683 0.078594 0.324541
Si Si6 0.596898 0.571537 0.739316
Si Si7 0.910283 0.071772 0.108568
Si Si8 0.680809 0.929923 0.510464
O O1 0.876521 0.750000 0.005283
O O2 0.904414 0.547972 0.930832
O O3 0.904374 0.479149 0.043808
O O4 0.764874 0.523609 0.990199
O O5 0.907496 0.250000 0.354727
O O6 0.824594 0.503649 0.335707
O O7 0.000000 0.500000 0.343020
O O8 0.547067 0.250000 0.915467
O O9 0.672688 0.080903 0.881069
O O10 0.500000 0.000000 0.880502
O O11 0.598125 0.024490 0.972871
O O12 0.718706 0.250000 0.142497
O O13 0.644871 0.018786 0.182497
O O14 0.816509 0.020559 0.136188
O O15 0.673687 0.040875 0.075524
O O16 0.260644 0.250000 0.305799
O O17 0.332356 0.983095 0.284713
O O18 0.500000 0.500000 0.745659
O O19 0.588399 0.750000 0.740399
O O20 0.915046 0.250000 0.110855
O O21 0.000000 0.000000 0.132577
O O22 0.695572 0.750000 0.503353
#
# Coordination Sequence:
#
# PCOD9362179 Si02
#       8
#     8   8   8   8   8   8   8   8
#     4  10  19  31  51  82 117 157 198 236 281 337
#     4  11  23  37  57  86 120 158 197 241 290 349
#     4  10  21  34  54  82 114 150 188 232 288 349
#     4   8  18  36  59  82 112 151 193 237 291 347
#     4  11  23  41  62  86 115 153 197 245 296 349
#     4  11  23  42  65  89 114 149 197 249 300 354
#     4  10  19  33  54  82 117 157 197 238 284 342
#     4   9  17  34  55  79 114 157 192 234 290 343
#
# _framework density 9.8765429999999999
#
# number of rings (size 3 to 8) (size 9 to 14) (size 15 to 20)
#    0.000    2.000    1.250    3.375    0.000    5.500 
#    0.000    6.875    0.000    1.500    0.000    0.000 
#    0.000    0.000    0.000    0.000    0.000    0.000 
#
# Total GULP energy -178372.402862 kJ/mol
# GULP energy per Si atom -5574.137589 kJ/mol
# Density = 0.985406 g / cm^3
# Si number density = 9.876543 Si / 1000 Ang^3
#
#
#
# Elastic Constant Matrix: (Units=GPa)
#
#
# Indices 1 2 3 4 5 6 
#
# 1 157.9027 61.4453 45.7830 0.0000 0.0000 0.0000
# 2 61.4453 63.0198 32.7733 0.0000 0.0000 0.0000
# 3 45.7830 32.7733 49.5752 0.0000 0.0000 0.0000
# 4 0.0000 0.0000 0.0000 13.9327 0.0000 0.0000
# 5 0.0000 0.0000 0.0000 0.0000 -15.8668 0.0000
# 6 0.0000 0.0000 0.0000 0.0000 0.0000 29.6218
#
#
#
# Elastic Compliance Matrix: (Units=1/GPa)
#
#
# Indices 1 2 3 4 5 6 
#
# 1 0.010856 -0.008185 -0.004615 0.000000 0.000000 0.000000
# 2 -0.008185 0.030353 -0.012507 0.000000 0.000000 0.000000
# 3 -0.004615 -0.012507 0.032701 0.000000 0.000000 0.000000
# 4 0.000000 0.000000 0.000000 0.071774 0.000000 0.000000
# 5 0.000000 0.000000 0.000000 0.000000 -0.063025 0.000000
# 6 0.000000 0.000000 0.000000 0.000000 0.000000 0.033759
#
#
# Mechanical properties :
#
#
# Convention : Reuss Voigt Hill
#
# Bulk Modulus (GPa) = 42.92409 61.16676 52.04543
# Shear Modulus (GPa) = 28.60474 14.23726 21.42100
#
# Velocity S-wave (km/s) = 3.80954 2.68761 3.29665
# Velocity P-wave (km/s) = 6.41308 6.37683 6.39498
#
# Compressibility (1/GPa) = 0.02329694
#
# Stress axis : x y z
#
# Youngs Moduli (GPa) = 92.11441 32.94612 30.58009
#
# Poissons Ratio (x) = 0.26966 0.14112
# Poissons Ratio (y) = 0.75395 0.38246
# Poissons Ratio (z) = 0.42508 0.41205
#
# Static dielectric constant tensor:
#      x y z
#    x 1.226820 0.000000 0.000000 
#    y 0.000000 1.699660 0.000000 
#    z 0.000000 0.000000 1.771540 
# 
# From -- ./inp_files/16207.got.cif
#   From: 2010.05.17/outbox.ucp.g08.bks.cvg/sg39_9_cif.got.tgz:16207.got - 2010.06.11 10:41:16.
