data_PCOD9362989
_publ_section_title
;
Structure prediction by ZEFSAII (Michael W. Deem and Ramdas Pophale) SiO2 
 PCOD9362989
Probable space group: A M A 2
;
_chemical_formula_sum "Si O2"
_cell_formula_units_Z 48
_cell_length_a 20.180846
_cell_length_b 5.193402
_cell_length_c 22.714397
_cell_angle_alpha 90.000000
_cell_angle_beta 90.000000
_cell_angle_gamma 90.000000
_cell_volume 2380.633394
_symmetry_space_group_name_H-M "A M A 2"
_symmetry_group_IT_number 40
_symmetry_cell_setting 'orthorhombic'
loop_
_space_group_symop_operation_xyz
x,y,z
-x,-y,z
1/2-x,y,z
1/2+x,-y,z
x,1/2+y,1/2+z
-x,1/2-y,1/2+z
1/2-x,1/2+y,1/2+z
1/2+x,1/2-y,1/2+z
loop_
_atom_site_type_symbol
_atom_site_label
_atom_site_fract_x
_atom_site_fract_y
_atom_site_fract_z
Si Si1 0.621380 0.765886 0.414430
Si Si2 0.170449 0.602372 0.788023
Si Si3 0.671801 0.385454 0.213277
Si Si4 0.329665 0.584119 0.076662
Si Si5 0.459530 0.742914 0.018806
Si Si6 0.824434 0.264256 0.473650
O O1 0.629581 0.818442 0.345840
O O2 0.553120 0.807207 0.449353
O O3 0.637935 0.474366 0.434621
O O4 0.668805 0.985893 0.442538
O O5 0.250000 0.578160 0.803126
O O6 0.146015 0.343698 0.755178
O O7 0.163899 0.839405 0.743397
O O8 0.750000 0.327387 0.210344
O O9 0.651966 0.407490 0.145212
O O10 0.250000 0.643427 0.070253
O O11 0.385579 0.758511 0.045701
O O12 0.340022 0.314091 0.041374
O O13 0.500000 0.500000 0.043077
O O14 0.500000 0.000000 0.028018
O O15 0.750000 0.359296 0.473183
#
# Coordination Sequence:
#
# PCOD9362989 Si02
#       6
#     8   8   8   8   8   8
#     4  11  21  35  55  81 114 158 201 238 293 364
#     4  10  19  32  53  83 119 155 193 243 298 354
#     4   9  19  33  53  83 118 154 193 244 300 350
#     4   9  20  39  63  91 122 157 203 252 302 364
#     4  11  24  42  62  87 121 158 194 246 311 364
#     4  10  19  31  53  85 116 146 188 247 298 342
#
# _framework density 20.162701999999999
#
# number of rings (size 3 to 8) (size 9 to 14) (size 15 to 20)
#    0.000    2.000    0.000    4.500    0.000    6.667 
#    0.000   10.833    0.000    6.000    0.000    0.000 
#    0.000    0.000    0.000    0.000    0.000    0.000 
#
# Total GULP energy -133618.395324 kJ/mol
# GULP energy per Si atom -5567.433138 kJ/mol
# Density = 2.011681 g / cm^3
# Si number density = 20.162702 Si / 1000 Ang^3
#
#
#
# Elastic Constant Matrix: (Units=GPa)
#
#
# Indices 1 2 3 4 5 6 
#
# 1 59.7930 28.2285 11.9556 0.0000 0.0000 0.0000
# 2 28.2285 79.9918 13.9490 0.0000 0.0000 0.0000
# 3 11.9556 13.9490 105.7649 0.0000 0.0000 0.0000
# 4 0.0000 0.0000 0.0000 12.4144 0.0000 0.0000
# 5 0.0000 0.0000 0.0000 0.0000 14.0494 0.0000
# 6 0.0000 0.0000 0.0000 0.0000 0.0000 9.8783
#
#
#
# Elastic Compliance Matrix: (Units=1/GPa)
#
#
# Indices 1 2 3 4 5 6 
#
# 1 0.020262 -0.006910 -0.001379 0.000000 0.000000 0.000000
# 2 -0.006910 0.015152 -0.001217 0.000000 0.000000 0.000000
# 3 -0.001379 -0.001217 0.009771 0.000000 0.000000 0.000000
# 4 0.000000 0.000000 0.000000 0.080552 0.000000 0.000000
# 5 0.000000 0.000000 0.000000 0.000000 0.071177 0.000000
# 6 0.000000 0.000000 0.000000 0.000000 0.000000 0.101232
#
#
# Mechanical properties :
#
#
# Convention : Reuss Voigt Hill
#
# Bulk Modulus (GPa) = 38.20714 39.31285 38.76000
# Shear Modulus (GPa) = 15.34289 20.02954 17.68621
#
# Velocity S-wave (km/s) = 2.76153 3.15524 2.96493
# Velocity P-wave (km/s) = 5.39987 5.72836 5.56654
#
# Compressibility (1/GPa) = 0.02617312
#
# Stress axis : x y z
#
# Youngs Moduli (GPa) = 49.35272 65.99789 102.33982
#
# Poissons Ratio (x) = 0.45604 0.14114
# Poissons Ratio (y) = 0.34102 0.12457
# Poissons Ratio (z) = 0.06806 0.08034
#
# Static dielectric constant tensor:
#      x y z
#    x 1.735560 0.000000 0.000000 
#    y 0.000000 1.772780 0.000000 
#    z 0.000000 0.000000 1.759550 
# 
# From -- ./inp_files/23494.got.cif
#   From: 2010.05.17/outbox.cif.g08.bks.cpg/sg40_12_cif.got.tgz:23494.got - 2010.06.03 18:35:42.
