data_PCOD9362410
_publ_section_title
;
Structure prediction by ZEFSAII (Michael W. Deem and Ramdas Pophale) SiO2 
 PCOD9362410
Probable space group: A M A 2
;
_chemical_formula_sum "Si O2"
_cell_formula_units_Z 64
_cell_length_a 8.295716
_cell_length_b 19.510350
_cell_length_c 22.151818
_cell_angle_alpha 90.000000
_cell_angle_beta 90.000000
_cell_angle_gamma 90.000000
_cell_volume 3585.323194
_symmetry_space_group_name_H-M "A M A 2"
_symmetry_group_IT_number 40
_symmetry_cell_setting 'orthorhombic'
loop_
_space_group_symop_operation_xyz
x,y,z
-x,-y,z
1/2-x,y,z
1/2+x,-y,z
x,1/2+y,1/2+z
-x,1/2-y,1/2+z
1/2-x,1/2+y,1/2+z
1/2+x,1/2-y,1/2+z
loop_
_atom_site_type_symbol
_atom_site_label
_atom_site_fract_x
_atom_site_fract_y
_atom_site_fract_z
Si Si1 0.947510 0.276503 0.281560
Si Si2 0.553824 0.130101 0.329683
Si Si3 0.434234 0.818609 0.559973
Si Si4 0.945517 0.076769 0.459471
Si Si5 0.055857 0.425803 0.700981
Si Si6 0.556819 0.217124 0.151845
Si Si7 0.563660 0.426630 0.145976
Si Si8 0.935347 0.925722 0.791604
O O1 0.750000 0.280031 0.280814
O O2 0.993055 0.209754 0.320486
O O3 0.996653 0.259203 0.212184
O O4 0.007599 0.350302 0.305407
O O5 0.750000 0.129244 0.329973
O O6 0.500074 0.096017 0.391814
O O7 0.500799 0.089522 0.269805
O O8 0.250000 0.803468 0.545173
O O9 0.504096 0.863306 0.504760
O O10 0.510548 0.750878 0.588547
O O11 0.451314 0.870936 0.615808
O O12 0.750000 0.077224 0.461766
O O13 0.000000 0.000000 0.475431
O O14 0.250000 0.424850 0.701483
O O15 0.000629 0.360819 0.661604
O O16 0.000000 0.500000 0.680743
O O17 0.750000 0.217916 0.155289
O O18 0.500000 0.500000 0.125566
O O19 0.750000 0.414512 0.128423
O O20 0.558295 0.425815 0.218372
O O21 0.750000 0.924260 0.810869
O O22 0.000000 0.000000 0.811577
#
# Coordination Sequence:
#
# PCOD9362410 Si02
#       8
#     8   8   8   8   8   8   8   8
#     4   8  13  26  46  65  84 113 152 188 226 272
#     4   8  15  29  49  68  89 119 156 193 226 271
#     4  11  21  30  42  63  91 122 157 193 227 262
#     4  10  21  34  47  67  93 124 160 194 225 264
#     4   9  17  29  50  74  95 119 148 187 236 284
#     4   9  17  31  47  65  89 120 154 186 227 281
#     4  10  18  28  41  58  84 118 154 186 219 264
#     4   9  16  25  39  60  85 113 143 178 217 265
#
# _framework density 17.850553000000001
#
# number of rings (size 3 to 8) (size 9 to 14) (size 15 to 20)
#    0.000    2.750    1.250    3.000    0.000    3.000 
#    0.000    0.000    0.000    1.500    0.000    0.875 
#    0.000    4.000    0.000    0.000    0.000    0.000 
#
# Total GULP energy -178141.959058 kJ/mol
# GULP energy per Si atom -5566.936221 kJ/mol
# Density = 1.780992 g / cm^3
# Si number density = 17.850553 Si / 1000 Ang^3
#
#
#
# Elastic Constant Matrix: (Units=GPa)
#
#
# Indices 1 2 3 4 5 6 
#
# 1 5.1369 8.8449 5.7300 0.0000 0.0000 0.0000
# 2 8.8449 146.7313 35.9475 0.0000 0.0000 0.0000
# 3 5.7300 35.9475 59.5149 0.0000 0.0000 0.0000
# 4 0.0000 0.0000 0.0000 10.6301 0.0000 0.0000
# 5 0.0000 0.0000 0.0000 0.0000 13.4594 0.0000
# 6 0.0000 0.0000 0.0000 0.0000 0.0000 23.0966
#
#
#
# Elastic Compliance Matrix: (Units=1/GPa)
#
#
# Indices 1 2 3 4 5 6 
#
# 1 0.229705 -0.009892 -0.016141 0.000000 0.000000 0.000000
# 2 -0.009892 0.008425 -0.004136 0.000000 0.000000 0.000000
# 3 -0.016141 -0.004136 0.020855 0.000000 0.000000 0.000000
# 4 0.000000 0.000000 0.000000 0.094072 0.000000 0.000000
# 5 0.000000 0.000000 0.000000 0.000000 0.074298 0.000000
# 6 0.000000 0.000000 0.000000 0.000000 0.000000 0.043296
#
#
# Mechanical properties :
#
#
# Convention : Reuss Voigt Hill
#
# Bulk Modulus (GPa) = 5.03406 34.71421 19.87413
# Shear Modulus (GPa) = 8.37233 20.16128 14.26681
#
# Velocity S-wave (km/s) = 2.16804 3.36437 2.83014
# Velocity P-wave (km/s) = 3.01554 5.88059 4.67305
#
# Compressibility (1/GPa) = 0.19864682
#
# Stress axis : x y z
#
# Youngs Moduli (GPa) = 4.35340 118.69705 47.95047
#
# Poissons Ratio (x) = 1.17418 0.77395
# Poissons Ratio (y) = 0.04306 0.19834
# Poissons Ratio (z) = 0.07027 0.49096
#
# Static dielectric constant tensor:
#      x y z
#    x 1.638940 0.000000 0.000000 
#    y 0.000000 1.668810 0.000000 
#    z 0.000000 0.000000 1.609210 
# 
# From -- ./inp_files/24384.got.cif
#   From: 2010.05.17/outbox.cif.g08.bks.cpg/sg40_13_cif.got.tgz:24384.got - 2010.06.03 18:35:42.
