data_PCOD9362399
_publ_section_title
;
Structure prediction by ZEFSAII (Michael W. Deem and Ramdas Pophale) SiO2 
 PCOD9362399
Probable space group: A M A 2
;
_chemical_formula_sum "Si O2"
_cell_formula_units_Z 64
_cell_length_a 8.606273
_cell_length_b 27.305337
_cell_length_c 19.052052
_cell_angle_alpha 90.000000
_cell_angle_beta 90.000000
_cell_angle_gamma 90.000000
_cell_volume 4477.178580
_symmetry_space_group_name_H-M "A M A 2"
_symmetry_group_IT_number 40
_symmetry_cell_setting 'orthorhombic'
loop_
_space_group_symop_operation_xyz
x,y,z
-x,-y,z
1/2-x,y,z
1/2+x,-y,z
x,1/2+y,1/2+z
-x,1/2-y,1/2+z
1/2-x,1/2+y,1/2+z
1/2+x,1/2-y,1/2+z
loop_
_atom_site_type_symbol
_atom_site_label
_atom_site_fract_x
_atom_site_fract_y
_atom_site_fract_z
Si Si1 0.064367 0.254973 0.262530
Si Si2 0.061555 0.353302 0.179003
Si Si3 0.063044 0.854019 0.002417
Si Si4 0.065267 0.298298 0.636292
Si Si5 0.937332 0.553472 0.265705
Si Si6 0.064427 0.553486 0.422070
Si Si7 0.062510 0.794690 0.551734
Si Si8 0.064034 0.740230 0.418309
O O1 0.250000 0.255757 0.265139
O O2 0.013068 0.306390 0.226020
O O3 0.011336 0.210853 0.211670
O O4 0.997952 0.252374 0.340391
O O5 0.250000 0.354431 0.181519
O O6 0.008243 0.403726 0.213449
O O7 0.017737 0.341769 0.098224
O O8 0.250000 0.855675 0.998281
O O9 0.991945 0.903929 0.973520
O O10 0.005137 0.808917 0.953777
O O11 0.018657 0.841878 0.083289
O O12 0.250000 0.299814 0.645036
O O13 0.015963 0.250437 0.592060
O O14 0.750000 0.552296 0.267528
O O15 0.000000 0.500000 0.245795
O O16 0.997954 0.564153 0.344189
O O17 0.250000 0.551823 0.418671
O O18 0.000000 0.500000 0.442287
O O19 0.250000 0.789517 0.558027
O O20 0.024146 0.785583 0.470515
O O21 0.250000 0.735123 0.416759
#
# Coordination Sequence:
#
# PCOD9362399 Si02
#       8
#     8   8   8   8   8   8   8   8
#     4  10  18  28  42  59  83 112 141 171 207 250
#     4   8  15  27  42  56  74 107 141 167 199 242
#     4  10  19  31  45  61  84 113 142 172 210 252
#     4   9  17  28  42  60  82 107 137 172 206 244
#     4  10  18  29  43  59  82 109 140 176 212 248
#     4  11  21  32  45  61  83 110 142 178 212 246
#     4   8  15  28  42  57  79 107 138 170 206 247
#     4  10  18  27  42  63  85 109 141 176 207 247
#
# _framework density 14.294717
#
# number of rings (size 3 to 8) (size 9 to 14) (size 15 to 20)
#    0.000    2.500    0.000    5.250    0.000    3.000 
#    0.000    5.625    0.000    0.000    0.000    0.000 
#    0.000    1.000    0.000    6.000    0.000    3.000 
#
# Total GULP energy -178202.579680 kJ/mol
# GULP energy per Si atom -5568.830615 kJ/mol
# Density = 1.426218 g / cm^3
# Si number density = 14.294717 Si / 1000 Ang^3
#
#
#
# Elastic Constant Matrix: (Units=GPa)
#
#
# Indices 1 2 3 4 5 6 
#
# 1 50.9687 27.2575 33.6491 0.0000 0.0000 0.0000
# 2 27.2575 91.7053 61.0711 0.0000 0.0000 0.0000
# 3 33.6491 61.0711 113.2425 0.0000 0.0000 0.0000
# 4 0.0000 0.0000 0.0000 22.8949 0.0000 0.0000
# 5 0.0000 0.0000 0.0000 0.0000 8.0322 0.0000
# 6 0.0000 0.0000 0.0000 0.0000 0.0000 18.0155
#
#
#
# Elastic Compliance Matrix: (Units=1/GPa)
#
#
# Indices 1 2 3 4 5 6 
#
# 1 0.025279 -0.003919 -0.005398 0.000000 0.000000 0.000000
# 2 -0.003919 0.017623 -0.008340 0.000000 0.000000 0.000000
# 3 -0.005398 -0.008340 0.014932 0.000000 0.000000 0.000000
# 4 0.000000 0.000000 0.000000 0.043678 0.000000 0.000000
# 5 0.000000 0.000000 0.000000 0.000000 0.124498 0.000000
# 6 0.000000 0.000000 0.000000 0.000000 0.000000 0.055508
#
#
# Mechanical properties :
#
#
# Convention : Reuss Voigt Hill
#
# Bulk Modulus (GPa) = 44.40218 55.54131 49.97175
# Shear Modulus (GPa) = 15.41596 18.71776 17.06686
#
# Velocity S-wave (km/s) = 3.28752 3.62251 3.45907
# Velocity P-wave (km/s) = 6.74832 7.51236 7.14057
#
# Compressibility (1/GPa) = 0.02252142
#
# Stress axis : x y z
#
# Youngs Moduli (GPa) = 39.55782 56.74390 66.96979
#
# Poissons Ratio (x) = 0.22237 0.36151
# Poissons Ratio (y) = 0.15502 0.55850
# Poissons Ratio (z) = 0.21354 0.47322
#
# Static dielectric constant tensor:
#      x y z
#    x 1.483060 0.000000 0.000000 
#    y 0.000000 1.467100 0.000000 
#    z 0.000000 0.000000 1.487990 
# 
# From -- ./inp_files/19755.got.cif
#   From: 2010.05.17/outbox.cif.g08.bks.cpg/sg40_10_cif.got.tgz:19755.got - 2010.06.03 18:35:42.
