data_PCOD9362062
_publ_section_title
;
Structure prediction by ZEFSAII (Michael W. Deem and Ramdas Pophale) SiO2 
 PCOD9362062
Probable space group: A B M 2
;
_chemical_formula_sum "Si O2"
_cell_formula_units_Z 24
_cell_length_a 4.996938
_cell_length_b 16.903928
_cell_length_c 13.647797
_cell_angle_alpha 90.000000
_cell_angle_beta 90.000000
_cell_angle_gamma 90.000000
_cell_volume 1152.800482
_symmetry_space_group_name_H-M "A B M 2"
_symmetry_group_IT_number 39
_symmetry_cell_setting 'orthorhombic'
loop_
_space_group_symop_operation_xyz
x,y,z
-x,-y,z
-x,1/2+y,z
x,1/2-y,z
x,1/2+y,1/2+z
-x,1/2-y,1/2+z
-x,y,1/2+z
x,-y,1/2+z
loop_
_atom_site_type_symbol
_atom_site_label
_atom_site_fract_x
_atom_site_fract_y
_atom_site_fract_z
Si Si1 0.749073 0.444070 0.726860
Si Si2 0.060737 0.157021 0.042321
Si Si3 0.449417 0.406287 0.433231
O O1 0.500000 0.500000 0.697789
O O2 0.838397 0.389042 0.638098
O O3 0.653244 0.396326 0.822337
O O4 0.000000 0.500000 0.754584
O O5 0.039580 0.250000 0.060009
O O6 0.278928 0.138898 0.958258
O O7 0.779118 0.122452 0.006819
O O8 0.500000 0.500000 0.444694
#
# Coordination Sequence:
#
# PCOD9362062 Si02
#       3
#     8   8   8
#     4  11  23  41  66  91 119 163 214 256 298 361
#     4  12  25  40  63  95 130 162 197 255 318 367
#     4  11  23  43  66  90 122 165 213 253 298 364
#
# _framework density 20.818866
#
# number of rings (size 3 to 8) (size 9 to 14) (size 15 to 20)
#    0.000    0.667    0.000   11.000    0.000    2.667 
#    0.000    0.000    0.000    0.000    0.000    0.000 
#    0.000    0.000    0.000    0.000    0.000    0.000 
#
# Total GULP energy -67224.378650 kJ/mol
# GULP energy per Si atom -5602.031554 kJ/mol
# Density = 2.077148 g / cm^3
# Si number density = 20.818866 Si / 1000 Ang^3
#
#
#
# Elastic Constant Matrix: (Units=GPa)
#
#
# Indices 1 2 3 4 5 6 
#
# 1 89.4604 6.7098 -29.8888 0.0000 0.0000 0.0000
# 2 6.7098 65.5789 13.1165 0.0000 0.0000 0.0000
# 3 -29.8888 13.1165 46.6864 0.0000 0.0000 0.0000
# 4 0.0000 0.0000 0.0000 -6.4239 0.0000 0.0000
# 5 0.0000 0.0000 0.0000 0.0000 32.1165 0.0000
# 6 0.0000 0.0000 0.0000 0.0000 0.0000 0.5293
#
#
#
# Elastic Compliance Matrix: (Units=1/GPa)
#
#
# Indices 1 2 3 4 5 6 
#
# 1 0.015006 -0.003663 0.010636 0.000000 0.000000 0.000000
# 2 -0.003663 0.017051 -0.007135 0.000000 0.000000 0.000000
# 3 0.010636 -0.007135 0.030234 0.000000 0.000000 0.000000
# 4 0.000000 0.000000 0.000000 -0.155667 0.000000 0.000000
# 5 0.000000 0.000000 0.000000 0.000000 0.031137 0.000000
# 6 0.000000 0.000000 0.000000 0.000000 0.000000 1.889349
#
#
# Mechanical properties :
#
#
# Convention : Reuss Voigt Hill
#
# Bulk Modulus (GPa) = 16.13764 20.17786 18.15775
# Shear Modulus (GPa) = 2.70550 19.36358 11.03454
#
# Velocity S-wave (km/s) = 1.14121 3.05306 2.30473
# Velocity P-wave (km/s) = 3.08298 4.70546 3.97782
#
# Compressibility (1/GPa) = 0.06196694
#
# Stress axis : x y z
#
# Youngs Moduli (GPa) = 66.63816 58.64862 33.07587
#
# Poissons Ratio (x) = 0.21482 -0.35180
# Poissons Ratio (y) = 0.24408 0.23601
# Poissons Ratio (z) = -0.70878 0.41848
#
# Static dielectric constant tensor:
#      x y z
#    x 1.684410 0.000000 0.000000 
#    y 0.000000 1.707850 0.000000 
#    z 0.000000 0.000000 1.760580 
# 
# From -- ./inp_files/4260.got.cif
#   From: 2010.05.17/outbox.cif.g08.bks.cpg/sg39_3_cif.got.tgz:4260.got - 2010.06.03 18:22:40.
