data_PCOD9362781
_publ_section_title
;
Structure prediction by ZEFSAII (Michael W. Deem and Ramdas Pophale) SiO2 
 PCOD9362781
Probable space group: A M A 2
;
_chemical_formula_sum "Si O2"
_cell_formula_units_Z 64
_cell_length_a 13.935175
_cell_length_b 15.516567
_cell_length_c 12.548081
_cell_angle_alpha 90.000000
_cell_angle_beta 90.000000
_cell_angle_gamma 90.000000
_cell_volume 2713.222323
_symmetry_space_group_name_H-M "A M A 2"
_symmetry_group_IT_number 40
_symmetry_cell_setting 'orthorhombic'
loop_
_space_group_symop_operation_xyz
x,y,z
-x,-y,z
1/2-x,y,z
1/2+x,-y,z
x,1/2+y,1/2+z
-x,1/2-y,1/2+z
1/2-x,1/2+y,1/2+z
1/2+x,1/2-y,1/2+z
loop_
_atom_site_type_symbol
_atom_site_label
_atom_site_fract_x
_atom_site_fract_y
_atom_site_fract_z
Si Si1 0.637837 0.299085 0.264340
Si Si2 0.401341 0.533337 0.400085
Si Si3 0.142469 0.842965 0.874121
Si Si4 0.367568 0.692047 0.022626
Si Si5 0.367864 0.859205 0.409505
Si Si6 0.637527 0.182242 0.640614
Si Si7 0.637376 0.886901 0.118719
Si Si8 0.367036 0.050309 0.348480
O O1 0.750000 0.276243 0.250370
O O2 0.636260 0.389607 0.327211
O O3 0.597824 0.307952 0.144696
O O4 0.598266 0.221609 0.338155
O O5 0.500000 0.500000 0.352086
O O6 0.349021 0.441838 0.408188
O O7 0.414642 0.573235 0.517121
O O8 0.250000 0.806712 0.857819
O O9 0.095477 0.836840 0.757345
O O10 0.100891 0.780462 0.963949
O O11 0.250000 0.689130 0.028342
O O12 0.395318 0.613172 0.945231
O O13 0.250000 0.854033 0.413239
O O14 0.401705 0.857084 0.531904
O O15 0.394710 0.951395 0.362820
O O16 0.750000 0.153272 0.646190
O O17 0.635449 0.284070 0.620103
O O18 0.750000 0.912345 0.105969
O O19 0.601027 0.917028 0.233112
O O20 0.250000 0.053477 0.346520
#
# Coordination Sequence:
#
# PCOD9362781 Si02
#       8
#     8   8   8   8   8   8   8   8
#     4  10  20  36  58  84 115 148 184 232 284 337
#     4  12  26  40  54  79 115 157 199 239 279 331
#     4  10  20  36  60  88 113 146 187 233 286 341
#     4   9  18  32  55  90 121 140 174 231 289 340
#     4   9  17  28  49  84 116 140 171 219 279 333
#     4   9  16  30  55  86 114 141 180 226 275 333
#     4  10  18  35  61  84 111 144 183 237 287 332
#     4   9  17  29  52  89 121 138 169 229 290 339
#
# _framework density 23.588187999999999
#
# number of rings (size 3 to 8) (size 9 to 14) (size 15 to 20)
#    0.000    2.250    2.500    1.125    3.500    0.000 
#    0.000    1.250    0.000    0.750    0.000    0.000 
#    0.000    0.000    0.000    0.000    0.000    0.000 
#
# Total GULP energy -178826.413849 kJ/mol
# GULP energy per Si atom -5588.325433 kJ/mol
# Density = 2.353450 g / cm^3
# Si number density = 23.588188 Si / 1000 Ang^3
#
#
#
# Elastic Constant Matrix: (Units=GPa)
#
#
# Indices 1 2 3 4 5 6 
#
# 1 46.9757 4.1786 4.0719 0.0000 0.0000 0.0000
# 2 4.1786 106.2027 48.6292 0.0000 0.0000 0.0000
# 3 4.0719 48.6292 160.1886 0.0000 0.0000 0.0000
# 4 0.0000 0.0000 0.0000 38.4931 0.0000 0.0000
# 5 0.0000 0.0000 0.0000 0.0000 32.1736 0.0000
# 6 0.0000 0.0000 0.0000 0.0000 0.0000 2.0498
#
#
#
# Elastic Compliance Matrix: (Units=1/GPa)
#
#
# Indices 1 2 3 4 5 6 
#
# 1 0.021378 -0.000688 -0.000335 0.000000 0.000000 0.000000
# 2 -0.000688 0.010958 -0.003309 0.000000 0.000000 0.000000
# 3 -0.000335 -0.003309 0.007256 0.000000 0.000000 0.000000
# 4 0.000000 0.000000 0.000000 0.025979 0.000000 0.000000
# 5 0.000000 0.000000 0.000000 0.000000 0.031081 0.000000
# 6 0.000000 0.000000 0.000000 0.000000 0.000000 0.487849
#
#
# Mechanical properties :
#
#
# Convention : Reuss Voigt Hill
#
# Bulk Modulus (GPa) = 32.33270 47.45849 39.89560
# Shear Modulus (GPa) = 8.28537 31.64245 19.96391
#
# Velocity S-wave (km/s) = 1.87620 3.66656 2.91237
# Velocity P-wave (km/s) = 4.29307 6.17156 5.31595
#
# Compressibility (1/GPa) = 0.03092844
#
# Stress axis : x y z
#
# Youngs Moduli (GPa) = 46.77753 91.25532 137.82214
#
# Poissons Ratio (x) = 0.06278 0.04611
# Poissons Ratio (y) = 0.03218 0.45608
# Poissons Ratio (z) = 0.01565 0.30198
#
# Static dielectric constant tensor:
#      x y z
#    x 1.990270 0.000000 0.000000 
#    y 0.000000 1.818670 0.000000 
#    z 0.000000 0.000000 1.862880 
# 
# From -- ./inp_files/13102.got.cif
#   From: 2010.05.17/outbox.cif.g08.bks.cpg/sg40_7_cif.got.tgz:13102.got - 2010.06.03 18:35:42.
