data_PCOD9362932
_publ_section_title
;
Structure prediction by ZEFSAII (Michael W. Deem and Ramdas Pophale) SiO2 
 PCOD9362932
Probable space group: A M A 2
;
_chemical_formula_sum "Si O2"
_cell_formula_units_Z 64
_cell_length_a 8.791123
_cell_length_b 15.112530
_cell_length_c 28.063778
_cell_angle_alpha 90.000000
_cell_angle_beta 90.000000
_cell_angle_gamma 90.000000
_cell_volume 3728.444379
_symmetry_space_group_name_H-M "A M A 2"
_symmetry_group_IT_number 40
_symmetry_cell_setting 'orthorhombic'
loop_
_space_group_symop_operation_xyz
x,y,z
-x,-y,z
1/2-x,y,z
1/2+x,-y,z
x,1/2+y,1/2+z
-x,1/2-y,1/2+z
1/2-x,1/2+y,1/2+z
1/2+x,1/2-y,1/2+z
loop_
_atom_site_type_symbol
_atom_site_label
_atom_site_fract_x
_atom_site_fract_y
_atom_site_fract_z
Si Si1 0.931554 0.594444 0.593740
Si Si2 0.067465 0.095001 0.818215
Si Si3 0.567151 0.095039 0.713732
Si Si4 0.432491 0.722193 0.670823
Si Si5 0.568446 0.094444 0.982937
Si Si6 0.932535 0.404999 0.758462
Si Si7 0.932491 0.777807 0.905854
Si Si8 0.432849 0.904961 0.362945
O O1 0.750000 0.589117 0.596415
O O2 0.975847 0.607629 0.538339
O O3 0.000000 0.500000 0.609440
O O4 0.990917 0.672567 0.626982
O O5 0.250000 0.088611 0.813764
O O6 0.030042 0.167826 0.857727
O O7 0.996265 0.115014 0.766657
O O8 0.000000 0.000000 0.833149
O O9 0.750000 0.089840 0.716308
O O10 0.524251 0.175957 0.679393
O O11 0.500000 0.000000 0.699576
O O12 0.250000 0.717931 0.664983
O O13 0.469958 0.667826 0.718950
O O14 0.750000 0.089117 0.980262
O O15 0.509083 0.172567 0.949695
O O16 0.500000 0.000000 0.967237
O O17 0.750000 0.411389 0.762913
O O18 0.000000 0.500000 0.743528
O O19 0.003735 0.384986 0.810020
O O20 0.750000 0.782069 0.911694
O O21 0.975749 0.675957 0.897284
O O22 0.250000 0.910160 0.360369
O O23 0.500000 0.000000 0.377101
#
# Coordination Sequence:
#
# PCOD9362932 Si02
#       8
#     8   8   8   8   8   8   8   8
#     4  10  21  36  55  79 105 132 162 199 246 299
#     4  10  19  31  47  71 102 134 168 204 246 295
#     4  10  20  34  50  71 100 134 172 210 250 293
#     4  10  21  34  51  75 101 132 170 209 249 296
#     4  10  21  36  55  79 105 132 162 199 246 299
#     4  10  19  31  47  71 102 134 168 204 246 295
#     4  10  21  34  51  75 101 132 170 209 249 296
#     4  10  20  34  50  71 100 134 172 210 250 293
#
# _framework density 17.165334999999999
#
# number of rings (size 3 to 8) (size 9 to 14) (size 15 to 20)
#    0.000    2.000    0.000    5.250    0.000    7.500 
#    0.000    0.000    0.000    0.750    0.000    0.000 
#    0.000    0.000    0.000    0.000    0.000    0.000 
#
# Total GULP energy -178699.448172 kJ/mol
# GULP energy per Si atom -5584.357755 kJ/mol
# Density = 1.712627 g / cm^3
# Si number density = 17.165335 Si / 1000 Ang^3
#
#
#
# Elastic Constant Matrix: (Units=GPa)
#
#
# Indices 1 2 3 4 5 6 
#
# 1 48.8921 50.9101 36.1900 0.0000 0.0000 0.0000
# 2 50.9101 137.7615 82.0704 0.0000 0.0000 0.0000
# 3 36.1900 82.0704 73.5943 0.0000 0.0000 0.0000
# 4 0.0000 0.0000 0.0000 30.1174 0.0000 0.0000
# 5 0.0000 0.0000 0.0000 0.0000 27.2960 0.0000
# 6 0.0000 0.0000 0.0000 0.0000 0.0000 25.9175
#
#
#
# Elastic Compliance Matrix: (Units=1/GPa)
#
#
# Indices 1 2 3 4 5 6 
#
# 1 0.034858 -0.007955 -0.008270 0.000000 0.000000 0.000000
# 2 -0.007955 0.023442 -0.022230 0.000000 0.000000 0.000000
# 3 -0.008270 -0.022230 0.042446 0.000000 0.000000 0.000000
# 4 0.000000 0.000000 0.000000 0.033203 0.000000 0.000000
# 5 0.000000 0.000000 0.000000 0.000000 0.036635 0.000000
# 6 0.000000 0.000000 0.000000 0.000000 0.000000 0.038584
#
#
# Mechanical properties :
#
#
# Convention : Reuss Voigt Hill
#
# Bulk Modulus (GPa) = 41.95545 66.50986 54.23265
# Shear Modulus (GPa) = 17.00535 22.73802 19.87169
#
# Velocity S-wave (km/s) = 3.15092 3.64352 3.40614
# Velocity P-wave (km/s) = 6.14270 7.51871 6.86527
#
# Compressibility (1/GPa) = 0.02383481
#
# Stress axis : x y z
#
# Youngs Moduli (GPa) = 28.68765 42.65802 23.55951
#
# Poissons Ratio (x) = 0.33934 0.19485
# Poissons Ratio (y) = 0.22821 0.52374
# Poissons Ratio (z) = 0.23726 0.94830
#
# Static dielectric constant tensor:
#      x y z
#    x 1.577000 0.000000 0.000000 
#    y 0.000000 1.583500 0.000000 
#    z 0.000000 0.000000 1.564640 
# 
# From -- ./inp_files/26472.got.cif
#   From: 2010.05.17/outbox.cif.g08.bks.cpg/sg40_14_cif.got.tgz:26472.got - 2010.06.03 18:35:42.
