data_PCOD9362818
_publ_section_title
;
Structure prediction by ZEFSAII (Michael W. Deem and Ramdas Pophale) SiO2 
 PCOD9362818
Probable space group: A M A 2
;
_chemical_formula_sum "Si O2"
_cell_formula_units_Z 60
_cell_length_a 27.484870
_cell_length_b 8.709498
_cell_length_c 10.920290
_cell_angle_alpha 90.000000
_cell_angle_beta 90.000000
_cell_angle_gamma 90.000000
_cell_volume 2614.092690
_symmetry_space_group_name_H-M "A M A 2"
_symmetry_group_IT_number 40
_symmetry_cell_setting 'orthorhombic'
loop_
_space_group_symop_operation_xyz
x,y,z
-x,-y,z
1/2-x,y,z
1/2+x,-y,z
x,1/2+y,1/2+z
-x,1/2-y,1/2+z
1/2-x,1/2+y,1/2+z
1/2+x,1/2-y,1/2+z
loop_
_atom_site_type_symbol
_atom_site_label
_atom_site_fract_x
_atom_site_fract_y
_atom_site_fract_z
Si Si1 0.929056 0.903998 0.878550
Si Si2 0.472244 0.767620 0.892298
Si Si3 0.306164 0.372332 0.527857
Si Si4 0.000000 0.500000 0.080300
Si Si5 0.126522 0.646925 0.888987
Si Si6 0.194234 0.890819 0.295816
Si Si7 0.155364 0.213632 0.028287
Si Si8 0.392244 0.473344 0.146840
O O1 0.975666 0.806563 0.832660
O O2 0.949696 0.066332 0.928577
O O3 0.889687 0.931985 0.771924
O O4 0.899839 0.815480 0.982148
O O5 0.425522 0.688164 0.830261
O O6 0.485700 0.647958 0.999118
O O7 0.250000 0.353646 0.491511
O O8 0.341769 0.291820 0.432196
O O9 0.312358 0.305998 0.665837
O O10 0.319451 0.550603 0.545557
O O11 0.951160 0.552803 0.150099
O O12 0.156823 0.530686 0.807544
O O13 0.116446 0.561569 0.019304
O O14 0.250000 0.946212 0.296751
O O15 0.184413 0.793547 0.417600
O O16 0.145541 0.332363 0.138743
#
# Coordination Sequence:
#
# PCOD9362818 Si02
#       8
#     8   8   8   4   8   8   8   8
#     4  11  21  39  59  88 124 164 200 253 298 355
#     4  10  21  35  61  85 127 163 201 249 301 351
#     4  11  23  40  65  92 119 156 204 254 310 363
#     4  10  18  38  56  86 118 166 202 242 294 352
#     4  10  21  41  61  89 123 160 203 253 302 361
#     4  10  23  42  63  90 124 159 199 254 313 365
#     4  11  22  40  64  91 122 157 204 252 301 365
#     4  10  22  37  61  84 123 165 202 242 302 357
#
# _framework density 22.952514999999998
#
# number of rings (size 3 to 8) (size 9 to 14) (size 15 to 20)
#    0.000    1.600    2.667    2.400    1.867    0.000 
#    0.000    0.000    2.933    6.400    0.000    0.000 
#    0.000    0.000    0.000    0.000    0.000    0.000 
#
# Total GULP energy -167439.792304 kJ/mol
# GULP energy per Si atom -5581.326410 kJ/mol
# Density = 2.290027 g / cm^3
# Si number density = 22.952515 Si / 1000 Ang^3
#
#
#
# Elastic Constant Matrix: (Units=GPa)
#
#
# Indices 1 2 3 4 5 6 
#
# 1 103.5214 7.8087 6.8378 0.0000 0.0000 0.0000
# 2 7.8087 45.9366 3.7692 0.0000 0.0000 0.0000
# 3 6.8378 3.7692 58.0135 0.0000 0.0000 0.0000
# 4 0.0000 0.0000 0.0000 30.6330 0.0000 0.0000
# 5 0.0000 0.0000 0.0000 0.0000 6.9614 0.0000
# 6 0.0000 0.0000 0.0000 0.0000 0.0000 22.9338
#
#
#
# Elastic Compliance Matrix: (Units=1/GPa)
#
#
# Indices 1 2 3 4 5 6 
#
# 1 0.009849 -0.001588 -0.001058 0.000000 0.000000 0.000000
# 2 -0.001588 0.022142 -0.001251 0.000000 0.000000 0.000000
# 3 -0.001058 -0.001251 0.017443 0.000000 0.000000 0.000000
# 4 0.000000 0.000000 0.000000 0.032645 0.000000 0.000000
# 5 0.000000 0.000000 0.000000 0.000000 0.143650 0.000000
# 6 0.000000 0.000000 0.000000 0.000000 0.000000 0.043604
#
#
# Mechanical properties :
#
#
# Convention : Reuss Voigt Hill
#
# Bulk Modulus (GPa) = 24.01478 27.14477 25.57977
# Shear Modulus (GPa) = 17.18174 24.70935 20.94555
#
# Velocity S-wave (km/s) = 2.73898 3.28463 3.02414
# Velocity P-wave (km/s) = 4.52639 5.12223 4.83350
#
# Compressibility (1/GPa) = 0.04164102
#
# Stress axis : x y z
#
# Youngs Moduli (GPa) = 101.52851 45.16369 57.32844
#
# Poissons Ratio (x) = 0.07170 0.06064
# Poissons Ratio (y) = 0.16118 0.07174
# Poissons Ratio (z) = 0.10739 0.05652
#
# Static dielectric constant tensor:
#      x y z
#    x 1.871960 0.000000 0.000000 
#    y 0.000000 1.897560 0.000000 
#    z 0.000000 0.000000 1.900840 
# 
# From -- ./inp_files/14369.got.cif
#   From: 2010.05.17/outbox.cif.g08.bks.cpg/sg40_8_cif.got.tgz:14369.got - 2010.06.03 18:35:42.
