data_PCOD9362966
_publ_section_title
;
Structure prediction by ZEFSAII (Michael W. Deem and Ramdas Pophale) SiO2 
 PCOD9362966
Probable space group: A M A 2
;
_chemical_formula_sum "Si O2"
_cell_formula_units_Z 64
_cell_length_a 18.207270
_cell_length_b 15.439456
_cell_length_c 12.165925
_cell_angle_alpha 90.000000
_cell_angle_beta 90.000000
_cell_angle_gamma 90.000000
_cell_volume 3419.967362
_symmetry_space_group_name_H-M "A M A 2"
_symmetry_group_IT_number 40
_symmetry_cell_setting 'orthorhombic'
loop_
_space_group_symop_operation_xyz
x,y,z
-x,-y,z
1/2-x,y,z
1/2+x,-y,z
x,1/2+y,1/2+z
-x,1/2-y,1/2+z
1/2-x,1/2+y,1/2+z
1/2+x,1/2-y,1/2+z
loop_
_atom_site_type_symbol
_atom_site_label
_atom_site_fract_x
_atom_site_fract_y
_atom_site_fract_z
Si Si1 0.912472 0.512106 0.658680
Si Si2 0.166004 0.629243 0.511760
Si Si3 0.956678 0.296084 0.890071
Si Si4 0.664047 0.568208 0.878402
Si Si5 0.616584 0.763552 0.819579
Si Si6 0.544098 0.580570 0.054817
Si Si7 0.578641 0.256345 0.655635
Si Si8 0.585486 0.705198 0.589543
O O1 0.883369 0.442148 0.572058
O O2 0.872235 0.515551 0.776901
O O3 0.894410 0.606395 0.608367
O O4 0.000000 0.500000 0.675613
O O5 0.250000 0.604594 0.523547
O O6 0.149061 0.656461 0.386545
O O7 0.145789 0.716190 0.579429
O O8 0.916902 0.302914 0.773242
O O9 0.031242 0.245184 0.855436
O O10 0.990173 0.375283 0.961494
O O11 0.903293 0.243888 0.970364
O O12 0.750000 0.549367 0.888725
O O13 0.653102 0.671369 0.852787
O O14 0.615995 0.552299 0.987163
O O15 0.618023 0.763558 0.687649
O O16 0.500000 0.500000 0.102588
O O17 0.566277 0.653400 0.143734
O O18 0.502871 0.291830 0.604054
#
# Coordination Sequence:
#
# PCOD9362966 Si02
#       8
#     8   8   8   8   8   8   8   8
#     4  11  20  32  54  81 114 143 188 242 294 330
#     4  12  22  34  53  86 119 148 187 238 294 349
#     4   9  17  34  56  82 109 145 193 233 287 332
#     4  10  19  31  49  79 111 147 185 235 295 343
#     4   9  17  31  53  76 112 151 181 224 288 344
#     4  10  20  33  54  84 115 151 196 243 287 340
#     4  10  19  34  54  81 116 150 185 233 293 345
#     4   9  17  34  56  80 109 146 188 234 277 341
#
# _framework density 18.713629999999998
#
# number of rings (size 3 to 8) (size 9 to 14) (size 15 to 20)
#    0.000    2.000    5.000    1.875    1.750    0.000 
#    0.000    4.375    0.000    4.500    0.000   42.875 
#    0.000    0.000    0.000    0.000    0.000    0.000 
#
# Total GULP energy -178262.849687 kJ/mol
# GULP energy per Si atom -5570.714053 kJ/mol
# Density = 1.867104 g / cm^3
# Si number density = 18.713630 Si / 1000 Ang^3
#
#
#
# Elastic Constant Matrix: (Units=GPa)
#
#
# Indices 1 2 3 4 5 6 
#
# 1 74.4232 22.2243 9.4137 0.0000 0.0000 0.0000
# 2 22.2243 69.5059 20.4025 0.0000 0.0000 0.0000
# 3 9.4137 20.4025 65.3794 0.0000 0.0000 0.0000
# 4 0.0000 0.0000 0.0000 23.5394 0.0000 0.0000
# 5 0.0000 0.0000 0.0000 0.0000 13.4411 0.0000
# 6 0.0000 0.0000 0.0000 0.0000 0.0000 8.7143
#
#
#
# Elastic Compliance Matrix: (Units=1/GPa)
#
#
# Indices 1 2 3 4 5 6 
#
# 1 0.014886 -0.004547 -0.000724 0.000000 0.000000 0.000000
# 2 -0.004547 0.017227 -0.004721 0.000000 0.000000 0.000000
# 3 -0.000724 -0.004721 0.016873 0.000000 0.000000 0.000000
# 4 0.000000 0.000000 0.000000 0.042482 0.000000 0.000000
# 5 0.000000 0.000000 0.000000 0.000000 0.074399 0.000000
# 6 0.000000 0.000000 0.000000 0.000000 0.000000 0.114753
#
#
# Mechanical properties :
#
#
# Convention : Reuss Voigt Hill
#
# Bulk Modulus (GPa) = 34.48198 34.82105 34.65152
# Shear Modulus (GPa) = 16.11486 19.62350 17.86918
#
# Velocity S-wave (km/s) = 2.93768 3.24175 3.09346
# Velocity P-wave (km/s) = 5.47474 5.71486 5.59609
#
# Compressibility (1/GPa) = 0.02900065
#
# Stress axis : x y z
#
# Youngs Moduli (GPa) = 67.17637 58.04823 59.26643
#
# Poissons Ratio (x) = 0.26396 0.04293
# Poissons Ratio (y) = 0.30546 0.27981
# Poissons Ratio (z) = 0.04866 0.27406
#
# Static dielectric constant tensor:
#      x y z
#    x 1.644790 0.000000 0.000000 
#    y 0.000000 1.706960 0.000000 
#    z 0.000000 0.000000 1.681740 
# 
# From -- ./inp_files/13241.got.cif
#   From: 2010.05.17/outbox.cif.g08.bks.cpg/sg40_7_cif.got.tgz:13241.got - 2010.06.03 18:35:42.
