data_PCOD9362704
_publ_section_title
;
Structure prediction by ZEFSAII (Michael W. Deem and Ramdas Pophale) SiO2 
 PCOD9362704
Probable space group: A M A 2
;
_chemical_formula_sum "Si O2"
_cell_formula_units_Z 64
_cell_length_a 7.844772
_cell_length_b 21.438928
_cell_length_c 20.379269
_cell_angle_alpha 90.000000
_cell_angle_beta 90.000000
_cell_angle_gamma 90.000000
_cell_volume 3427.456830
_symmetry_space_group_name_H-M "A M A 2"
_symmetry_group_IT_number 40
_symmetry_cell_setting 'orthorhombic'
loop_
_space_group_symop_operation_xyz
x,y,z
-x,-y,z
1/2-x,y,z
1/2+x,-y,z
x,1/2+y,1/2+z
-x,1/2-y,1/2+z
1/2-x,1/2+y,1/2+z
1/2+x,1/2-y,1/2+z
loop_
_atom_site_type_symbol
_atom_site_label
_atom_site_fract_x
_atom_site_fract_y
_atom_site_fract_z
Si Si1 0.541859 0.764109 0.137300
Si Si2 0.540795 0.312599 0.775611
Si Si3 0.955298 0.069108 0.776004
Si Si4 0.454661 0.569487 0.858462
Si Si5 0.547449 0.374748 0.993672
Si Si6 0.550929 0.269583 0.493247
Si Si7 0.548967 0.189893 0.852378
Si Si8 0.955456 0.118974 0.638156
O O1 0.750000 0.764205 0.135712
O O2 0.488150 0.803333 0.200313
O O3 0.491537 0.691575 0.146255
O O4 0.481851 0.785964 0.065658
O O5 0.750000 0.312776 0.776835
O O6 0.482788 0.375698 0.810699
O O7 0.481260 0.252047 0.816568
O O8 0.750000 0.072582 0.774407
O O9 0.019607 0.125802 0.821549
O O10 0.017110 0.080966 0.701261
O O11 0.000000 0.000000 0.798656
O O12 0.500000 0.500000 0.838103
O O13 0.250000 0.573521 0.859402
O O14 0.515001 0.584235 0.932658
O O15 0.750000 0.366298 0.987178
O O16 0.511812 0.401556 0.065842
O O17 0.469079 0.305483 0.988612
O O18 0.750000 0.284698 0.491698
O O19 0.471383 0.301690 0.429960
O O20 0.750000 0.189796 0.837670
O O21 0.750000 0.118066 0.638263
#
# Coordination Sequence:
#
# PCOD9362704 Si02
#       8
#     8   8   8   8   8   8   8   8
#     4   8  14  27  50  75  97 124 163 204 247 300
#     4   9  15  30  54  74  93 126 172 208 241 299
#     4  10  21  35  53  75 104 141 176 216 261 311
#     4  10  21  34  50  71  98 133 169 208 249 296
#     4  10  19  32  49  72 102 138 174 206 247 304
#     4  10  19  30  50  80 107 130 163 214 261 301
#     4  10  18  33  56  76  99 135 176 213 254 305
#     4   9  17  31  50  73 100 134 171 208 251 298
#
# _framework density 18.672736
#
# number of rings (size 3 to 8) (size 9 to 14) (size 15 to 20)
#    0.000    2.500    2.500    1.500    0.000    2.500 
#    0.000    2.500    0.000    4.500    0.000    3.500 
#    0.000    0.000    0.000    0.000    0.000    0.000 
#
# Total GULP energy -178469.455490 kJ/mol
# GULP energy per Si atom -5577.170484 kJ/mol
# Density = 1.863024 g / cm^3
# Si number density = 18.672736 Si / 1000 Ang^3
#
#
#
# Elastic Constant Matrix: (Units=GPa)
#
#
# Indices 1 2 3 4 5 6 
#
# 1 17.5892 3.8942 1.4775 0.0000 0.0000 0.0000
# 2 3.8942 126.3871 81.9450 0.0000 0.0000 0.0000
# 3 1.4775 81.9450 133.6049 0.0000 0.0000 0.0000
# 4 0.0000 0.0000 0.0000 23.6226 0.0000 0.0000
# 5 0.0000 0.0000 0.0000 0.0000 28.3137 0.0000
# 6 0.0000 0.0000 0.0000 0.0000 0.0000 19.0907
#
#
#
# Elastic Compliance Matrix: (Units=1/GPa)
#
#
# Indices 1 2 3 4 5 6 
#
# 1 0.057288 -0.002249 0.000746 0.000000 0.000000 0.000000
# 2 -0.002249 0.013224 -0.008086 0.000000 0.000000 0.000000
# 3 0.000746 -0.008086 0.012436 0.000000 0.000000 0.000000
# 4 0.000000 0.000000 0.000000 0.042332 0.000000 0.000000
# 5 0.000000 0.000000 0.000000 0.000000 0.035319 0.000000
# 6 0.000000 0.000000 0.000000 0.000000 0.000000 0.052381
#
#
# Mechanical properties :
#
#
# Convention : Reuss Voigt Hill
#
# Bulk Modulus (GPa) = 15.68126 50.24606 32.96366
# Shear Modulus (GPa) = 19.73044 26.88971 23.31008
#
# Velocity S-wave (km/s) = 3.25413 3.79892 3.53703
# Velocity P-wave (km/s) = 4.74714 6.79776 5.86280
#
# Compressibility (1/GPa) = 0.06377040
#
# Stress axis : x y z
#
# Youngs Moduli (GPa) = 17.45560 75.61905 80.41182
#
# Poissons Ratio (x) = 0.17004 -0.05996
# Poissons Ratio (y) = 0.03925 0.65021
# Poissons Ratio (z) = -0.01302 0.61146
#
# Static dielectric constant tensor:
#      x y z
#    x 1.688090 0.000000 0.000000 
#    y 0.000000 1.623870 0.000000 
#    z 0.000000 0.000000 1.667550 
# 
# From -- ./inp_files/19595.got.cif
#   From: 2010.05.17/outbox.cif.g08.bks.cpg/sg40_10_cif.got.tgz:19595.got - 2010.06.03 18:35:42.
