data_PCOD9362497
_publ_section_title
;
Structure prediction by ZEFSAII (Michael W. Deem and Ramdas Pophale) SiO2 
 PCOD9362497
Probable space group: A M A 2
;
_chemical_formula_sum "Si O2"
_cell_formula_units_Z 56
_cell_length_a 9.033916
_cell_length_b 19.282109
_cell_length_c 17.839323
_cell_angle_alpha 90.000000
_cell_angle_beta 90.000000
_cell_angle_gamma 90.000000
_cell_volume 3107.484353
_symmetry_space_group_name_H-M "A M A 2"
_symmetry_group_IT_number 40
_symmetry_cell_setting 'orthorhombic'
loop_
_space_group_symop_operation_xyz
x,y,z
-x,-y,z
1/2-x,y,z
1/2+x,-y,z
x,1/2+y,1/2+z
-x,1/2-y,1/2+z
1/2-x,1/2+y,1/2+z
1/2+x,1/2-y,1/2+z
loop_
_atom_site_type_symbol
_atom_site_label
_atom_site_fract_x
_atom_site_fract_y
_atom_site_fract_z
Si Si1 0.421070 0.935941 0.617410
Si Si2 0.429050 0.575179 0.714516
Si Si3 0.922843 0.843770 0.362693
Si Si4 0.075398 0.566799 0.278714
Si Si5 0.076535 0.796403 0.127501
Si Si6 0.420794 0.301891 0.014545
Si Si7 0.421112 0.723125 0.283640
O O1 0.250000 0.953307 0.631020
O O2 0.505805 0.928862 0.695752
O O3 0.426883 0.864989 0.573082
O O4 0.500000 0.000000 0.575886
O O5 0.500000 0.500000 0.699446
O O6 0.250000 0.573455 0.708474
O O7 0.467111 0.598917 0.800315
O O8 0.493891 0.635326 0.659900
O O9 0.750000 0.852539 0.378679
O O10 0.011206 0.834409 0.439342
O O11 0.958486 0.772032 0.320641
O O12 0.250000 0.555108 0.274756
O O13 0.053176 0.644301 0.308491
O O14 0.000000 0.500000 0.316418
O O15 0.250000 0.811866 0.116247
O O16 0.067792 0.739101 0.194740
O O17 0.006549 0.762080 0.053311
O O18 0.250000 0.282175 0.002037
O O19 0.250000 0.742035 0.303662
#
# Coordination Sequence:
#
# PCOD9362497 Si02
#       7
#     8   8   8   8   8   8   8
#     4  10  20  31  46  70 102 138 172 209 250 299
#     4  10  21  38  59  85 113 145 188 234 283 337
#     4  10  22  36  54  78 106 141 181 224 272 329
#     4  10  18  29  47  73 101 132 167 207 252 300
#     4  10  19  34  57  81 107 141 182 228 276 327
#     4  11  22  35  52  77 110 146 183 224 273 329
#     4   9  18  33  52  74 102 135 173 218 265 316
#
# _framework density 18.021007999999998
#
# number of rings (size 3 to 8) (size 9 to 14) (size 15 to 20)
#    0.000    2.000    1.429    3.429    0.000    5.714 
#    0.000    2.857    0.000    0.857    0.000    4.000 
#    0.000    0.000    0.000    0.000    0.000    0.000 
#
# Total GULP energy -156004.047045 kJ/mol
# GULP energy per Si atom -5571.573109 kJ/mol
# Density = 1.797999 g / cm^3
# Si number density = 18.021008 Si / 1000 Ang^3
#
#
#
# Elastic Constant Matrix: (Units=GPa)
#
#
# Indices 1 2 3 4 5 6 
#
# 1 83.9202 41.8861 12.0953 0.0000 0.0000 0.0000
# 2 41.8861 104.3167 3.0092 0.0000 0.0000 0.0000
# 3 12.0953 3.0092 20.1300 0.0000 0.0000 0.0000
# 4 0.0000 0.0000 0.0000 11.8619 0.0000 0.0000
# 5 0.0000 0.0000 0.0000 0.0000 23.7432 0.0000
# 6 0.0000 0.0000 0.0000 0.0000 0.0000 33.2354
#
#
#
# Elastic Compliance Matrix: (Units=1/GPa)
#
#
# Indices 1 2 3 4 5 6 
#
# 1 0.016343 -0.006306 -0.008877 0.000000 0.000000 0.000000
# 2 -0.006306 0.012061 0.001986 0.000000 0.000000 0.000000
# 3 -0.008877 0.001986 0.054714 0.000000 0.000000 0.000000
# 4 0.000000 0.000000 0.000000 0.084304 0.000000 0.000000
# 5 0.000000 0.000000 0.000000 0.000000 0.042117 0.000000
# 6 0.000000 0.000000 0.000000 0.000000 0.000000 0.030088
#
#
# Mechanical properties :
#
#
# Convention : Reuss Voigt Hill
#
# Bulk Modulus (GPa) = 17.62931 35.81646 26.72288
# Shear Modulus (GPa) = 17.54820 23.85986 20.70403
#
# Velocity S-wave (km/s) = 3.12390 3.64263 3.39319
# Velocity P-wave (km/s) = 4.77657 6.13267 5.49660
#
# Compressibility (1/GPa) = 0.05672371
#
# Stress axis : x y z
#
# Youngs Moduli (GPa) = 61.18823 82.91208 18.27685
#
# Poissons Ratio (x) = 0.52285 0.16225
# Poissons Ratio (y) = 0.38586 -0.03630
# Poissons Ratio (z) = 0.54318 -0.16467
#
# Static dielectric constant tensor:
#      x y z
#    x 1.618450 0.000000 0.000000 
#    y 0.000000 1.654840 0.000000 
#    z 0.000000 0.000000 1.632690 
# 
# From -- ./inp_files/22477.got.cif
#   From: 2010.05.17/outbox.cif.g08.bks.cpg/sg40_12_cif.got.tgz:22477.got - 2010.06.03 18:35:42.
