data_PCOD9362489
_publ_section_title
;
Structure prediction by ZEFSAII (Michael W. Deem and Ramdas Pophale) SiO2 
 PCOD9362489
Probable space group: A M A 2
;
_chemical_formula_sum "Si O2"
_cell_formula_units_Z 56
_cell_length_a 9.070760
_cell_length_b 18.565113
_cell_length_c 21.161683
_cell_angle_alpha 90.000000
_cell_angle_beta 90.000000
_cell_angle_gamma 90.000000
_cell_volume 3563.620738
_symmetry_space_group_name_H-M "A M A 2"
_symmetry_group_IT_number 40
_symmetry_cell_setting 'orthorhombic'
loop_
_space_group_symop_operation_xyz
x,y,z
-x,-y,z
1/2-x,y,z
1/2+x,-y,z
x,1/2+y,1/2+z
-x,1/2-y,1/2+z
1/2-x,1/2+y,1/2+z
1/2+x,1/2-y,1/2+z
loop_
_atom_site_type_symbol
_atom_site_label
_atom_site_fract_x
_atom_site_fract_y
_atom_site_fract_z
Si Si1 0.925735 0.658584 0.839000
Si Si2 0.079495 0.290791 0.278600
Si Si3 0.074783 0.661081 0.086231
Si Si4 0.072958 0.578447 0.956490
Si Si5 0.575235 0.077400 0.205766
Si Si6 0.573349 0.422243 0.216373
Si Si7 0.418889 0.207359 0.143683
O O1 0.750000 0.663102 0.848701
O O2 0.951149 0.610598 0.775835
O O3 0.994370 0.736987 0.825157
O O4 0.005715 0.621276 0.897512
O O5 0.250000 0.301444 0.297004
O O6 0.079240 0.249442 0.210980
O O7 0.995864 0.365310 0.265471
O O8 0.250000 0.675006 0.088430
O O9 0.040670 0.609832 0.146296
O O10 0.991184 0.736303 0.095563
O O11 0.039736 0.620810 0.021332
O O12 0.250000 0.572216 0.950293
O O13 0.000000 0.500000 0.958809
O O14 0.750000 0.071362 0.197269
O O15 0.508536 0.134608 0.156379
O O16 0.500000 0.000000 0.200830
O O17 0.500000 0.500000 0.222792
O O18 0.750000 0.426044 0.223188
O O19 0.250000 0.191741 0.127417
#
# Coordination Sequence:
#
# PCOD9362489 Si02
#       7
#     8   8   8   8   8   8   8
#     4  10  20  33  48  67  93 126 160 195 233 276
#     4   9  17  30  47  67  91 120 154 192 234 281
#     4   9  19  33  47  65  93 127 160 193 231 274
#     4  11  22  34  48  68  95 128 163 197 230 269
#     4  10  19  30  46  68  95 123 153 191 235 279
#     4  10  18  29  46  69  96 124 155 193 236 280
#     4   9  17  29  47  68  90 118 153 191 233 279
#
# _framework density 15.714354
#
# number of rings (size 3 to 8) (size 9 to 14) (size 15 to 20)
#    0.000    2.286    0.000    3.429    0.000    8.000 
#    0.000    0.000    0.000    0.000    0.000    1.000 
#    0.000    6.857    0.000    0.000    0.000    0.000 
#
# Total GULP energy -156193.301274 kJ/mol
# GULP energy per Si atom -5578.332188 kJ/mol
# Density = 1.567859 g / cm^3
# Si number density = 15.714354 Si / 1000 Ang^3
#
#
#
# Elastic Constant Matrix: (Units=GPa)
#
#
# Indices 1 2 3 4 5 6 
#
# 1 105.9737 100.4246 58.3223 0.0000 0.0000 0.0000
# 2 100.4246 167.0057 66.8528 0.0000 0.0000 0.0000
# 3 58.3223 66.8528 75.0965 0.0000 0.0000 0.0000
# 4 0.0000 0.0000 0.0000 22.0366 0.0000 0.0000
# 5 0.0000 0.0000 0.0000 0.0000 17.6425 0.0000
# 6 0.0000 0.0000 0.0000 0.0000 0.0000 35.7546
#
#
#
# Elastic Compliance Matrix: (Units=1/GPa)
#
#
# Indices 1 2 3 4 5 6 
#
# 1 0.025779 -0.011632 -0.009665 0.000000 0.000000 0.000000
# 2 -0.011632 0.014552 -0.003921 0.000000 0.000000 0.000000
# 3 -0.009665 -0.003921 0.024313 0.000000 0.000000 0.000000
# 4 0.000000 0.000000 0.000000 0.045379 0.000000 0.000000
# 5 0.000000 0.000000 0.000000 0.000000 0.056681 0.000000
# 6 0.000000 0.000000 0.000000 0.000000 0.000000 0.027968
#
#
# Mechanical properties :
#
#
# Convention : Reuss Voigt Hill
#
# Bulk Modulus (GPa) = 70.38638 88.80836 79.59737
# Shear Modulus (GPa) = 20.01249 23.25184 21.63217
#
# Velocity S-wave (km/s) = 3.57251 3.85080 3.71426
# Velocity P-wave (km/s) = 7.86800 8.74119 8.31607
#
# Compressibility (1/GPa) = 0.01420729
#
# Stress axis : x y z
#
# Youngs Moduli (GPa) = 38.79157 68.71869 41.13103
#
# Poissons Ratio (x) = 0.79937 0.39754
# Poissons Ratio (y) = 0.45124 0.16125
# Poissons Ratio (z) = 0.37492 0.26941
#
# Static dielectric constant tensor:
#      x y z
#    x 1.525340 0.000000 0.000000 
#    y 0.000000 1.503770 0.000000 
#    z 0.000000 0.000000 1.503700 
# 
# From -- ./inp_files/22147.got.cif
#   From: 2010.05.17/outbox.cif.g08.bks.cpg/sg40_12_cif.got.tgz:22147.got - 2010.06.03 18:35:42.
