data_PCOD9362776
_publ_section_title
;
Structure prediction by ZEFSAII (Michael W. Deem and Ramdas Pophale) SiO2 
 PCOD9362776
Probable space group: A M A 2
;
_chemical_formula_sum "Si O2"
_cell_formula_units_Z 52
_cell_length_a 7.622475
_cell_length_b 27.124335
_cell_length_c 12.306649
_cell_angle_alpha 90.000000
_cell_angle_beta 90.000000
_cell_angle_gamma 90.000000
_cell_volume 2544.455866
_symmetry_space_group_name_H-M "A M A 2"
_symmetry_group_IT_number 40
_symmetry_cell_setting 'orthorhombic'
loop_
_space_group_symop_operation_xyz
x,y,z
-x,-y,z
1/2-x,y,z
1/2+x,-y,z
x,1/2+y,1/2+z
-x,1/2-y,1/2+z
1/2-x,1/2+y,1/2+z
1/2+x,1/2-y,1/2+z
loop_
_atom_site_type_symbol
_atom_site_label
_atom_site_fract_x
_atom_site_fract_y
_atom_site_fract_z
Si Si1 0.557589 0.840101 0.750000
Si Si2 0.460165 0.944617 0.678519
Si Si3 0.963188 0.153798 0.315310
Si Si4 0.952799 0.824919 0.068839
Si Si5 0.250000 0.838503 0.915734
Si Si6 0.040458 0.445345 0.928256
Si Si7 0.961362 0.712007 0.027629
O O1 0.750000 0.824040 0.786451
O O2 0.542473 0.899527 0.743510
O O3 0.403877 0.822566 0.827692
O O4 0.529623 0.820241 0.627838
O O5 0.250000 0.936959 0.681273
O O6 0.524053 0.941841 0.553033
O O7 0.500000 0.000000 0.717139
O O8 0.750000 0.154943 0.310123
O O9 0.021495 0.099592 0.354983
O O10 0.018256 0.190836 0.411525
O O11 0.032363 0.166838 0.197362
O O12 0.750000 0.831692 0.037357
O O13 0.012359 0.768553 0.044628
O O14 0.093703 0.855670 0.001489
O O15 0.250000 0.440579 0.935770
O O16 0.000000 0.500000 0.887118
O O17 0.750000 0.709109 0.031331
#
# Coordination Sequence:
#
# PCOD9362776 Si02
#       7
#     8   8   8   8   4   8   8
#     4  12  24  39  67  97 127 176 215 258 328 394
#     4  10  18  35  58  95 136 164 203 263 322 389
#     4  10  20  40  65  90 132 169 207 264 325 383
#     4  11  26  43  66  94 121 175 222 268 325 383
#     4  12  26  48  62  86 132 168 222 280 314 370
#     4   9  18  32  58  91 131 166 198 251 325 381
#     4  10  22  41  64  96 134 168 213 261 328 388
#
# _framework density 20.436591
#
# number of rings (size 3 to 8) (size 9 to 14) (size 15 to 20)
#    0.000    1.538    3.846    0.923    3.231    1.846 
#    0.000    0.000    0.000    0.923    4.000    0.000 
#    0.000    0.000    0.000    0.000    0.000    0.000 
#
# Total GULP energy -144795.445581 kJ/mol
# GULP energy per Si atom -5569.055599 kJ/mol
# Density = 2.039008 g / cm^3
# Si number density = 20.436591 Si / 1000 Ang^3
#
#
#
# Elastic Constant Matrix: (Units=GPa)
#
#
# Indices 1 2 3 4 5 6 
#
# 1 103.5890 -1.1885 21.4737 0.0000 0.0000 0.0000
# 2 -1.1885 65.3233 -4.7022 0.0000 0.0000 0.0000
# 3 21.4737 -4.7022 90.1042 0.0000 0.0000 0.0000
# 4 0.0000 0.0000 0.0000 -8.7875 0.0000 0.0000
# 5 0.0000 0.0000 0.0000 0.0000 33.1188 0.0000
# 6 0.0000 0.0000 0.0000 0.0000 0.0000 4.3458
#
#
#
# Elastic Compliance Matrix: (Units=1/GPa)
#
#
# Indices 1 2 3 4 5 6 
#
# 1 0.010155 0.000011 -0.002420 0.000000 0.000000 0.000000
# 2 0.000011 0.015366 0.000799 0.000000 0.000000 0.000000
# 3 -0.002420 0.000799 0.011717 0.000000 0.000000 0.000000
# 4 0.000000 0.000000 0.000000 -0.113798 0.000000 0.000000
# 5 0.000000 0.000000 0.000000 0.000000 0.030194 0.000000
# 6 0.000000 0.000000 0.000000 0.000000 0.000000 0.230109
#
#
# Mechanical properties :
#
#
# Convention : Reuss Voigt Hill
#
# Bulk Modulus (GPa) = 29.39556 32.24248 30.81902
# Shear Modulus (GPa) = 25.21404 21.96431 23.58918
#
# Velocity S-wave (km/s) = 3.51632 3.28190 3.40113
# Velocity P-wave (km/s) = 5.55887 5.49293 5.52599
#
# Compressibility (1/GPa) = 0.03401874
#
# Stress axis : x y z
#
# Youngs Moduli (GPa) = 98.47133 65.07782 85.34874
#
# Poissons Ratio (x) = -0.00069 0.20651
# Poissons Ratio (y) = -0.00104 -0.06823
# Poissons Ratio (z) = 0.23827 -0.05202
#
# Static dielectric constant tensor:
#      x y z
#    x 1.751180 0.000000 0.000000 
#    y 0.000000 1.753180 0.000000 
#    z 0.000000 0.000000 1.725800 
# 
# From -- ./inp_files/10338.got.cif
#   From: 2010.05.17/outbox.cif.g08.bks.cpg/sg40_6_cif.got.tgz:10338.got - 2010.06.03 18:35:42.
