data_PCOD9362864
_publ_section_title
;
Structure prediction by ZEFSAII (Michael W. Deem and Ramdas Pophale) SiO2 
 PCOD9362864
Probable space group: A M A 2
;
_chemical_formula_sum "Si O2"
_cell_formula_units_Z 64
_cell_length_a 8.833733
_cell_length_b 19.085971
_cell_length_c 21.723866
_cell_angle_alpha 90.000000
_cell_angle_beta 90.000000
_cell_angle_gamma 90.000000
_cell_volume 3662.651886
_symmetry_space_group_name_H-M "A M A 2"
_symmetry_group_IT_number 40
_symmetry_cell_setting 'orthorhombic'
loop_
_space_group_symop_operation_xyz
x,y,z
-x,-y,z
1/2-x,y,z
1/2+x,-y,z
x,1/2+y,1/2+z
-x,1/2-y,1/2+z
1/2-x,1/2+y,1/2+z
1/2+x,1/2-y,1/2+z
loop_
_atom_site_type_symbol
_atom_site_label
_atom_site_fract_x
_atom_site_fract_y
_atom_site_fract_z
Si Si1 0.430898 0.779713 0.747000
Si Si2 0.069473 0.074887 0.168667
Si Si3 0.929318 0.368140 0.805093
Si Si4 0.423147 0.572955 0.261338
Si Si5 0.076346 0.571108 0.113021
Si Si6 0.930529 0.076194 0.428884
Si Si7 0.571933 0.683544 0.033893
Si Si8 0.069888 0.784556 0.122142
O O1 0.250000 0.783055 0.737761
O O2 0.463028 0.713817 0.791909
O O3 0.490708 0.853790 0.772540
O O4 0.506099 0.758485 0.681576
O O5 0.250000 0.076236 0.159730
O O6 0.040625 0.092499 0.240723
O O7 0.992584 0.137438 0.131091
O O8 0.000000 0.000000 0.153582
O O9 0.750000 0.374665 0.818492
O O10 0.022300 0.401213 0.860427
O O11 0.500000 0.500000 0.282392
O O12 0.250000 0.576744 0.283224
O O13 0.419297 0.569104 0.186742
O O14 0.250000 0.580506 0.091429
O O15 0.000000 0.500000 0.090628
O O16 0.965861 0.630580 0.089303
O O17 0.750000 0.070608 0.434693
O O18 0.980895 0.139069 0.474620
O O19 0.000000 0.000000 0.442949
O O20 0.750000 0.697274 0.028456
O O21 0.486519 0.752172 0.057664
O O22 0.250000 0.781560 0.125177
#
# Coordination Sequence:
#
# PCOD9362864 Si02
#       8
#     8   8   8   8   8   8   8   8
#     4  10  19  33  52  74 102 135 172 217 266 315
#     4  10  20  35  55  81 109 138 171 214 265 316
#     4   9  20  36  55  77 103 138 177 218 264 310
#     4  10  19  29  44  69 100 133 169 207 252 305
#     4  10  19  29  43  65  93 130 170 205 247 294
#     4  11  24  38  54  76 104 141 182 223 262 304
#     4  11  22  35  50  70 100 137 175 216 259 304
#     4  11  21  33  51  76 103 136 173 212 261 316
#
# _framework density 17.473676999999999
#
# number of rings (size 3 to 8) (size 9 to 14) (size 15 to 20)
#    0.000    1.750    1.250    4.875    0.000    8.000 
#    0.000    0.000    0.000    0.000    0.000    0.875 
#    0.000    2.000    0.000    0.000    0.000    0.125 
#
# Total GULP energy -178526.269805 kJ/mol
# GULP energy per Si atom -5578.945931 kJ/mol
# Density = 1.743391 g / cm^3
# Si number density = 17.473677 Si / 1000 Ang^3
#
#
#
# Elastic Constant Matrix: (Units=GPa)
#
#
# Indices 1 2 3 4 5 6 
#
# 1 82.1464 50.1733 30.7789 0.0000 0.0000 0.0000
# 2 50.1733 137.8019 31.4320 0.0000 0.0000 0.0000
# 3 30.7789 31.4320 49.8040 0.0000 0.0000 0.0000
# 4 0.0000 0.0000 0.0000 19.9676 0.0000 0.0000
# 5 0.0000 0.0000 0.0000 0.0000 -67.6498 0.0000
# 6 0.0000 0.0000 0.0000 0.0000 0.0000 30.7696
#
#
#
# Elastic Compliance Matrix: (Units=1/GPa)
#
#
# Indices 1 2 3 4 5 6 
#
# 1 0.018145 -0.004730 -0.008229 0.000000 0.000000 0.000000
# 2 -0.004730 0.009710 -0.003205 0.000000 0.000000 0.000000
# 3 -0.008229 -0.003205 0.027187 0.000000 0.000000 0.000000
# 4 0.000000 0.000000 0.000000 0.050081 0.000000 0.000000
# 5 0.000000 0.000000 0.000000 0.000000 -0.014782 0.000000
# 6 0.000000 0.000000 0.000000 0.000000 0.000000 0.032500
#
#
# Mechanical properties :
#
#
# Convention : Reuss Voigt Hill
#
# Bulk Modulus (GPa) = 44.02397 54.94674 49.48536
# Shear Modulus (GPa) = 30.72383 7.10868 18.91626
#
# Velocity S-wave (km/s) = 4.19775 2.01917 3.29379
# Velocity P-wave (km/s) = 6.98169 6.07863 6.54575
#
# Compressibility (1/GPa) = 0.02271490
#
# Stress axis : x y z
#
# Youngs Moduli (GPa) = 55.11034 102.98715 36.78232
#
# Poissons Ratio (x) = 0.48710 0.30268
# Poissons Ratio (y) = 0.26066 0.11789
# Poissons Ratio (z) = 0.45350 0.33009
#
# Static dielectric constant tensor:
#      x y z
#    x 1.600750 0.000000 0.000000 
#    y 0.000000 1.570860 0.000000 
#    z 0.000000 0.000000 1.586260 
# 
# From -- ./inp_files/24411.got.cif
#   From: 2010.05.17/outbox.cif.g08.bks.cpg/sg40_13_cif.got.tgz:24411.got - 2010.06.03 18:35:42.
