data_PCOD9362086
_publ_section_title
;
Structure prediction by ZEFSAII (Michael W. Deem and Ramdas Pophale) SiO2 
 PCOD9362086
Probable space group: A B M 2
;
_chemical_formula_sum "Si O2"
_cell_formula_units_Z 40
_cell_length_a 5.089583
_cell_length_b 19.519469
_cell_length_c 15.783659
_cell_angle_alpha 90.000000
_cell_angle_beta 90.000000
_cell_angle_gamma 90.000000
_cell_volume 1568.042718
_symmetry_space_group_name_H-M "A B M 2"
_symmetry_group_IT_number 39
_symmetry_cell_setting 'orthorhombic'
loop_
_space_group_symop_operation_xyz
x,y,z
-x,-y,z
-x,1/2+y,z
x,1/2-y,z
x,1/2+y,1/2+z
-x,1/2-y,1/2+z
-x,y,1/2+z
x,-y,1/2+z
loop_
_atom_site_type_symbol
_atom_site_label
_atom_site_fract_x
_atom_site_fract_y
_atom_site_fract_z
Si Si1 0.646393 0.435300 0.560170
Si Si2 0.429107 0.175220 0.773338
Si Si3 0.216323 0.171982 0.491212
Si Si4 0.888981 0.929526 0.881439
Si Si5 0.063608 0.844797 0.657367
O O1 0.500000 0.500000 0.593997
O O2 0.442749 0.373209 0.537460
O O3 0.769945 0.453925 0.470388
O O4 0.862105 0.420738 0.631299
O O5 0.407204 0.250000 0.816105
O O6 0.338744 0.111881 0.831911
O O7 0.700518 0.174216 0.720852
O O8 0.201323 0.172403 0.703306
O O9 0.296045 0.250000 0.471525
O O10 0.104310 0.128170 0.411319
O O11 0.980166 0.179464 0.560153
O O12 0.000000 0.000000 0.840861
#
# Coordination Sequence:
#
# PCOD9362086 Si02
#       5
#     8   8   8   8   8
#     4  11  24  46  77 104 143 191 244 303 366 436
#     4  12  26  46  71 107 150 192 242 300 364 435
#     4  11  23  45  76 109 141 190 249 306 365 435
#     4  11  26  45  71 105 151 196 242 302 366 444
#     4  11  26  45  74 107 146 186 242 302 366 431
#
# _framework density 25.509509000000001
#
# number of rings (size 3 to 8) (size 9 to 14) (size 15 to 20)
#    0.000    0.800    4.000    2.400    2.800    6.400 
#    0.000    0.000    0.000    0.000    0.000    0.000 
#    0.000    0.000    0.000    0.000    0.000    0.000 
#
# Total GULP energy -111593.203882 kJ/mol
# GULP energy per Si atom -5579.660194 kJ/mol
# Density = 2.545145 g / cm^3
# Si number density = 25.509509 Si / 1000 Ang^3
#
#
#
# Elastic Constant Matrix: (Units=GPa)
#
#
# Indices 1 2 3 4 5 6 
#
# 1 128.1049 23.2033 43.6573 0.0000 0.0000 0.0000
# 2 23.2033 133.3223 38.7480 0.0000 0.0000 0.0000
# 3 43.6573 38.7480 94.8359 0.0000 0.0000 0.0000
# 4 0.0000 0.0000 0.0000 -16.6569 0.0000 0.0000
# 5 0.0000 0.0000 0.0000 0.0000 45.3893 0.0000
# 6 0.0000 0.0000 0.0000 0.0000 0.0000 5.1538
#
#
#
# Elastic Compliance Matrix: (Units=1/GPa)
#
#
# Indices 1 2 3 4 5 6 
#
# 1 0.009280 -0.000424 -0.004099 0.000000 0.000000 0.000000
# 2 -0.000424 0.008531 -0.003290 0.000000 0.000000 0.000000
# 3 -0.004099 -0.003290 0.013776 0.000000 0.000000 0.000000
# 4 0.000000 0.000000 0.000000 -0.060035 0.000000 0.000000
# 5 0.000000 0.000000 0.000000 0.000000 0.022032 0.000000
# 6 0.000000 0.000000 0.000000 0.000000 0.000000 0.194031
#
#
# Mechanical properties :
#
#
# Convention : Reuss Voigt Hill
#
# Bulk Modulus (GPa) = 62.65531 63.05335 62.85433
# Shear Modulus (GPa) = 23.97395 23.48754 23.73075
#
# Velocity S-wave (km/s) = 3.06895 3.03766 3.05334
# Velocity P-wave (km/s) = 6.09695 6.08887 6.09291
#
# Compressibility (1/GPa) = 0.01596034
#
# Stress axis : x y z
#
# Youngs Moduli (GPa) = 107.76235 117.22407 72.59144
#
# Poissons Ratio (x) = 0.04968 0.29753
# Poissons Ratio (y) = 0.04567 0.23885
# Poissons Ratio (z) = 0.44169 0.38571
#
# Static dielectric constant tensor:
#      x y z
#    x 2.160470 0.000000 0.000000 
#    y 0.000000 2.114940 0.000000 
#    z 0.000000 0.000000 2.031490 
# 
# From -- ./inp_files/10984.got.cif
#   From: 2010.05.17/outbox.cif.g08.bks.cpg/sg39_6_cif.got.tgz:10984.got - 2010.06.03 18:22:40.
