data_PCOD9362852
_publ_section_title
;
Structure prediction by ZEFSAII (Michael W. Deem and Ramdas Pophale) SiO2 
 PCOD9362852
Probable space group: A M A 2
;
_chemical_formula_sum "Si O2"
_cell_formula_units_Z 64
_cell_length_a 8.539645
_cell_length_b 19.355053
_cell_length_c 22.172293
_cell_angle_alpha 90.000000
_cell_angle_beta 90.000000
_cell_angle_gamma 90.000000
_cell_volume 3664.753692
_symmetry_space_group_name_H-M "A M A 2"
_symmetry_group_IT_number 40
_symmetry_cell_setting 'orthorhombic'
loop_
_space_group_symop_operation_xyz
x,y,z
-x,-y,z
1/2-x,y,z
1/2+x,-y,z
x,1/2+y,1/2+z
-x,1/2-y,1/2+z
1/2-x,1/2+y,1/2+z
1/2+x,1/2-y,1/2+z
loop_
_atom_site_type_symbol
_atom_site_label
_atom_site_fract_x
_atom_site_fract_y
_atom_site_fract_z
Si Si1 0.929066 0.573719 0.247400
Si Si2 0.438324 0.221618 0.738301
Si Si3 0.441322 0.281282 0.608975
Si Si4 0.440789 0.367750 0.788360
Si Si5 0.568784 0.572699 0.101981
Si Si6 0.938463 0.073864 0.159953
Si Si7 0.568411 0.322028 0.015893
Si Si8 0.063251 0.924068 0.416749
O O1 0.750000 0.576041 0.266962
O O2 0.934167 0.572763 0.174213
O O3 0.000000 0.500000 0.267402
O O4 0.008229 0.647104 0.261965
O O5 0.250000 0.221261 0.736178
O O6 0.492885 0.239570 0.669563
O O7 0.487607 0.287694 0.778414
O O8 0.250000 0.277964 0.608720
O O9 0.487551 0.360412 0.620087
O O10 0.494270 0.248962 0.545395
O O11 0.250000 0.368319 0.789153
O O12 0.490515 0.409225 0.728615
O O13 0.495457 0.402085 0.850191
O O14 0.500000 0.500000 0.081143
O O15 0.750000 0.582657 0.082767
O O16 0.454529 0.628648 0.073836
O O17 0.750000 0.072814 0.160232
O O18 0.000000 0.000000 0.140289
O O19 0.750000 0.314509 0.999745
O O20 0.484107 0.363441 0.962877
O O21 0.250000 0.928683 0.415521
O O22 0.000000 0.000000 0.433166
#
# Coordination Sequence:
#
# PCOD9362852 Si02
#       8
#     8   8   8   8   8   8   8   8
#     4  10  19  28  41  65  95 125 155 191 234 284
#     4   9  15  30  51  69  89 122 160 199 242 290
#     4   8  16  29  47  67  92 122 155 190 236 291
#     4   8  17  32  52  71  94 127 164 197 239 286
#     4  10  19  29  41  60  88 122 157 192 228 272
#     4   9  16  30  50  74  97 122 152 190 236 289
#     4  11  20  32  48  66  89 126 165 200 237 279
#     4  11  22  36  50  70  98 132 168 205 236 277
#
# _framework density 17.463657000000001
#
# number of rings (size 3 to 8) (size 9 to 14) (size 15 to 20)
#    0.000    2.500    1.250    3.750    0.000    1.000 
#    0.000    5.625    0.000    0.000    0.000    0.875 
#    0.000    4.000    0.000    0.000    0.000    0.000 
#
# Total GULP energy -178226.356790 kJ/mol
# GULP energy per Si atom -5569.573650 kJ/mol
# Density = 1.742391 g / cm^3
# Si number density = 17.463657 Si / 1000 Ang^3
#
#
#
# Elastic Constant Matrix: (Units=GPa)
#
#
# Indices 1 2 3 4 5 6 
#
# 1 24.9113 16.1380 9.8691 0.0000 0.0000 0.0000
# 2 16.1380 136.3650 35.7720 0.0000 0.0000 0.0000
# 3 9.8691 35.7720 59.9846 0.0000 0.0000 0.0000
# 4 0.0000 0.0000 0.0000 17.1943 0.0000 0.0000
# 5 0.0000 0.0000 0.0000 0.0000 36.6841 0.0000
# 6 0.0000 0.0000 0.0000 0.0000 0.0000 24.1052
#
#
#
# Elastic Compliance Matrix: (Units=1/GPa)
#
#
# Indices 1 2 3 4 5 6 
#
# 1 0.044695 -0.003984 -0.004978 0.000000 0.000000 0.000000
# 2 -0.003984 0.009048 -0.004741 0.000000 0.000000 0.000000
# 3 -0.004978 -0.004741 0.020317 0.000000 0.000000 0.000000
# 4 0.000000 0.000000 0.000000 0.058159 0.000000 0.000000
# 5 0.000000 0.000000 0.000000 0.000000 0.027260 0.000000
# 6 0.000000 0.000000 0.000000 0.000000 0.000000 0.041485
#
#
# Mechanical properties :
#
#
# Convention : Reuss Voigt Hill
#
# Bulk Modulus (GPa) = 21.43331 38.31322 29.87327
# Shear Modulus (GPa) = 20.49852 26.22884 23.36368
#
# Velocity S-wave (km/s) = 3.42977 3.87965 3.66163
# Velocity P-wave (km/s) = 5.29000 6.48501 5.91775
#
# Compressibility (1/GPa) = 0.04665635
#
# Stress axis : x y z
#
# Youngs Moduli (GPa) = 22.37376 110.51854 49.21992
#
# Poissons Ratio (x) = 0.44026 0.24501
# Poissons Ratio (y) = 0.08913 0.23333
# Poissons Ratio (z) = 0.11137 0.52392
#
# Static dielectric constant tensor:
#      x y z
#    x 1.604060 0.000000 0.000000 
#    y 0.000000 1.640170 0.000000 
#    z 0.000000 0.000000 1.602920 
# 
# From -- ./inp_files/22518.got.cif
#   From: 2010.05.17/outbox.cif.g08.bks.cpg/sg40_12_cif.got.tgz:22518.got - 2010.06.03 18:35:42.
