data_PCOD9362099
_publ_section_title
;
Structure prediction by ZEFSAII (Michael W. Deem and Ramdas Pophale) SiO2 
 PCOD9362099
Probable space group: A B M 2
;
_chemical_formula_sum "Si O2"
_cell_formula_units_Z 40
_cell_length_a 6.371533
_cell_length_b 23.019851
_cell_length_c 11.925632
_cell_angle_alpha 90.000000
_cell_angle_beta 90.000000
_cell_angle_gamma 90.000000
_cell_volume 1749.153200
_symmetry_space_group_name_H-M "A B M 2"
_symmetry_group_IT_number 39
_symmetry_cell_setting 'orthorhombic'
loop_
_space_group_symop_operation_xyz
x,y,z
-x,-y,z
-x,1/2+y,z
x,1/2-y,z
x,1/2+y,1/2+z
-x,1/2-y,1/2+z
-x,y,1/2+z
x,-y,1/2+z
loop_
_atom_site_type_symbol
_atom_site_label
_atom_site_fract_x
_atom_site_fract_y
_atom_site_fract_z
Si Si1 0.129250 0.058338 0.757050
Si Si2 0.440405 0.359517 0.643029
Si Si3 0.858952 0.750000 0.652193
Si Si4 0.029922 0.250000 0.413904
Si Si5 0.445734 0.937547 0.462588
Si Si6 0.763734 0.636791 0.331356
O O1 0.301001 0.083341 0.671640
O O2 0.257700 0.053425 0.874040
O O3 0.960135 0.109116 0.769348
O O4 0.000000 0.000000 0.729134
O O5 0.284969 0.306200 0.629329
O O6 0.591829 0.383578 0.545391
O O7 0.586861 0.342993 0.746112
O O8 0.033906 0.750000 0.548923
O O9 0.914361 0.750000 0.787725
O O10 0.160450 0.309108 0.402274
O O11 0.653766 0.914998 0.399102
O O12 0.500000 0.000000 0.513355
#
# Coordination Sequence:
#
# PCOD9362099 Si02
#       6
#     8   8   4   4   8   8
#     4  11  24  44  69 102 146 188 248 310 375 457
#     4  11  26  44  72 104 145 196 246 310 382 452
#     4  12  25  50  76 113 152 195 258 315 382 457
#     4  12  25  48  76 109 150 197 256 311 380 451
#     4  11  24  42  69 105 146 191 241 304 381 456
#     4  11  24  47  69 101 146 192 240 306 379 445
#
# _framework density 22.868207999999999
#
# number of rings (size 3 to 8) (size 9 to 14) (size 15 to 20)
#    0.000    0.800    6.000    0.600    2.800    3.200 
#    0.000    1.000    0.000    0.000    0.000    0.000 
#    0.000    0.000    0.000    0.000    0.000    0.000 
#
# Total GULP energy -111498.547988 kJ/mol
# GULP energy per Si atom -5574.927399 kJ/mol
# Density = 2.281616 g / cm^3
# Si number density = 22.868208 Si / 1000 Ang^3
#
#
#
# Elastic Constant Matrix: (Units=GPa)
#
#
# Indices 1 2 3 4 5 6 
#
# 1 45.3436 36.6189 1.6219 0.0000 0.0000 0.0000
# 2 36.6189 100.9406 36.7015 0.0000 0.0000 0.0000
# 3 1.6219 36.7015 84.2451 0.0000 0.0000 0.0000
# 4 0.0000 0.0000 0.0000 13.1612 0.0000 0.0000
# 5 0.0000 0.0000 0.0000 0.0000 -9.7942 0.0000
# 6 0.0000 0.0000 0.0000 0.0000 0.0000 85.6457
#
#
#
# Elastic Compliance Matrix: (Units=1/GPa)
#
#
# Indices 1 2 3 4 5 6 
#
# 1 0.033189 -0.014030 0.005473 0.000000 0.000000 0.000000
# 2 -0.014030 0.017702 -0.007442 0.000000 0.000000 0.000000
# 3 0.005473 -0.007442 0.015007 0.000000 0.000000 0.000000
# 4 0.000000 0.000000 0.000000 0.075981 0.000000 0.000000
# 5 0.000000 0.000000 0.000000 0.000000 -0.102101 0.000000
# 6 0.000000 0.000000 0.000000 0.000000 0.000000 0.011676
#
#
# Mechanical properties :
#
#
# Convention : Reuss Voigt Hill
#
# Bulk Modulus (GPa) = 29.49828 42.26823 35.88325
# Shear Modulus (GPa) = 52.76958 28.17499 40.47228
#
# Velocity S-wave (km/s) = 4.80891 3.51388 4.21147
# Velocity P-wave (km/s) = 6.61524 5.91495 6.27487
#
# Compressibility (1/GPa) = 0.03390029
#
# Stress axis : x y z
#
# Youngs Moduli (GPa) = 30.13083 56.48922 66.63610
#
# Poissons Ratio (x) = 0.79255 -0.36472
# Poissons Ratio (y) = 0.42274 0.49591
# Poissons Ratio (z) = -0.16491 0.42039
#
# Static dielectric constant tensor:
#      x y z
#    x 1.834030 0.000000 0.000000 
#    y 0.000000 1.844600 0.000000 
#    z 0.000000 0.000000 2.010890 
# 
# From -- ./inp_files/4555.got.cif
#   From: 2010.05.17/outbox.cif.g08.bks.cpg/sg39_3_cif.got.tgz:4555.got - 2010.06.03 18:22:40.
