data_PCOD9362973
_publ_section_title
;
Structure prediction by ZEFSAII (Michael W. Deem and Ramdas Pophale) SiO2 
 PCOD9362973
Probable space group: A M A 2
;
_chemical_formula_sum "Si O2"
_cell_formula_units_Z 64
_cell_length_a 8.746565
_cell_length_b 23.974957
_cell_length_c 19.527800
_cell_angle_alpha 90.000000
_cell_angle_beta 90.000000
_cell_angle_gamma 90.000000
_cell_volume 4094.950754
_symmetry_space_group_name_H-M "A M A 2"
_symmetry_group_IT_number 40
_symmetry_cell_setting 'orthorhombic'
loop_
_space_group_symop_operation_xyz
x,y,z
-x,-y,z
1/2-x,y,z
1/2+x,-y,z
x,1/2+y,1/2+z
-x,1/2-y,1/2+z
1/2-x,1/2+y,1/2+z
1/2+x,1/2-y,1/2+z
loop_
_atom_site_type_symbol
_atom_site_label
_atom_site_fract_x
_atom_site_fract_y
_atom_site_fract_z
Si Si1 0.566519 0.335161 0.362830
Si Si2 0.934502 0.114687 0.633778
Si Si3 0.931942 0.228358 0.984317
Si Si4 0.933338 0.769557 0.280596
Si Si5 0.932845 0.438928 0.271461
Si Si6 0.933638 0.245779 0.626686
Si Si7 0.566126 0.666735 0.901869
Si Si8 0.565875 0.560896 0.989013
O O1 0.750000 0.330203 0.365890
O O2 0.496320 0.320995 0.436605
O O3 0.502457 0.287277 0.312201
O O4 0.525419 0.394717 0.330703
O O5 0.750000 0.111813 0.639363
O O6 0.975729 0.180059 0.629521
O O7 0.981345 0.083779 0.563885
O O8 0.006216 0.085807 0.699859
O O9 0.750000 0.230772 0.978647
O O10 0.984741 0.226047 0.062576
O O11 0.003420 0.284854 0.951941
O O12 0.750000 0.767268 0.287715
O O13 0.970848 0.771924 0.200429
O O14 0.999709 0.818744 0.327495
O O15 0.750000 0.442139 0.268108
O O16 0.000000 0.500000 0.282933
O O17 0.750000 0.248430 0.616713
O O18 0.750000 0.670537 0.900860
O O19 0.520983 0.607209 0.933033
O O20 0.500000 0.500000 0.976463
O O21 0.750000 0.558145 0.989196
#
# Coordination Sequence:
#
# PCOD9362973 Si02
#       8
#     8   8   8   8   8   8   8   8
#     4  10  20  34  50  70  98 131 166 205 250 295
#     4  10  19  34  50  68 100 137 170 204 242 288
#     4  11  21  31  50  75  98 127 166 206 246 294
#     4  10  19  31  51  75  97 127 164 203 248 292
#     4  11  23  35  50  72  98 134 174 209 247 291
#     4  10  19  33  51  72 103 135 161 198 249 299
#     4  10  19  34  50  68  98 132 163 202 253 295
#     4  10  21  34  49  68  94 133 171 203 243 282
#
# _framework density 15.629004
#
# number of rings (size 3 to 8) (size 9 to 14) (size 15 to 20)
#    0.000    1.750    2.500    4.500    0.000    5.500 
#    0.000    0.000    0.000    0.000    0.000    0.875 
#    0.000    6.000    0.000    0.000    0.000    0.000 
#
# Total GULP energy -178643.334744 kJ/mol
# GULP energy per Si atom -5582.604211 kJ/mol
# Density = 1.559343 g / cm^3
# Si number density = 15.629004 Si / 1000 Ang^3
#
#
#
# Elastic Constant Matrix: (Units=GPa)
#
#
# Indices 1 2 3 4 5 6 
#
# 1 53.1859 39.3552 53.8866 0.0000 0.0000 0.0000
# 2 39.3552 111.9260 80.8700 0.0000 0.0000 0.0000
# 3 53.8866 80.8700 143.8589 0.0000 0.0000 0.0000
# 4 0.0000 0.0000 0.0000 19.6308 0.0000 0.0000
# 5 0.0000 0.0000 0.0000 0.0000 22.4438 0.0000
# 6 0.0000 0.0000 0.0000 0.0000 0.0000 11.9465
#
#
#
# Elastic Compliance Matrix: (Units=1/GPa)
#
#
# Indices 1 2 3 4 5 6 
#
# 1 0.031481 -0.004293 -0.009379 0.000000 0.000000 0.000000
# 2 -0.004293 0.015631 -0.007179 0.000000 0.000000 0.000000
# 3 -0.009379 -0.007179 0.014500 0.000000 0.000000 0.000000
# 4 0.000000 0.000000 0.000000 0.050940 0.000000 0.000000
# 5 0.000000 0.000000 0.000000 0.000000 0.044556 0.000000
# 6 0.000000 0.000000 0.000000 0.000000 0.000000 0.083706
#
#
# Mechanical properties :
#
#
# Convention : Reuss Voigt Hill
#
# Bulk Modulus (GPa) = 50.22429 73.02159 61.62294
# Shear Modulus (GPa) = 17.29193 19.79482 18.54337
#
# Velocity S-wave (km/s) = 3.32987 3.56271 3.44826
# Velocity P-wave (km/s) = 6.85486 7.98418 7.44098
#
# Compressibility (1/GPa) = 0.01991069
#
# Stress axis : x y z
#
# Youngs Moduli (GPa) = 31.76526 63.97617 68.96538
#
# Poissons Ratio (x) = 0.27463 0.64683
# Poissons Ratio (y) = 0.13636 0.49509
# Poissons Ratio (z) = 0.29793 0.45928
#
# Static dielectric constant tensor:
#      x y z
#    x 1.525420 0.000000 0.000000 
#    y 0.000000 1.500610 0.000000 
#    z 0.000000 0.000000 1.522740 
# 
# From -- ./inp_files/19728.got.cif
#   From: 2010.05.17/outbox.cif.g08.bks.cpg/sg40_10_cif.got.tgz:19728.got - 2010.06.03 18:35:42.
