data_PCOD9362684
_publ_section_title
;
Structure prediction by ZEFSAII (Michael W. Deem and Ramdas Pophale) SiO2 
 PCOD9362684
Probable space group: A M A 2
;
_chemical_formula_sum "Si O2"
_cell_formula_units_Z 64
_cell_length_a 18.151423
_cell_length_b 19.299611
_cell_length_c 10.223875
_cell_angle_alpha 90.000000
_cell_angle_beta 90.000000
_cell_angle_gamma 90.000000
_cell_volume 3581.580891
_symmetry_space_group_name_H-M "A M A 2"
_symmetry_group_IT_number 40
_symmetry_cell_setting 'orthorhombic'
loop_
_space_group_symop_operation_xyz
x,y,z
-x,-y,z
1/2-x,y,z
1/2+x,-y,z
x,1/2+y,1/2+z
-x,1/2-y,1/2+z
1/2-x,1/2+y,1/2+z
1/2+x,1/2-y,1/2+z
loop_
_atom_site_type_symbol
_atom_site_label
_atom_site_fract_x
_atom_site_fract_y
_atom_site_fract_z
Si Si1 0.339208 0.957330 0.200010
Si Si2 0.164341 0.876340 0.455804
Si Si3 0.831057 0.015683 0.689984
Si Si4 0.165554 0.378560 0.434448
Si Si5 0.920510 0.256853 0.569781
Si Si6 0.469546 0.299527 0.340740
Si Si7 0.338933 0.097882 0.070114
Si Si8 0.556181 0.939647 0.829740
O O1 0.250000 0.957382 0.209609
O O2 0.366303 0.912512 0.323654
O O3 0.358836 0.038541 0.178163
O O4 0.358780 0.917101 0.066642
O O5 0.250000 0.856958 0.431808
O O6 0.163220 0.936245 0.564393
O O7 0.124437 0.809963 0.517993
O O8 0.750000 0.982130 0.691547
O O9 0.835498 0.066206 0.816066
O O10 0.898326 0.963684 0.703595
O O11 0.250000 0.355565 0.450482
O O12 0.110757 0.317582 0.397305
O O13 0.959717 0.242689 0.707979
O O14 0.868611 0.324300 0.591154
O O15 0.979977 0.269983 0.455851
O O16 0.508088 0.372248 0.305168
O O17 0.250000 0.096772 0.053781
O O18 0.382329 0.074331 0.939790
O O19 0.500000 0.000000 0.870842
#
# Coordination Sequence:
#
# PCOD9362684 Si02
#       8
#     8   8   8   8   8   8   8   8
#     4   9  18  33  57  89 115 136 183 249 294 332
#     4  10  20  36  59  87 116 152 196 242 292 343
#     4  10  18  32  59  86 110 143 192 238 280 340
#     4  10  18  34  62  84 105 143 192 239 283 343
#     4  11  24  40  57  82 117 164 191 239 288 362
#     4  11  24  39  57  80 117 150 194 234 291 352
#     4  10  20  36  60  87 115 151 195 240 286 342
#     4  11  18  33  58  85 115 146 185 235 289 347
#
# _framework density 17.869204
#
# number of rings (size 3 to 8) (size 9 to 14) (size 15 to 20)
#    0.000    1.750    3.750    0.750    1.750    0.500 
#    2.250    0.000    0.000    0.750    0.000    0.000 
#    0.000    0.000    0.000    0.000    0.000    0.000 
#
# Total GULP energy -178378.136212 kJ/mol
# GULP energy per Si atom -5574.316757 kJ/mol
# Density = 1.782853 g / cm^3
# Si number density = 17.869204 Si / 1000 Ang^3
#
#
#
# Elastic Constant Matrix: (Units=GPa)
#
#
# Indices 1 2 3 4 5 6 
#
# 1 90.5899 39.6783 28.6434 0.0000 0.0000 0.0000
# 2 39.6783 69.9170 33.5564 0.0000 0.0000 0.0000
# 3 28.6434 33.5564 98.5846 0.0000 0.0000 0.0000
# 4 0.0000 0.0000 0.0000 17.8850 0.0000 0.0000
# 5 0.0000 0.0000 0.0000 0.0000 18.6277 0.0000
# 6 0.0000 0.0000 0.0000 0.0000 0.0000 3.8529
#
#
#
# Elastic Compliance Matrix: (Units=1/GPa)
#
#
# Indices 1 2 3 4 5 6 
#
# 1 0.014935 -0.007642 -0.001738 0.000000 0.000000 0.000000
# 2 -0.007642 0.021005 -0.004930 0.000000 0.000000 0.000000
# 3 -0.001738 -0.004930 0.012327 0.000000 0.000000 0.000000
# 4 0.000000 0.000000 0.000000 0.055913 0.000000 0.000000
# 5 0.000000 0.000000 0.000000 0.000000 0.053683 0.000000
# 6 0.000000 0.000000 0.000000 0.000000 0.000000 0.259542
#
#
# Mechanical properties :
#
#
# Convention : Reuss Voigt Hill
#
# Bulk Modulus (GPa) = 50.89532 51.42753 51.16143
# Shear Modulus (GPa) = 11.04791 18.55403 14.80097
#
# Velocity S-wave (km/s) = 2.48919 3.22580 2.88113
# Velocity P-wave (km/s) = 6.06675 6.53581 6.30564
#
# Compressibility (1/GPa) = 0.01964817
#
# Stress axis : x y z
#
# Youngs Moduli (GPa) = 66.95487 47.60710 81.12554
#
# Poissons Ratio (x) = 0.36380 0.14103
# Poissons Ratio (y) = 0.51164 0.39991
# Poissons Ratio (z) = 0.11639 0.23468
#
# Static dielectric constant tensor:
#      x y z
#    x 1.631460 0.000000 0.000000 
#    y 0.000000 1.618450 0.000000 
#    z 0.000000 0.000000 1.606770 
# 
# From -- ./inp_files/13247.got.cif
#   From: 2010.05.17/outbox.cif.g08.bks.cpg/sg40_7_cif.got.tgz:13247.got - 2010.06.03 18:35:42.
