data_PCOD9362524
_publ_section_title
;
Structure prediction by ZEFSAII (Michael W. Deem and Ramdas Pophale) SiO2 
 PCOD9362524
Probable space group: A M A 2
;
_chemical_formula_sum "Si O2"
_cell_formula_units_Z 64
_cell_length_a 8.718326
_cell_length_b 19.012662
_cell_length_c 26.879183
_cell_angle_alpha 90.000000
_cell_angle_beta 90.000000
_cell_angle_gamma 90.000000
_cell_volume 4455.455352
_symmetry_space_group_name_H-M "A M A 2"
_symmetry_group_IT_number 40
_symmetry_cell_setting 'orthorhombic'
loop_
_space_group_symop_operation_xyz
x,y,z
-x,-y,z
1/2-x,y,z
1/2+x,-y,z
x,1/2+y,1/2+z
-x,1/2-y,1/2+z
1/2-x,1/2+y,1/2+z
1/2+x,1/2-y,1/2+z
loop_
_atom_site_type_symbol
_atom_site_label
_atom_site_fract_x
_atom_site_fract_y
_atom_site_fract_z
Si Si1 0.934877 0.077819 0.674910
Si Si2 0.433304 0.786055 0.209926
Si Si3 0.567127 0.577101 0.660338
Si Si4 0.432919 0.423321 0.363462
Si Si5 0.066796 0.335379 0.561297
Si Si6 0.430821 0.290610 0.114927
Si Si7 0.433087 0.576919 0.472298
Si Si8 0.067325 0.157007 0.772019
O O1 0.750000 0.076909 0.679760
O O2 0.974325 0.129285 0.628495
O O3 0.005581 0.111991 0.725020
O O4 0.000000 0.000000 0.668592
O O5 0.250000 0.778891 0.198109
O O6 0.470227 0.868379 0.205013
O O7 0.529219 0.749040 0.166452
O O8 0.460165 0.739107 0.258502
O O9 0.500000 0.500000 0.664987
O O10 0.750000 0.570455 0.658363
O O11 0.520227 0.616119 0.608906
O O12 0.500000 0.500000 0.349506
O O13 0.250000 0.427734 0.366496
O O14 0.501257 0.406200 0.417655
O O15 0.485210 0.369008 0.321520
O O16 0.250000 0.339588 0.556517
O O17 0.018378 0.255553 0.574046
O O18 0.987396 0.367125 0.512910
O O19 0.250000 0.287515 0.104980
O O20 0.500000 0.500000 0.486066
O O21 0.250000 0.572593 0.470296
O O22 0.250000 0.145978 0.776297
#
# Coordination Sequence:
#
# PCOD9362524 Si02
#       8
#     8   8   8   8   8   8   8   8
#     4  10  19  29  42  62  87 114 145 178 213 254
#     4   8  16  29  42  57  81 111 141 173 210 253
#     4   9  17  27  40  60  84 111 141 171 204 244
#     4  11  21  33  46  62  85 111 142 178 214 251
#     4  10  19  31  45  61  84 115 147 176 212 254
#     4   9  17  28  42  61  83 108 141 179 213 248
#     4  11  21  33  47  64  86 112 144 179 214 249
#     4  10  18  30  46  61  81 112 146 178 214 253
#
# _framework density 14.364413000000001
#
# number of rings (size 3 to 8) (size 9 to 14) (size 15 to 20)
#    0.000    2.250    0.000    6.000    0.000    5.500 
#    0.000    0.000    0.000    0.000    0.000    0.000 
#    0.000    1.000    0.000    6.250    0.000    4.250 
#
# Total GULP energy -178318.462575 kJ/mol
# GULP energy per Si atom -5572.451955 kJ/mol
# Density = 1.433172 g / cm^3
# Si number density = 14.364413 Si / 1000 Ang^3
#
#
#
# Elastic Constant Matrix: (Units=GPa)
#
#
# Indices 1 2 3 4 5 6 
#
# 1 75.9489 33.7207 33.6184 0.0000 0.0000 0.0000
# 2 33.7207 100.6563 39.0183 0.0000 0.0000 0.0000
# 3 33.6184 39.0183 60.8349 0.0000 0.0000 0.0000
# 4 0.0000 0.0000 0.0000 22.1839 0.0000 0.0000
# 5 0.0000 0.0000 0.0000 0.0000 20.6480 0.0000
# 6 0.0000 0.0000 0.0000 0.0000 0.0000 22.3167
#
#
#
# Elastic Compliance Matrix: (Units=1/GPa)
#
#
# Indices 1 2 3 4 5 6 
#
# 1 0.018045 -0.002901 -0.008112 0.000000 0.000000 0.000000
# 2 -0.002901 0.013689 -0.007176 0.000000 0.000000 0.000000
# 3 -0.008112 -0.007176 0.025523 0.000000 0.000000 0.000000
# 4 0.000000 0.000000 0.000000 0.045078 0.000000 0.000000
# 5 0.000000 0.000000 0.000000 0.000000 0.048431 0.000000
# 6 0.000000 0.000000 0.000000 0.000000 0.000000 0.044809
#
#
# Mechanical properties :
#
#
# Convention : Reuss Voigt Hill
#
# Bulk Modulus (GPa) = 47.89434 50.01723 48.95579
# Shear Modulus (GPa) = 20.92813 21.76855 21.34834
#
# Velocity S-wave (km/s) = 3.82113 3.89710 3.85930
# Velocity P-wave (km/s) = 7.27206 7.42601 7.34944
#
# Compressibility (1/GPa) = 0.02087930
#
# Stress axis : x y z
#
# Youngs Moduli (GPa) = 55.41616 73.05400 39.17988
#
# Poissons Ratio (x) = 0.21193 0.31781
# Poissons Ratio (y) = 0.16076 0.28117
# Poissons Ratio (z) = 0.44951 0.52427
#
# Static dielectric constant tensor:
#      x y z
#    x 1.483730 0.000000 0.000000 
#    y 0.000000 1.491580 0.000000 
#    z 0.000000 0.000000 1.460710 
# 
# From -- ./inp_files/24388.got.cif
#   From: 2010.05.17/outbox.cif.g08.bks.cpg/sg40_13_cif.got.tgz:24388.got - 2010.06.03 18:35:42.
