data_PCOD9362819
_publ_section_title
;
Structure prediction by ZEFSAII (Michael W. Deem and Ramdas Pophale) SiO2 
 PCOD9362819
Probable space group: A M A 2
;
_chemical_formula_sum "Si O2"
_cell_formula_units_Z 48
_cell_length_a 17.984306
_cell_length_b 9.277256
_cell_length_c 15.357742
_cell_angle_alpha 90.000000
_cell_angle_beta 90.000000
_cell_angle_gamma 90.000000
_cell_volume 2562.362629
_symmetry_space_group_name_H-M "A M A 2"
_symmetry_group_IT_number 40
_symmetry_cell_setting 'orthorhombic'
loop_
_space_group_symop_operation_xyz
x,y,z
-x,-y,z
1/2-x,y,z
1/2+x,-y,z
x,1/2+y,1/2+z
-x,1/2-y,1/2+z
1/2-x,1/2+y,1/2+z
1/2+x,1/2-y,1/2+z
loop_
_atom_site_type_symbol
_atom_site_label
_atom_site_fract_x
_atom_site_fract_y
_atom_site_fract_z
Si Si1 0.932340 0.837424 0.804730
Si Si2 0.336009 0.237011 0.403581
Si Si3 0.335585 0.742871 0.568592
Si Si4 0.162685 0.404525 0.883664
Si Si5 0.081696 0.491827 0.489357
Si Si6 0.098714 0.869884 0.738322
O O1 0.887931 0.690018 0.818883
O O2 0.927684 0.920406 0.897961
O O3 0.017583 0.823222 0.774991
O O4 0.897877 0.956204 0.739787
O O5 0.250000 0.241436 0.432633
O O6 0.387991 0.334080 0.465625
O O7 0.343397 0.309348 0.308652
O O8 0.359311 0.071149 0.393079
O O9 0.250000 0.748798 0.595988
O O10 0.343157 0.832502 0.479107
O O11 0.360148 0.581009 0.545965
O O12 0.385894 0.807694 0.644089
O O13 0.250000 0.397893 0.857841
O O14 0.000000 0.500000 0.530540
#
# Coordination Sequence:
#
# PCOD9362819 Si02
#       6
#     8   8   8   8   8   8
#     4   9  18  37  57  81 111 148 196 229 275 340
#     4  10  19  35  60  84 110 148 191 235 281 339
#     4  10  21  37  57  83 114 148 186 232 286 338
#     4   9  20  37  58  85 112 146 192 234 283 339
#     4  10  18  38  57  81 110 148 195 231 274 340
#     4  10  19  36  55  83 114 146 189 233 281 340
#
# _framework density 18.732711999999999
#
# number of rings (size 3 to 8) (size 9 to 14) (size 15 to 20)
#    0.000    2.333    3.333    1.000    0.000    5.333 
#    9.000    0.000    0.000    4.000    0.000    0.000 
#    0.000    0.000    0.000    0.000    0.000    0.000 
#
# Total GULP energy -133796.931086 kJ/mol
# GULP energy per Si atom -5574.872129 kJ/mol
# Density = 1.869008 g / cm^3
# Si number density = 18.732712 Si / 1000 Ang^3
#
#
#
# Elastic Constant Matrix: (Units=GPa)
#
#
# Indices 1 2 3 4 5 6 
#
# 1 88.3276 74.4648 29.1108 0.0000 0.0000 0.0000
# 2 74.4648 149.9864 23.4330 0.0000 0.0000 0.0000
# 3 29.1108 23.4330 39.8921 0.0000 0.0000 0.0000
# 4 0.0000 0.0000 0.0000 12.4025 0.0000 0.0000
# 5 0.0000 0.0000 0.0000 0.0000 20.9174 0.0000
# 6 0.0000 0.0000 0.0000 0.0000 0.0000 24.2922
#
#
#
# Elastic Compliance Matrix: (Units=1/GPa)
#
#
# Indices 1 2 3 4 5 6 
#
# 1 0.023295 -0.009810 -0.011237 0.000000 0.000000 0.000000
# 2 -0.009810 0.011472 0.000420 0.000000 0.000000 0.000000
# 3 -0.011237 0.000420 0.033021 0.000000 0.000000 0.000000
# 4 0.000000 0.000000 0.000000 0.080629 0.000000 0.000000
# 5 0.000000 0.000000 0.000000 0.000000 0.047807 0.000000
# 6 0.000000 0.000000 0.000000 0.000000 0.000000 0.041165
#
#
# Mechanical properties :
#
#
# Convention : Reuss Voigt Hill
#
# Bulk Modulus (GPa) = 37.68710 59.13591 48.41151
# Shear Modulus (GPa) = 17.39199 21.60226 19.49712
#
# Velocity S-wave (km/s) = 3.05032 3.39954 3.22965
# Velocity P-wave (km/s) = 5.70683 6.85901 6.30927
#
# Compressibility (1/GPa) = 0.02653428
#
# Stress axis : x y z
#
# Youngs Moduli (GPa) = 42.92720 87.16804 30.28375
#
# Poissons Ratio (x) = 0.85512 0.34030
# Poissons Ratio (y) = 0.42111 -0.01272
# Poissons Ratio (z) = 0.48237 -0.03660
#
# Static dielectric constant tensor:
#      x y z
#    x 1.669620 0.000000 0.000000 
#    y 0.000000 1.655820 0.000000 
#    z 0.000000 0.000000 1.641870 
# 
# From -- ./inp_files/17645.got.cif
#   From: 2010.05.17/outbox.cif.g08.bks.cpg/sg40_9_cif.got.tgz:17645.got - 2010.06.03 18:35:42.
