data_PCOD9362440
_publ_section_title
;
Structure prediction by ZEFSAII (Michael W. Deem and Ramdas Pophale) SiO2 
 PCOD9362440
Probable space group: A M A 2
;
_chemical_formula_sum "Si O2"
_cell_formula_units_Z 56
_cell_length_a 8.694388
_cell_length_b 13.951827
_cell_length_c 30.316235
_cell_angle_alpha 90.000000
_cell_angle_beta 90.000000
_cell_angle_gamma 90.000000
_cell_volume 3677.438044
_symmetry_space_group_name_H-M "A M A 2"
_symmetry_group_IT_number 40
_symmetry_cell_setting 'orthorhombic'
loop_
_space_group_symop_operation_xyz
x,y,z
-x,-y,z
1/2-x,y,z
1/2+x,-y,z
x,1/2+y,1/2+z
-x,1/2-y,1/2+z
1/2-x,1/2+y,1/2+z
1/2+x,1/2-y,1/2+z
loop_
_atom_site_type_symbol
_atom_site_label
_atom_site_fract_x
_atom_site_fract_y
_atom_site_fract_z
Si Si1 0.434361 0.206249 0.664360
Si Si2 0.066172 0.708787 0.528699
Si Si3 0.934174 0.607856 0.249751
Si Si4 0.935477 0.108563 0.943093
Si Si5 0.434738 0.396412 0.613639
Si Si6 0.934857 0.395097 0.073264
Si Si7 0.434955 0.892501 0.846146
O O1 0.250000 0.201847 0.668842
O O2 0.508677 0.171333 0.709350
O O3 0.475898 0.313451 0.648716
O O4 0.477225 0.137569 0.623192
O O5 0.250000 0.708217 0.529301
O O6 0.003839 0.671770 0.482128
O O7 0.003061 0.638290 0.566929
O O8 0.003196 0.813671 0.541479
O O9 0.750000 0.601700 0.248450
O O10 0.981710 0.647813 0.298281
O O11 0.000000 0.500000 0.245265
O O12 0.750000 0.105343 0.946498
O O13 0.979438 0.147588 0.894139
O O14 0.000000 0.000000 0.946903
O O15 0.500000 0.500000 0.625184
O O16 0.250000 0.399204 0.609986
O O17 0.750000 0.393941 0.070163
O O18 0.000000 0.500000 0.064247
O O19 0.250000 0.896295 0.846171
O O20 0.500000 0.000000 0.846053
#
# Coordination Sequence:
#
# PCOD9362440 Si02
#       7
#     8   8   8   8   8   8   8
#     4   9  19  32  46  66  91 119 150 182 219 264
#     4  11  21  32  47  68  92 120 154 186 223 268
#     4  10  18  28  44  66  92 121 152 184 221 264
#     4  10  18  30  46  65  92 122 152 186 225 268
#     4  10  20  34  49  66  90 119 152 188 226 267
#     4  10  20  34  49  67  92 121 153 188 225 264
#     4   8  16  28  42  62  88 118 149 182 221 265
#
# _framework density 15.227992
#
# number of rings (size 3 to 8) (size 9 to 14) (size 15 to 20)
#    0.000    2.286    0.000    4.714    0.000    5.714 
#    0.000    0.000    0.000    0.000    0.000    1.000 
#    0.000    2.286    0.000    0.000    0.000    0.000 
#
# Total GULP energy -156079.092987 kJ/mol
# GULP energy per Si atom -5574.253321 kJ/mol
# Density = 1.519333 g / cm^3
# Si number density = 15.227992 Si / 1000 Ang^3
#
#
#
# Elastic Constant Matrix: (Units=GPa)
#
#
# Indices 1 2 3 4 5 6 
#
# 1 60.2250 36.2876 50.2453 0.0000 0.0000 0.0000
# 2 36.2876 91.3159 66.6687 0.0000 0.0000 0.0000
# 3 50.2453 66.6687 165.8803 0.0000 0.0000 0.0000
# 4 0.0000 0.0000 0.0000 21.0819 0.0000 0.0000
# 5 0.0000 0.0000 0.0000 0.0000 19.5370 0.0000
# 6 0.0000 0.0000 0.0000 0.0000 0.0000 24.9062
#
#
#
# Elastic Compliance Matrix: (Units=1/GPa)
#
#
# Indices 1 2 3 4 5 6 
#
# 1 0.024395 -0.006085 -0.004944 0.000000 0.000000 0.000000
# 2 -0.006085 0.017017 -0.004996 0.000000 0.000000 0.000000
# 3 -0.004944 -0.004996 0.009534 0.000000 0.000000 0.000000
# 4 0.000000 0.000000 0.000000 0.047434 0.000000 0.000000
# 5 0.000000 0.000000 0.000000 0.000000 0.051185 0.000000
# 6 0.000000 0.000000 0.000000 0.000000 0.000000 0.040151
#
#
# Mechanical properties :
#
#
# Convention : Reuss Voigt Hill
#
# Bulk Modulus (GPa) = 52.92024 69.31382 61.11703
# Shear Modulus (GPa) = 21.92372 24.05300 22.98836
#
# Velocity S-wave (km/s) = 3.79845 3.97864 3.88959
# Velocity P-wave (km/s) = 7.35289 8.16837 7.77134
#
# Compressibility (1/GPa) = 0.01889636
#
# Stress axis : x y z
#
# Youngs Moduli (GPa) = 40.99140 58.76626 104.88947
#
# Poissons Ratio (x) = 0.35759 0.51855
# Poissons Ratio (y) = 0.24943 0.52402
# Poissons Ratio (z) = 0.20265 0.29359
#
# Static dielectric constant tensor:
#      x y z
#    x 1.519810 0.000000 0.000000 
#    y 0.000000 1.476130 0.000000 
#    z 0.000000 0.000000 1.529550 
# 
# From -- ./inp_files/26413.got.cif
#   From: 2010.05.17/outbox.cif.g08.bks.cpg/sg40_14_cif.got.tgz:26413.got - 2010.06.03 18:35:42.
