data_PCOD9362699
_publ_section_title
;
Structure prediction by ZEFSAII (Michael W. Deem and Ramdas Pophale) SiO2 
 PCOD9362699
Probable space group: A M A 2
;
_chemical_formula_sum "Si O2"
_cell_formula_units_Z 64
_cell_length_a 16.164905
_cell_length_b 12.608846
_cell_length_c 17.048880
_cell_angle_alpha 90.000000
_cell_angle_beta 90.000000
_cell_angle_gamma 90.000000
_cell_volume 3474.916322
_symmetry_space_group_name_H-M "A M A 2"
_symmetry_group_IT_number 40
_symmetry_cell_setting 'orthorhombic'
loop_
_space_group_symop_operation_xyz
x,y,z
-x,-y,z
1/2-x,y,z
1/2+x,-y,z
x,1/2+y,1/2+z
-x,1/2-y,1/2+z
1/2-x,1/2+y,1/2+z
1/2+x,1/2-y,1/2+z
loop_
_atom_site_type_symbol
_atom_site_label
_atom_site_fract_x
_atom_site_fract_y
_atom_site_fract_z
Si Si1 0.657571 0.387882 0.590090
Si Si2 0.654865 0.698166 0.203106
Si Si3 0.504053 0.204726 0.013389
Si Si4 0.070705 0.925563 0.562073
Si Si5 0.152053 0.043892 0.415308
Si Si6 0.434953 0.912036 0.277664
Si Si7 0.655604 0.637609 0.622634
Si Si8 0.561513 0.750760 0.354779
O O1 0.750000 0.356496 0.559093
O O2 0.647697 0.319041 0.669822
O O3 0.576848 0.359556 0.540278
O O4 0.658572 0.512563 0.603098
O O5 0.750000 0.676552 0.219424
O O6 0.624447 0.624900 0.131568
O O7 0.603993 0.691488 0.282736
O O8 0.473765 0.326710 0.019120
O O9 0.583587 0.188503 0.069313
O O10 0.529198 0.178725 0.925029
O O11 0.117862 0.994319 0.496352
O O12 0.000000 0.000000 0.597256
O O13 0.250000 0.039786 0.415907
O O14 0.115822 0.973217 0.344467
O O15 0.122065 0.163066 0.396177
O O16 0.376943 0.862081 0.211702
O O17 0.488125 0.820662 0.318245
O O18 0.500000 0.000000 0.243728
O O19 0.750000 0.679491 0.613501
#
# Coordination Sequence:
#
# PCOD9362699 Si02
#       8
#     8   8   8   8   8   8   8   8
#     4   9  19  37  61  88 113 147 199 247 301 366
#     4  10  21  36  60  88 117 154 198 253 308 365
#     4  11  21  37  58  82 118 158 199 246 301 355
#     4  11  20  40  57  83 118 159 207 242 300 375
#     4  11  20  33  58  88 120 150 191 253 305 360
#     4  10  18  33  54  83 114 148 183 233 302 364
#     4  11  22  36  57  89 120 154 193 244 307 369
#     4  11  21  36  55  83 119 152 201 244 301 354
#
# _framework density 18.41771
#
# number of rings (size 3 to 8) (size 9 to 14) (size 15 to 20)
#    0.000    1.500    2.500    5.625    0.000    2.500 
#    0.000    1.250    0.000    0.000    0.000    0.000 
#    0.000    0.000    0.000    0.000    0.000    0.000 
#
# Total GULP energy -178590.328335 kJ/mol
# GULP energy per Si atom -5580.947760 kJ/mol
# Density = 1.837579 g / cm^3
# Si number density = 18.417710 Si / 1000 Ang^3
#
#
#
# Elastic Constant Matrix: (Units=GPa)
#
#
# Indices 1 2 3 4 5 6 
#
# 1 140.7794 9.3810 52.9566 0.0000 0.0000 0.0000
# 2 9.3810 14.0958 1.0239 0.0000 0.0000 0.0000
# 3 52.9566 1.0239 106.1981 0.0000 0.0000 0.0000
# 4 0.0000 0.0000 0.0000 12.8291 0.0000 0.0000
# 5 0.0000 0.0000 0.0000 0.0000 18.4521 0.0000
# 6 0.0000 0.0000 0.0000 0.0000 0.0000 11.7318
#
#
#
# Elastic Compliance Matrix: (Units=1/GPa)
#
#
# Indices 1 2 3 4 5 6 
#
# 1 0.009192 -0.005789 -0.004528 0.000000 0.000000 0.000000
# 2 -0.005789 0.074638 0.002167 0.000000 0.000000 0.000000
# 3 -0.004528 0.002167 0.011653 0.000000 0.000000 0.000000
# 4 0.000000 0.000000 0.000000 0.077948 0.000000 0.000000
# 5 0.000000 0.000000 0.000000 0.000000 0.054194 0.000000
# 6 0.000000 0.000000 0.000000 0.000000 0.000000 0.085238
#
#
# Mechanical properties :
#
#
# Convention : Reuss Voigt Hill
#
# Bulk Modulus (GPa) = 12.62878 43.08847 27.85863
# Shear Modulus (GPa) = 14.06237 21.78338 17.92288
#
# Velocity S-wave (km/s) = 2.76619 3.44283 3.12289
# Velocity P-wave (km/s) = 4.13209 6.26498 5.30680
#
# Compressibility (1/GPa) = 0.07918419
#
# Stress axis : x y z
#
# Youngs Moduli (GPa) = 108.78620 13.39800 85.81179
#
# Poissons Ratio (x) = 0.07756 0.38856
# Poissons Ratio (y) = 0.62973 -0.18595
# Poissons Ratio (z) = 0.49259 -0.02903
#
# Static dielectric constant tensor:
#      x y z
#    x 1.658490 0.000000 0.000000 
#    y 0.000000 1.648560 0.000000 
#    z 0.000000 0.000000 1.640400 
# 
# From -- ./inp_files/20773.got.cif
#   From: 2010.05.17/outbox.cif.g08.bks.cpg/sg40_11_cif.got.tgz:20773.got - 2010.06.03 18:35:42.
