data_PCOD9362188
_publ_section_title
;
Structure prediction by ZEFSAII (Michael W. Deem and Ramdas Pophale) SiO2 
 PCOD9362188
Probable space group: A B M 2
;
_chemical_formula_sum "Si O2"
_cell_formula_units_Z 28
_cell_length_a 21.000000
_cell_length_b 9.000000
_cell_length_c 15.000000
_cell_angle_alpha 90.000000
_cell_angle_beta 90.000000
_cell_angle_gamma 90.000000
_cell_volume 2835.000000
_symmetry_space_group_name_H-M "A B M 2"
_symmetry_group_IT_number 39
_symmetry_cell_setting 'orthorhombic'
loop_
_space_group_symop_operation_xyz
x,y,z
-x,-y,z
-x,1/2+y,z
x,1/2-y,z
x,1/2+y,1/2+z
-x,1/2-y,1/2+z
-x,y,1/2+z
x,-y,1/2+z
loop_
_atom_site_type_symbol
_atom_site_label
_atom_site_fract_x
_atom_site_fract_y
_atom_site_fract_z
Si Si1 0.930823 0.071404 0.187490
Si Si2 0.695041 0.581279 0.790803
Si Si3 0.841061 0.570350 0.526877
Si Si4 0.436416 0.418554 0.540704
Si Si5 0.297911 0.420195 0.579621
Si Si6 0.563337 0.083368 0.826059
Si Si7 0.166377 0.070699 0.845645
O O1 0.938237 0.250000 0.186042
O O2 0.893187 0.024062 0.098842
O O3 0.880771 0.034795 0.265287
O O4 0.000000 0.000000 0.197144
O O5 0.685529 0.750000 0.823892
O O6 0.707964 0.587809 0.685617
O O7 0.630107 0.494000 0.805500
O O8 0.760374 0.519289 0.831812
O O9 0.838071 0.750000 0.529164
O O10 0.768703 0.514612 0.545926
O O11 0.859957 0.507012 0.432497
O O12 0.500000 0.500000 0.573107
O O13 0.435777 0.250000 0.577352
O O14 0.367108 0.489716 0.559851
O O15 0.441072 0.410983 0.433641
O O16 0.302031 0.250000 0.543416
O O17 0.563684 0.250000 0.790588
O O18 0.500000 0.000000 0.793928
O O19 0.168781 0.250000 0.853071
#
# Coordination Sequence:
#
# PCOD9362188 Si02
#       7
#     8   8   8   8   8   8   8
#     4  10  22  41  63  88 121 157 193 235 289 350
#     4  10  19  34  56  79 108 146 186 234 288 342
#     4  10  20  38  63  87 114 154 199 239 285 346
#     4   9  18  32  50  71  99 136 179 226 275 327
#     4   9  17  33  56  78 104 143 187 229 280 339
#     4  10  20  34  51  75 106 143 188 238 288 343
#     4  10  21  38  60  88 120 155 194 239 291 347
#
# _framework density 9.8765429999999999
#
# number of rings (size 3 to 8) (size 9 to 14) (size 15 to 20)
#    0.000    2.286    1.429    1.286    0.000    4.571 
#    0.000    6.429    0.000    0.000    0.000    0.000 
#    0.000    0.000    0.000    0.000    0.000    0.000 
#
# Total GULP energy -156109.684989 kJ/mol
# GULP energy per Si atom -5575.345892 kJ/mol
# Density = 0.985406 g / cm^3
# Si number density = 9.876543 Si / 1000 Ang^3
#
#
#
# Elastic Constant Matrix: (Units=GPa)
#
#
# Indices 1 2 3 4 5 6 
#
# 1 153.4658 54.3747 33.0384 0.0000 0.0000 0.0000
# 2 54.3747 32.5141 27.5736 0.0000 0.0000 0.0000
# 3 33.0384 27.5736 61.0496 0.0000 0.0000 0.0000
# 4 0.0000 0.0000 0.0000 14.8067 0.0000 0.0000
# 5 0.0000 0.0000 0.0000 0.0000 21.7142 0.0000
# 6 0.0000 0.0000 0.0000 0.0000 0.0000 29.1798
#
#
#
# Elastic Compliance Matrix: (Units=1/GPa)
#
#
# Indices 1 2 3 4 5 6 
#
# 1 0.017243 -0.033912 0.005985 0.000000 0.000000 0.000000
# 2 -0.033912 0.116545 -0.034286 0.000000 0.000000 0.000000
# 3 0.005985 -0.034286 0.028627 0.000000 0.000000 0.000000
# 4 0.000000 0.000000 0.000000 0.067537 0.000000 0.000000
# 5 0.000000 0.000000 0.000000 0.000000 0.046053 0.000000
# 6 0.000000 0.000000 0.000000 0.000000 0.000000 0.034270
#
#
# Mechanical properties :
#
#
# Convention : Reuss Voigt Hill
#
# Bulk Modulus (GPa) = 26.32372 53.00034 39.66203
# Shear Modulus (GPa) = 11.17656 21.94299 16.55978
#
# Velocity S-wave (km/s) = 2.38126 3.33658 2.89855
# Velocity P-wave (km/s) = 4.57339 6.46014 5.59684
#
# Compressibility (1/GPa) = 0.03798855
#
# Stress axis : x y z
#
# Youngs Moduli (GPa) = 57.99436 8.58035 34.93223
#
# Poissons Ratio (x) = 0.29098 -0.20908
# Poissons Ratio (y) = 1.96671 1.19770
# Poissons Ratio (z) = -0.34711 0.29419
#
# Static dielectric constant tensor:
#      x y z
#    x 1.684100 0.000000 0.000000 
#    y 0.000000 1.708260 0.000000 
#    z 0.000000 0.000000 1.722580 
# 
# From -- ./inp_files/10333.got.cif
#   From: 2010.05.17/outbox.ucp.g08.bks.cvg/sg39_6_cif.got.tgz:10333.got - 2010.06.11 10:41:16.
