data_PCOD9362073
_publ_section_title
;
Structure prediction by ZEFSAII (Michael W. Deem and Ramdas Pophale) SiO2 
 PCOD9362073
Probable space group: A B M 2
;
_chemical_formula_sum "Si O2"
_cell_formula_units_Z 48
_cell_length_a 9.525426
_cell_length_b 16.628289
_cell_length_c 14.159320
_cell_angle_alpha 90.000000
_cell_angle_beta 90.000000
_cell_angle_gamma 90.000000
_cell_volume 2242.716449
_symmetry_space_group_name_H-M "A B M 2"
_symmetry_group_IT_number 39
_symmetry_cell_setting 'orthorhombic'
loop_
_space_group_symop_operation_xyz
x,y,z
-x,-y,z
-x,1/2+y,z
x,1/2-y,z
x,1/2+y,1/2+z
-x,1/2-y,1/2+z
-x,y,1/2+z
x,-y,1/2+z
loop_
_atom_site_type_symbol
_atom_site_label
_atom_site_fract_x
_atom_site_fract_y
_atom_site_fract_z
Si Si1 0.473719 0.095548 0.584520
Si Si2 0.938747 0.658265 0.282598
Si Si3 0.433669 0.655926 0.282126
Si Si4 0.205655 0.655057 0.583484
Si Si5 0.691170 0.902769 0.392851
Si Si6 0.816047 0.081522 0.389727
O O1 0.395317 0.124717 0.678432
O O2 0.627934 0.135725 0.585441
O O3 0.382844 0.115433 0.492218
O O4 0.500000 0.000000 0.584971
O O5 0.993113 0.750000 0.275611
O O6 0.867825 0.635173 0.182985
O O7 0.815971 0.654789 0.360606
O O8 0.058491 0.598146 0.317597
O O9 0.468835 0.750000 0.279449
O O10 0.568313 0.606120 0.316112
O O11 0.310211 0.638795 0.355423
O O12 0.187731 0.750000 0.568175
O O13 0.142232 0.606892 0.495357
O O14 0.755097 0.992039 0.391505
#
# Coordination Sequence:
#
# PCOD9362073 Si02
#       6
#     8   8   8   8   8   8
#     4  12  23  42  69 105 139 178 235 293 352 423
#     4  11  26  46  70 101 142 187 235 292 359 430
#     4  12  25  41  70 104 139 183 235 292 355 421
#     4  11  23  43  72 102 139 186 234 293 360 419
#     4  12  24  44  69 105 138 184 237 291 352 422
#     4  12  25  46  70 102 142 185 237 294 356 430
#
# _framework density 21.402615999999998
#
# number of rings (size 3 to 8) (size 9 to 14) (size 15 to 20)
#    0.000    0.333    5.000    4.500    0.000    3.333 
#    0.000    1.667    0.000    0.000    0.000    0.000 
#    0.000    0.000    0.000    0.000    0.000    0.000 
#
# Total GULP energy -134338.678153 kJ/mol
# GULP energy per Si atom -5597.444923 kJ/mol
# Density = 2.135390 g / cm^3
# Si number density = 21.402616 Si / 1000 Ang^3
#
#
#
# Elastic Constant Matrix: (Units=GPa)
#
#
# Indices 1 2 3 4 5 6 
#
# 1 85.0048 19.8063 29.3910 0.0000 0.0000 0.0000
# 2 19.8063 78.0664 44.9681 0.0000 0.0000 0.0000
# 3 29.3910 44.9681 133.9978 0.0000 0.0000 0.0000
# 4 0.0000 0.0000 0.0000 42.5663 0.0000 0.0000
# 5 0.0000 0.0000 0.0000 0.0000 38.1914 0.0000
# 6 0.0000 0.0000 0.0000 0.0000 0.0000 29.1997
#
#
#
# Elastic Compliance Matrix: (Units=1/GPa)
#
#
# Indices 1 2 3 4 5 6 
#
# 1 0.012989 -0.002051 -0.002161 0.000000 0.000000 0.000000
# 2 -0.002051 0.016203 -0.004988 0.000000 0.000000 0.000000
# 3 -0.002161 -0.004988 0.009611 0.000000 0.000000 0.000000
# 4 0.000000 0.000000 0.000000 0.023493 0.000000 0.000000
# 5 0.000000 0.000000 0.000000 0.000000 0.026184 0.000000
# 6 0.000000 0.000000 0.000000 0.000000 0.000000 0.034247
#
#
# Mechanical properties :
#
#
# Convention : Reuss Voigt Hill
#
# Bulk Modulus (GPa) = 49.01007 53.93331 51.47169
# Shear Modulus (GPa) = 33.80070 35.51839 34.65955
#
# Velocity S-wave (km/s) = 3.97833 4.07816 4.02855
# Velocity P-wave (km/s) = 6.63714 6.88689 6.76317
#
# Compressibility (1/GPa) = 0.02040397
#
# Stress axis : x y z
#
# Youngs Moduli (GPa) = 76.98830 61.71714 104.05210
#
# Poissons Ratio (x) = 0.12657 0.22483
# Poissons Ratio (y) = 0.15789 0.51898
# Poissons Ratio (z) = 0.16635 0.30783
#
# Static dielectric constant tensor:
#      x y z
#    x 1.771790 0.000000 0.000000 
#    y 0.000000 1.747240 0.000000 
#    z 0.000000 0.000000 1.787860 
# 
# From -- ./inp_files/8379.got.cif
#   From: 2010.05.17/outbox.cif.g08.bks.cpg/sg39_5_cif.got.tgz:8379.got - 2010.06.03 18:22:40.
