data_PCOD9362326
_publ_section_title
;
Structure prediction by ZEFSAII (Michael W. Deem and Ramdas Pophale) SiO2 
 PCOD9362326
Probable space group: A M A 2
;
_chemical_formula_sum "Si O2"
_cell_formula_units_Z 64
_cell_length_a 16.278782
_cell_length_b 12.682589
_cell_length_c 16.352768
_cell_angle_alpha 90.000000
_cell_angle_beta 90.000000
_cell_angle_gamma 90.000000
_cell_volume 3376.145083
_symmetry_space_group_name_H-M "A M A 2"
_symmetry_group_IT_number 40
_symmetry_cell_setting 'orthorhombic'
loop_
_space_group_symop_operation_xyz
x,y,z
-x,-y,z
1/2-x,y,z
1/2+x,-y,z
x,1/2+y,1/2+z
-x,1/2-y,1/2+z
1/2-x,1/2+y,1/2+z
1/2+x,1/2-y,1/2+z
loop_
_atom_site_type_symbol
_atom_site_label
_atom_site_fract_x
_atom_site_fract_y
_atom_site_fract_z
Si Si1 0.845048 0.582455 0.758940
Si Si2 0.405738 0.965823 0.935829
Si Si3 0.904673 0.454554 0.605005
Si Si4 0.589598 0.241010 0.700123
Si Si5 0.397058 0.708229 0.185731
Si Si6 0.150669 0.618777 0.848507
Si Si7 0.898996 0.014603 0.750957
Si Si8 0.846031 0.250150 0.000829
O O1 0.750000 0.589954 0.777353
O O2 0.858889 0.527774 0.670673
O O3 0.875892 0.700607 0.750540
O O4 0.880552 0.497174 0.822598
O O5 0.370674 0.978135 0.845303
O O6 0.500000 0.000000 0.928530
O O7 0.398416 0.845892 0.965322
O O8 0.372285 0.030870 0.013246
O O9 0.892594 0.334601 0.635425
O O10 0.000000 0.500000 0.607740
O O11 0.494935 0.215338 0.684155
O O12 0.608811 0.297484 0.787016
O O13 0.626806 0.123123 0.705848
O O14 0.367621 0.592957 0.211527
O O15 0.363776 0.733339 0.095714
O O16 0.250000 0.624128 0.833813
O O17 0.136614 0.650528 0.942084
O O18 0.000000 0.000000 0.750355
O O19 0.750000 0.222931 0.990626
#
# Coordination Sequence:
#
# PCOD9362326 Si02
#       8
#     8   8   8   8   8   8   8   8
#     4  10  19  33  53  81 111 141 184 239 286 329
#     4  10  18  33  53  84 111 147 190 240 285 336
#     4  10  17  29  54  83 109 141 187 237 282 334
#     4  10  18  35  55  80 117 148 191 233 285 351
#     4  11  20  34  56  82 117 151 189 236 291 344
#     4   9  20  35  57  82 111 148 191 239 286 340
#     4   9  20  34  53  77 115 153 185 230 288 340
#     4  11  21  37  59  86 116 154 199 242 287 351
#
# _framework density 18.956530999999998
#
# number of rings (size 3 to 8) (size 9 to 14) (size 15 to 20)
#    0.000    2.000    3.750    1.125    0.000    0.000 
#    0.000    3.750    5.500    0.000    0.000    0.000 
#    0.000    0.000    0.000    0.000    0.000    0.000 
#
# Total GULP energy -178201.232126 kJ/mol
# GULP energy per Si atom -5568.788504 kJ/mol
# Density = 1.891339 g / cm^3
# Si number density = 18.956531 Si / 1000 Ang^3
#
#
#
# Elastic Constant Matrix: (Units=GPa)
#
#
# Indices 1 2 3 4 5 6 
#
# 1 7.1812 2.2671 4.3599 0.0000 0.0000 0.0000
# 2 2.2671 167.0230 52.9567 0.0000 0.0000 0.0000
# 3 4.3599 52.9567 73.9941 0.0000 0.0000 0.0000
# 4 0.0000 0.0000 0.0000 30.0803 0.0000 0.0000
# 5 0.0000 0.0000 0.0000 0.0000 4.3912 0.0000
# 6 0.0000 0.0000 0.0000 0.0000 0.0000 -0.8419
#
#
#
# Elastic Compliance Matrix: (Units=1/GPa)
#
#
# Indices 1 2 3 4 5 6 
#
# 1 0.144536 0.000955 -0.009200 0.000000 0.000000 0.000000
# 2 0.000955 0.007751 -0.005604 0.000000 0.000000 0.000000
# 3 -0.009200 -0.005604 0.018067 0.000000 0.000000 0.000000
# 4 0.000000 0.000000 0.000000 0.033244 0.000000 0.000000
# 5 0.000000 0.000000 0.000000 0.000000 0.227729 0.000000
# 6 0.000000 0.000000 0.000000 0.000000 0.000000 -1.187763
#
#
# Mechanical properties :
#
#
# Convention : Reuss Voigt Hill
#
# Bulk Modulus (GPa) = 7.00980 40.81842 23.91411
# Shear Modulus (GPa) = -7.34014 19.30021 5.98003
#
# Velocity S-wave (km/s) = -1.96990 3.19428 1.77805
# Velocity P-wave (km/s) = 1.21167 5.93160 4.10584
#
# Compressibility (1/GPa) = 0.14265745
#
# Stress axis : x y z
#
# Youngs Moduli (GPa) = 6.91868 129.01730 55.34936
#
# Poissons Ratio (x) = -0.12323 0.50921
# Poissons Ratio (y) = -0.00661 0.31015
# Poissons Ratio (z) = 0.06365 0.72295
#
# Static dielectric constant tensor:
#      x y z
#    x 1.666660 0.000000 0.000000 
#    y 0.000000 1.704570 0.000000 
#    z 0.000000 0.000000 1.652860 
# 
# From -- ./inp_files/21199.got.cif
#   From: 2010.05.17/outbox.cif.g08.bks.cpg/sg40_11_cif.got.tgz:21199.got - 2010.06.03 18:35:42.
