data_PCOD9362444
_publ_section_title
;
Structure prediction by ZEFSAII (Michael W. Deem and Ramdas Pophale) SiO2 
 PCOD9362444
Probable space group: A M A 2
;
_chemical_formula_sum "Si O2"
_cell_formula_units_Z 64
_cell_length_a 8.690800
_cell_length_b 14.670840
_cell_length_c 30.165130
_cell_angle_alpha 90.000000
_cell_angle_beta 90.000000
_cell_angle_gamma 90.000000
_cell_volume 3846.094384
_symmetry_space_group_name_H-M "A M A 2"
_symmetry_group_IT_number 40
_symmetry_cell_setting 'orthorhombic'
loop_
_space_group_symop_operation_xyz
x,y,z
-x,-y,z
1/2-x,y,z
1/2+x,-y,z
x,1/2+y,1/2+z
-x,1/2-y,1/2+z
1/2-x,1/2+y,1/2+z
1/2+x,1/2-y,1/2+z
loop_
_atom_site_type_symbol
_atom_site_label
_atom_site_fract_x
_atom_site_fract_y
_atom_site_fract_z
Si Si1 0.434637 0.292648 0.955120
Si Si2 0.577816 0.909682 0.052231
Si Si3 0.933828 0.897082 0.273999
Si Si4 0.568580 0.241280 0.102984
Si Si5 0.568155 0.100760 0.363727
Si Si6 0.935832 0.397464 0.041200
Si Si7 0.578447 0.908673 0.946749
Si Si8 0.564206 0.103849 0.180373
O O1 0.250000 0.283710 0.964519
O O2 0.454544 0.348380 0.909965
O O3 0.496766 0.191050 0.944664
O O4 0.507771 0.344344 0.996977
O O5 0.750000 0.895095 0.069948
O O6 0.468821 0.825608 0.062216
O O7 0.500000 0.000000 0.071333
O O8 0.591355 0.921910 0.999785
O O9 0.750000 0.898448 0.270803
O O10 0.987815 0.854819 0.320627
O O11 0.007462 0.861847 0.228494
O O12 0.000000 0.000000 0.276376
O O13 0.750000 0.251003 0.110138
O O14 0.511821 0.338914 0.084720
O O15 0.511032 0.179238 0.144153
O O16 0.750000 0.094640 0.354620
O O17 0.500000 0.000000 0.369363
O O18 0.750000 0.399732 0.040746
O O19 0.000000 0.500000 0.041367
O O20 0.750000 0.902185 0.927571
O O21 0.500000 0.000000 0.928930
O O22 0.750000 0.097480 0.179054
O O23 0.500000 0.000000 0.174119
#
# Coordination Sequence:
#
# PCOD9362444 Si02
#       8
#     8   8   8   8   8   8   8   8
#     4  10  20  35  52  73  99 131 171 208 245 291
#     4  10  18  28  45  65  93 125 158 196 235 279
#     4  10  18  30  48  71 100 129 160 195 241 293
#     4  10  21  34  48  69  95 127 166 202 239 289
#     4  10  19  31  49  71  99 131 165 203 244 289
#     4  11  23  37  52  70  96 130 168 209 252 290
#     4   9  18  31  46  67  94 126 161 198 240 284
#     4  10  19  32  49  72 102 131 161 195 239 291
#
# _framework density 16.640256999999998
#
# number of rings (size 3 to 8) (size 9 to 14) (size 15 to 20)
#    0.000    2.000    1.250    4.875    0.000    5.500 
#    0.000    0.000    0.000    0.000    0.000    0.875 
#    0.000    0.000    0.000    0.000    0.000    0.000 
#
# Total GULP energy -178144.756171 kJ/mol
# GULP energy per Si atom -5567.023630 kJ/mol
# Density = 1.660238 g / cm^3
# Si number density = 16.640257 Si / 1000 Ang^3
#
#
#
# Elastic Constant Matrix: (Units=GPa)
#
#
# Indices 1 2 3 4 5 6 
#
# 1 44.6457 25.1983 37.8081 0.0000 0.0000 0.0000
# 2 25.1983 117.0730 40.1785 0.0000 0.0000 0.0000
# 3 37.8081 40.1785 77.9162 0.0000 0.0000 0.0000
# 4 0.0000 0.0000 0.0000 16.0078 0.0000 0.0000
# 5 0.0000 0.0000 0.0000 0.0000 18.2689 0.0000
# 6 0.0000 0.0000 0.0000 0.0000 0.0000 16.5486
#
#
#
# Elastic Compliance Matrix: (Units=1/GPa)
#
#
# Indices 1 2 3 4 5 6 
#
# 1 0.038517 -0.002279 -0.017515 0.000000 0.000000 0.000000
# 2 -0.002279 0.010513 -0.004315 0.000000 0.000000 0.000000
# 3 -0.017515 -0.004315 0.023558 0.000000 0.000000 0.000000
# 4 0.000000 0.000000 0.000000 0.062470 0.000000 0.000000
# 5 0.000000 0.000000 0.000000 0.000000 0.054738 0.000000
# 6 0.000000 0.000000 0.000000 0.000000 0.000000 0.060428
#
#
# Mechanical properties :
#
#
# Convention : Reuss Voigt Hill
#
# Bulk Modulus (GPa) = 41.03372 49.55606 45.29489
# Shear Modulus (GPa) = 16.30965 19.26172 17.78569
#
# Velocity S-wave (km/s) = 3.13410 3.40595 3.27285
# Velocity P-wave (km/s) = 6.14895 6.73148 6.44680
#
# Compressibility (1/GPa) = 0.02437020
#
# Stress axis : x y z
#
# Youngs Moduli (GPa) = 25.96224 95.11815 42.44766
#
# Poissons Ratio (x) = 0.21681 0.74346
# Poissons Ratio (y) = 0.05918 0.18317
# Poissons Ratio (z) = 0.45472 0.41046
#
# Static dielectric constant tensor:
#      x y z
#    x 1.588790 0.000000 0.000000 
#    y 0.000000 1.582080 0.000000 
#    z 0.000000 0.000000 1.600090 
# 
# From -- ./inp_files/26493.got.cif
#   From: 2010.05.17/outbox.cif.g08.bks.cpg/sg40_14_cif.got.tgz:26493.got - 2010.06.03 18:35:42.
