data_PCOD9362587
_publ_section_title
;
Structure prediction by ZEFSAII (Michael W. Deem and Ramdas Pophale) SiO2 
 PCOD9362587
Probable space group: A M A 2
;
_chemical_formula_sum "Si O2"
_cell_formula_units_Z 56
_cell_length_a 9.486207
_cell_length_b 19.086374
_cell_length_c 17.956332
_cell_angle_alpha 90.000000
_cell_angle_beta 90.000000
_cell_angle_gamma 90.000000
_cell_volume 3251.124894
_symmetry_space_group_name_H-M "A M A 2"
_symmetry_group_IT_number 40
_symmetry_cell_setting 'orthorhombic'
loop_
_space_group_symop_operation_xyz
x,y,z
-x,-y,z
1/2-x,y,z
1/2+x,-y,z
x,1/2+y,1/2+z
-x,1/2-y,1/2+z
1/2-x,1/2+y,1/2+z
1/2+x,1/2-y,1/2+z
loop_
_atom_site_type_symbol
_atom_site_label
_atom_site_fract_x
_atom_site_fract_y
_atom_site_fract_z
Si Si1 0.585345 0.808844 0.526310
Si Si2 0.081960 0.926407 0.438621
Si Si3 0.591880 0.435395 0.571213
Si Si4 0.089775 0.565826 0.392212
Si Si5 0.588831 0.679131 0.805973
Si Si6 0.085606 0.793182 0.886358
Si Si7 0.587513 0.190003 0.129961
O O1 0.750000 0.831377 0.524976
O O2 0.486186 0.871532 0.497883
O O3 0.570192 0.745886 0.465984
O O4 0.555014 0.769837 0.604595
O O5 0.250000 0.935014 0.451063
O O6 0.063970 0.889269 0.357292
O O7 0.000000 0.000000 0.441501
O O8 0.500000 0.500000 0.600415
O O9 0.750000 0.437916 0.601081
O O10 0.598601 0.441895 0.481901
O O11 0.516445 0.363384 0.590436
O O12 0.250000 0.567442 0.363531
O O13 0.000000 0.500000 0.363477
O O14 0.006430 0.637411 0.379624
O O15 0.750000 0.702283 0.824549
O O16 0.475475 0.736384 0.829742
O O17 0.580987 0.673154 0.717383
O O18 0.250000 0.808587 0.875460
O O19 0.750000 0.177614 0.105538
#
# Coordination Sequence:
#
# PCOD9362587 Si02
#       7
#     8   8   8   8   8   8   8
#     4   9  18  32  53  77 101 133 172 215 260 307
#     4  10  20  35  55  78 105 137 177 220 263 313
#     4  10  20  31  46  70 102 136 169 205 245 295
#     4  10  19  30  47  71  99 130 165 205 249 297
#     4   9  20  35  52  75 104 139 172 209 260 315
#     4  10  18  31  51  74 100 131 169 213 254 302
#     4  10  19  34  53  75 106 140 174 213 261 313
#
# _framework density 17.224806999999998
#
# number of rings (size 3 to 8) (size 9 to 14) (size 15 to 20)
#    0.000    2.286    1.429    1.714    0.000    4.000 
#    0.000    1.429    0.000    0.857    0.000    4.000 
#    0.000    0.000    0.000    0.000    0.000    0.000 
#
# Total GULP energy -156018.705937 kJ/mol
# GULP energy per Si atom -5572.096641 kJ/mol
# Density = 1.718560 g / cm^3
# Si number density = 17.224807 Si / 1000 Ang^3
#
#
#
# Elastic Constant Matrix: (Units=GPa)
#
#
# Indices 1 2 3 4 5 6 
#
# 1 144.2347 91.8286 23.6615 0.0000 0.0000 0.0000
# 2 91.8286 125.9487 18.4007 0.0000 0.0000 0.0000
# 3 23.6615 18.4007 30.0625 0.0000 0.0000 0.0000
# 4 0.0000 0.0000 0.0000 9.7950 0.0000 0.0000
# 5 0.0000 0.0000 0.0000 0.0000 22.9241 0.0000
# 6 0.0000 0.0000 0.0000 0.0000 0.0000 34.5895
#
#
#
# Elastic Compliance Matrix: (Units=1/GPa)
#
#
# Indices 1 2 3 4 5 6 
#
# 1 0.013615 -0.009182 -0.005096 0.000000 0.000000 0.000000
# 2 -0.009182 0.014912 -0.001900 0.000000 0.000000 0.000000
# 3 -0.005096 -0.001900 0.038438 0.000000 0.000000 0.000000
# 4 0.000000 0.000000 0.000000 0.102093 0.000000 0.000000
# 5 0.000000 0.000000 0.000000 0.000000 0.043622 0.000000
# 6 0.000000 0.000000 0.000000 0.000000 0.000000 0.028911
#
#
# Mechanical properties :
#
#
# Convention : Reuss Voigt Hill
#
# Bulk Modulus (GPa) = 28.89473 63.11419 46.00446
# Shear Modulus (GPa) = 17.51412 24.55204 21.03308
#
# Velocity S-wave (km/s) = 3.19218 3.77953 3.49820
# Velocity P-wave (km/s) = 5.51346 7.46776 6.56375
#
# Compressibility (1/GPa) = 0.03460839
#
# Stress axis : x y z
#
# Youngs Moduli (GPa) = 73.44809 67.05979 26.01594
#
# Poissons Ratio (x) = 0.61576 0.13257
# Poissons Ratio (y) = 0.67441 0.04944
# Poissons Ratio (z) = 0.37428 0.12743
#
# Static dielectric constant tensor:
#      x y z
#    x 1.576060 0.000000 0.000000 
#    y 0.000000 1.573070 0.000000 
#    z 0.000000 0.000000 1.598840 
# 
# From -- ./inp_files/19499.got.cif
#   From: 2010.05.17/outbox.cif.g08.bks.cpg/sg40_10_cif.got.tgz:19499.got - 2010.06.03 18:35:42.
