data_PCOD9362799
_publ_section_title
;
Structure prediction by ZEFSAII (Michael W. Deem and Ramdas Pophale) SiO2 
 PCOD9362799
Probable space group: A M A 2
;
_chemical_formula_sum "Si O2"
_cell_formula_units_Z 56
_cell_length_a 19.748670
_cell_length_b 16.087627
_cell_length_c 9.718506
_cell_angle_alpha 90.000000
_cell_angle_beta 90.000000
_cell_angle_gamma 90.000000
_cell_volume 3087.659123
_symmetry_space_group_name_H-M "A M A 2"
_symmetry_group_IT_number 40
_symmetry_cell_setting 'orthorhombic'
loop_
_space_group_symop_operation_xyz
x,y,z
-x,-y,z
1/2-x,y,z
1/2+x,-y,z
x,1/2+y,1/2+z
-x,1/2-y,1/2+z
1/2-x,1/2+y,1/2+z
1/2+x,1/2-y,1/2+z
loop_
_atom_site_type_symbol
_atom_site_label
_atom_site_fract_x
_atom_site_fract_y
_atom_site_fract_z
Si Si1 0.454565 0.610819 0.654840
Si Si2 0.587342 0.705792 0.226183
Si Si3 0.671592 0.624373 0.456731
Si Si4 0.398184 0.436042 0.729948
Si Si5 0.469189 0.592340 0.327891
Si Si6 0.826073 0.962651 0.759637
Si Si7 0.671104 0.592785 0.020618
O O1 0.423242 0.698613 0.692844
O O2 0.406721 0.533268 0.692079
O O3 0.525303 0.598314 0.734383
O O4 0.471384 0.605744 0.492246
O O5 0.629823 0.689078 0.365135
O O6 0.516343 0.658405 0.251232
O O7 0.628060 0.660791 0.103828
O O8 0.750000 0.647731 0.464810
O O9 0.639944 0.609026 0.605034
O O10 0.667625 0.537092 0.372187
O O11 0.359643 0.422802 0.871679
O O12 0.500000 0.500000 0.300635
O O13 0.390973 0.594710 0.282221
O O14 0.750000 0.926919 0.772215
O O15 0.832073 0.009517 0.613781
O O16 0.750000 0.617184 0.013954
#
# Coordination Sequence:
#
# PCOD9362799 Si02
#       7
#     8   8   8   8   8   8   8
#     4  11  23  38  60  95 123 150 213 264 304 360
#     4  11  23  38  64  88 123 161 201 260 309 365
#     4  10  18  36  62  86 115 161 203 240 303 367
#     4  11  21  39  63  88 123 160 206 257 304 365
#     4  12  18  40  65  92 115 161 214 256 300 377
#     4   9  18  35  61  87 115 156 205 244 294 369
#     4  10  22  39  59  91 125 158 201 252 312 368
#
# _framework density 18.136716
#
# number of rings (size 3 to 8) (size 9 to 14) (size 15 to 20)
#    0.000    1.429    7.143    1.714    2.000    2.286 
#    0.000    4.286    0.000    1.714    0.000    0.000 
#    0.000    0.000    0.000    0.000    0.000    0.000 
#
# Total GULP energy -156355.076529 kJ/mol
# GULP energy per Si atom -5584.109876 kJ/mol
# Density = 1.809544 g / cm^3
# Si number density = 18.136716 Si / 1000 Ang^3
#
#
#
# Elastic Constant Matrix: (Units=GPa)
#
#
# Indices 1 2 3 4 5 6 
#
# 1 131.1609 41.9047 38.8299 0.0000 0.0000 0.0000
# 2 41.9047 72.7422 19.8680 0.0000 0.0000 0.0000
# 3 38.8299 19.8680 117.0188 0.0000 0.0000 0.0000
# 4 0.0000 0.0000 0.0000 11.2793 0.0000 0.0000
# 5 0.0000 0.0000 0.0000 0.0000 28.8266 0.0000
# 6 0.0000 0.0000 0.0000 0.0000 0.0000 8.8355
#
#
#
# Elastic Compliance Matrix: (Units=1/GPa)
#
#
# Indices 1 2 3 4 5 6 
#
# 1 0.009970 -0.005075 -0.002447 0.000000 0.000000 0.000000
# 2 -0.005075 0.016999 -0.001202 0.000000 0.000000 0.000000
# 3 -0.002447 -0.001202 0.009562 0.000000 0.000000 0.000000
# 4 0.000000 0.000000 0.000000 0.088658 0.000000 0.000000
# 5 0.000000 0.000000 0.000000 0.000000 0.034690 0.000000
# 6 0.000000 0.000000 0.000000 0.000000 0.000000 0.113179
#
#
# Mechanical properties :
#
#
# Convention : Reuss Voigt Hill
#
# Bulk Modulus (GPa) = 52.40288 58.01414 55.20851
# Shear Modulus (GPa) = 16.84253 24.47622 20.65938
#
# Velocity S-wave (km/s) = 3.05067 3.67759 3.37870
# Velocity P-wave (km/s) = 6.43154 7.07739 6.76218
#
# Compressibility (1/GPa) = 0.01908292
#
# Stress axis : x y z
#
# Youngs Moduli (GPa) = 100.30069 58.82630 104.58510
#
# Poissons Ratio (x) = 0.29856 0.25588
# Poissons Ratio (y) = 0.50905 0.12572
# Poissons Ratio (z) = 0.24540 0.07072
#
# Static dielectric constant tensor:
#      x y z
#    x 1.634740 0.000000 0.000000 
#    y 0.000000 1.595810 0.000000 
#    z 0.000000 0.000000 1.602740 
# 
# From -- ./inp_files/8317.got.cif
#   From: 2010.05.17/outbox.cif.g08.bks.cpg/sg40_5_cif.got.tgz:8317.got - 2010.06.03 18:35:42.
