data_PCOD9362870
_publ_section_title
;
Structure prediction by ZEFSAII (Michael W. Deem and Ramdas Pophale) SiO2 
 PCOD9362870
Probable space group: A M A 2
;
_chemical_formula_sum "Si O2"
_cell_formula_units_Z 56
_cell_length_a 8.834053
_cell_length_b 19.020863
_cell_length_c 21.362250
_cell_angle_alpha 90.000000
_cell_angle_beta 90.000000
_cell_angle_gamma 90.000000
_cell_volume 3589.526892
_symmetry_space_group_name_H-M "A M A 2"
_symmetry_group_IT_number 40
_symmetry_cell_setting 'orthorhombic'
loop_
_space_group_symop_operation_xyz
x,y,z
-x,-y,z
1/2-x,y,z
1/2+x,-y,z
x,1/2+y,1/2+z
-x,1/2-y,1/2+z
1/2-x,1/2+y,1/2+z
1/2+x,1/2-y,1/2+z
loop_
_atom_site_type_symbol
_atom_site_label
_atom_site_fract_x
_atom_site_fract_y
_atom_site_fract_z
Si Si1 0.431474 0.423761 0.047810
Si Si2 0.930625 0.076265 0.042807
Si Si3 0.931352 0.217456 0.988390
Si Si4 0.070356 0.784968 0.611922
Si Si5 0.931127 0.155798 0.172257
Si Si6 0.567894 0.922055 0.291295
Si Si7 0.931087 0.354317 0.923210
O O1 0.500000 0.500000 0.059512
O O2 0.250000 0.427245 0.044759
O O3 0.472697 0.366343 0.101174
O O4 0.491925 0.394611 0.981142
O O5 0.750000 0.068644 0.043865
O O6 0.968783 0.134890 0.990014
O O7 0.974741 0.110720 0.109969
O O8 0.000000 0.000000 0.033984
O O9 0.750000 0.222184 0.002606
O O10 0.024210 0.250506 0.045589
O O11 0.960170 0.270566 0.931314
O O12 0.250000 0.780313 0.621774
O O13 0.985712 0.735774 0.661423
O O14 0.750000 0.153669 0.177023
O O15 0.006613 0.121441 0.232501
O O16 0.750000 0.925382 0.288825
O O17 0.522210 0.885189 0.356592
O O18 0.500000 0.000000 0.289233
O O19 0.750000 0.364467 0.929373
#
# Coordination Sequence:
#
# PCOD9362870 Si02
#       7
#     8   8   8   8   8   8   8
#     4  10  19  29  45  69  95 121 149 184 227 271
#     4   9  17  27  42  64  88 113 142 176 218 263
#     4   8  15  29  45  62  86 117 150 182 221 270
#     4   9  17  29  45  66  89 114 147 187 226 266
#     4  10  20  33  47  63  87 122 155 185 223 268
#     4  11  22  33  46  66  91 121 155 189 223 263
#     4   9  18  32  48  64  88 122 156 189 225 265
#
# _framework density 15.600942
#
# number of rings (size 3 to 8) (size 9 to 14) (size 15 to 20)
#    0.000    2.571    0.000    3.429    0.000    8.000 
#    0.000    0.000    0.000    0.000    0.000    1.000 
#    0.000    2.286    0.000    0.000    0.000    0.000 
#
# Total GULP energy -155932.927729 kJ/mol
# GULP energy per Si atom -5569.033133 kJ/mol
# Density = 1.556543 g / cm^3
# Si number density = 15.600942 Si / 1000 Ang^3
#
#
#
# Elastic Constant Matrix: (Units=GPa)
#
#
# Indices 1 2 3 4 5 6 
#
# 1 31.5615 43.7776 28.6485 0.0000 0.0000 0.0000
# 2 43.7776 166.7300 63.7996 0.0000 0.0000 0.0000
# 3 28.6485 63.7996 71.9556 0.0000 0.0000 0.0000
# 4 0.0000 0.0000 0.0000 24.2643 0.0000 0.0000
# 5 0.0000 0.0000 0.0000 0.0000 15.3605 0.0000
# 6 0.0000 0.0000 0.0000 0.0000 0.0000 27.8796
#
#
#
# Elastic Compliance Matrix: (Units=1/GPa)
#
#
# Indices 1 2 3 4 5 6 
#
# 1 0.058514 -0.009761 -0.014642 0.000000 0.000000 0.000000
# 2 -0.009761 0.010706 -0.005606 0.000000 0.000000 0.000000
# 3 -0.014642 -0.005606 0.024698 0.000000 0.000000 0.000000
# 4 0.000000 0.000000 0.000000 0.041213 0.000000 0.000000
# 5 0.000000 0.000000 0.000000 0.000000 0.065102 0.000000
# 6 0.000000 0.000000 0.000000 0.000000 0.000000 0.035868
#
#
# Mechanical properties :
#
#
# Convention : Reuss Voigt Hill
#
# Bulk Modulus (GPa) = 29.49941 60.29984 44.89962
# Shear Modulus (GPa) = 16.26442 22.43563 19.35003
#
# Velocity S-wave (km/s) = 3.23232 3.79634 3.52563
# Velocity P-wave (km/s) = 5.73414 7.61259 6.73913
#
# Compressibility (1/GPa) = 0.03389899
#
# Stress axis : x y z
#
# Youngs Moduli (GPa) = 17.08991 93.40760 40.48932
#
# Poissons Ratio (x) = 0.91174 0.59286
# Poissons Ratio (y) = 0.16681 0.22699
# Poissons Ratio (z) = 0.25024 0.52365
#
# Static dielectric constant tensor:
#      x y z
#    x 1.523000 0.000000 0.000000 
#    y 0.000000 1.550360 0.000000 
#    z 0.000000 0.000000 1.503390 
# 
# From -- ./inp_files/22299.got.cif
#   From: 2010.05.17/outbox.cif.g08.bks.cpg/sg40_12_cif.got.tgz:22299.got - 2010.06.03 18:35:42.
