data_PCOD9362194
_publ_section_title
;
Structure prediction by ZEFSAII (Michael W. Deem and Ramdas Pophale) SiO2 
 PCOD9362194
Probable space group: A B M 2
;
_chemical_formula_sum "Si O2"
_cell_formula_units_Z 32
_cell_length_a 15.000000
_cell_length_b 18.000000
_cell_length_c 12.000000
_cell_angle_alpha 90.000000
_cell_angle_beta 90.000000
_cell_angle_gamma 90.000000
_cell_volume 3240.000000
_symmetry_space_group_name_H-M "A B M 2"
_symmetry_group_IT_number 39
_symmetry_cell_setting 'orthorhombic'
loop_
_space_group_symop_operation_xyz
x,y,z
-x,-y,z
-x,1/2+y,z
x,1/2-y,z
x,1/2+y,1/2+z
-x,1/2-y,1/2+z
-x,y,1/2+z
x,-y,1/2+z
loop_
_atom_site_type_symbol
_atom_site_label
_atom_site_fract_x
_atom_site_fract_y
_atom_site_fract_z
Si Si1 0.687606 0.402689 0.022200
Si Si2 0.869978 0.836891 0.550443
Si Si3 0.376489 0.062904 0.281206
Si Si4 0.857983 0.834685 0.805162
Si Si5 0.566298 0.893093 0.731874
Si Si6 0.241453 0.061785 0.100888
Si Si7 0.049005 0.078377 0.994781
Si Si8 0.330125 0.830765 0.427456
O O1 0.776507 0.356765 0.992132
O O2 0.622802 0.372544 0.120948
O O3 0.732261 0.478721 0.066426
O O4 0.630828 0.418151 0.911253
O O5 0.878718 0.750000 0.544080
O O6 0.855437 0.858985 0.678716
O O7 0.965918 0.868855 0.520148
O O8 0.459280 0.104803 0.221852
O O9 0.280497 0.075525 0.223660
O O10 0.400913 0.976382 0.263581
O O11 0.894559 0.750000 0.814403
O O12 0.757974 0.831410 0.850289
O O13 0.910887 0.893079 0.878884
O O14 0.591477 0.846756 0.841294
O O15 0.136509 0.076696 0.076240
O O16 0.304441 0.110862 0.020970
O O17 0.000000 0.000000 0.989466
O O18 0.340887 0.750000 0.479412
#
# Coordination Sequence:
#
# PCOD9362194 Si02
#       8
#     8   8   8   8   8   8   8   8
#     4  11  21  39  64  93 128 160 206 262 309 370
#     4  11  23  40  61  90 125 164 206 254 317 376
#     4  10  23  37  64  94 129 162 200 264 317 369
#     4   9  20  38  59  84 117 163 210 252 304 366
#     4  10  21  36  62  96 122 160 209 253 309 374
#     4  10  22  40  60  92 128 162 212 254 316 370
#     4  11  22  37  60  93 123 163 211 262 309 366
#     4  10  19  37  63  85 119 165 209 255 300 371
#
# _framework density 9.8765429999999999
#
# number of rings (size 3 to 8) (size 9 to 14) (size 15 to 20)
#    0.000    1.750    3.750    0.375    1.750    3.000 
#    0.000    1.875    0.000    0.000    0.000    0.000 
#    0.000    0.000    0.000    0.000    0.000    0.000 
#
# Total GULP energy -178271.175790 kJ/mol
# GULP energy per Si atom -5570.974243 kJ/mol
# Density = 0.985406 g / cm^3
# Si number density = 9.876543 Si / 1000 Ang^3
#
#
#
# Elastic Constant Matrix: (Units=GPa)
#
#
# Indices 1 2 3 4 5 6 
#
# 1 103.2630 33.5548 22.1717 0.0000 0.0000 0.0000
# 2 33.5548 29.0601 23.5553 0.0000 0.0000 0.0000
# 3 22.1717 23.5553 41.6943 0.0000 0.0000 0.0000
# 4 0.0000 0.0000 0.0000 20.8785 0.0000 0.0000
# 5 0.0000 0.0000 0.0000 0.0000 16.9662 0.0000
# 6 0.0000 0.0000 0.0000 0.0000 0.0000 21.6006
#
#
#
# Elastic Compliance Matrix: (Units=1/GPa)
#
#
# Indices 1 2 3 4 5 6 
#
# 1 0.015773 -0.021056 0.003508 0.000000 0.000000 0.000000
# 2 -0.021056 0.091592 -0.040548 0.000000 0.000000 0.000000
# 3 0.003508 -0.040548 0.045026 0.000000 0.000000 0.000000
# 4 0.000000 0.000000 0.000000 0.047896 0.000000 0.000000
# 5 0.000000 0.000000 0.000000 0.000000 0.058941 0.000000
# 6 0.000000 0.000000 0.000000 0.000000 0.000000 0.046295
#
#
# Mechanical properties :
#
#
# Convention : Reuss Voigt Hill
#
# Bulk Modulus (GPa) = 27.62514 36.95344 32.28929
# Shear Modulus (GPa) = 11.52656 18.20476 14.86566
#
# Velocity S-wave (km/s) = 2.41826 3.03911 2.74628
# Velocity P-wave (km/s) = 4.67043 5.57344 5.14179
#
# Compressibility (1/GPa) = 0.03619891
#
# Stress axis : x y z
#
# Youngs Moduli (GPa) = 63.40010 10.91803 22.20924
#
# Poissons Ratio (x) = 0.22989 -0.07792
# Poissons Ratio (y) = 1.33496 0.90054
# Poissons Ratio (z) = -0.22242 0.44270
#
# Static dielectric constant tensor:
#      x y z
#    x 1.917450 0.000000 0.000000 
#    y 0.000000 1.736560 0.000000 
#    z 0.000000 0.000000 1.709130 
# 
# From -- ./inp_files/6660.got.cif
#   From: 2010.05.17/outbox.ucp.g08.bks.cvg/sg39_4_cif.got.tgz:6660.got - 2010.06.11 10:41:16.
