data_PCOD9362168
_publ_section_title
;
Structure prediction by ZEFSAII (Michael W. Deem and Ramdas Pophale) SiO2 
 PCOD9362168
Probable space group: A B M 2
;
_chemical_formula_sum "Si O2"
_cell_formula_units_Z 40
_cell_length_a 11.139837
_cell_length_b 11.283203
_cell_length_c 12.700897
_cell_angle_alpha 90.000000
_cell_angle_beta 90.000000
_cell_angle_gamma 90.000000
_cell_volume 1596.414383
_symmetry_space_group_name_H-M "A B M 2"
_symmetry_group_IT_number 39
_symmetry_cell_setting 'orthorhombic'
loop_
_space_group_symop_operation_xyz
x,y,z
-x,-y,z
-x,1/2+y,z
x,1/2-y,z
x,1/2+y,1/2+z
-x,1/2-y,1/2+z
-x,y,1/2+z
x,-y,1/2+z
loop_
_atom_site_type_symbol
_atom_site_label
_atom_site_fract_x
_atom_site_fract_y
_atom_site_fract_z
Si Si1 0.429711 0.878152 0.493380
Si Si2 0.830767 0.623817 0.622183
Si Si3 0.033444 0.877493 0.804369
Si Si4 0.415261 0.384097 0.752639
Si Si5 0.812824 0.876781 0.109642
O O1 0.496685 0.750000 0.496760
O O2 0.376224 0.886030 0.375390
O O3 0.325363 0.872025 0.578413
O O4 0.500000 0.000000 0.507881
O O5 0.830403 0.750000 0.565542
O O6 0.701291 0.611615 0.678799
O O7 0.853240 0.501826 0.561819
O O8 0.932164 0.627640 0.712059
O O9 0.029833 0.750000 0.858826
O O10 0.155450 0.884655 0.734072
O O11 0.000000 0.000000 0.859594
O O12 0.500000 0.500000 0.739742
O O13 0.469464 0.250000 0.737862
O O14 0.864987 0.750000 0.073621
#
# Coordination Sequence:
#
# PCOD9362168 Si02
#       5
#     8   8   8   8   8
#     4   9  18  32  48  67  93 125 159 193 230 274
#     4   9  17  29  47  69  92 120 154 193 235 278
#     4   8  14  26  44  64  86 114 148 186 228 270
#     4   9  18  32  48  67  93 125 159 193 230 274
#     4   9  17  29  47  69  92 120 154 193 235 278
#
# _framework density 25.056149999999999
#
# number of rings (size 3 to 8) (size 9 to 14) (size 15 to 20)
#    0.000    3.200    0.000    0.000    0.000    2.400 
#    0.000    4.000    0.000   10.800    0.000   11.200 
#    0.000    0.000    0.000    0.000    0.000    0.000 
#
# Total GULP energy -111432.073740 kJ/mol
# GULP energy per Si atom -5571.603687 kJ/mol
# Density = 2.499912 g / cm^3
# Si number density = 25.056150 Si / 1000 Ang^3
#
#
#
# Elastic Constant Matrix: (Units=GPa)
#
#
# Indices 1 2 3 4 5 6 
#
# 1 81.2998 51.2753 37.9974 0.0000 0.0000 0.0000
# 2 51.2753 347.4408 30.0017 0.0000 0.0000 0.0000
# 3 37.9974 30.0017 85.2123 0.0000 0.0000 0.0000
# 4 0.0000 0.0000 0.0000 -24.2808 0.0000 0.0000
# 5 0.0000 0.0000 0.0000 0.0000 28.6182 0.0000
# 6 0.0000 0.0000 0.0000 0.0000 0.0000 28.3591
#
#
#
# Elastic Compliance Matrix: (Units=1/GPa)
#
#
# Indices 1 2 3 4 5 6 
#
# 1 0.016641 -0.001872 -0.006761 0.000000 0.000000 0.000000
# 2 -0.001872 0.003179 -0.000285 0.000000 0.000000 0.000000
# 3 -0.006761 -0.000285 0.014851 0.000000 0.000000 0.000000
# 4 0.000000 0.000000 0.000000 -0.041185 0.000000 0.000000
# 5 0.000000 0.000000 0.000000 0.000000 0.034943 0.000000
# 6 0.000000 0.000000 0.000000 0.000000 0.000000 0.035262
#
#
# Mechanical properties :
#
#
# Convention : Reuss Voigt Hill
#
# Bulk Modulus (GPa) = 59.40094 83.61130 71.50612
# Shear Modulus (GPa) = 57.38050 32.85122 45.11586
#
# Velocity S-wave (km/s) = 4.79067 3.62485 4.24794
# Velocity P-wave (km/s) = 7.37287 7.13872 7.25674
#
# Compressibility (1/GPa) = 0.01683475
#
# Stress axis : x y z
#
# Youngs Moduli (GPa) = 60.09299 314.56144 67.33766
#
# Poissons Ratio (x) = 0.58886 0.45529
# Poissons Ratio (y) = 0.11250 0.01916
# Poissons Ratio (z) = 0.40631 0.08950
#
# Static dielectric constant tensor:
#      x y z
#    x 1.961920 0.000000 0.000000 
#    y 0.000000 2.135250 0.000000 
#    z 0.000000 0.000000 1.912190 
# 
# From -- ./inp_files/9037.got.cif
#   From: 2010.05.17/outbox.cif.g08.bks.cpg/sg39_5_cif.got.tgz:9037.got - 2010.06.03 18:22:40.
