data_PCOD9362620
_publ_section_title
;
Structure prediction by ZEFSAII (Michael W. Deem and Ramdas Pophale) SiO2 
 PCOD9362620
Probable space group: A M A 2
;
_chemical_formula_sum "Si O2"
_cell_formula_units_Z 48
_cell_length_a 17.367029
_cell_length_b 17.692564
_cell_length_c 8.894621
_cell_angle_alpha 90.000000
_cell_angle_beta 90.000000
_cell_angle_gamma 90.000000
_cell_volume 2733.025931
_symmetry_space_group_name_H-M "A M A 2"
_symmetry_group_IT_number 40
_symmetry_cell_setting 'orthorhombic'
loop_
_space_group_symop_operation_xyz
x,y,z
-x,-y,z
1/2-x,y,z
1/2+x,-y,z
x,1/2+y,1/2+z
-x,1/2-y,1/2+z
1/2-x,1/2+y,1/2+z
1/2+x,1/2-y,1/2+z
loop_
_atom_site_type_symbol
_atom_site_label
_atom_site_fract_x
_atom_site_fract_y
_atom_site_fract_z
Si Si1 0.511176 0.916519 0.926310
Si Si2 0.838751 0.184179 0.387610
Si Si3 0.939037 0.725809 0.601491
Si Si4 0.427301 0.345150 0.168387
Si Si5 0.663490 0.852461 0.028703
Si Si6 0.160198 0.723634 0.834689
O O1 0.469089 0.909552 0.764748
O O2 0.500000 0.000000 0.989133
O O3 0.474143 0.847527 0.020030
O O4 0.601663 0.899029 0.935336
O O5 0.750000 0.157859 0.372881
O O6 0.883011 0.196295 0.231753
O O7 0.891607 0.137642 0.505371
O O8 0.835857 0.268156 0.459911
O O9 0.892269 0.776428 0.481564
O O10 0.008413 0.778517 0.658633
O O11 0.358070 0.305695 0.261197
O O12 0.750000 0.883170 0.020592
O O13 0.642979 0.838147 0.204657
O O14 0.250000 0.717709 0.871299
#
# Coordination Sequence:
#
# PCOD9362620 Si02
#       6
#     8   8   8   8   8   8
#     4  11  22  36  54  84 112 147 185 226 281 327
#     4  10  18  31  56  83 107 141 186 238 279 316
#     4  11  18  32  55  85 108 135 187 231 271 323
#     4  10  18  33  53  77 107 142 184 226 268 325
#     4   9  17  33  53  78 109 143 178 219 280 335
#     4   9  17  29  51  81 107 134 176 228 270 316
#
# _framework density 17.562951000000002
#
# number of rings (size 3 to 8) (size 9 to 14) (size 15 to 20)
#    0.000    2.000    5.000    3.000    0.000    0.000 
#    0.000    5.833    0.000    0.000    0.000    0.000 
#    0.000    0.000    0.000    0.000    0.000    0.000 
#
# Total GULP energy -133622.729877 kJ/mol
# GULP energy per Si atom -5567.613745 kJ/mol
# Density = 1.752298 g / cm^3
# Si number density = 17.562951 Si / 1000 Ang^3
#
#
#
# Elastic Constant Matrix: (Units=GPa)
#
#
# Indices 1 2 3 4 5 6 
#
# 1 106.5341 6.2337 30.2444 0.0000 0.0000 0.0000
# 2 6.2337 28.5339 -12.5711 0.0000 0.0000 0.0000
# 3 30.2444 -12.5711 63.7544 0.0000 0.0000 0.0000
# 4 0.0000 0.0000 0.0000 9.3595 0.0000 0.0000
# 5 0.0000 0.0000 0.0000 0.0000 22.4294 0.0000
# 6 0.0000 0.0000 0.0000 0.0000 0.0000 8.5209
#
#
#
# Elastic Compliance Matrix: (Units=1/GPa)
#
#
# Indices 1 2 3 4 5 6 
#
# 1 0.011564 -0.005413 -0.006553 0.000000 0.000000 0.000000
# 2 -0.005413 0.040914 0.010636 0.000000 0.000000 0.000000
# 3 -0.006553 0.010636 0.020891 0.000000 0.000000 0.000000
# 4 0.000000 0.000000 0.000000 0.106844 0.000000 0.000000
# 5 0.000000 0.000000 0.000000 0.000000 0.044584 0.000000
# 6 0.000000 0.000000 0.000000 0.000000 0.000000 0.117358
#
#
# Mechanical properties :
#
#
# Convention : Reuss Voigt Hill
#
# Bulk Modulus (GPa) = 14.14281 27.40405 20.77343
# Shear Modulus (GPa) = 13.57269 19.72299 16.64784
#
# Velocity S-wave (km/s) = 2.78295 3.35474 3.08213
# Velocity P-wave (km/s) = 4.28912 5.53560 4.95174
#
# Compressibility (1/GPa) = 0.07070732
#
# Stress axis : x y z
#
# Youngs Moduli (GPa) = 86.47648 24.44124 47.86728
#
# Poissons Ratio (x) = 0.13231 0.31368
# Poissons Ratio (y) = 0.46814 -0.50910
# Poissons Ratio (z) = 0.56670 -0.25995
#
# Static dielectric constant tensor:
#      x y z
#    x 1.623520 0.000000 0.000000 
#    y 0.000000 1.559660 0.000000 
#    z 0.000000 0.000000 1.655390 
# 
# From -- ./inp_files/6450.got.cif
#   From: 2010.05.17/outbox.cif.g08.bks.cpg/sg40_4_cif.got.tgz:6450.got - 2010.06.03 18:35:42.
