data_PCOD9362199
_publ_section_title
;
Structure prediction by ZEFSAII (Michael W. Deem and Ramdas Pophale) SiO2 
 PCOD9362199
Probable space group: A B M 2
;
_chemical_formula_sum "Si O2"
_cell_formula_units_Z 28
_cell_length_a 21.000000
_cell_length_b 9.000000
_cell_length_c 15.000000
_cell_angle_alpha 90.000000
_cell_angle_beta 90.000000
_cell_angle_gamma 90.000000
_cell_volume 2835.000000
_symmetry_space_group_name_H-M "A B M 2"
_symmetry_group_IT_number 39
_symmetry_cell_setting 'orthorhombic'
loop_
_space_group_symop_operation_xyz
x,y,z
-x,-y,z
-x,1/2+y,z
x,1/2-y,z
x,1/2+y,1/2+z
-x,1/2-y,1/2+z
-x,y,1/2+z
x,-y,1/2+z
loop_
_atom_site_type_symbol
_atom_site_label
_atom_site_fract_x
_atom_site_fract_y
_atom_site_fract_z
Si Si1 0.198363 0.581418 0.396980
Si Si2 0.063879 0.918376 0.649352
Si Si3 0.330425 0.572193 0.846949
Si Si4 0.935593 0.581195 0.363888
Si Si5 0.663695 0.927531 0.664180
Si Si6 0.570131 0.571539 0.501030
Si Si7 0.795076 0.079641 0.608746
O O1 0.196837 0.750000 0.360908
O O2 0.259475 0.494096 0.360054
O O3 0.130176 0.503941 0.382582
O O4 0.208728 0.588159 0.502644
O O5 0.064369 0.750000 0.613034
O O6 0.059237 0.911743 0.756430
O O7 0.134253 0.982699 0.630057
O O8 0.000000 0.000000 0.617190
O O9 0.325519 0.750000 0.848228
O O10 0.354979 0.510068 0.753996
O O11 0.381501 0.526268 0.921885
O O12 0.932543 0.750000 0.398253
O O13 0.000000 0.500000 0.396069
O O14 0.666151 0.750000 0.674921
O O15 0.611303 0.962998 0.589236
O O16 0.734537 0.986178 0.640171
O O17 0.500000 0.500000 0.498279
O O18 0.562309 0.750000 0.496367
O O19 0.791720 0.250000 0.645548
#
# Coordination Sequence:
#
# PCOD9362199 Si02
#       7
#     8   8   8   8   8   8   8
#     4  11  22  36  58  88 120 158 206 259 314 374
#     4   9  19  35  53  76 107 147 196 248 304 364
#     4  11  23  42  65  93 128 168 210 256 310 370
#     4  10  20  35  55  78 112 156 204 260 318 375
#     4  11  23  41  65  96 127 163 211 257 306 371
#     4  10  24  44  67  95 131 166 205 252 306 370
#     4  10  21  37  58  86 120 158 202 254 311 372
#
# _framework density 9.8765429999999999
#
# number of rings (size 3 to 8) (size 9 to 14) (size 15 to 20)
#    0.000    1.714    1.429    2.571    0.000    6.286 
#    0.000    4.286    0.000    0.000    0.000    0.000 
#    0.000    0.000    0.000    0.000    0.000    0.000 
#
# Total GULP energy -156349.162684 kJ/mol
# GULP energy per Si atom -5583.898667 kJ/mol
# Density = 0.985406 g / cm^3
# Si number density = 9.876543 Si / 1000 Ang^3
#
#
#
# Elastic Constant Matrix: (Units=GPa)
#
#
# Indices 1 2 3 4 5 6 
#
# 1 185.3529 76.6673 44.6530 0.0000 0.0000 0.0000
# 2 76.6673 98.0122 33.4718 0.0000 0.0000 0.0000
# 3 44.6530 33.4718 74.4217 0.0000 0.0000 0.0000
# 4 0.0000 0.0000 0.0000 19.6238 0.0000 0.0000
# 5 0.0000 0.0000 0.0000 0.0000 51.7794 0.0000
# 6 0.0000 0.0000 0.0000 0.0000 0.0000 43.0365
#
#
#
# Elastic Compliance Matrix: (Units=1/GPa)
#
#
# Indices 1 2 3 4 5 6 
#
# 1 0.008336 -0.005686 -0.002444 0.000000 0.000000 0.000000
# 2 -0.005686 0.015932 -0.003754 0.000000 0.000000 0.000000
# 3 -0.002444 -0.003754 0.016592 0.000000 0.000000 0.000000
# 4 0.000000 0.000000 0.000000 0.050959 0.000000 0.000000
# 5 0.000000 0.000000 0.000000 0.000000 0.019313 0.000000
# 6 0.000000 0.000000 0.000000 0.000000 0.000000 0.023236
#
#
# Mechanical properties :
#
#
# Convention : Reuss Voigt Hill
#
# Bulk Modulus (GPa) = 58.50811 74.15235 66.33023
# Shear Modulus (GPa) = 30.51887 36.42093 33.46990
#
# Velocity S-wave (km/s) = 3.93494 4.29862 4.12079
# Velocity P-wave (km/s) = 7.09429 7.89041 7.50292
#
# Compressibility (1/GPa) = 0.01709165
#
# Stress axis : x y z
#
# Youngs Moduli (GPa) = 119.96588 62.76531 60.26988
#
# Poissons Ratio (x) = 0.35686 0.14732
# Poissons Ratio (y) = 0.68208 0.22627
# Poissons Ratio (z) = 0.29323 0.23564
#
# Static dielectric constant tensor:
#      x y z
#    x 1.647990 0.000000 0.000000 
#    y 0.000000 1.721580 0.000000 
#    z 0.000000 0.000000 1.741960 
# 
# From -- ./inp_files/10362.got.cif
#   From: 2010.05.17/outbox.ucp.g08.bks.cvg/sg39_6_cif.got.tgz:10362.got - 2010.06.11 10:41:16.
