data_PCOD9362857
_publ_section_title
;
Structure prediction by ZEFSAII (Michael W. Deem and Ramdas Pophale) SiO2 
 PCOD9362857
Probable space group: A M A 2
;
_chemical_formula_sum "Si O2"
_cell_formula_units_Z 64
_cell_length_a 28.159939
_cell_length_b 18.575843
_cell_length_c 5.524866
_cell_angle_alpha 90.000000
_cell_angle_beta 90.000000
_cell_angle_gamma 90.000000
_cell_volume 2890.027602
_symmetry_space_group_name_H-M "A M A 2"
_symmetry_group_IT_number 40
_symmetry_cell_setting 'orthorhombic'
loop_
_space_group_symop_operation_xyz
x,y,z
-x,-y,z
1/2-x,y,z
1/2+x,-y,z
x,1/2+y,1/2+z
-x,1/2-y,1/2+z
1/2-x,1/2+y,1/2+z
1/2+x,1/2-y,1/2+z
loop_
_atom_site_type_symbol
_atom_site_label
_atom_site_fract_x
_atom_site_fract_y
_atom_site_fract_z
Si Si1 0.944888 0.720515 0.344960
Si Si2 0.642612 0.095596 0.845417
Si Si3 0.146749 0.727885 0.845485
Si Si4 0.467714 0.810502 0.344987
Si Si5 0.305480 0.902811 0.345676
Si Si6 0.040160 0.562389 0.899837
Si Si7 0.304882 0.727494 0.345617
Si Si8 0.942330 0.987504 0.898134
O O1 0.909315 0.787919 0.346476
O O2 0.937758 0.684542 0.604196
O O3 0.001615 0.736759 0.344085
O O4 0.937372 0.684899 0.085308
O O5 0.645874 0.183594 0.845431
O O6 0.668013 0.073614 0.592568
O O7 0.591103 0.056680 0.854551
O O8 0.669895 0.073961 0.093669
O O9 0.170521 0.703847 0.595974
O O10 0.170859 0.703996 0.094268
O O11 0.507283 0.870018 0.350105
O O12 0.250000 0.923866 0.350672
O O13 0.306587 0.815022 0.346032
O O14 0.070149 0.544484 0.661022
O O15 0.000000 0.500000 0.923245
O O16 0.064719 0.562396 0.161950
O O17 0.250000 0.705927 0.346493
O O18 0.000000 0.000000 0.913655
#
# Coordination Sequence:
#
# PCOD9362857 Si02
#       8
#     8   8   8   8   8   8   8   8
#     4  10  21  34  52  71  99 130 177 208 243 294
#     4  10  19  29  46  69 100 126 166 203 242 307
#     4  10  19  28  48  71  93 133 163 201 238 300
#     4  10  21  36  50  70  98 138 170 215 248 287
#     4   9  17  30  46  66  94 131 160 199 252 305
#     4  10  21  32  50  68  95 135 171 210 253 288
#     4   9  17  30  44  68 100 127 156 195 252 303
#     4  10  21  33  44  71  97 136 165 207 249 286
#
# _framework density 22.145118
#
# number of rings (size 3 to 8) (size 9 to 14) (size 15 to 20)
#    0.000    2.250    0.000    3.000    7.000    3.000 
#    0.000    0.000    0.000    0.000    0.000    0.000 
#    0.000   20.000    0.000    0.000    0.000    0.000 
#
# Total GULP energy -178387.738188 kJ/mol
# GULP energy per Si atom -5574.616818 kJ/mol
# Density = 2.209472 g / cm^3
# Si number density = 22.145118 Si / 1000 Ang^3
#
#
#
# Elastic Constant Matrix: (Units=GPa)
#
#
# Indices 1 2 3 4 5 6 
#
# 1 106.7870 -2.8865 57.3237 0.0000 0.0000 0.0000
# 2 -2.8865 6.1174 3.8678 0.0000 0.0000 0.0000
# 3 57.3237 3.8678 215.1908 0.0000 0.0000 0.0000
# 4 0.0000 0.0000 0.0000 -2.1792 0.0000 0.0000
# 5 0.0000 0.0000 0.0000 0.0000 37.5492 0.0000
# 6 0.0000 0.0000 0.0000 0.0000 0.0000 16.4965
#
#
#
# Elastic Compliance Matrix: (Units=1/GPa)
#
#
# Indices 1 2 3 4 5 6 
#
# 1 0.011238 0.007278 -0.003125 0.000000 0.000000 0.000000
# 2 0.007278 0.170060 -0.004996 0.000000 0.000000 0.000000
# 3 -0.003125 -0.004996 0.005569 0.000000 0.000000 0.000000
# 4 0.000000 0.000000 0.000000 -0.458894 0.000000 0.000000
# 5 0.000000 0.000000 0.000000 0.000000 0.026632 0.000000
# 6 0.000000 0.000000 0.000000 0.000000 0.000000 0.060619
#
#
# Mechanical properties :
#
#
# Convention : Reuss Voigt Hill
#
# Bulk Modulus (GPa) = 5.40002 49.41168 27.40585
# Shear Modulus (GPa) = -41.19834 28.35931 -6.41951
#
# Velocity S-wave (km/s) = -4.31789 3.58245 -1.70444
# Velocity P-wave (km/s) = 4.73446 6.28276 2.92043
#
# Compressibility (1/GPa) = 0.18518459
#
# Stress axis : x y z
#
# Youngs Moduli (GPa) = 88.98000 5.88027 179.55983
#
# Poissons Ratio (x) = -0.04280 0.56105
# Poissons Ratio (y) = -0.64764 0.89699
# Poissons Ratio (z) = 0.27803 0.02937
#
# Static dielectric constant tensor:
#      x y z
#    x 1.950120 0.000000 0.000000 
#    y 0.000000 1.837270 0.000000 
#    z 0.000000 0.000000 1.936320 
# 
# From -- ./inp_files/2892.got.cif
#   From: 2010.05.17/outbox.cif.g08.bks.cpg/sg40_2_cif.got.tgz:2892.got - 2010.06.03 18:35:42.
