data_PCOD9362773
_publ_section_title
;
Structure prediction by ZEFSAII (Michael W. Deem and Ramdas Pophale) SiO2 
 PCOD9362773
Probable space group: A M A 2
;
_chemical_formula_sum "Si O2"
_cell_formula_units_Z 40
_cell_length_a 14.822196
_cell_length_b 5.162437
_cell_length_c 22.191933
_cell_angle_alpha 90.000000
_cell_angle_beta 90.000000
_cell_angle_gamma 90.000000
_cell_volume 1698.096822
_symmetry_space_group_name_H-M "A M A 2"
_symmetry_group_IT_number 40
_symmetry_cell_setting 'orthorhombic'
loop_
_space_group_symop_operation_xyz
x,y,z
-x,-y,z
1/2-x,y,z
1/2+x,-y,z
x,1/2+y,1/2+z
-x,1/2-y,1/2+z
1/2-x,1/2+y,1/2+z
1/2+x,1/2-y,1/2+z
loop_
_atom_site_type_symbol
_atom_site_label
_atom_site_fract_x
_atom_site_fract_y
_atom_site_fract_z
Si Si1 0.353309 0.015511 0.730380
Si Si2 0.554475 0.254848 0.348225
Si Si3 0.645539 0.965902 0.151838
Si Si4 0.902529 0.698862 0.526020
Si Si5 0.393339 0.293879 0.976237
O O1 0.250000 0.935011 0.742893
O O2 0.392961 0.780434 0.689400
O O3 0.397830 0.099130 0.793066
O O4 0.353743 0.280996 0.693393
O O5 0.500000 0.500000 0.375641
O O6 0.608937 0.142744 0.405605
O O7 0.500000 0.000000 0.326152
O O8 0.750000 0.900814 0.136334
O O9 0.598494 0.069066 0.091493
O O10 0.852924 0.487358 0.485586
O O11 0.002845 0.751056 0.499530
O O12 0.857677 0.979149 0.518925
#
# Coordination Sequence:
#
# PCOD9362773 Si02
#       5
#     8   8   8   8   8
#     4  10  23  42  62  88 125 169 212 263 319 378
#     4  12  21  40  64  90 128 166 209 269 322 381
#     4  10  21  40  61  85 123 165 210 258 311 379
#     4  10  18  35  58  84 114 161 193 249 316 367
#     4  10  19  35  58  83 122 155 196 255 317 363
#
# _framework density 23.555785
#
# number of rings (size 3 to 8) (size 9 to 14) (size 15 to 20)
#    0.000    1.600    4.000    2.400    0.000    0.000 
#   14.400    2.000    0.000    0.000    0.000    0.000 
#    0.000    0.000    0.000    0.000    0.000    0.000 
#
# Total GULP energy -111473.625239 kJ/mol
# GULP energy per Si atom -5573.681262 kJ/mol
# Density = 2.350217 g / cm^3
# Si number density = 23.555785 Si / 1000 Ang^3
#
#
#
# Elastic Constant Matrix: (Units=GPa)
#
#
# Indices 1 2 3 4 5 6 
#
# 1 58.4416 15.5903 35.6757 0.0000 0.0000 0.0000
# 2 15.5903 204.0011 49.6584 0.0000 0.0000 0.0000
# 3 35.6757 49.6584 175.9086 0.0000 0.0000 0.0000
# 4 0.0000 0.0000 0.0000 44.8739 0.0000 0.0000
# 5 0.0000 0.0000 0.0000 0.0000 -25.6758 0.0000
# 6 0.0000 0.0000 0.0000 0.0000 0.0000 -10.3849
#
#
#
# Elastic Compliance Matrix: (Units=1/GPa)
#
#
# Indices 1 2 3 4 5 6 
#
# 1 0.019590 -0.000569 -0.003812 0.000000 0.000000 0.000000
# 2 -0.000569 0.005280 -0.001375 0.000000 0.000000 0.000000
# 3 -0.003812 -0.001375 0.006846 0.000000 0.000000 0.000000
# 4 0.000000 0.000000 0.000000 0.022285 0.000000 0.000000
# 5 0.000000 0.000000 0.000000 0.000000 -0.038947 0.000000
# 6 0.000000 0.000000 0.000000 0.000000 0.000000 -0.096294
#
#
# Mechanical properties :
#
#
# Convention : Reuss Voigt Hill
#
# Bulk Modulus (GPa) = 49.49711 71.13334 60.31522
# Shear Modulus (GPa) = -79.37521 24.25777 -27.55872
#
# Velocity S-wave (km/s) = -5.81118 3.21253 -3.42414
# Velocity P-wave (km/s) = 4.89573 6.63505 3.16668
#
# Compressibility (1/GPa) = 0.02020320
#
# Stress axis : x y z
#
# Youngs Moduli (GPa) = 51.04595 189.38781 146.06737
#
# Poissons Ratio (x) = 0.10778 0.55687
# Poissons Ratio (y) = 0.02905 0.20087
# Poissons Ratio (z) = 0.19461 0.26044
#
# Static dielectric constant tensor:
#      x y z
#    x 2.123210 0.000000 0.000000 
#    y 0.000000 2.017480 0.000000 
#    z 0.000000 0.000000 1.936610 
# 
# From -- ./inp_files/23249.got.cif
#   From: 2010.05.17/outbox.cif.g08.bks.cpg/sg40_12_cif.got.tgz:23249.got - 2010.06.03 18:35:42.
