data_PCOD9362420
_publ_section_title
;
Structure prediction by ZEFSAII (Michael W. Deem and Ramdas Pophale) SiO2 
 PCOD9362420
Probable space group: A M A 2
;
_chemical_formula_sum "Si O2"
_cell_formula_units_Z 64
_cell_length_a 8.570038
_cell_length_b 18.859429
_cell_length_c 27.187895
_cell_angle_alpha 90.000000
_cell_angle_beta 90.000000
_cell_angle_gamma 90.000000
_cell_volume 4394.271348
_symmetry_space_group_name_H-M "A M A 2"
_symmetry_group_IT_number 40
_symmetry_cell_setting 'orthorhombic'
loop_
_space_group_symop_operation_xyz
x,y,z
-x,-y,z
1/2-x,y,z
1/2+x,-y,z
x,1/2+y,1/2+z
-x,1/2-y,1/2+z
1/2-x,1/2+y,1/2+z
1/2+x,1/2-y,1/2+z
loop_
_atom_site_type_symbol
_atom_site_label
_atom_site_fract_x
_atom_site_fract_y
_atom_site_fract_z
Si Si1 0.937455 0.828359 0.180400
Si Si2 0.935537 0.299254 0.830479
Si Si3 0.561912 0.422323 0.589374
Si Si4 0.064648 0.420918 0.771413
Si Si5 0.437614 0.920468 0.790613
Si Si6 0.562021 0.167443 0.888540
Si Si7 0.935499 0.291524 0.239658
Si Si8 0.936675 0.422175 0.476838
O O1 0.750000 0.821923 0.181903
O O2 0.986230 0.863817 0.129022
O O3 0.990224 0.881724 0.223984
O O4 0.013779 0.752173 0.191639
O O5 0.750000 0.310635 0.832896
O O6 0.985400 0.248165 0.875243
O O7 0.019174 0.372916 0.818603
O O8 0.975191 0.250724 0.783080
O O9 0.500000 0.500000 0.603617
O O10 0.750000 0.425134 0.589899
O O11 0.511475 0.408162 0.533157
O O12 0.250000 0.421504 0.765455
O O13 0.000000 0.500000 0.775365
O O14 0.250000 0.919165 0.787615
O O15 0.483987 0.883136 0.842506
O O16 0.509482 0.871851 0.747395
O O17 0.500000 0.000000 0.789267
O O18 0.750000 0.166387 0.890510
O O19 0.495224 0.135444 0.938240
O O20 0.750000 0.285777 0.246538
O O21 0.750000 0.424533 0.475962
O O22 0.000000 0.500000 0.462816
#
# Coordination Sequence:
#
# PCOD9362420 Si02
#       8
#     8   8   8   8   8   8   8   8
#     4  10  18  30  45  60  82 111 143 176 211 247
#     4   9  17  30  44  59  81 108 139 173 208 245
#     4   9  19  31  43  60  82 110 142 177 212 245
#     4  11  20  29  42  62  86 111 141 172 207 248
#     4  10  19  30  43  61  85 112 142 174 208 246
#     4   9  18  30  44  61  82 110 141 172 208 247
#     4  10  18  28  42  61  83 108 139 171 207 249
#     4  10  19  30  43  60  83 110 142 177 211 245
#
# _framework density 14.564417000000001
#
# number of rings (size 3 to 8) (size 9 to 14) (size 15 to 20)
#    0.000    2.250    0.000    6.750    0.000    6.500 
#    0.000    0.000    0.000    0.000    0.000    0.000 
#    0.000    1.000    0.000    5.250    0.000    4.500 
#
# Total GULP energy -178355.919000 kJ/mol
# GULP energy per Si atom -5573.622469 kJ/mol
# Density = 1.453127 g / cm^3
# Si number density = 14.564417 Si / 1000 Ang^3
#
#
#
# Elastic Constant Matrix: (Units=GPa)
#
#
# Indices 1 2 3 4 5 6 
#
# 1 25.7348 16.0848 11.0368 0.0000 0.0000 0.0000
# 2 16.0848 86.5171 34.0822 0.0000 0.0000 0.0000
# 3 11.0368 34.0822 60.4273 0.0000 0.0000 0.0000
# 4 0.0000 0.0000 0.0000 26.9045 0.0000 0.0000
# 5 0.0000 0.0000 0.0000 0.0000 32.6024 0.0000
# 6 0.0000 0.0000 0.0000 0.0000 0.0000 25.0577
#
#
#
# Elastic Compliance Matrix: (Units=1/GPa)
#
#
# Indices 1 2 3 4 5 6 
#
# 1 0.044895 -0.006578 -0.004490 0.000000 0.000000 0.000000
# 2 -0.006578 0.015824 -0.007724 0.000000 0.000000 0.000000
# 3 -0.004490 -0.007724 0.021725 0.000000 0.000000 0.000000
# 4 0.000000 0.000000 0.000000 0.037168 0.000000 0.000000
# 5 0.000000 0.000000 0.000000 0.000000 0.030673 0.000000
# 6 0.000000 0.000000 0.000000 0.000000 0.000000 0.039908
#
#
# Mechanical properties :
#
#
# Convention : Reuss Voigt Hill
#
# Bulk Modulus (GPa) = 22.29094 32.78742 27.53918
# Shear Modulus (GPa) = 20.59909 24.34462 22.47186
#
# Velocity S-wave (km/s) = 3.76486 4.09285 3.93227
# Velocity P-wave (km/s) = 5.85125 6.70046 6.29020
#
# Compressibility (1/GPa) = 0.04486128
#
# Stress axis : x y z
#
# Youngs Moduli (GPa) = 22.27429 63.19534 46.02971
#
# Poissons Ratio (x) = 0.41569 0.20666
# Poissons Ratio (y) = 0.14652 0.35551
# Poissons Ratio (z) = 0.10001 0.48810
#
# Static dielectric constant tensor:
#      x y z
#    x 1.489340 0.000000 0.000000 
#    y 0.000000 1.491650 0.000000 
#    z 0.000000 0.000000 1.488410 
# 
# From -- ./inp_files/25533.got.cif
#   From: 2010.05.17/outbox.cif.g08.bks.cpg/sg40_13_cif.got.tgz:25533.got - 2010.06.03 18:35:42.
