data_PCOD9362802
_publ_section_title
;
Structure prediction by ZEFSAII (Michael W. Deem and Ramdas Pophale) SiO2 
 PCOD9362802
Probable space group: A M A 2
;
_chemical_formula_sum "Si O2"
_cell_formula_units_Z 64
_cell_length_a 17.816744
_cell_length_b 12.218956
_cell_length_c 16.018483
_cell_angle_alpha 90.000000
_cell_angle_beta 90.000000
_cell_angle_gamma 90.000000
_cell_volume 3487.255962
_symmetry_space_group_name_H-M "A M A 2"
_symmetry_group_IT_number 40
_symmetry_cell_setting 'orthorhombic'
loop_
_space_group_symop_operation_xyz
x,y,z
-x,-y,z
1/2-x,y,z
1/2+x,-y,z
x,1/2+y,1/2+z
-x,1/2-y,1/2+z
1/2-x,1/2+y,1/2+z
1/2+x,1/2-y,1/2+z
loop_
_atom_site_type_symbol
_atom_site_label
_atom_site_fract_x
_atom_site_fract_y
_atom_site_fract_z
Si Si1 0.085442 0.460272 0.849700
Si Si2 0.336307 0.050642 0.198388
Si Si3 0.660591 0.601900 0.099127
Si Si4 0.407097 0.747898 0.457021
Si Si5 0.337338 0.294596 0.272007
Si Si6 0.663227 0.969854 0.001460
Si Si7 0.578797 0.682866 0.444465
Si Si8 0.161553 0.104632 0.491102
O O1 0.110037 0.476593 0.754606
O O2 0.097247 0.338026 0.883821
O O3 0.135649 0.539896 0.907876
O O4 0.000000 0.500000 0.861662
O O5 0.250000 0.015928 0.212301
O O6 0.343365 0.174400 0.231604
O O7 0.350159 0.049319 0.099978
O O8 0.750000 0.624416 0.085085
O O9 0.646342 0.622206 0.196376
O O10 0.613694 0.684061 0.040708
O O11 0.645584 0.479627 0.066310
O O12 0.352584 0.643897 0.454298
O O13 0.490781 0.700109 0.456072
O O14 0.250000 0.309188 0.299160
O O15 0.393162 0.303708 0.349133
O O16 0.750000 0.002490 0.989780
O O17 0.608665 0.065824 0.972910
O O18 0.618712 0.781363 0.494693
O O19 0.250000 0.124480 0.486712
#
# Coordination Sequence:
#
# PCOD9362802 Si02
#       8
#     8   8   8   8   8   8   8   8
#     4  11  20  35  59  91 125 152 194 252 307 359
#     4  10  20  36  59  88 115 151 205 250 293 357
#     4   9  19  35  62  90 115 153 204 250 290 351
#     4  11  22  38  59  88 126 155 198 245 312 366
#     4  10  18  36  62  88 116 157 209 248 285 358
#     4  11  24  42  62  84 117 163 207 249 302 366
#     4  12  23  38  59  90 122 157 197 249 309 363
#     4  10  19  34  58  88 117 154 198 245 296 350
#
# _framework density 18.352539
#
# number of rings (size 3 to 8) (size 9 to 14) (size 15 to 20)
#    0.000    1.500    3.750    2.250    0.000    2.500 
#    2.250    1.250    2.750    1.500    0.000    0.000 
#    0.000    0.000    0.000    0.000    0.000    0.000 
#
# Total GULP energy -178697.108738 kJ/mol
# GULP energy per Si atom -5584.284648 kJ/mol
# Density = 1.831077 g / cm^3
# Si number density = 18.352539 Si / 1000 Ang^3
#
#
#
# Elastic Constant Matrix: (Units=GPa)
#
#
# Indices 1 2 3 4 5 6 
#
# 1 32.8665 3.5502 23.9798 0.0000 0.0000 0.0000
# 2 3.5502 76.4604 20.8608 0.0000 0.0000 0.0000
# 3 23.9798 20.8608 67.4236 0.0000 0.0000 0.0000
# 4 0.0000 0.0000 0.0000 30.0617 0.0000 0.0000
# 5 0.0000 0.0000 0.0000 0.0000 -332.0537 0.0000
# 6 0.0000 0.0000 0.0000 0.0000 0.0000 67.9792
#
#
#
# Elastic Compliance Matrix: (Units=1/GPa)
#
#
# Indices 1 2 3 4 5 6 
#
# 1 0.041453 0.002291 -0.015452 0.000000 0.000000 0.000000
# 2 0.002291 0.014411 -0.005274 0.000000 0.000000 0.000000
# 3 -0.015452 -0.005274 0.021959 0.000000 0.000000 0.000000
# 4 0.000000 0.000000 0.000000 0.033265 0.000000 0.000000
# 5 0.000000 0.000000 0.000000 0.000000 -0.003012 0.000000
# 6 0.000000 0.000000 0.000000 0.000000 0.000000 0.014710
#
#
# Mechanical properties :
#
#
# Convention : Reuss Voigt Hill
#
# Bulk Modulus (GPa) = 24.41783 30.39244 27.40513
# Shear Modulus (GPa) = 28.85066 -38.24526 -4.69730
#
# Velocity S-wave (km/s) = 3.96918 -4.56995 -1.60157
# Velocity P-wave (km/s) = 5.86000 3.35405 3.39779
#
# Compressibility (1/GPa) = 0.04095369
#
# Stress axis : x y z
#
# Youngs Moduli (GPa) = 24.12399 69.39096 45.53973
#
# Poissons Ratio (x) = -0.15898 0.70367
# Poissons Ratio (y) = -0.05527 0.24016
# Poissons Ratio (z) = 0.37276 0.36594
#
# Static dielectric constant tensor:
#      x y z
#    x 1.911540 0.000000 0.000000 
#    y 0.000000 1.626900 0.000000 
#    z 0.000000 0.000000 1.618690 
# 
# From -- ./inp_files/17867.got.cif
#   From: 2010.05.17/outbox.cif.g08.bks.cpg/sg40_9_cif.got.tgz:17867.got - 2010.06.03 18:35:42.
