data_PCOD9362841
_publ_section_title
;
Structure prediction by ZEFSAII (Michael W. Deem and Ramdas Pophale) SiO2 
 PCOD9362841
Probable space group: A M A 2
;
_chemical_formula_sum "Si O2"
_cell_formula_units_Z 48
_cell_length_a 13.813504
_cell_length_b 15.155642
_cell_length_c 11.555116
_cell_angle_alpha 90.000000
_cell_angle_beta 90.000000
_cell_angle_gamma 90.000000
_cell_volume 2419.092670
_symmetry_space_group_name_H-M "A M A 2"
_symmetry_group_IT_number 40
_symmetry_cell_setting 'orthorhombic'
loop_
_space_group_symop_operation_xyz
x,y,z
-x,-y,z
1/2-x,y,z
1/2+x,-y,z
x,1/2+y,1/2+z
-x,1/2-y,1/2+z
1/2-x,1/2+y,1/2+z
1/2+x,1/2-y,1/2+z
loop_
_atom_site_type_symbol
_atom_site_label
_atom_site_fract_x
_atom_site_fract_y
_atom_site_fract_z
Si Si1 0.750000 0.977959 0.086720
Si Si2 0.750000 0.423086 0.335457
Si Si3 0.140281 0.811759 0.828723
Si Si4 0.250000 0.847199 0.239708
Si Si5 0.250000 0.264707 0.965088
Si Si6 0.457809 0.091566 0.707660
Si Si7 0.092496 0.766215 0.087064
Si Si8 0.889888 0.821414 0.133731
O O1 0.839491 0.914409 0.116438
O O2 0.750000 0.062867 0.167019
O O3 0.750000 0.988399 0.947427
O O4 0.750000 0.324413 0.388790
O O5 0.646884 0.428143 0.268425
O O6 0.250000 0.845086 0.798590
O O7 0.125962 0.720215 0.759005
O O8 0.045366 0.869269 0.790191
O O9 0.137727 0.788699 0.964047
O O10 0.250000 0.846400 0.378406
O O11 0.159513 0.791862 0.194018
O O12 0.158675 0.251313 0.048353
O O13 0.438510 0.165559 0.610358
O O14 0.500000 0.000000 0.661747
O O15 0.999608 0.827236 0.099436
#
# Coordination Sequence:
#
# PCOD9362841 Si02
#       8
#     4   4   8   4   4   8   8   8
#     4  10  22  39  58  95 121 165 220 255 324 381
#     4  10  20  42  61  89 132 167 215 281 320 389
#     4  11  21  41  67  94 126 167 222 268 332 388
#     4  12  24  36  61  94 129 162 210 261 324 379
#     4  10  18  41  60  88 122 172 193 253 328 389
#     4  11  25  40  67  96 130 175 225 274 338 393
#     4  11  23  40  62  95 126 168 209 273 330 383
#     4   9  21  41  66  83 125 173 208 257 321 396
#
# _framework density 19.842151000000001
#
# number of rings (size 3 to 8) (size 9 to 14) (size 15 to 20)
#    0.000    1.667    4.167    2.000    5.833    0.667 
#    0.000    3.333    0.000    0.000    0.000    0.000 
#    0.000    0.000    0.000    0.000    0.000    0.000 
#
# Total GULP energy -133780.215344 kJ/mol
# GULP energy per Si atom -5574.175639 kJ/mol
# Density = 1.979699 g / cm^3
# Si number density = 19.842151 Si / 1000 Ang^3
#
#
#
# Elastic Constant Matrix: (Units=GPa)
#
#
# Indices 1 2 3 4 5 6 
#
# 1 125.8312 6.6305 7.2105 0.0000 0.0000 0.0000
# 2 6.6305 85.5922 2.8535 0.0000 0.0000 0.0000
# 3 7.2105 2.8535 54.6670 0.0000 0.0000 0.0000
# 4 0.0000 0.0000 0.0000 34.1218 0.0000 0.0000
# 5 0.0000 0.0000 0.0000 0.0000 21.1920 0.0000
# 6 0.0000 0.0000 0.0000 0.0000 0.0000 13.5755
#
#
#
# Elastic Compliance Matrix: (Units=1/GPa)
#
#
# Indices 1 2 3 4 5 6 
#
# 1 0.008037 -0.000588 -0.001029 0.000000 0.000000 0.000000
# 2 -0.000588 0.011747 -0.000536 0.000000 0.000000 0.000000
# 3 -0.001029 -0.000536 0.018456 0.000000 0.000000 0.000000
# 4 0.000000 0.000000 0.000000 0.029307 0.000000 0.000000
# 5 0.000000 0.000000 0.000000 0.000000 0.047188 0.000000
# 6 0.000000 0.000000 0.000000 0.000000 0.000000 0.073662
#
#
# Mechanical properties :
#
#
# Convention : Reuss Voigt Hill
#
# Bulk Modulus (GPa) = 29.46921 33.27550 31.37235
# Shear Modulus (GPa) = 24.50806 30.40424 27.45615
#
# Velocity S-wave (km/s) = 3.51828 3.91871 3.72389
# Velocity P-wave (km/s) = 5.60254 6.10587 5.85961
#
# Compressibility (1/GPa) = 0.03393372
#
# Stress axis : x y z
#
# Youngs Moduli (GPa) = 124.42237 85.13003 54.18203
#
# Poissons Ratio (x) = 0.05008 0.05577
# Poissons Ratio (y) = 0.07320 0.02902
# Poissons Ratio (z) = 0.12808 0.04559
#
# Static dielectric constant tensor:
#      x y z
#    x 1.734430 0.000000 0.000000 
#    y 0.000000 1.700790 0.000000 
#    z 0.000000 0.000000 1.694640 
# 
# From -- ./inp_files/12189.got.cif
#   From: 2010.05.17/outbox.cif.g08.bks.cpg/sg40_7_cif.got.tgz:12189.got - 2010.06.03 18:35:42.
