data_PCOD9362315
_publ_section_title
;
Structure prediction by ZEFSAII (Michael W. Deem and Ramdas Pophale) SiO2 
 PCOD9362315
Probable space group: A M A 2
;
_chemical_formula_sum "Si O2"
_cell_formula_units_Z 60
_cell_length_a 16.699019
_cell_length_b 11.123079
_cell_length_c 15.779039
_cell_angle_alpha 90.000000
_cell_angle_beta 90.000000
_cell_angle_gamma 90.000000
_cell_volume 2930.869829
_symmetry_space_group_name_H-M "A M A 2"
_symmetry_group_IT_number 40
_symmetry_cell_setting 'orthorhombic'
loop_
_space_group_symop_operation_xyz
x,y,z
-x,-y,z
1/2-x,y,z
1/2+x,-y,z
x,1/2+y,1/2+z
-x,1/2-y,1/2+z
1/2-x,1/2+y,1/2+z
1/2+x,1/2-y,1/2+z
loop_
_atom_site_type_symbol
_atom_site_label
_atom_site_fract_x
_atom_site_fract_y
_atom_site_fract_z
Si Si1 0.834484 0.278092 0.823210
Si Si2 0.844212 0.946036 0.074866
Si Si3 0.500000 0.500000 0.685087
Si Si4 0.504061 0.719870 0.779885
Si Si5 0.337952 0.774977 0.021979
Si Si6 0.447092 0.107750 0.628857
Si Si7 0.661615 0.515874 0.260371
Si Si8 0.566609 0.903488 0.914698
O O1 0.750000 0.343694 0.811347
O O2 0.917698 0.336077 0.801450
O O3 0.834328 0.159280 0.764763
O O4 0.838809 0.235519 0.920556
O O5 0.750000 0.916119 0.099918
O O6 0.842209 0.086588 0.048609
O O7 0.925278 0.938875 0.133022
O O8 0.871537 0.876054 0.989690
O O9 0.545155 0.604324 0.738686
O O10 0.507726 0.820558 0.705077
O O11 0.533182 0.786759 0.865129
O O12 0.250000 0.728680 0.050216
O O13 0.409881 0.700713 0.063089
O O14 0.500000 0.000000 0.591670
O O15 0.375501 0.039163 0.676747
O O16 0.750000 0.466855 0.273423
O O17 0.609034 0.476305 0.339585
O O18 0.500000 0.000000 0.946672
#
# Coordination Sequence:
#
# PCOD9362315 Si02
#       8
#     8   8   4   8   8   8   8   8
#     4  10  19  35  59  83 114 161 210 251 305 373
#     4  11  22  39  64  94 127 168 213 265 328 388
#     4  12  26  42  62  94 134 172 206 262 332 396
#     4  11  22  38  59  90 122 165 208 258 317 377
#     4  10  20  36  60  91 124 161 208 262 313 379
#     4  11  20  35  55  89 124 159 200 262 314 370
#     4  10  17  28  52  87 119 150 195 256 311 357
#     4  11  18  34  62  93 120 153 210 269 302 369
#
# _framework density 20.471738999999999
#
# number of rings (size 3 to 8) (size 9 to 14) (size 15 to 20)
#    0.000    1.333    6.000    1.600    0.000    0.533 
#    1.200    0.667    0.000    0.000    0.000    0.000 
#    0.000    0.000    0.000    0.000    0.000    0.000 
#
# Total GULP energy -167059.554658 kJ/mol
# GULP energy per Si atom -5568.651822 kJ/mol
# Density = 2.042514 g / cm^3
# Si number density = 20.471739 Si / 1000 Ang^3
#
#
#
# Elastic Constant Matrix: (Units=GPa)
#
#
# Indices 1 2 3 4 5 6 
#
# 1 104.6354 9.3641 21.0437 0.0000 0.0000 0.0000
# 2 9.3641 49.6747 22.7394 0.0000 0.0000 0.0000
# 3 21.0437 22.7394 57.3697 0.0000 0.0000 0.0000
# 4 0.0000 0.0000 0.0000 20.6449 0.0000 0.0000
# 5 0.0000 0.0000 0.0000 0.0000 -15.6980 0.0000
# 6 0.0000 0.0000 0.0000 0.0000 0.0000 17.5001
#
#
#
# Elastic Compliance Matrix: (Units=1/GPa)
#
#
# Indices 1 2 3 4 5 6 
#
# 1 0.010321 -0.000260 -0.003683 0.000000 0.000000 0.000000
# 2 -0.000260 0.024600 -0.009655 0.000000 0.000000 0.000000
# 3 -0.003683 -0.009655 0.022609 0.000000 0.000000 0.000000
# 4 0.000000 0.000000 0.000000 0.048438 0.000000 0.000000
# 5 0.000000 0.000000 0.000000 0.000000 -0.063702 0.000000
# 6 0.000000 0.000000 0.000000 0.000000 0.000000 0.057142
#
#
# Mechanical properties :
#
#
# Convention : Reuss Voigt Hill
#
# Bulk Modulus (GPa) = 32.96655 35.33049 34.14852
# Shear Modulus (GPa) = 36.57248 15.05823 25.81536
#
# Velocity S-wave (km/s) = 4.23127 2.71507 3.55494
# Velocity P-wave (km/s) = 6.32534 5.20811 5.79372
#
# Compressibility (1/GPa) = 0.03033378
#
# Stress axis : x y z
#
# Youngs Moduli (GPa) = 96.89066 40.65071 44.23066
#
# Poissons Ratio (x) = 0.01056 0.16290
# Poissons Ratio (y) = 0.02516 0.42706
# Poissons Ratio (z) = 0.35684 0.39249
#
# Static dielectric constant tensor:
#      x y z
#    x 1.855060 0.000000 0.000000 
#    y 0.000000 1.716900 0.000000 
#    z 0.000000 0.000000 1.740150 
# 
# From -- ./inp_files/17803.got.cif
#   From: 2010.05.17/outbox.cif.g08.bks.cpg/sg40_9_cif.got.tgz:17803.got - 2010.06.03 18:35:42.
