data_PCOD9362081
_publ_section_title
;
Structure prediction by ZEFSAII (Michael W. Deem and Ramdas Pophale) SiO2 
 PCOD9362081
Probable space group: A B M 2
;
_chemical_formula_sum "Si O2"
_cell_formula_units_Z 48
_cell_length_a 9.124288
_cell_length_b 27.860106
_cell_length_c 9.787331
_cell_angle_alpha 90.000000
_cell_angle_beta 90.000000
_cell_angle_gamma 90.000000
_cell_volume 2487.975077
_symmetry_space_group_name_H-M "A B M 2"
_symmetry_group_IT_number 39
_symmetry_cell_setting 'orthorhombic'
loop_
_space_group_symop_operation_xyz
x,y,z
-x,-y,z
-x,1/2+y,z
x,1/2-y,z
x,1/2+y,1/2+z
-x,1/2-y,1/2+z
-x,y,1/2+z
x,-y,1/2+z
loop_
_atom_site_type_symbol
_atom_site_label
_atom_site_fract_x
_atom_site_fract_y
_atom_site_fract_z
Si Si1 0.175023 0.191060 0.689540
Si Si2 0.149079 0.549254 0.858228
Si Si3 0.325595 0.642409 0.447871
Si Si4 0.674405 0.642409 0.431209
Si Si5 0.834447 0.693665 0.189540
Si Si6 0.149079 0.049254 0.020853
O O1 0.187026 0.250000 0.689541
O O2 0.253791 0.165665 0.815203
O O3 0.253791 0.165666 0.563877
O O4 0.003049 0.176791 0.689540
O O5 0.268599 0.589353 0.892903
O O6 0.132292 0.544379 0.689541
O O7 0.186946 0.500000 0.939541
O O8 1.000000 0.564497 0.939540
O O9 0.500000 0.643380 0.439540
O O10 0.257523 0.675513 0.563573
O O11 0.268600 0.589352 0.486177
O O12 0.742478 0.675513 0.315507
O O13 0.844287 0.750000 0.189539
#
# Coordination Sequence:
#
# PCOD9362081 Si02
#       6
#     8   8   8   8   8   8
#     4  11  25  43  70  97 130 181 229 274 324 387
#     4  11  24  44  71 102 132 174 223 273 327 396
#     4  12  26  42  65 101 139 174 216 274 340 396
#     4  12  26  42  65 101 139 174 216 274 340 396
#     4  11  23  45  68  95 130 175 231 276 322 395
#     4  11  24  44  71 102 132 174 223 273 327 396
#
# _framework density 19.292798000000001
#
# number of rings (size 3 to 8) (size 9 to 14) (size 15 to 20)
#    0.000    0.667    1.667    7.000    4.667    7.333 
#    0.000    1.667    0.000    0.000    0.000    0.000 
#    0.000    0.000    0.000    0.000    0.000    0.000 
#
# Total GULP energy -133898.242107 kJ/mol
# GULP energy per Si atom -5579.093421 kJ/mol
# Density = 1.924889 g / cm^3
# Si number density = 19.292798 Si / 1000 Ang^3
#
#
#
# Elastic Constant Matrix: (Units=GPa)
#
#
# Indices 1 2 3 4 5 6 
#
# 1 199.0647 89.3025 98.2851 0.0000 0.0000 0.0000
# 2 89.3025 66.5524 57.0663 0.0000 0.0000 0.0000
# 3 98.2851 57.0663 235.7072 0.0000 0.0000 0.0000
# 4 0.0000 0.0000 0.0000 41.1702 0.0000 0.0000
# 5 0.0000 0.0000 0.0000 0.0000 30.7662 0.0000
# 6 0.0000 0.0000 0.0000 0.0000 0.0000 -27.1827
#
#
#
# Elastic Compliance Matrix: (Units=1/GPa)
#
#
# Indices 1 2 3 4 5 6 
#
# 1 0.013036 -0.016193 -0.001515 0.000000 0.000000 0.000000
# 2 -0.016193 0.039076 -0.002709 0.000000 0.000000 0.000000
# 3 -0.001515 -0.002709 0.005530 0.000000 0.000000 0.000000
# 4 0.000000 0.000000 0.000000 0.024289 0.000000 0.000000
# 5 0.000000 0.000000 0.000000 0.000000 0.032503 0.000000
# 6 0.000000 0.000000 0.000000 0.000000 0.000000 -0.036788
#
#
# Mechanical properties :
#
#
# Convention : Reuss Voigt Hill
#
# Bulk Modulus (GPa) = 59.49178 110.07023 84.78101
# Shear Modulus (GPa) = 40.29563 26.06209 33.17886
#
# Velocity S-wave (km/s) = 4.57512 3.67941 4.15149
# Velocity P-wave (km/s) = 7.66891 8.67335 8.18655
#
# Compressibility (1/GPa) = 0.01680904
#
# Stress axis : x y z
#
# Youngs Moduli (GPa) = 76.71149 25.59105 180.82572
#
# Poissons Ratio (x) = 0.41439 0.27401
# Poissons Ratio (y) = 1.24216 0.48978
# Poissons Ratio (z) = 0.11624 0.06932
#
# Static dielectric constant tensor:
#      x y z
#    x 1.642780 0.000000 0.000000 
#    y 0.000000 1.727940 0.000000 
#    z 0.000000 0.000000 1.594200 
# 
# From -- ./inp_files/2326.got.cif
#   From: 2010.05.17/outbox.cif.g08.bks.cpg/sg39_2_cif.got.tgz:2326.got - 2010.06.03 18:22:40.
