data_PCOD9362977
_publ_section_title
;
Structure prediction by ZEFSAII (Michael W. Deem and Ramdas Pophale) SiO2 
 PCOD9362977
Probable space group: A M A 2
;
_chemical_formula_sum "Si O2"
_cell_formula_units_Z 56
_cell_length_a 8.695413
_cell_length_b 14.940324
_cell_length_c 22.345989
_cell_angle_alpha 90.000000
_cell_angle_beta 90.000000
_cell_angle_gamma 90.000000
_cell_volume 2903.018548
_symmetry_space_group_name_H-M "A M A 2"
_symmetry_group_IT_number 40
_symmetry_cell_setting 'orthorhombic'
loop_
_space_group_symop_operation_xyz
x,y,z
-x,-y,z
1/2-x,y,z
1/2+x,-y,z
x,1/2+y,1/2+z
-x,1/2-y,1/2+z
1/2-x,1/2+y,1/2+z
1/2+x,1/2-y,1/2+z
loop_
_atom_site_type_symbol
_atom_site_label
_atom_site_fract_x
_atom_site_fract_y
_atom_site_fract_z
Si Si1 0.567051 0.594625 0.468930
Si Si2 0.435404 0.400291 0.114492
Si Si3 0.064518 0.288332 0.230952
Si Si4 0.066386 0.095250 0.835325
Si Si5 0.065345 0.405030 0.894676
Si Si6 0.564643 0.222959 0.502686
Si Si7 0.433605 0.593945 0.761164
O O1 0.500000 0.500000 0.490932
O O2 0.750000 0.589180 0.465923
O O3 0.500540 0.607836 0.401759
O O4 0.512458 0.680413 0.505823
O O5 0.500000 0.500000 0.112933
O O6 0.250000 0.405347 0.114630
O O7 0.483349 0.347288 0.174211
O O8 0.480723 0.342321 0.056689
O O9 0.250000 0.294865 0.237138
O O10 0.026178 0.183447 0.224919
O O11 0.988116 0.328500 0.290237
O O12 0.250000 0.091509 0.838547
O O13 0.000000 0.000000 0.813068
O O14 0.250000 0.410202 0.890993
O O15 0.000000 0.500000 0.917432
O O16 0.997365 0.392604 0.828535
O O17 0.023864 0.326441 0.940475
O O18 0.750000 0.233707 0.503855
O O19 0.500000 0.500000 0.738353
O O20 0.250000 0.586319 0.764450
#
# Coordination Sequence:
#
# PCOD9362977 Si02
#       7
#     8   8   8   8   8   8   8
#     4  11  22  37  58  83 112 145 182 227 276 331
#     4  10  22  40  60  82 112 146 184 229 274 323
#     4  10  21  37  56  80 110 148 189 230 277 327
#     4  11  21  34  55  83 115 148 182 226 277 332
#     4  10  19  31  51  79 110 142 177 219 270 325
#     4  10  21  37  56  80 111 147 184 225 274 326
#     4  10  20  34  53  77 107 140 177 222 272 324
#
# _framework density 19.290265000000002
#
# number of rings (size 3 to 8) (size 9 to 14) (size 15 to 20)
#    0.000    1.714    0.000    6.857    0.000    6.857 
#    0.000    0.714    0.000    1.714    0.000    0.000 
#    0.000    0.000    0.000    0.000    0.000    0.000 
#
# Total GULP energy -156477.726815 kJ/mol
# GULP energy per Si atom -5588.490243 kJ/mol
# Density = 1.924636 g / cm^3
# Si number density = 19.290265 Si / 1000 Ang^3
#
#
#
# Elastic Constant Matrix: (Units=GPa)
#
#
# Indices 1 2 3 4 5 6 
#
# 1 69.3748 57.3175 21.6195 0.0000 0.0000 0.0000
# 2 57.3175 195.4030 57.0996 0.0000 0.0000 0.0000
# 3 21.6195 57.0996 41.7731 0.0000 0.0000 0.0000
# 4 0.0000 0.0000 0.0000 33.0427 0.0000 0.0000
# 5 0.0000 0.0000 0.0000 0.0000 28.0058 0.0000
# 6 0.0000 0.0000 0.0000 0.0000 0.0000 34.5056
#
#
#
# Elastic Compliance Matrix: (Units=1/GPa)
#
#
# Indices 1 2 3 4 5 6 
#
# 1 0.019374 -0.004584 -0.003761 0.000000 0.000000 0.000000
# 2 -0.004584 0.009606 -0.010758 0.000000 0.000000 0.000000
# 3 -0.003761 -0.010758 0.040590 0.000000 0.000000 0.000000
# 4 0.000000 0.000000 0.000000 0.030264 0.000000 0.000000
# 5 0.000000 0.000000 0.000000 0.000000 0.035707 0.000000
# 6 0.000000 0.000000 0.000000 0.000000 0.000000 0.028981
#
#
# Mechanical properties :
#
#
# Convention : Reuss Voigt Hill
#
# Bulk Modulus (GPa) = 31.88354 64.29158 48.08756
# Shear Modulus (GPa) = 23.45418 30.47844 26.96631
#
# Velocity S-wave (km/s) = 3.49070 3.97922 3.74294
# Velocity P-wave (km/s) = 5.72807 7.38330 6.60772
#
# Compressibility (1/GPa) = 0.03136414
#
# Stress axis : x y z
#
# Youngs Moduli (GPa) = 51.61626 104.10393 24.63646
#
# Poissons Ratio (x) = 0.47719 0.09266
# Poissons Ratio (y) = 0.23660 0.26503
# Poissons Ratio (z) = 0.19414 1.11993
#
# Static dielectric constant tensor:
#      x y z
#    x 1.646530 0.000000 0.000000 
#    y 0.000000 1.693280 0.000000 
#    z 0.000000 0.000000 1.654100 
# 
# From -- ./inp_files/22204.got.cif
#   From: 2010.05.17/outbox.cif.g08.bks.cpg/sg40_12_cif.got.tgz:22204.got - 2010.06.03 18:35:42.
