data_PCOD9362883
_publ_section_title
;
Structure prediction by ZEFSAII (Michael W. Deem and Ramdas Pophale) SiO2 
 PCOD9362883
Probable space group: A M A 2
;
_chemical_formula_sum "Si O2"
_cell_formula_units_Z 64
_cell_length_a 8.568621
_cell_length_b 21.665297
_cell_length_c 17.398222
_cell_angle_alpha 90.000000
_cell_angle_beta 90.000000
_cell_angle_gamma 90.000000
_cell_volume 3229.835837
_symmetry_space_group_name_H-M "A M A 2"
_symmetry_group_IT_number 40
_symmetry_cell_setting 'orthorhombic'
loop_
_space_group_symop_operation_xyz
x,y,z
-x,-y,z
1/2-x,y,z
1/2+x,-y,z
x,1/2+y,1/2+z
-x,1/2-y,1/2+z
1/2-x,1/2+y,1/2+z
1/2+x,1/2-y,1/2+z
loop_
_atom_site_type_symbol
_atom_site_label
_atom_site_fract_x
_atom_site_fract_y
_atom_site_fract_z
Si Si1 0.070186 0.166428 0.063960
Si Si2 0.433866 0.431480 0.013963
Si Si3 0.439188 0.071554 0.197192
Si Si4 0.563195 0.758938 0.920903
Si Si5 0.569728 0.064440 0.966078
Si Si6 0.929716 0.632754 0.317588
Si Si7 0.434508 0.070023 0.670475
Si Si8 0.936365 0.370021 0.863316
O O1 0.250000 0.181257 0.082028
O O2 0.007065 0.126866 0.137892
O O3 0.008820 0.223575 0.009434
O O4 0.048915 0.113263 0.000985
O O5 0.500000 0.500000 0.013264
O O6 0.250000 0.431382 0.025074
O O7 0.479409 0.403684 0.933174
O O8 0.512270 0.402053 0.088888
O O9 0.250000 0.068144 0.189775
O O10 0.479319 0.098204 0.281985
O O11 0.500000 0.000000 0.186390
O O12 0.750000 0.750338 0.925262
O O13 0.521483 0.814782 0.863519
O O14 0.484455 0.700448 0.879936
O O15 0.750000 0.074069 0.991771
O O16 0.569994 0.074039 0.874836
O O17 0.500000 0.000000 0.989483
O O18 0.750000 0.652545 0.308500
O O19 0.001934 0.612430 0.238103
O O20 0.250000 0.065793 0.673467
O O21 0.500000 0.000000 0.677939
O O22 0.750000 0.375908 0.870146
#
# Coordination Sequence:
#
# PCOD9362883 Si02
#       8
#     8   8   8   8   8   8   8   8
#     4   9  19  37  58  82 114 152 195 243 299 358
#     4  11  22  39  62  88 117 151 192 242 301 359
#     4  10  22  39  62  92 123 157 196 250 312 369
#     4  10  21  39  61  84 117 159 206 252 297 359
#     4  10  19  29  47  76 110 149 192 235 289 348
#     4  10  20  35  54  79 113 155 198 243 295 350
#     4  11  21  35  56  85 119 153 194 243 296 354
#     4  11  23  41  62  86 119 158 202 250 304 365
#
# _framework density 19.815248
#
# number of rings (size 3 to 8) (size 9 to 14) (size 15 to 20)
#    0.000    1.750    0.000    5.625    0.000    6.500 
#    2.250    0.000    0.000    0.000    0.000    0.000 
#    0.000    0.000    0.000    0.000    0.000    0.000 
#
# Total GULP energy -178185.050651 kJ/mol
# GULP energy per Si atom -5568.282833 kJ/mol
# Density = 1.977015 g / cm^3
# Si number density = 19.815248 Si / 1000 Ang^3
#
#
#
# Elastic Constant Matrix: (Units=GPa)
#
#
# Indices 1 2 3 4 5 6 
#
# 1 185.2235 61.3841 161.0026 0.0000 0.0000 0.0000
# 2 61.3841 79.9360 96.2931 0.0000 0.0000 0.0000
# 3 161.0026 96.2931 296.3889 0.0000 0.0000 0.0000
# 4 0.0000 0.0000 0.0000 23.4000 0.0000 0.0000
# 5 0.0000 0.0000 0.0000 0.0000 24.5464 0.0000
# 6 0.0000 0.0000 0.0000 0.0000 0.0000 26.3074
#
#
#
# Elastic Compliance Matrix: (Units=1/GPa)
#
#
# Indices 1 2 3 4 5 6 
#
# 1 0.010409 -0.001942 -0.005023 0.000000 0.000000 0.000000
# 2 -0.001942 0.020917 -0.005741 0.000000 0.000000 0.000000
# 3 -0.005023 -0.005741 0.007968 0.000000 0.000000 0.000000
# 4 0.000000 0.000000 0.000000 0.042735 0.000000 0.000000
# 5 0.000000 0.000000 0.000000 0.000000 0.040739 0.000000
# 6 0.000000 0.000000 0.000000 0.000000 0.000000 0.038012
#
#
# Mechanical properties :
#
#
# Convention : Reuss Voigt Hill
#
# Bulk Modulus (GPa) = 72.03868 133.21201 102.62534
# Shear Modulus (GPa) = 26.20289 31.04200 28.62245
#
# Velocity S-wave (km/s) = 3.64037 3.96229 3.80474
# Velocity P-wave (km/s) = 7.35553 9.39712 8.43830
#
# Compressibility (1/GPa) = 0.01388143
#
# Stress axis : x y z
#
# Youngs Moduli (GPa) = 96.07131 47.80891 125.50513
#
# Poissons Ratio (x) = 0.09284 0.63046
# Poissons Ratio (y) = 0.18656 0.72049
# Poissons Ratio (z) = 0.48260 0.27446
#
# Static dielectric constant tensor:
#      x y z
#    x 1.686210 0.000000 0.000000 
#    y 0.000000 1.638230 0.000000 
#    z 0.000000 0.000000 1.696710 
# 
# From -- ./inp_files/15685.got.cif
#   From: 2010.05.17/outbox.cif.g08.bks.cpg/sg40_8_cif.got.tgz:15685.got - 2010.06.03 18:35:42.
