data_PCOD9362001
_publ_section_title
;
Structure prediction by ZEFSAII (Michael W. Deem and Ramdas Pophale) SiO2 
 PCOD9362001
Probable space group: A B M 2
;
_chemical_formula_sum "Si O2"
_cell_formula_units_Z 48
_cell_length_a 13.850155
_cell_length_b 10.207494
_cell_length_c 17.005599
_cell_angle_alpha 90.000000
_cell_angle_beta 90.000000
_cell_angle_gamma 90.000000
_cell_volume 2404.172920
_symmetry_space_group_name_H-M "A B M 2"
_symmetry_group_IT_number 39
_symmetry_cell_setting 'orthorhombic'
loop_
_space_group_symop_operation_xyz
x,y,z
-x,-y,z
-x,1/2+y,z
x,1/2-y,z
x,1/2+y,1/2+z
-x,1/2-y,1/2+z
-x,y,1/2+z
x,-y,1/2+z
loop_
_atom_site_type_symbol
_atom_site_label
_atom_site_fract_x
_atom_site_fract_y
_atom_site_fract_z
Si Si1 0.621490 0.750000 0.846560
Si Si2 0.919406 0.604170 0.608508
Si Si3 0.550524 0.250000 0.123351
Si Si4 0.638747 0.250000 0.525424
Si Si5 0.085730 0.903540 0.300881
Si Si6 0.708220 0.983366 0.605089
Si Si7 0.576551 0.750000 0.290382
Si Si8 0.712473 0.992228 0.285054
O O1 0.507673 0.750000 0.853030
O O2 0.653986 0.624693 0.798302
O O3 0.660904 0.750000 0.933575
O O4 0.948953 0.750000 0.584946
O O5 0.915733 0.602137 0.704724
O O6 0.810691 0.576702 0.578406
O O7 0.000000 0.500000 0.583867
O O8 0.472787 0.250000 0.053328
O O9 0.621605 0.376364 0.113838
O O10 0.481890 0.250000 0.204317
O O11 0.679735 0.386783 0.558525
O O12 0.081846 0.750000 0.326300
O O13 0.185086 0.976032 0.324122
O O14 0.000000 0.000000 0.325895
O O15 0.729768 0.030497 0.693342
O O16 0.643960 0.626352 0.306433
#
# Coordination Sequence:
#
# PCOD9362001 Si02
#       8
#     4   8   4   4   8   8   4   8
#     4  12  26  44  61  93 135 169 209 266 335 365
#     4   9  18  32  55  91 127 160 202 267 322 369
#     4  12  22  40  61  93 128 165 219 262 308 370
#     4  12  28  40  63  97 131 171 207 272 321 383
#     4   9  18  32  55  91 130 160 200 267 325 366
#     4  11  21  39  63  93 128 168 216 261 318 379
#     4  12  24  36  65  95 122 169 221 264 306 384
#     4  11  21  39  64  92 126 169 216 263 313 382
#
# _framework density 19.965285999999999
#
# number of rings (size 3 to 8) (size 9 to 14) (size 15 to 20)
#    0.000    1.333    5.000    1.000    2.333    2.667 
#    0.000    0.000    0.000    1.000    0.000    0.000 
#    0.000    0.000    0.000    0.000    0.000    0.000 
#
# Total GULP energy -133760.458642 kJ/mol
# GULP energy per Si atom -5573.352443 kJ/mol
# Density = 1.991984 g / cm^3
# Si number density = 19.965286 Si / 1000 Ang^3
#
#
#
# Elastic Constant Matrix: (Units=GPa)
#
#
# Indices 1 2 3 4 5 6 
#
# 1 145.4839 83.0822 -9.0963 0.0000 0.0000 0.0000
# 2 83.0822 162.8437 11.1722 0.0000 0.0000 0.0000
# 3 -9.0963 11.1722 33.1186 0.0000 0.0000 0.0000
# 4 0.0000 0.0000 0.0000 -11.1128 0.0000 0.0000
# 5 0.0000 0.0000 0.0000 0.0000 3.1273 0.0000
# 6 0.0000 0.0000 0.0000 0.0000 0.0000 2.3026
#
#
#
# Elastic Compliance Matrix: (Units=1/GPa)
#
#
# Indices 1 2 3 4 5 6 
#
# 1 0.010381 -0.005622 0.004748 0.000000 0.000000 0.000000
# 2 -0.005622 0.009331 -0.004692 0.000000 0.000000 0.000000
# 3 0.004748 -0.004692 0.033081 0.000000 0.000000 0.000000
# 4 0.000000 0.000000 0.000000 -0.089986 0.000000 0.000000
# 5 0.000000 0.000000 0.000000 0.000000 0.319765 0.000000
# 6 0.000000 0.000000 0.000000 0.000000 0.000000 0.434294
#
#
# Mechanical properties :
#
#
# Convention : Reuss Voigt Hill
#
# Bulk Modulus (GPa) = 24.00323 56.86250 40.43286
# Shear Modulus (GPa) = 6.73958 15.94930 11.34444
#
# Velocity S-wave (km/s) = 1.83929 2.82946 2.38630
# Velocity P-wave (km/s) = 4.06930 6.26235 5.28092
#
# Compressibility (1/GPa) = 0.04166107
#
# Stress axis : x y z
#
# Youngs Moduli (GPa) = 96.32863 107.16793 30.22858
#
# Poissons Ratio (x) = 0.60251 -0.14352
# Poissons Ratio (y) = 0.54157 0.14183
# Poissons Ratio (z) = -0.45735 0.50282
#
# Static dielectric constant tensor:
#      x y z
#    x 1.754980 0.000000 0.000000 
#    y 0.000000 1.705230 0.000000 
#    z 0.000000 0.000000 1.697390 
# 
# From -- ./inp_files/12714.got.cif
#   From: 2010.05.17/outbox.cif.g08.bks.cpg/sg39_7_cif.got.tgz:12714.got - 2010.06.03 18:22:40.
