data_PCOD9362765
_publ_section_title
;
Structure prediction by ZEFSAII (Michael W. Deem and Ramdas Pophale) SiO2 
 PCOD9362765
Probable space group: A M A 2
;
_chemical_formula_sum "Si O2"
_cell_formula_units_Z 32
_cell_length_a 16.395579
_cell_length_b 6.091291
_cell_length_c 13.412464
_cell_angle_alpha 90.000000
_cell_angle_beta 90.000000
_cell_angle_gamma 90.000000
_cell_volume 1339.506036
_symmetry_space_group_name_H-M "A M A 2"
_symmetry_group_IT_number 40
_symmetry_cell_setting 'orthorhombic'
loop_
_space_group_symop_operation_xyz
x,y,z
-x,-y,z
1/2-x,y,z
1/2+x,-y,z
x,1/2+y,1/2+z
-x,1/2-y,1/2+z
1/2-x,1/2+y,1/2+z
1/2+x,1/2-y,1/2+z
loop_
_atom_site_type_symbol
_atom_site_label
_atom_site_fract_x
_atom_site_fract_y
_atom_site_fract_z
Si Si1 0.750000 0.451778 0.260080
Si Si2 0.420714 0.878701 0.436786
Si Si3 0.750000 0.755728 0.966387
Si Si4 0.118232 0.679730 0.747801
Si Si5 0.500000 0.000000 0.808658
Si Si6 0.750000 0.577251 0.622059
O O1 0.750000 0.271820 0.346959
O O2 0.825479 0.611574 0.269956
O O3 0.750000 0.325649 0.155889
O O4 0.336369 0.850094 0.497286
O O5 0.445707 0.645342 0.386861
O O6 0.500000 0.000000 0.483600
O O7 0.396659 0.036679 0.345469
O O8 0.750000 0.004050 0.008333
O O9 0.033312 0.807853 0.735065
O O10 0.168909 0.534218 0.670328
#
# Coordination Sequence:
#
# PCOD9362765 Si02
#       6
#     4   8   4   8   4   4
#     4  11  20  41  61  87 128 171 230 272 341 426
#     4  10  21  39  70  96 131 177 234 283 355 429
#     4  12  21  42  65  93 138 184 223 299 353 412
#     4  10  19  38  62  87 124 168 221 279 341 421
#     4  10  18  34  66  92 122 176 218 280 352 420
#     4  11  23  37  60  92 126 173 231 287 354 422
#
# _framework density 23.889403000000001
#
# number of rings (size 3 to 8) (size 9 to 14) (size 15 to 20)
#    0.000    1.500    5.000    0.750    0.000    0.000 
#   11.250    0.000    8.250    0.000    0.000    0.000 
#    0.000    0.000    0.000    0.000    0.000    0.000 
#
# Total GULP energy -89170.077587 kJ/mol
# GULP energy per Si atom -5573.129849 kJ/mol
# Density = 2.383503 g / cm^3
# Si number density = 23.889403 Si / 1000 Ang^3
#
#
#
# Elastic Constant Matrix: (Units=GPa)
#
#
# Indices 1 2 3 4 5 6 
#
# 1 115.1931 43.3868 17.0799 0.0000 0.0000 0.0000
# 2 43.3868 127.2076 19.1818 0.0000 0.0000 0.0000
# 3 17.0799 19.1818 42.6106 0.0000 0.0000 0.0000
# 4 0.0000 0.0000 0.0000 28.6550 0.0000 0.0000
# 5 0.0000 0.0000 0.0000 0.0000 4.2185 0.0000
# 6 0.0000 0.0000 0.0000 0.0000 0.0000 52.5373
#
#
#
# Elastic Compliance Matrix: (Units=1/GPa)
#
#
# Indices 1 2 3 4 5 6 
#
# 1 0.010246 -0.003085 -0.002718 0.000000 0.000000 0.000000
# 2 -0.003085 0.009362 -0.002978 0.000000 0.000000 0.000000
# 3 -0.002718 -0.002978 0.025899 0.000000 0.000000 0.000000
# 4 0.000000 0.000000 0.000000 0.034898 0.000000 0.000000
# 5 0.000000 0.000000 0.000000 0.000000 0.237052 0.000000
# 6 0.000000 0.000000 0.000000 0.000000 0.000000 0.019034
#
#
# Mechanical properties :
#
#
# Convention : Reuss Voigt Hill
#
# Bulk Modulus (GPa) = 35.78513 49.36758 42.57635
# Shear Modulus (GPa) = 13.76015 30.77301 22.26658
#
# Velocity S-wave (km/s) = 2.40259 3.59297 3.05629
# Velocity P-wave (km/s) = 4.76536 6.15812 5.50595
#
# Compressibility (1/GPa) = 0.02794457
#
# Stress axis : x y z
#
# Youngs Moduli (GPa) = 97.59946 106.81085 38.61210
#
# Poissons Ratio (x) = 0.32948 0.10496
# Poissons Ratio (y) = 0.30106 0.11499
# Poissons Ratio (z) = 0.26531 0.31810
#
# Static dielectric constant tensor:
#      x y z
#    x 2.298890 0.000000 0.000000 
#    y 0.000000 1.883990 0.000000 
#    z 0.000000 0.000000 1.848150 
# 
# From -- ./inp_files/17359.got.cif
#   From: 2010.05.17/outbox.cif.g08.bks.cpg/sg40_9_cif.got.tgz:17359.got - 2010.06.03 18:35:42.
