data_PCOD9362647
_publ_section_title
;
Structure prediction by ZEFSAII (Michael W. Deem and Ramdas Pophale) SiO2 
 PCOD9362647
Probable space group: A M A 2
;
_chemical_formula_sum "Si O2"
_cell_formula_units_Z 48
_cell_length_a 22.897485
_cell_length_b 10.482157
_cell_length_c 10.005476
_cell_angle_alpha 90.000000
_cell_angle_beta 90.000000
_cell_angle_gamma 90.000000
_cell_volume 2401.464649
_symmetry_space_group_name_H-M "A M A 2"
_symmetry_group_IT_number 40
_symmetry_cell_setting 'orthorhombic'
loop_
_space_group_symop_operation_xyz
x,y,z
-x,-y,z
1/2-x,y,z
1/2+x,-y,z
x,1/2+y,1/2+z
-x,1/2-y,1/2+z
1/2-x,1/2+y,1/2+z
1/2+x,1/2-y,1/2+z
loop_
_atom_site_type_symbol
_atom_site_label
_atom_site_fract_x
_atom_site_fract_y
_atom_site_fract_z
Si Si1 0.500049 0.223808 0.197270
Si Si2 0.817096 0.352955 0.947212
Si Si3 0.132195 0.139133 0.149172
Si Si4 0.981325 0.632149 0.959264
Si Si5 0.368059 0.349668 0.653175
Si Si6 0.343633 0.858080 0.455491
O O1 0.438473 0.163571 0.148388
O O2 0.497722 0.240614 0.356828
O O3 0.561635 0.152953 0.174615
O O4 0.506835 0.347839 0.105313
O O5 0.750000 0.312295 0.934975
O O6 0.848165 0.346024 0.802924
O O7 0.817764 0.503176 0.987487
O O8 0.849028 0.260159 0.051497
O O9 0.145594 0.993825 0.107919
O O10 0.166348 0.240064 0.055262
O O11 0.912818 0.624237 0.970126
O O12 0.000000 0.500000 0.895073
O O13 0.336565 0.328808 0.797504
#
# Coordination Sequence:
#
# PCOD9362647 Si02
#       6
#     8   8   8   8   8   8
#     4  10  18  33  58  86 119 153 185 233 292 351
#     4  11  24  41  60  83 115 156 200 244 288 340
#     4  10  21  38  60  87 117 152 194 239 293 348
#     4  10  18  32  53  81 116 151 185 226 279 340
#     4  10  20  36  59  89 121 153 192 237 292 350
#     4   9  21  38  57  82 113 149 191 237 285 337
#
# _framework density 19.987801999999999
#
# number of rings (size 3 to 8) (size 9 to 14) (size 15 to 20)
#    0.000    2.000    0.000    5.500    0.000    4.667 
#    0.000   10.833    0.000    0.000    0.000    0.000 
#    0.000    0.000    0.000    0.000    0.000    0.000 
#
# Total GULP energy -133683.008653 kJ/mol
# GULP energy per Si atom -5570.125361 kJ/mol
# Density = 1.994231 g / cm^3
# Si number density = 19.987802 Si / 1000 Ang^3
#
#
#
# Elastic Constant Matrix: (Units=GPa)
#
#
# Indices 1 2 3 4 5 6 
#
# 1 58.8665 26.1603 25.1907 0.0000 0.0000 0.0000
# 2 26.1603 123.8016 75.9947 0.0000 0.0000 0.0000
# 3 25.1907 75.9947 93.9625 0.0000 0.0000 0.0000
# 4 0.0000 0.0000 0.0000 37.3696 0.0000 0.0000
# 5 0.0000 0.0000 0.0000 0.0000 5.6749 0.0000
# 6 0.0000 0.0000 0.0000 0.0000 0.0000 17.8610
#
#
#
# Elastic Compliance Matrix: (Units=1/GPa)
#
#
# Indices 1 2 3 4 5 6 
#
# 1 0.019389 -0.001800 -0.003742 0.000000 0.000000 0.000000
# 2 -0.001800 0.016208 -0.012627 0.000000 0.000000 0.000000
# 3 -0.003742 -0.012627 0.021858 0.000000 0.000000 0.000000
# 4 0.000000 0.000000 0.000000 0.026760 0.000000 0.000000
# 5 0.000000 0.000000 0.000000 0.000000 0.176213 0.000000
# 6 0.000000 0.000000 0.000000 0.000000 0.000000 0.055988
#
#
# Mechanical properties :
#
#
# Convention : Reuss Voigt Hill
#
# Bulk Modulus (GPa) = 47.35334 59.03578 53.19456
# Shear Modulus (GPa) = 13.89688 22.13344 18.01516
#
# Velocity S-wave (km/s) = 2.63965 3.33129 3.00544
# Velocity P-wave (km/s) = 5.74743 6.66309 6.22212
#
# Compressibility (1/GPa) = 0.02111783
#
# Stress axis : x y z
#
# Youngs Moduli (GPa) = 51.57589 61.69620 45.75004
#
# Poissons Ratio (x) = 0.11104 0.17122
# Poissons Ratio (y) = 0.09283 0.57766
# Poissons Ratio (z) = 0.19302 0.77901
#
# Static dielectric constant tensor:
#      x y z
#    x 1.725370 0.000000 0.000000 
#    y 0.000000 1.721270 0.000000 
#    z 0.000000 0.000000 1.733890 
# 
# From -- ./inp_files/13927.got.cif
#   From: 2010.05.17/outbox.cif.g08.bks.cpg/sg40_7_cif.got.tgz:13927.got - 2010.06.03 18:35:42.
