data_PCOD9362178
_publ_section_title
;
Structure prediction by ZEFSAII (Michael W. Deem and Ramdas Pophale) SiO2 
 PCOD9362178
Probable space group: A B M 2
;
_chemical_formula_sum "Si O2"
_cell_formula_units_Z 32
_cell_length_a 21.000000
_cell_length_b 9.000000
_cell_length_c 18.000000
_cell_angle_alpha 90.000000
_cell_angle_beta 90.000000
_cell_angle_gamma 90.000000
_cell_volume 3402.000000
_symmetry_space_group_name_H-M "A B M 2"
_symmetry_group_IT_number 39
_symmetry_cell_setting 'orthorhombic'
loop_
_space_group_symop_operation_xyz
x,y,z
-x,-y,z
-x,1/2+y,z
x,1/2-y,z
x,1/2+y,1/2+z
-x,1/2-y,1/2+z
-x,y,1/2+z
x,-y,1/2+z
loop_
_atom_site_type_symbol
_atom_site_label
_atom_site_fract_x
_atom_site_fract_y
_atom_site_fract_z
Si Si1 0.064255 0.071834 0.264560
Si Si2 0.563310 0.419777 0.777223
Si Si3 0.691082 0.925413 0.773386
Si Si4 0.808232 0.079152 0.844801
Si Si5 0.691887 0.072024 0.100903
Si Si6 0.063642 0.574553 0.592076
Si Si7 0.180857 0.420811 0.520500
Si Si8 0.563505 0.420009 0.595763
O O1 0.059004 0.250000 0.268380
O O2 0.126377 0.025642 0.308711
O O3 0.071318 0.027849 0.178287
O O4 0.000000 0.000000 0.294223
O O5 0.500000 0.500000 0.803387
O O6 0.563516 0.250000 0.799721
O O7 0.626954 0.499966 0.802015
O O8 0.562960 0.425691 0.686520
O O9 0.683623 0.750000 0.774806
O O10 0.700504 0.970569 0.687154
O O11 0.750774 0.979037 0.819027
O O12 0.796993 0.250000 0.819650
O O13 0.814422 0.079704 0.932591
O O14 0.686015 0.250000 0.097391
O O15 0.753256 0.025913 0.055397
O O16 0.627350 0.001038 0.071766
O O17 0.056701 0.750000 0.590481
O O18 0.123985 0.521205 0.547584
O O19 0.000000 0.500000 0.562085
O O20 0.170073 0.250000 0.545880
O O21 0.500000 0.500000 0.569640
O O22 0.563749 0.250000 0.573387
#
# Coordination Sequence:
#
# PCOD9362178 Si02
#       8
#     8   8   8   8   8   8   8   8
#     4   9  19  35  55  78 102 130 165 205 249 297
#     4   9  16  27  45  71 102 132 164 206 255 303
#     4  10  19  31  50  75 101 132 171 211 251 299
#     4  10  21  36  52  73 103 136 169 207 252 299
#     4   9  18  32  50  73 101 133 169 209 253 300
#     4  10  20  35  56  79 103 131 165 206 249 297
#     4  10  21  36  53  74 103 137 170 208 253 299
#     4   9  16  26  44  71 101 131 164 206 254 302
#
# _framework density 9.4062319999999993
#
# number of rings (size 3 to 8) (size 9 to 14) (size 15 to 20)
#    0.000    2.500    0.000    2.250    0.000    6.000 
#    0.000    1.250    0.000    0.750    0.000    3.500 
#    0.000    0.000    0.000    0.000    0.000    0.000 
#
# Total GULP energy -178458.421334 kJ/mol
# GULP energy per Si atom -5576.825667 kJ/mol
# Density = 0.938482 g / cm^3
# Si number density = 9.406232 Si / 1000 Ang^3
#
#
#
# Elastic Constant Matrix: (Units=GPa)
#
#
# Indices 1 2 3 4 5 6 
#
# 1 165.3824 67.1350 44.4225 0.0000 0.0000 0.0000
# 2 67.1350 36.8377 27.7183 0.0000 0.0000 0.0000
# 3 44.4225 27.7183 17.1230 0.0000 0.0000 0.0000
# 4 0.0000 0.0000 0.0000 10.1013 0.0000 0.0000
# 5 0.0000 0.0000 0.0000 0.0000 415.1584 0.0000
# 6 0.0000 0.0000 0.0000 0.0000 0.0000 -23.0233
#
#
#
# Elastic Compliance Matrix: (Units=1/GPa)
#
#
# Indices 1 2 3 4 5 6 
#
# 1 0.018877 -0.011222 -0.030806 0.000000 0.000000 0.000000
# 2 -0.011222 -0.117832 0.219857 0.000000 0.000000 0.000000
# 3 -0.030806 0.219857 -0.217577 0.000000 0.000000 0.000000
# 4 0.000000 0.000000 0.000000 0.098997 0.000000 0.000000
# 5 0.000000 0.000000 0.000000 0.000000 0.002409 0.000000
# 6 0.000000 0.000000 0.000000 0.000000 0.000000 -0.043434
#
#
# Mechanical properties :
#
#
# Convention : Reuss Voigt Hill
#
# Bulk Modulus (GPa) = 25.55888 55.32161 40.44025
# Shear Modulus (GPa) = -8.31702 85.78512 38.73405
#
# Velocity S-wave (km/s) = -2.10490 6.76011 4.54250
# Velocity P-wave (km/s) = 2.77636 9.50805 7.00397
#
# Compressibility (1/GPa) = 0.03912534
#
# Stress axis : x y z
#
# Youngs Moduli (GPa) = 52.97539 -8.48664 -4.59608
#
# Poissons Ratio (x) = -0.09524 -0.14159
# Poissons Ratio (y) = 0.59449 1.01048
# Poissons Ratio (z) = 1.63197 1.86585
#
# Static dielectric constant tensor:
#      x y z
#    x 1.626730 0.000000 0.000000 
#    y 0.000000 1.633660 0.000000 
#    z 0.000000 0.000000 1.629530 
# 
# From -- ./inp_files/13103.got.cif
#   From: 2010.05.17/outbox.ucp.g08.bks.cvg/sg39_7_cif.got.tgz:13103.got - 2010.06.11 10:41:16.
