data_PCOD9362845
_publ_section_title
;
Structure prediction by ZEFSAII (Michael W. Deem and Ramdas Pophale) SiO2 
 PCOD9362845
Probable space group: A M A 2
;
_chemical_formula_sum "Si O2"
_cell_formula_units_Z 40
_cell_length_a 16.664071
_cell_length_b 11.856735
_cell_length_c 9.511851
_cell_angle_alpha 90.000000
_cell_angle_beta 90.000000
_cell_angle_gamma 90.000000
_cell_volume 1879.365540
_symmetry_space_group_name_H-M "A M A 2"
_symmetry_group_IT_number 40
_symmetry_cell_setting 'orthorhombic'
loop_
_space_group_symop_operation_xyz
x,y,z
-x,-y,z
1/2-x,y,z
1/2+x,-y,z
x,1/2+y,1/2+z
-x,1/2-y,1/2+z
1/2-x,1/2+y,1/2+z
1/2+x,1/2-y,1/2+z
loop_
_atom_site_type_symbol
_atom_site_label
_atom_site_fract_x
_atom_site_fract_y
_atom_site_fract_z
Si Si1 0.250000 0.851395 0.406340
Si Si2 0.078719 0.237457 0.983622
Si Si3 0.250000 0.467546 0.173014
Si Si4 0.880317 0.004289 0.883869
Si Si5 0.250000 0.478227 0.618969
Si Si6 0.250000 0.207584 0.291307
Si Si7 0.426717 0.248120 0.320038
O O1 0.166444 0.787957 0.443503
O O2 0.250000 0.961646 0.507007
O O3 0.250000 0.891589 0.246570
O O4 0.079144 0.109515 0.930724
O O5 0.003570 0.297495 0.905484
O O6 0.067512 0.233924 0.151705
O O7 0.173945 0.521886 0.247317
O O8 0.250000 0.334190 0.222188
O O9 0.924835 0.117806 0.844698
O O10 0.824753 0.036414 0.016290
O O11 0.250000 0.605589 0.679723
O O12 0.337803 0.202905 0.364086
#
# Coordination Sequence:
#
# PCOD9362845 Si02
#       7
#     4   8   4   8   4   4   8
#     4  12  23  43  66 100 146 168 229 295 335 408
#     4  12  24  46  69 100 137 181 226 290 341 409
#     4   9  17  39  71  92 122 176 227 269 334 408
#     4  10  20  43  71  93 128 183 232 265 346 419
#     4  11  22  37  73 103 127 188 231 276 348 412
#     4  10  18  47  66  89 135 180 211 282 329 396
#     4  11  24  43  73 100 134 179 232 283 340 416
#
# _framework density 21.283777000000001
#
# number of rings (size 3 to 8) (size 9 to 14) (size 15 to 20)
#    0.000    1.200    6.000    2.400    2.800    0.000 
#    3.600    1.000    0.000    0.000    0.000    0.000 
#    0.000    0.000    0.000    0.000    0.000    0.000 
#
# Total GULP energy -111554.622776 kJ/mol
# GULP energy per Si atom -5577.731139 kJ/mol
# Density = 2.123533 g / cm^3
# Si number density = 21.283777 Si / 1000 Ang^3
#
#
#
# Elastic Constant Matrix: (Units=GPa)
#
#
# Indices 1 2 3 4 5 6 
#
# 1 175.9975 11.1842 53.1287 0.0000 0.0000 0.0000
# 2 11.1842 61.6530 13.2331 0.0000 0.0000 0.0000
# 3 53.1287 13.2331 47.1171 0.0000 0.0000 0.0000
# 4 0.0000 0.0000 0.0000 40.3170 0.0000 0.0000
# 5 0.0000 0.0000 0.0000 0.0000 -3.5335 0.0000
# 6 0.0000 0.0000 0.0000 0.0000 0.0000 34.7137
#
#
#
# Elastic Compliance Matrix: (Units=1/GPa)
#
#
# Indices 1 2 3 4 5 6 
#
# 1 0.008632 0.000557 -0.009890 0.000000 0.000000 0.000000
# 2 0.000557 0.017296 -0.005486 0.000000 0.000000 0.000000
# 3 -0.009890 -0.005486 0.033916 0.000000 0.000000 0.000000
# 4 0.000000 0.000000 0.000000 0.024803 0.000000 0.000000
# 5 0.000000 0.000000 0.000000 0.000000 -0.283006 0.000000
# 6 0.000000 0.000000 0.000000 0.000000 0.000000 0.028807
#
#
# Mechanical properties :
#
#
# Convention : Reuss Voigt Hill
#
# Bulk Modulus (GPa) = 33.10480 48.87330 40.98905
# Shear Modulus (GPa) = -38.50720 28.11423 -5.19648
#
# Velocity S-wave (km/s) = -4.25812 3.63839 -1.56423
# Velocity P-wave (km/s) = 2.93047 6.37676 4.00471
#
# Compressibility (1/GPa) = 0.03020710
#
# Stress axis : x y z
#
# Youngs Moduli (GPa) = 115.84909 57.81611 29.48474
#
# Poissons Ratio (x) = -0.03219 0.29159
# Poissons Ratio (y) = -0.06451 0.16174
# Poissons Ratio (z) = 1.14571 0.31716
#
# Static dielectric constant tensor:
#      x y z
#    x 1.894240 0.000000 0.000000 
#    y 0.000000 1.791700 0.000000 
#    z 0.000000 0.000000 1.745710 
# 
# From -- ./inp_files/7197.got.cif
#   From: 2010.05.17/outbox.cif.g08.bks.cpg/sg40_4_cif.got.tgz:7197.got - 2010.06.03 18:35:42.
