data_PCOD9362804
_publ_section_title
;
Structure prediction by ZEFSAII (Michael W. Deem and Ramdas Pophale) SiO2 
 PCOD9362804
Probable space group: A M A 2
;
_chemical_formula_sum "Si O2"
_cell_formula_units_Z 64
_cell_length_a 8.421082
_cell_length_b 31.832009
_cell_length_c 12.257183
_cell_angle_alpha 90.000000
_cell_angle_beta 90.000000
_cell_angle_gamma 90.000000
_cell_volume 3285.659960
_symmetry_space_group_name_H-M "A M A 2"
_symmetry_group_IT_number 40
_symmetry_cell_setting 'orthorhombic'
loop_
_space_group_symop_operation_xyz
x,y,z
-x,-y,z
1/2-x,y,z
1/2+x,-y,z
x,1/2+y,1/2+z
-x,1/2-y,1/2+z
1/2-x,1/2+y,1/2+z
1/2+x,1/2-y,1/2+z
loop_
_atom_site_type_symbol
_atom_site_label
_atom_site_fract_x
_atom_site_fract_y
_atom_site_fract_z
Si Si1 0.058401 0.544649 0.240930
Si Si2 0.939262 0.544500 0.718616
Si Si3 0.941908 0.431985 0.482649
Si Si4 0.057722 0.125693 0.600490
Si Si5 0.556847 0.834367 0.980388
Si Si6 0.440422 0.703041 0.709419
Si Si7 0.557782 0.796738 0.750578
Si Si8 0.440373 0.373737 0.853191
O O1 0.250000 0.545088 0.241794
O O2 0.004223 0.549318 0.366914
O O3 0.006373 0.584962 0.170645
O O4 0.000000 0.500000 0.197085
O O5 0.750000 0.544498 0.723267
O O6 0.998233 0.585483 0.784611
O O7 0.000000 0.500000 0.763234
O O8 0.991431 0.548255 0.592655
O O9 0.750000 0.434755 0.486733
O O10 0.988527 0.383029 0.482327
O O11 0.250000 0.125545 0.599223
O O12 0.006943 0.168498 0.661715
O O13 0.996772 0.123821 0.477581
O O14 0.750000 0.833478 0.979667
O O15 0.502339 0.811775 0.090035
O O16 0.503562 0.812521 0.869424
O O17 0.250000 0.702223 0.710398
O O18 0.497643 0.750072 0.730236
O O19 0.500037 0.668874 0.796338
O O20 0.750000 0.796226 0.750130
O O21 0.250000 0.373753 0.850265
#
# Coordination Sequence:
#
# PCOD9362804 Si02
#       8
#     8   8   8   8   8   8   8   8
#     4  10  21  37  60  89 121 156 196 241 296 354
#     4  11  24  40  60  88 119 154 196 244 297 352
#     4  10  18  36  63  89 120 156 194 238 290 353
#     4  10  22  41  63  86 117 159 203 244 294 355
#     4   9  18  36  63  88 117 157 194 235 294 351
#     4  11  23  39  62  92 121 157 200 241 294 358
#     4  10  21  40  63  89 122 158 196 245 296 349
#     4  11  25  43  61  85 119 157 200 250 299 346
#
# _framework density 19.478584000000001
#
# number of rings (size 3 to 8) (size 9 to 14) (size 15 to 20)
#    0.000    1.750    2.500    1.500    1.750    4.500 
#    0.000    3.750    0.000    0.000    0.000    0.000 
#    0.000    0.000    0.000    0.000    0.000    0.000 
#
# Total GULP energy -178774.649088 kJ/mol
# GULP energy per Si atom -5586.707784 kJ/mol
# Density = 1.943425 g / cm^3
# Si number density = 19.478584 Si / 1000 Ang^3
#
#
#
# Elastic Constant Matrix: (Units=GPa)
#
#
# Indices 1 2 3 4 5 6 
#
# 1 22.0748 27.4457 23.1804 0.0000 0.0000 0.0000
# 2 27.4457 197.6456 87.0972 0.0000 0.0000 0.0000
# 3 23.1804 87.0972 148.3109 0.0000 0.0000 0.0000
# 4 0.0000 0.0000 0.0000 146.6636 0.0000 0.0000
# 5 0.0000 0.0000 0.0000 0.0000 -15.3372 0.0000
# 6 0.0000 0.0000 0.0000 0.0000 0.0000 32.7493
#
#
#
# Elastic Compliance Matrix: (Units=1/GPa)
#
#
# Indices 1 2 3 4 5 6 
#
# 1 0.058324 -0.005507 -0.005882 0.000000 0.000000 0.000000
# 2 -0.005507 0.007346 -0.003453 0.000000 0.000000 0.000000
# 3 -0.005882 -0.003453 0.009690 0.000000 0.000000 0.000000
# 4 0.000000 0.000000 0.000000 0.006818 0.000000 0.000000
# 5 0.000000 0.000000 0.000000 0.000000 -0.065201 0.000000
# 6 0.000000 0.000000 0.000000 0.000000 0.000000 0.030535
#
#
# Mechanical properties :
#
#
# Convention : Reuss Voigt Hill
#
# Bulk Modulus (GPa) = 21.89359 71.49754 46.69557
# Shear Modulus (GPa) = 54.10018 48.16903 51.13460
#
# Velocity S-wave (km/s) = 5.27584 4.97824 5.12920
# Velocity P-wave (km/s) = 6.95535 8.35639 7.68785
#
# Compressibility (1/GPa) = 0.04567547
#
# Stress axis : x y z
#
# Youngs Moduli (GPa) = 17.14570 136.12682 103.20058
#
# Poissons Ratio (x) = 0.74967 0.60699
# Poissons Ratio (y) = 0.09442 0.35639
# Poissons Ratio (z) = 0.10084 0.47009
#
# Static dielectric constant tensor:
#      x y z
#    x 1.673210 0.000000 0.000000 
#    y 0.000000 1.668330 0.000000 
#    z 0.000000 0.000000 1.662930 
# 
# From -- ./inp_files/10646.got.cif
#   From: 2010.05.17/outbox.cif.g08.bks.cpg/sg40_6_cif.got.tgz:10646.got - 2010.06.03 18:35:42.
