data_PCOD9362830
_publ_section_title
;
Structure prediction by ZEFSAII (Michael W. Deem and Ramdas Pophale) SiO2 
 PCOD9362830
Probable space group: A M A 2
;
_chemical_formula_sum "Si O2"
_cell_formula_units_Z 52
_cell_length_a 20.672665
_cell_length_b 12.221557
_cell_length_c 9.964365
_cell_angle_alpha 90.000000
_cell_angle_beta 90.000000
_cell_angle_gamma 90.000000
_cell_volume 2517.518277
_symmetry_space_group_name_H-M "A M A 2"
_symmetry_group_IT_number 40
_symmetry_cell_setting 'orthorhombic'
loop_
_space_group_symop_operation_xyz
x,y,z
-x,-y,z
1/2-x,y,z
1/2+x,-y,z
x,1/2+y,1/2+z
-x,1/2-y,1/2+z
1/2-x,1/2+y,1/2+z
1/2+x,1/2-y,1/2+z
loop_
_atom_site_type_symbol
_atom_site_label
_atom_site_fract_x
_atom_site_fract_y
_atom_site_fract_z
Si Si1 0.381116 0.111677 0.142080
Si Si2 0.456239 0.098471 0.886131
Si Si3 0.250000 0.202815 0.572356
Si Si4 0.607197 0.351870 0.125438
Si Si5 0.978573 0.330316 0.867889
Si Si6 0.611765 0.622408 0.775310
Si Si7 0.750000 0.847606 0.269091
Si Si8 0.250000 0.388572 0.797268
O O1 0.441330 0.155585 0.228161
O O2 0.315741 0.171043 0.187577
O O3 0.377064 0.983982 0.184186
O O4 0.397711 0.121074 0.987128
O O5 0.426129 0.075712 0.740098
O O6 0.501373 0.204458 0.883918
O O7 0.500000 0.000000 0.936766
O O8 0.315742 0.138063 0.607972
O O9 0.250000 0.214466 0.411184
O O10 0.250000 0.317591 0.656429
O O11 0.598950 0.228080 0.183001
O O12 0.569862 0.363299 0.986122
O O13 0.047337 0.392585 0.862699
O O14 0.679172 0.641135 0.854605
O O15 0.750000 0.979440 0.294903
#
# Coordination Sequence:
#
# PCOD9362830 Si02
#       8
#     8   8   4   8   8   8   4   4
#     4  11  21  38  62  87 113 153 201 248 290 361
#     4  11  23  38  55  85 124 153 195 247 307 365
#     4  10  18  39  59  86 123 155 206 260 305 373
#     4  10  21  36  59  86 116 158 189 248 315 356
#     4  11  20  35  59  85 114 152 198 240 293 356
#     4   9  19  35  59  87 110 147 200 240 290 360
#     4  10  20  37  63  92 115 155 216 254 301 375
#     4   8  18  34  58  90 114 154 194 254 310 362
#
# _framework density 20.655262
#
# number of rings (size 3 to 8) (size 9 to 14) (size 15 to 20)
#    0.000    1.846    1.538    4.154    0.000    1.846 
#    0.000    0.769    0.000    1.846    0.000    0.000 
#    0.000    0.000    0.000    0.000    0.000    0.000 
#
# Total GULP energy -145067.171045 kJ/mol
# GULP energy per Si atom -5579.506579 kJ/mol
# Density = 2.060825 g / cm^3
# Si number density = 20.655262 Si / 1000 Ang^3
#
#
#
# Elastic Constant Matrix: (Units=GPa)
#
#
# Indices 1 2 3 4 5 6 
#
# 1 164.3740 -0.8658 31.5971 0.0000 0.0000 0.0000
# 2 -0.8658 32.3988 -11.8229 0.0000 0.0000 0.0000
# 3 31.5971 -11.8229 59.4037 0.0000 0.0000 0.0000
# 4 0.0000 0.0000 0.0000 13.8732 0.0000 0.0000
# 5 0.0000 0.0000 0.0000 0.0000 30.2616 0.0000
# 6 0.0000 0.0000 0.0000 0.0000 0.0000 16.4072
#
#
#
# Elastic Compliance Matrix: (Units=1/GPa)
#
#
# Indices 1 2 3 4 5 6 
#
# 1 0.006822 -0.001231 -0.003874 0.000000 0.000000 0.000000
# 2 -0.001231 0.033505 0.007323 0.000000 0.000000 0.000000
# 3 -0.003874 0.007323 0.020352 0.000000 0.000000 0.000000
# 4 0.000000 0.000000 0.000000 0.072081 0.000000 0.000000
# 5 0.000000 0.000000 0.000000 0.000000 0.033045 0.000000
# 6 0.000000 0.000000 0.000000 0.000000 0.000000 0.060949
#
#
# Mechanical properties :
#
#
# Convention : Reuss Voigt Hill
#
# Bulk Modulus (GPa) = 15.35738 32.66593 24.01166
# Shear Modulus (GPa) = 20.48993 27.92628 24.20811
#
# Velocity S-wave (km/s) = 3.15301 3.68097 3.42717
# Velocity P-wave (km/s) = 4.55045 5.82367 5.22598
#
# Compressibility (1/GPa) = 0.06511527
#
# Stress axis : x y z
#
# Youngs Moduli (GPa) = 146.58865 29.84647 49.13554
#
# Poissons Ratio (x) = 0.03675 0.19033
# Poissons Ratio (y) = 0.18049 -0.35983
# Poissons Ratio (z) = 0.56783 -0.21857
#
# Static dielectric constant tensor:
#      x y z
#    x 1.784480 0.000000 0.000000 
#    y 0.000000 1.731810 0.000000 
#    z 0.000000 0.000000 1.726250 
# 
# From -- ./inp_files/8269.got.cif
#   From: 2010.05.17/outbox.cif.g08.bks.cpg/sg40_5_cif.got.tgz:8269.got - 2010.06.03 18:35:42.
