data_PCOD9362292
_publ_section_title
;
Structure prediction by ZEFSAII (Michael W. Deem and Ramdas Pophale) SiO2 
 PCOD9362292
Probable space group: A M A 2
;
_chemical_formula_sum "Si O2"
_cell_formula_units_Z 48
_cell_length_a 8.427757
_cell_length_b 32.761524
_cell_length_c 9.313848
_cell_angle_alpha 90.000000
_cell_angle_beta 90.000000
_cell_angle_gamma 90.000000
_cell_volume 2571.610836
_symmetry_space_group_name_H-M "A M A 2"
_symmetry_group_IT_number 40
_symmetry_cell_setting 'orthorhombic'
loop_
_space_group_symop_operation_xyz
x,y,z
-x,-y,z
1/2-x,y,z
1/2+x,-y,z
x,1/2+y,1/2+z
-x,1/2-y,1/2+z
1/2-x,1/2+y,1/2+z
1/2+x,1/2-y,1/2+z
loop_
_atom_site_type_symbol
_atom_site_label
_atom_site_fract_x
_atom_site_fract_y
_atom_site_fract_z
Si Si1 0.942013 0.711520 0.820670
Si Si2 0.438347 0.041961 0.828584
Si Si3 0.058250 0.871794 0.816077
Si Si4 0.943436 0.131504 0.150880
Si Si5 0.441892 0.290446 0.150527
Si Si6 0.938625 0.042594 0.157176
O O1 0.750000 0.710980 0.819459
O O2 0.997980 0.670517 0.740006
O O3 0.998251 0.751662 0.738516
O O4 0.995050 0.711964 0.985709
O O5 0.250000 0.040077 0.841705
O O6 0.490630 0.085015 0.762314
O O7 0.500000 0.000000 0.758564
O O8 0.513972 0.042700 0.988638
O O9 0.250000 0.874452 0.813215
O O10 0.007472 0.832800 0.724309
O O11 0.010078 0.865550 0.983079
O O12 0.750000 0.131634 0.153242
O O13 0.995180 0.087080 0.210279
O O14 0.250000 0.289986 0.152711
O O15 0.750000 0.041695 0.166634
O O16 0.000000 0.000000 0.220705
#
# Coordination Sequence:
#
# PCOD9362292 Si02
#       6
#     8   8   8   8   8   8
#     4  10  20  35  54  75 100 132 169 206 250 304
#     4  10  17  26  43  69  98 127 161 200 243 287
#     4   9  17  31  48  68  97 131 165 201 245 293
#     4   8  15  28  47  68  94 129 163 198 241 289
#     4  10  21  35  53  76 100 130 167 207 253 302
#     4   9  15  25  42  66  96 129 163 200 245 289
#
# _framework density 18.665344000000001
#
# number of rings (size 3 to 8) (size 9 to 14) (size 15 to 20)
#    0.000    2.667    0.000    5.000    0.000    2.667 
#    0.000    5.833    0.000    1.000    0.000    2.333 
#    0.000    0.000    0.000    0.000    0.000    0.000 
#
# Total GULP energy -133760.121424 kJ/mol
# GULP energy per Si atom -5573.338393 kJ/mol
# Density = 1.862286 g / cm^3
# Si number density = 18.665344 Si / 1000 Ang^3
#
#
#
# Elastic Constant Matrix: (Units=GPa)
#
#
# Indices 1 2 3 4 5 6 
#
# 1 17.8483 28.5156 13.7669 0.0000 0.0000 0.0000
# 2 28.5156 240.7418 83.9613 0.0000 0.0000 0.0000
# 3 13.7669 83.9613 82.5344 0.0000 0.0000 0.0000
# 4 0.0000 0.0000 0.0000 25.4152 0.0000 0.0000
# 5 0.0000 0.0000 0.0000 0.0000 14.2459 0.0000
# 6 0.0000 0.0000 0.0000 0.0000 0.0000 33.4235
#
#
#
# Elastic Compliance Matrix: (Units=1/GPa)
#
#
# Indices 1 2 3 4 5 6 
#
# 1 0.070441 -0.006581 -0.005055 0.000000 0.000000 0.000000
# 2 -0.006581 0.007053 -0.006077 0.000000 0.000000 0.000000
# 3 -0.005055 -0.006077 0.019141 0.000000 0.000000 0.000000
# 4 0.000000 0.000000 0.000000 0.039347 0.000000 0.000000
# 5 0.000000 0.000000 0.000000 0.000000 0.070196 0.000000
# 6 0.000000 0.000000 0.000000 0.000000 0.000000 0.029919
#
#
# Mechanical properties :
#
#
# Convention : Reuss Voigt Hill
#
# Bulk Modulus (GPa) = 16.33743 65.95690 41.14717
# Shear Modulus (GPa) = 17.12768 28.94228 23.03498
#
# Velocity S-wave (km/s) = 3.03251 3.94202 3.51679
# Velocity P-wave (km/s) = 4.58621 7.49217 6.21152
#
# Compressibility (1/GPa) = 0.06120914
#
# Stress axis : x y z
#
# Youngs Moduli (GPa) = 14.19634 141.78959 52.24260
#
# Poissons Ratio (x) = 0.93305 0.26410
# Poissons Ratio (y) = 0.09342 0.31748
# Poissons Ratio (z) = 0.07177 0.86165
#
# Static dielectric constant tensor:
#      x y z
#    x 1.642130 0.000000 0.000000 
#    y 0.000000 1.688990 0.000000 
#    z 0.000000 0.000000 1.629520 
# 
# From -- ./inp_files/4570.got.cif
#   From: 2010.05.17/outbox.cif.g08.bks.cpg/sg40_3_cif.got.tgz:4570.got - 2010.06.03 18:35:42.
