data_PCOD9362791
_publ_section_title
;
Structure prediction by ZEFSAII (Michael W. Deem and Ramdas Pophale) SiO2 
 PCOD9362791
Probable space group: A M A 2
;
_chemical_formula_sum "Si O2"
_cell_formula_units_Z 48
_cell_length_a 14.107325
_cell_length_b 17.184561
_cell_length_c 9.971673
_cell_angle_alpha 90.000000
_cell_angle_beta 90.000000
_cell_angle_gamma 90.000000
_cell_volume 2417.414607
_symmetry_space_group_name_H-M "A M A 2"
_symmetry_group_IT_number 40
_symmetry_cell_setting 'orthorhombic'
loop_
_space_group_symop_operation_xyz
x,y,z
-x,-y,z
1/2-x,y,z
1/2+x,-y,z
x,1/2+y,1/2+z
-x,1/2-y,1/2+z
1/2-x,1/2+y,1/2+z
1/2+x,1/2-y,1/2+z
loop_
_atom_site_type_symbol
_atom_site_label
_atom_site_fract_x
_atom_site_fract_y
_atom_site_fract_z
Si Si1 0.146181 0.160873 0.992200
Si Si2 0.491635 0.649646 0.898345
Si Si3 0.358013 0.335236 0.112580
Si Si4 0.400387 0.532656 0.707542
Si Si5 0.352663 0.862327 0.187379
Si Si6 0.936782 0.678952 0.406725
O O1 0.250000 0.157779 0.924229
O O2 0.048345 0.155664 0.909567
O O3 0.140286 0.243977 0.068632
O O4 0.142478 0.092439 0.102243
O O5 0.427039 0.581044 0.840475
O O6 0.562955 0.672707 0.775930
O O7 0.434536 0.727666 0.929830
O O8 0.561839 0.626812 0.018500
O O9 0.250000 0.362872 0.090480
O O10 0.387902 0.340894 0.266829
O O11 0.500000 0.500000 0.651039
O O12 0.347375 0.452503 0.730777
O O13 0.250000 0.825393 0.210169
O O14 0.382830 0.858035 0.032796
#
# Coordination Sequence:
#
# PCOD9362791 Si02
#       6
#     8   8   8   8   8   8
#     4  10  19  34  57  84 116 157 199 242 300 363
#     4  10  19  36  58  83 123 161 197 239 304 367
#     4  10  20  33  56  88 122 157 196 250 310 360
#     4  10  18  36  59  83 114 157 200 241 298 349
#     4  11  22  36  62  90 118 155 210 255 292 360
#     4  11  19  36  56  90 123 154 198 258 310 351
#
# _framework density 19.855923000000001
#
# number of rings (size 3 to 8) (size 9 to 14) (size 15 to 20)
#    0.000    1.667    5.000    2.500    0.000    0.667 
#    0.000    0.000   11.000    2.000    0.000    0.000 
#    0.000    0.000    0.000    0.000    0.000    0.000 
#
# Total GULP energy -133836.218099 kJ/mol
# GULP energy per Si atom -5576.509087 kJ/mol
# Density = 1.981073 g / cm^3
# Si number density = 19.855923 Si / 1000 Ang^3
#
#
#
# Elastic Constant Matrix: (Units=GPa)
#
#
# Indices 1 2 3 4 5 6 
#
# 1 76.1548 14.0478 10.1533 0.0000 0.0000 0.0000
# 2 14.0478 68.9754 9.2120 0.0000 0.0000 0.0000
# 3 10.1533 9.2120 88.0460 0.0000 0.0000 0.0000
# 4 0.0000 0.0000 0.0000 28.0382 0.0000 0.0000
# 5 0.0000 0.0000 0.0000 0.0000 3.4829 0.0000
# 6 0.0000 0.0000 0.0000 0.0000 0.0000 3.8755
#
#
#
# Elastic Compliance Matrix: (Units=1/GPa)
#
#
# Indices 1 2 3 4 5 6 
#
# 1 0.013792 -0.002633 -0.001315 0.000000 0.000000 0.000000
# 2 -0.002633 0.015206 -0.001287 0.000000 0.000000 0.000000
# 3 -0.001315 -0.001287 0.011644 0.000000 0.000000 0.000000
# 4 0.000000 0.000000 0.000000 0.035666 0.000000 0.000000
# 5 0.000000 0.000000 0.000000 0.000000 0.287115 0.000000
# 6 0.000000 0.000000 0.000000 0.000000 0.000000 0.258033
#
#
# Mechanical properties :
#
#
# Convention : Reuss Voigt Hill
#
# Bulk Modulus (GPa) = 33.14426 33.33361 33.23894
# Shear Modulus (GPa) = 7.78835 20.39686 14.09260
#
# Velocity S-wave (km/s) = 1.98266 3.20854 2.66699
# Velocity P-wave (km/s) = 4.68720 5.52725 5.12447
#
# Compressibility (1/GPa) = 0.03017114
#
# Stress axis : x y z
#
# Youngs Moduli (GPa) = 72.50466 65.76279 85.88095
#
# Poissons Ratio (x) = 0.17318 0.11293
# Poissons Ratio (y) = 0.19093 0.11056
# Poissons Ratio (z) = 0.09534 0.08466
#
# Static dielectric constant tensor:
#      x y z
#    x 1.780620 0.000000 0.000000 
#    y 0.000000 1.720710 0.000000 
#    z 0.000000 0.000000 1.682740 
# 
# From -- ./inp_files/6452.got.cif
#   From: 2010.05.17/outbox.cif.g08.bks.cpg/sg40_4_cif.got.tgz:6452.got - 2010.06.03 18:35:42.
