data_PCOD9362564
_publ_section_title
;
Structure prediction by ZEFSAII (Michael W. Deem and Ramdas Pophale) SiO2 
 PCOD9362564
Probable space group: A M A 2
;
_chemical_formula_sum "Si O2"
_cell_formula_units_Z 64
_cell_length_a 8.018786
_cell_length_b 25.961687
_cell_length_c 15.436364
_cell_angle_alpha 90.000000
_cell_angle_beta 90.000000
_cell_angle_gamma 90.000000
_cell_volume 3213.560970
_symmetry_space_group_name_H-M "A M A 2"
_symmetry_group_IT_number 40
_symmetry_cell_setting 'orthorhombic'
loop_
_space_group_symop_operation_xyz
x,y,z
-x,-y,z
1/2-x,y,z
1/2+x,-y,z
x,1/2+y,1/2+z
-x,1/2-y,1/2+z
1/2-x,1/2+y,1/2+z
1/2+x,1/2-y,1/2+z
loop_
_atom_site_type_symbol
_atom_site_label
_atom_site_fract_x
_atom_site_fract_y
_atom_site_fract_z
Si Si1 0.051402 0.233164 0.224590
Si Si2 0.045745 0.166607 0.934135
Si Si3 0.446314 0.557653 0.123739
Si Si4 0.953087 0.365266 0.615028
Si Si5 0.949625 0.940703 0.264739
Si Si6 0.053953 0.780875 0.420369
Si Si7 0.952258 0.847328 0.736808
Si Si8 0.051290 0.393155 0.948096
O O1 0.250000 0.228900 0.237827
O O2 0.001963 0.190330 0.155027
O O3 0.965433 0.220168 0.316167
O O4 0.010081 0.291947 0.201021
O O5 0.250000 0.167580 0.933138
O O6 0.986734 0.225503 0.949472
O O7 0.994218 0.150274 0.837752
O O8 0.991642 0.132485 0.015442
O O9 0.500000 0.500000 0.145828
O O10 0.250000 0.559359 0.135688
O O11 0.516887 0.604149 0.182372
O O12 0.484855 0.570968 0.024181
O O13 0.750000 0.367591 0.614244
O O14 0.012426 0.408724 0.681549
O O15 0.750000 0.937209 0.265852
O O16 0.011640 0.915188 0.353559
O O17 0.000000 0.000000 0.260775
O O18 0.250000 0.780828 0.442205
O O19 0.982218 0.834635 0.454651
O O20 0.750000 0.846770 0.735504
O O21 0.250000 0.391088 0.957098
#
# Coordination Sequence:
#
# PCOD9362564 Si02
#       8
#     8   8   8   8   8   8   8   8
#     4  10  18  30  53  83 114 145 182 225 271 325
#     4   8  15  32  55  79 109 145 183 218 266 330
#     4  11  24  41  59  81 110 146 191 240 288 337
#     4   9  18  31  53  82 111 143 182 228 271 322
#     4  11  22  38  56  79 112 150 189 231 279 331
#     4   9  18  32  53  79 112 148 184 219 267 332
#     4   9  20  38  58  80 110 148 186 231 282 333
#     4  11  22  36  57  85 113 148 186 229 282 337
#
# _framework density 19.915600999999999
#
# number of rings (size 3 to 8) (size 9 to 14) (size 15 to 20)
#    0.000    2.250    1.250    2.625    1.750    1.500 
#    0.000    0.625    0.000    6.750    0.000    0.000 
#    0.000    0.000    0.000    0.000    0.000    0.000 
#
# Total GULP energy -178597.025085 kJ/mol
# GULP energy per Si atom -5581.157034 kJ/mol
# Density = 1.987027 g / cm^3
# Si number density = 19.915601 Si / 1000 Ang^3
#
#
#
# Elastic Constant Matrix: (Units=GPa)
#
#
# Indices 1 2 3 4 5 6 
#
# 1 18.5887 3.5424 -8.1782 0.0000 0.0000 0.0000
# 2 3.5424 114.3350 35.9907 0.0000 0.0000 0.0000
# 3 -8.1782 35.9907 56.6179 0.0000 0.0000 0.0000
# 4 0.0000 0.0000 0.0000 28.8646 0.0000 0.0000
# 5 0.0000 0.0000 0.0000 0.0000 7.2430 0.0000
# 6 0.0000 0.0000 0.0000 0.0000 0.0000 16.5416
#
#
#
# Elastic Compliance Matrix: (Units=1/GPa)
#
#
# Indices 1 2 3 4 5 6 
#
# 1 0.060343 -0.005767 0.012382 0.000000 0.000000 0.000000
# 2 -0.005767 0.011485 -0.008134 0.000000 0.000000 0.000000
# 3 0.012382 -0.008134 0.024621 0.000000 0.000000 0.000000
# 4 0.000000 0.000000 0.000000 0.034645 0.000000 0.000000
# 5 0.000000 0.000000 0.000000 0.000000 0.138065 0.000000
# 6 0.000000 0.000000 0.000000 0.000000 0.000000 0.060454
#
#
# Mechanical properties :
#
#
# Convention : Reuss Voigt Hill
#
# Bulk Modulus (GPa) = 10.70531 28.02793 19.36662
# Shear Modulus (GPa) = 13.74427 21.07562 17.40994
#
# Velocity S-wave (km/s) = 2.62987 3.25660 2.95987
# Velocity P-wave (km/s) = 3.82213 5.31455 4.62888
#
# Compressibility (1/GPa) = 0.09341160
#
# Stress axis : x y z
#
# Youngs Moduli (GPa) = 16.57200 87.06726 40.61495
#
# Poissons Ratio (x) = 0.50214 -0.50291
# Poissons Ratio (y) = 0.09558 0.33036
# Poissons Ratio (z) = -0.20520 0.70821
#
# Static dielectric constant tensor:
#      x y z
#    x 1.704720 0.000000 0.000000 
#    y 0.000000 1.714200 0.000000 
#    z 0.000000 0.000000 1.707990 
# 
# From -- ./inp_files/15701.got.cif
#   From: 2010.05.17/outbox.cif.g08.bks.cpg/sg40_8_cif.got.tgz:15701.got - 2010.06.03 18:35:42.
