data_PCOD9362886
_publ_section_title
;
Structure prediction by ZEFSAII (Michael W. Deem and Ramdas Pophale) SiO2 
 PCOD9362886
Probable space group: A M A 2
;
_chemical_formula_sum "Si O2"
_cell_formula_units_Z 64
_cell_length_a 8.044082
_cell_length_b 13.751500
_cell_length_c 23.798045
_cell_angle_alpha 90.000000
_cell_angle_beta 90.000000
_cell_angle_gamma 90.000000
_cell_volume 2632.496750
_symmetry_space_group_name_H-M "A M A 2"
_symmetry_group_IT_number 40
_symmetry_cell_setting 'orthorhombic'
loop_
_space_group_symop_operation_xyz
x,y,z
-x,-y,z
1/2-x,y,z
1/2+x,-y,z
x,1/2+y,1/2+z
-x,1/2-y,1/2+z
1/2-x,1/2+y,1/2+z
1/2+x,1/2-y,1/2+z
loop_
_atom_site_type_symbol
_atom_site_label
_atom_site_fract_x
_atom_site_fract_y
_atom_site_fract_z
Si Si1 0.052555 0.848443 0.875000
Si Si2 0.552138 0.678038 0.139297
Si Si3 0.948620 0.900342 0.992807
Si Si4 0.439378 0.863997 0.758148
Si Si5 0.453095 0.821364 0.517555
Si Si6 0.935035 0.605112 0.659941
Si Si7 0.940014 0.635082 0.896626
Si Si8 0.566858 0.369381 0.775987
O O1 0.250000 0.825494 0.867785
O O2 0.986473 0.896521 0.817587
O O3 0.035388 0.905290 0.932277
O O4 0.947838 0.751464 0.887756
O O5 0.750000 0.661088 0.140721
O O6 0.480979 0.629582 0.196407
O O7 0.489037 0.642845 0.078681
O O8 0.531053 0.795646 0.144177
O O9 0.750000 0.898749 0.987934
O O10 0.998334 0.793715 0.015673
O O11 0.000000 0.000000 0.023018
O O12 0.250000 0.901944 0.754522
O O13 0.432098 0.747815 0.770412
O O14 0.250000 0.825811 0.515723
O O15 0.510534 0.874887 0.460125
O O16 0.750000 0.618996 0.638916
O O17 0.000000 0.500000 0.642187
O O18 0.939748 0.600673 0.728136
O O19 0.750000 0.600634 0.895243
O O20 0.032275 0.601887 0.840163
O O21 0.750000 0.403039 0.759171
#
# Coordination Sequence:
#
# PCOD9362886 Si02
#       8
#     8   8   8   8   8   8   8   8
#     4   9  15  25  40  59  79 103 134 172 214 255
#     4   9  16  30  46  61  84 115 146 176 205 245
#     4  10  19  30  41  57  79 109 144 178 212 248
#     4   7  12  22  40  60  77  98 129 165 205 245
#     4   8  16  28  43  61  85 115 146 175 207 244
#     4  11  21  32  44  61  84 113 146 182 217 255
#     4   9  15  25  41  63  85 107 136 173 213 253
#     4   9  16  28  44  62  81 106 137 173 216 259
#
# _framework density 24.311520000000002
#
# number of rings (size 3 to 8) (size 9 to 14) (size 15 to 20)
#    0.000    3.000    0.000    4.875    0.000    0.500 
#    0.000    5.625    0.000    0.000    0.000    0.000 
#    0.000    1.000    0.000    5.500    0.000    3.375 
#
# Total GULP energy -178316.233386 kJ/mol
# GULP energy per Si atom -5572.382293 kJ/mol
# Density = 2.425619 g / cm^3
# Si number density = 24.311520 Si / 1000 Ang^3
#
#
#
# Elastic Constant Matrix: (Units=GPa)
#
#
# Indices 1 2 3 4 5 6 
#
# 1 47.3693 -5.2662 10.7788 0.0000 0.0000 0.0000
# 2 -5.2662 49.0536 -10.3707 0.0000 0.0000 0.0000
# 3 10.7788 -10.3707 221.9055 0.0000 0.0000 0.0000
# 4 0.0000 0.0000 0.0000 -18.8486 0.0000 0.0000
# 5 0.0000 0.0000 0.0000 0.0000 12.1013 0.0000
# 6 0.0000 0.0000 0.0000 0.0000 0.0000 9.3366
#
#
#
# Elastic Compliance Matrix: (Units=1/GPa)
#
#
# Indices 1 2 3 4 5 6 
#
# 1 0.021562 0.002114 -0.000949 0.000000 0.000000 0.000000
# 2 0.002114 0.020797 0.000869 0.000000 0.000000 0.000000
# 3 -0.000949 0.000869 0.004593 0.000000 0.000000 0.000000
# 4 0.000000 0.000000 0.000000 -0.053054 0.000000 0.000000
# 5 0.000000 0.000000 0.000000 0.000000 0.082636 0.000000
# 6 0.000000 0.000000 0.000000 0.000000 0.000000 0.107106
#
#
# Mechanical properties :
#
#
# Convention : Reuss Voigt Hill
#
# Bulk Modulus (GPa) = 19.59969 34.29023 26.94496
# Shear Modulus (GPa) = 25.43553 22.06364 23.74959
#
# Velocity S-wave (km/s) = 3.23806 3.01581 3.12891
# Velocity P-wave (km/s) = 4.69675 5.12464 4.91535
#
# Compressibility (1/GPa) = 0.05102122
#
# Stress axis : x y z
#
# Youngs Moduli (GPa) = 46.37874 48.08479 217.71699
#
# Poissons Ratio (x) = -0.10166 0.20651
# Poissons Ratio (y) = -0.09806 -0.18925
# Poissons Ratio (z) = 0.04399 -0.04180
#
# Static dielectric constant tensor:
#      x y z
#    x 1.903180 0.000000 0.000000 
#    y 0.000000 1.969970 0.000000 
#    z 0.000000 0.000000 2.039560 
# 
# From -- ./inp_files/22521.got.cif
#   From: 2010.05.17/outbox.cif.g08.bks.cpg/sg40_12_cif.got.tgz:22521.got - 2010.06.03 18:35:42.
