data_PCOD9362417
_publ_section_title
;
Structure prediction by ZEFSAII (Michael W. Deem and Ramdas Pophale) SiO2 
 PCOD9362417
Probable space group: A M A 2
;
_chemical_formula_sum "Si O2"
_cell_formula_units_Z 64
_cell_length_a 8.627349
_cell_length_b 26.979874
_cell_length_c 19.129151
_cell_angle_alpha 90.000000
_cell_angle_beta 90.000000
_cell_angle_gamma 90.000000
_cell_volume 4452.592796
_symmetry_space_group_name_H-M "A M A 2"
_symmetry_group_IT_number 40
_symmetry_cell_setting 'orthorhombic'
loop_
_space_group_symop_operation_xyz
x,y,z
-x,-y,z
1/2-x,y,z
1/2+x,-y,z
x,1/2+y,1/2+z
-x,1/2-y,1/2+z
1/2-x,1/2+y,1/2+z
1/2+x,1/2-y,1/2+z
loop_
_atom_site_type_symbol
_atom_site_label
_atom_site_fract_x
_atom_site_fract_y
_atom_site_fract_z
Si Si1 0.561563 0.741433 0.702410
Si Si2 0.434887 0.644164 0.781068
Si Si3 0.562535 0.243030 0.043159
Si Si4 0.434242 0.445563 0.695934
Si Si5 0.435012 0.355534 0.457155
Si Si6 0.936722 0.294519 0.908846
Si Si7 0.065565 0.554603 0.542920
Si Si8 0.566755 0.301464 0.331434
O O1 0.750000 0.736933 0.704310
O O2 0.491720 0.691527 0.735974
O O3 0.508044 0.746943 0.622556
O O4 0.520495 0.788197 0.751950
O O5 0.250000 0.639488 0.773681
O O6 0.514671 0.595361 0.751526
O O7 0.470432 0.657390 0.862223
O O8 0.750000 0.241590 0.046525
O O9 0.514982 0.191577 0.005465
O O10 0.522569 0.287921 0.990259
O O11 0.500000 0.500000 0.712528
O O12 0.250000 0.448090 0.690968
O O13 0.500555 0.431320 0.619587
O O14 0.250000 0.359336 0.462211
O O15 0.511460 0.404663 0.487590
O O16 0.481926 0.342708 0.377669
O O17 0.750000 0.285671 0.902619
O O18 0.024966 0.249710 0.870945
O O19 0.250000 0.552256 0.546539
O O20 0.000000 0.500000 0.526835
O O21 0.750000 0.310589 0.333847
#
# Coordination Sequence:
#
# PCOD9362417 Si02
#       8
#     8   8   8   8   8   8   8   8
#     4   9  16  26  41  60  83 111 143 177 212 250
#     4  10  18  28  42  60  82 110 143 175 210 250
#     4   8  14  25  41  59  79 107 141 173 205 243
#     4  11  21  33  46  61  83 110 140 173 208 244
#     4  10  18  29  44  60  82 114 146 173 206 246
#     4   8  15  27  41  56  78 108 140 174 210 250
#     4  11  21  33  47  64  85 108 138 174 209 244
#     4   9  16  25  38  58  82 108 139 175 211 247
#
# _framework density 14.373647999999999
#
# number of rings (size 3 to 8) (size 9 to 14) (size 15 to 20)
#    0.000    2.500    0.000    5.625    0.000    2.000 
#    0.000    2.500    0.000    0.000    0.000    0.000 
#    0.000    1.000    0.000    5.500    0.000    2.875 
#
# Total GULP energy -178219.921986 kJ/mol
# GULP energy per Si atom -5569.372562 kJ/mol
# Density = 1.434093 g / cm^3
# Si number density = 14.373648 Si / 1000 Ang^3
#
#
#
# Elastic Constant Matrix: (Units=GPa)
#
#
# Indices 1 2 3 4 5 6 
#
# 1 65.1289 29.4146 24.4867 0.0000 0.0000 0.0000
# 2 29.4146 61.8544 38.6839 0.0000 0.0000 0.0000
# 3 24.4867 38.6839 97.2303 0.0000 0.0000 0.0000
# 4 0.0000 0.0000 0.0000 23.6928 0.0000 0.0000
# 5 0.0000 0.0000 0.0000 0.0000 17.3666 0.0000
# 6 0.0000 0.0000 0.0000 0.0000 0.0000 20.2737
#
#
#
# Elastic Compliance Matrix: (Units=1/GPa)
#
#
# Indices 1 2 3 4 5 6 
#
# 1 0.019750 -0.008362 -0.001647 0.000000 0.000000 0.000000
# 2 -0.008362 0.025063 -0.007865 0.000000 0.000000 0.000000
# 3 -0.001647 -0.007865 0.013829 0.000000 0.000000 0.000000
# 4 0.000000 0.000000 0.000000 0.042207 0.000000 0.000000
# 5 0.000000 0.000000 0.000000 0.000000 0.057582 0.000000
# 6 0.000000 0.000000 0.000000 0.000000 0.000000 0.049325
#
#
# Mechanical properties :
#
#
# Convention : Reuss Voigt Hill
#
# Bulk Modulus (GPa) = 43.68210 45.48711 44.58460
# Shear Modulus (GPa) = 19.90962 21.04185 20.47574
#
# Velocity S-wave (km/s) = 3.72579 3.83027 3.77839
# Velocity P-wave (km/s) = 6.99751 7.16074 7.07959
#
# Compressibility (1/GPa) = 0.02289267
#
# Stress axis : x y z
#
# Youngs Moduli (GPa) = 50.63298 39.90021 72.31194
#
# Poissons Ratio (x) = 0.33364 0.11910
# Poissons Ratio (y) = 0.42339 0.56876
# Poissons Ratio (z) = 0.08339 0.31383
#
# Static dielectric constant tensor:
#      x y z
#    x 1.482310 0.000000 0.000000 
#    y 0.000000 1.455740 0.000000 
#    z 0.000000 0.000000 1.503810 
# 
# From -- ./inp_files/22574.got.cif
#   From: 2010.05.17/outbox.cif.g08.bks.cpg/sg40_12_cif.got.tgz:22574.got - 2010.06.03 18:35:42.
