data_PCOD9362735
_publ_section_title
;
Structure prediction by ZEFSAII (Michael W. Deem and Ramdas Pophale) SiO2 
 PCOD9362735
Probable space group: A M A 2
;
_chemical_formula_sum "Si O2"
_cell_formula_units_Z 64
_cell_length_a 8.327068
_cell_length_b 21.230648
_cell_length_c 20.435708
_cell_angle_alpha 90.000000
_cell_angle_beta 90.000000
_cell_angle_gamma 90.000000
_cell_volume 3612.809395
_symmetry_space_group_name_H-M "A M A 2"
_symmetry_group_IT_number 40
_symmetry_cell_setting 'orthorhombic'
loop_
_space_group_symop_operation_xyz
x,y,z
-x,-y,z
1/2-x,y,z
1/2+x,-y,z
x,1/2+y,1/2+z
-x,1/2-y,1/2+z
1/2-x,1/2+y,1/2+z
1/2+x,1/2-y,1/2+z
loop_
_atom_site_type_symbol
_atom_site_label
_atom_site_fract_x
_atom_site_fract_y
_atom_site_fract_z
Si Si1 0.554593 0.764914 0.137300
Si Si2 0.555478 0.311017 0.775464
Si Si3 0.941899 0.068138 0.775514
Si Si4 0.443740 0.568134 0.857410
Si Si5 0.557948 0.380915 0.995390
Si Si6 0.555988 0.263522 0.493370
Si Si7 0.442603 0.188591 0.855153
Si Si8 0.943475 0.117690 0.636969
O O1 0.750000 0.766158 0.137732
O O2 0.499756 0.803417 0.200469
O O3 0.508209 0.691300 0.144456
O O4 0.501058 0.786222 0.065154
O O5 0.750000 0.311606 0.775550
O O6 0.500032 0.373958 0.812264
O O7 0.501965 0.249115 0.814644
O O8 0.750000 0.068972 0.773669
O O9 0.001457 0.081100 0.701091
O O10 0.997883 0.125155 0.821140
O O11 0.000000 0.000000 0.797884
O O12 0.500000 0.500000 0.834772
O O13 0.250000 0.569282 0.857505
O O14 0.499341 0.580637 0.932097
O O15 0.750000 0.379664 0.994688
O O16 0.496351 0.309253 0.987455
O O17 0.502585 0.404944 0.066293
O O18 0.750000 0.264337 0.493469
O O19 0.500520 0.301868 0.430056
O O20 0.250000 0.188536 0.854744
O O21 0.750000 0.116167 0.635862
#
# Coordination Sequence:
#
# PCOD9362735 Si02
#       8
#     8   8   8   8   8   8   8   8
#     4   8  14  29  53  76  99 131 171 210 257 313
#     4  10  18  34  56  77 102 136 179 221 265 317
#     4  11  23  39  56  76 107 144 182 224 267 321
#     4  10  22  35  50  73 104 141 178 217 265 311
#     4  10  19  31  49  75 106 138 176 221 258 306
#     4   9  18  32  51  78 107 137 173 212 261 319
#     4  11  21  33  54  82 109 138 175 222 268 316
#     4   9  18  33  52  73 102 142 175 209 259 316
#
# _framework density 17.714745000000001
#
# number of rings (size 3 to 8) (size 9 to 14) (size 15 to 20)
#    0.000    2.250    2.500    1.875    0.000    3.500 
#    0.000    2.500    0.000    0.750    0.000    1.750 
#    0.000    0.000    0.000    0.000    0.000    0.000 
#
# Total GULP energy -178503.205207 kJ/mol
# GULP energy per Si atom -5578.225163 kJ/mol
# Density = 1.767443 g / cm^3
# Si number density = 17.714745 Si / 1000 Ang^3
#
#
#
# Elastic Constant Matrix: (Units=GPa)
#
#
# Indices 1 2 3 4 5 6 
#
# 1 10.9815 11.3537 18.5825 0.0000 0.0000 0.0000
# 2 11.3537 118.1310 74.3103 0.0000 0.0000 0.0000
# 3 18.5825 74.3103 138.6187 0.0000 0.0000 0.0000
# 4 0.0000 0.0000 0.0000 4.5777 0.0000 0.0000
# 5 0.0000 0.0000 0.0000 0.0000 16.6974 0.0000
# 6 0.0000 0.0000 0.0000 0.0000 0.0000 21.1981
#
#
#
# Elastic Compliance Matrix: (Units=1/GPa)
#
#
# Indices 1 2 3 4 5 6 
#
# 1 0.118124 -0.002100 -0.014709 0.000000 0.000000 0.000000
# 2 -0.002100 0.012810 -0.006585 0.000000 0.000000 0.000000
# 3 -0.014709 -0.006585 0.012716 0.000000 0.000000 0.000000
# 4 0.000000 0.000000 0.000000 0.218450 0.000000 0.000000
# 5 0.000000 0.000000 0.000000 0.000000 0.059889 0.000000
# 6 0.000000 0.000000 0.000000 0.000000 0.000000 0.047174
#
#
# Mechanical properties :
#
#
# Convention : Reuss Voigt Hill
#
# Bulk Modulus (GPa) = 10.32416 52.91380 31.61898
# Shear Modulus (GPa) = 9.12010 19.39363 14.25687
#
# Velocity S-wave (km/s) = 2.27145 3.31233 2.83998
# Velocity P-wave (km/s) = 3.56651 6.67558 5.35179
#
# Compressibility (1/GPa) = 0.09686018
#
# Stress axis : x y z
#
# Youngs Moduli (GPa) = 8.46568 78.06670 78.64019
#
# Poissons Ratio (x) = 0.16395 1.15674
# Poissons Ratio (y) = 0.01778 0.51788
# Poissons Ratio (z) = 0.12452 0.51410
#
# Static dielectric constant tensor:
#      x y z
#    x 1.612880 0.000000 0.000000 
#    y 0.000000 1.582080 0.000000 
#    z 0.000000 0.000000 1.642790 
# 
# From -- ./inp_files/22385.got.cif
#   From: 2010.05.17/outbox.cif.g08.bks.cpg/sg40_12_cif.got.tgz:22385.got - 2010.06.03 18:35:42.
