data_PCOD9362209
_publ_section_title
;
Structure prediction by ZEFSAII (Michael W. Deem and Ramdas Pophale) SiO2 
 PCOD9362209
Probable space group: A B M 2
;
_chemical_formula_sum "Si O2"
_cell_formula_units_Z 24
_cell_length_a 18.000000
_cell_length_b 9.000000
_cell_length_c 15.000000
_cell_angle_alpha 90.000000
_cell_angle_beta 90.000000
_cell_angle_gamma 90.000000
_cell_volume 2430.000000
_symmetry_space_group_name_H-M "A B M 2"
_symmetry_group_IT_number 39
_symmetry_cell_setting 'orthorhombic'
loop_
_space_group_symop_operation_xyz
x,y,z
-x,-y,z
-x,1/2+y,z
x,1/2-y,z
x,1/2+y,1/2+z
-x,1/2-y,1/2+z
-x,y,1/2+z
x,-y,1/2+z
loop_
_atom_site_type_symbol
_atom_site_label
_atom_site_fract_x
_atom_site_fract_y
_atom_site_fract_z
Si Si1 0.350386 0.572407 0.525160
Si Si2 0.575163 0.428252 0.866859
Si Si3 0.852360 0.929868 0.162619
Si Si4 0.074530 0.572894 0.840688
Si Si5 0.687793 0.071362 0.720268
Si Si6 0.808486 0.427801 0.987365
O O1 0.354412 0.750000 0.514009
O O2 0.409641 0.489323 0.465086
O O3 0.356264 0.536681 0.629785
O O4 0.269176 0.513194 0.496071
O O5 0.500000 0.500000 0.831356
O O6 0.571121 0.250000 0.866074
O O7 0.644171 0.481270 0.806305
O O8 0.851469 0.750000 0.147868
O O9 0.911724 0.967087 0.237841
O O10 0.772283 0.974828 0.204225
O O11 0.857723 0.017484 0.070785
O O12 0.067636 0.750000 0.845786
O O13 0.146572 0.533770 0.898579
O O14 0.000000 0.500000 0.875791
O O15 0.691235 0.250000 0.727919
O O16 0.795664 0.250000 0.989866
#
# Coordination Sequence:
#
# PCOD9362209 Si02
#       6
#     8   8   8   8   8   8
#     4  10  20  37  59  83 108 140 180 224 270 320
#     4  11  22  37  55  79 111 146 180 219 266 320
#     4   9  18  36  58  79 103 138 180 225 271 319
#     4  10  22  37  54  77 111 148 182 220 270 324
#     4   8  17  35  58  78 103 138 177 219 267 317
#     4  10  20  36  57  82 108 140 180 225 271 320
#
# _framework density 9.8765429999999999
#
# number of rings (size 3 to 8) (size 9 to 14) (size 15 to 20)
#    0.000    2.333    0.000    3.500    0.000    6.000 
#    0.000   16.667    0.000    0.000    0.000    0.000 
#    0.000    0.000    0.000    0.000    0.000    0.000 
#
# Total GULP energy -133862.751272 kJ/mol
# GULP energy per Si atom -5577.614636 kJ/mol
# Density = 0.985406 g / cm^3
# Si number density = 9.876543 Si / 1000 Ang^3
#
#
#
# Elastic Constant Matrix: (Units=GPa)
#
#
# Indices 1 2 3 4 5 6 
#
# 1 24.7909 8.6446 12.7568 0.0000 0.0000 0.0000
# 2 8.6446 37.9882 22.9156 0.0000 0.0000 0.0000
# 3 12.7568 22.9156 65.4127 0.0000 0.0000 0.0000
# 4 0.0000 0.0000 0.0000 21.0248 0.0000 0.0000
# 5 0.0000 0.0000 0.0000 0.0000 2.2693 0.0000
# 6 0.0000 0.0000 0.0000 0.0000 0.0000 26.9187
#
#
#
# Elastic Compliance Matrix: (Units=1/GPa)
#
#
# Indices 1 2 3 4 5 6 
#
# 1 0.046038 -0.006416 -0.006731 0.000000 0.000000 0.000000
# 2 -0.006416 0.034272 -0.010755 0.000000 0.000000 0.000000
# 3 -0.006731 -0.010755 0.020368 0.000000 0.000000 0.000000
# 4 0.000000 0.000000 0.000000 0.047563 0.000000 0.000000
# 5 0.000000 0.000000 0.000000 0.000000 0.440656 0.000000
# 6 0.000000 0.000000 0.000000 0.000000 0.000000 0.037149
#
#
# Mechanical properties :
#
#
# Convention : Reuss Voigt Hill
#
# Bulk Modulus (GPa) = 18.91285 24.09177 21.50231
# Shear Modulus (GPa) = 7.23093 15.63421 11.43257
#
# Velocity S-wave (km/s) = 1.91536 2.81638 2.40838
# Velocity P-wave (km/s) = 3.80617 4.77482 4.31774
#
# Compressibility (1/GPa) = 0.05287409
#
# Stress axis : x y z
#
# Youngs Moduli (GPa) = 21.72109 29.17849 49.09699
#
# Poissons Ratio (x) = 0.18722 0.33045
# Poissons Ratio (y) = 0.13937 0.52803
# Poissons Ratio (z) = 0.14619 0.31381
#
# Static dielectric constant tensor:
#      x y z
#    x 1.733530 0.000000 0.000000 
#    y 0.000000 1.652180 0.000000 
#    z 0.000000 0.000000 1.724820 
# 
# From -- ./inp_files/10037.got.cif
#   From: 2010.05.17/outbox.ucp.g08.bks.cvg/sg39_6_cif.got.tgz:10037.got - 2010.06.11 10:41:16.
