data_PCOD9362884
_publ_section_title
;
Structure prediction by ZEFSAII (Michael W. Deem and Ramdas Pophale) SiO2 
 PCOD9362884
Probable space group: A M A 2
;
_chemical_formula_sum "Si O2"
_cell_formula_units_Z 64
_cell_length_a 8.845565
_cell_length_b 34.002685
_cell_length_c 11.910673
_cell_angle_alpha 90.000000
_cell_angle_beta 90.000000
_cell_angle_gamma 90.000000
_cell_volume 3582.408378
_symmetry_space_group_name_H-M "A M A 2"
_symmetry_group_IT_number 40
_symmetry_cell_setting 'orthorhombic'
loop_
_space_group_symop_operation_xyz
x,y,z
-x,-y,z
1/2-x,y,z
1/2+x,-y,z
x,1/2+y,1/2+z
-x,1/2-y,1/2+z
1/2-x,1/2+y,1/2+z
1/2+x,1/2-y,1/2+z
loop_
_atom_site_type_symbol
_atom_site_label
_atom_site_fract_x
_atom_site_fract_y
_atom_site_fract_z
Si Si1 0.069455 0.817525 0.543830
Si Si2 0.432925 0.957744 0.291709
Si Si3 0.069379 0.264980 0.488241
Si Si4 0.920345 0.887436 0.948132
Si Si5 0.072903 0.174620 0.151446
Si Si6 0.432450 0.624349 0.870843
Si Si7 0.573706 0.539447 0.531175
Si Si8 0.071942 0.683758 0.288149
O O1 0.250000 0.818197 0.534966
O O2 0.001520 0.778147 0.488823
O O3 0.997206 0.854899 0.481351
O O4 0.016015 0.815189 0.672289
O O5 0.250000 0.958157 0.299598
O O6 0.499156 0.918999 0.351177
O O7 0.479631 0.953882 0.159921
O O8 0.500000 0.000000 0.329969
O O9 0.250000 0.263425 0.482059
O O10 0.019323 0.288726 0.601056
O O11 0.001204 0.288147 0.381899
O O12 0.750000 0.903582 0.952076
O O13 0.937135 0.859826 0.840895
O O14 0.937665 0.858762 0.055275
O O15 0.034492 0.922796 0.958910
O O16 0.250000 0.186180 0.160897
O O17 0.025292 0.153567 0.266695
O O18 0.250000 0.622057 0.872953
O O19 0.500000 0.500000 0.486285
O O20 0.750000 0.533244 0.537886
O O21 0.250000 0.693421 0.273476
#
# Coordination Sequence:
#
# PCOD9362884 Si02
#       8
#     8   8   8   8   8   8   8   8
#     4  12  26  42  60  84 116 153 197 244 290 347
#     4  10  20  34  54  84 120 158 196 240 295 353
#     4  11  23  39  61  86 115 151 191 239 293 344
#     4   9  17  33  56  80 109 144 181 227 279 334
#     4   9  19  35  56  82 114 150 189 232 283 343
#     4  11  22  38  60  86 119 156 197 244 296 352
#     4  10  19  29  48  79 116 150 185 227 277 337
#     4  10  22  42  62  83 111 148 193 237 288 346
#
# _framework density 17.865075999999998
#
# number of rings (size 3 to 8) (size 9 to 14) (size 15 to 20)
#    0.000    1.750    1.250    4.500    1.750    4.500 
#    0.000    0.000    0.000    0.750    0.000    1.750 
#    0.000    0.000    0.000    0.000    0.000    0.000 
#
# Total GULP energy -178674.965338 kJ/mol
# GULP energy per Si atom -5583.592667 kJ/mol
# Density = 1.782441 g / cm^3
# Si number density = 17.865076 Si / 1000 Ang^3
#
#
#
# Elastic Constant Matrix: (Units=GPa)
#
#
# Indices 1 2 3 4 5 6 
#
# 1 93.3894 49.0510 20.8945 0.0000 0.0000 0.0000
# 2 49.0510 95.6993 24.9620 0.0000 0.0000 0.0000
# 3 20.8945 24.9620 54.4224 0.0000 0.0000 0.0000
# 4 0.0000 0.0000 0.0000 14.3000 0.0000 0.0000
# 5 0.0000 0.0000 0.0000 0.0000 35.4045 0.0000
# 6 0.0000 0.0000 0.0000 0.0000 0.0000 32.2700
#
#
#
# Elastic Compliance Matrix: (Units=1/GPa)
#
#
# Indices 1 2 3 4 5 6 
#
# 1 0.014952 -0.007005 -0.002528 0.000000 0.000000 0.000000
# 2 -0.007005 0.015151 -0.004260 0.000000 0.000000 0.000000
# 3 -0.002528 -0.004260 0.021299 0.000000 0.000000 0.000000
# 4 0.000000 0.000000 0.000000 0.069930 0.000000 0.000000
# 5 0.000000 0.000000 0.000000 0.000000 0.028245 0.000000
# 6 0.000000 0.000000 0.000000 0.000000 0.000000 0.030988
#
#
# Mechanical properties :
#
#
# Convention : Reuss Voigt Hill
#
# Bulk Modulus (GPa) = 41.98575 48.14732 45.06653
# Shear Modulus (GPa) = 23.13850 26.30182 24.72016
#
# Velocity S-wave (km/s) = 3.60277 3.84115 3.72387
# Velocity P-wave (km/s) = 6.39212 6.83239 6.61592
#
# Compressibility (1/GPa) = 0.02381761
#
# Stress axis : x y z
#
# Youngs Moduli (GPa) = 66.87869 66.00335 46.95000
#
# Poissons Ratio (x) = 0.46232 0.11869
# Poissons Ratio (y) = 0.46845 0.20000
# Poissons Ratio (z) = 0.16907 0.28117
#
# Static dielectric constant tensor:
#      x y z
#    x 1.596680 0.000000 0.000000 
#    y 0.000000 1.602520 0.000000 
#    z 0.000000 0.000000 1.609470 
# 
# From -- ./inp_files/10629.got.cif
#   From: 2010.05.17/outbox.cif.g08.bks.cpg/sg40_6_cif.got.tgz:10629.got - 2010.06.03 18:35:42.
