data_PCOD9362625
_publ_section_title
;
Structure prediction by ZEFSAII (Michael W. Deem and Ramdas Pophale) SiO2 
 PCOD9362625
Probable space group: A M A 2
;
_chemical_formula_sum "Si O2"
_cell_formula_units_Z 52
_cell_length_a 9.232303
_cell_length_b 13.386530
_cell_length_c 17.429017
_cell_angle_alpha 90.000000
_cell_angle_beta 90.000000
_cell_angle_gamma 90.000000
_cell_volume 2154.026086
_symmetry_space_group_name_H-M "A M A 2"
_symmetry_group_IT_number 40
_symmetry_cell_setting 'orthorhombic'
loop_
_space_group_symop_operation_xyz
x,y,z
-x,-y,z
1/2-x,y,z
1/2+x,-y,z
x,1/2+y,1/2+z
-x,1/2-y,1/2+z
1/2-x,1/2+y,1/2+z
1/2+x,1/2-y,1/2+z
loop_
_atom_site_type_symbol
_atom_site_label
_atom_site_fract_x
_atom_site_fract_y
_atom_site_fract_z
Si Si1 0.750000 0.542590 0.357500
Si Si2 0.912930 0.372337 0.678213
Si Si3 0.924631 0.187299 0.491216
Si Si4 0.412235 0.366281 0.157390
Si Si5 0.413047 0.363133 0.826025
Si Si6 0.962054 0.869240 0.811761
Si Si7 0.422804 0.397876 0.524773
O O1 0.877338 0.625867 0.345059
O O2 0.630927 0.452171 0.352071
O O3 0.750000 0.412040 0.661184
O O4 0.899792 0.252776 0.671424
O O5 0.971969 0.395907 0.762410
O O6 0.036398 0.396671 0.615404
O O7 0.750000 0.207219 0.492290
O O8 0.957105 0.126651 0.569061
O O9 0.958009 0.126072 0.414542
O O10 0.006370 0.294453 0.495115
O O11 0.250000 0.409130 0.170246
O O12 0.525854 0.397039 0.221448
O O13 0.250000 0.402763 0.813256
O O14 0.405141 0.242493 0.818134
O O15 0.500000 0.500000 0.498377
O O16 0.250000 0.405244 0.506345
#
# Coordination Sequence:
#
# PCOD9362625 Si02
#       7
#     4   8   8   8   8   8   8
#     4  10  20  30  46  70  96 132 170 204 252 302
#     4   9  18  32  55  76 100 132 175 218 256 303
#     4   9  19  35  52  76 106 138 173 206 261 311
#     4   8  14  29  51  69  91 126 165 210 249 288
#     4  10  19  33  51  77 106 138 174 213 249 302
#     4  10  18  32  47  70  99 130 171 210 246 298
#     4  11  21  36  54  79 107 138 175 217 266 320
#
# _framework density 24.140841000000002
#
# number of rings (size 3 to 8) (size 9 to 14) (size 15 to 20)
#    0.000    2.462    1.538    2.769    1.077    0.615 
#    4.154    0.000    0.000    0.000    4.000    0.000 
#    0.000    0.000    0.000    0.000    0.000    0.000 
#
# Total GULP energy -144794.892813 kJ/mol
# GULP energy per Si atom -5569.034339 kJ/mol
# Density = 2.408590 g / cm^3
# Si number density = 24.140841 Si / 1000 Ang^3
#
#
#
# Elastic Constant Matrix: (Units=GPa)
#
#
# Indices 1 2 3 4 5 6 
#
# 1 127.1278 7.4692 5.8324 0.0000 0.0000 0.0000
# 2 7.4692 67.5818 -18.3652 0.0000 0.0000 0.0000
# 3 5.8324 -18.3652 141.3755 0.0000 0.0000 0.0000
# 4 0.0000 0.0000 0.0000 -26.0759 0.0000 0.0000
# 5 0.0000 0.0000 0.0000 0.0000 18.3737 0.0000
# 6 0.0000 0.0000 0.0000 0.0000 0.0000 43.6168
#
#
#
# Elastic Compliance Matrix: (Units=1/GPa)
#
#
# Indices 1 2 3 4 5 6 
#
# 1 0.007946 -0.001003 -0.000458 0.000000 0.000000 0.000000
# 2 -0.001003 0.015465 0.002050 0.000000 0.000000 0.000000
# 3 -0.000458 0.002050 0.007359 0.000000 0.000000 0.000000
# 4 0.000000 0.000000 0.000000 -0.038350 0.000000 0.000000
# 5 0.000000 0.000000 0.000000 0.000000 0.054426 0.000000
# 6 0.000000 0.000000 0.000000 0.000000 0.000000 0.022927
#
#
# Mechanical properties :
#
#
# Convention : Reuss Voigt Hill
#
# Bulk Modulus (GPa) = 31.30027 36.21756 33.75892
# Shear Modulus (GPa) = 63.09702 29.92615 46.51158
#
# Velocity S-wave (km/s) = 5.11799 3.52468 4.39415
# Velocity P-wave (km/s) = 6.92235 5.62136 6.30550
#
# Compressibility (1/GPa) = 0.03194861
#
# Stress axis : x y z
#
# Youngs Moduli (GPa) = 125.84908 64.66274 135.89543
#
# Poissons Ratio (x) = 0.06484 0.06225
# Poissons Ratio (y) = 0.12619 -0.27863
# Poissons Ratio (z) = 0.05765 -0.13258
#
# Static dielectric constant tensor:
#      x y z
#    x 1.910890 0.000000 0.000000 
#    y 0.000000 1.930620 0.000000 
#    z 0.000000 0.000000 2.135400 
# 
# From -- ./inp_files/19369.got.cif
#   From: 2010.05.17/outbox.cif.g08.bks.cpg/sg40_10_cif.got.tgz:19369.got - 2010.06.03 18:35:42.
