data_PCOD9362029
_publ_section_title
;
Structure prediction by ZEFSAII (Michael W. Deem and Ramdas Pophale) SiO2 
 PCOD9362029
Probable space group: A B M 2
;
_chemical_formula_sum "Si O2"
_cell_formula_units_Z 52
_cell_length_a 12.653235
_cell_length_b 18.195331
_cell_length_c 8.392083
_cell_angle_alpha 90.000000
_cell_angle_beta 90.000000
_cell_angle_gamma 90.000000
_cell_volume 1932.107583
_symmetry_space_group_name_H-M "A B M 2"
_symmetry_group_IT_number 39
_symmetry_cell_setting 'orthorhombic'
loop_
_space_group_symop_operation_xyz
x,y,z
-x,-y,z
-x,1/2+y,z
x,1/2-y,z
x,1/2+y,1/2+z
-x,1/2-y,1/2+z
-x,y,1/2+z
x,-y,1/2+z
loop_
_atom_site_type_symbol
_atom_site_label
_atom_site_fract_x
_atom_site_fract_y
_atom_site_fract_z
Si Si1 0.218846 0.113950 0.423600
Si Si2 0.887308 0.962333 0.939834
Si Si3 0.426194 0.891737 0.368674
Si Si4 0.189566 0.168465 0.743083
Si Si5 0.376752 0.832245 0.679245
Si Si6 0.500000 0.000000 0.639979
Si Si7 0.940315 0.668929 0.179319
O O1 0.255859 0.156007 0.581285
O O2 0.301969 0.113766 0.280399
O O3 0.118838 0.156478 0.346550
O O4 0.181851 0.033545 0.477174
O O5 0.813025 0.909453 0.833563
O O6 0.915480 0.903828 0.077373
O O7 0.000000 0.000000 0.882957
O O8 0.360085 0.839281 0.487111
O O9 0.509152 0.843450 0.266833
O O10 0.468959 0.935972 0.522019
O O11 0.411463 0.961376 0.250149
O O12 0.213538 0.250000 0.802784
O O13 0.064777 0.170689 0.702878
O O14 0.342165 0.750000 0.721227
O O15 0.909722 0.750000 0.114297
#
# Coordination Sequence:
#
# PCOD9362029 Si02
#       7
#     8   8   8   8   8   4   8
#     4  12  25  41  66  98 141 174 225 288 332 388
#     4  12  23  41  62  95 129 178 233 279 332 411
#     4   9  19  40  68  94 129 175 210 278 351 417
#     4  11  22  40  65  92 131 179 227 281 342 399
#     4  11  23  43  69 102 135 176 232 282 352 426
#     4   8  16  38  66  96 128 152 220 262 332 420
#     4  11  22  40  65  92 131 179 227 281 342 399
#
# _framework density 26.913613999999999
#
# number of rings (size 3 to 8) (size 9 to 14) (size 15 to 20)
#    0.000    1.231    3.077    3.231    0.000    2.462 
#   22.154    1.538    0.000    0.000    0.000    0.000 
#    0.000    0.000    0.000    0.308    0.000    0.000 
#
# Total GULP energy -144958.046897 kJ/mol
# GULP energy per Si atom -5575.309496 kJ/mol
# Density = 2.685236 g / cm^3
# Si number density = 26.913614 Si / 1000 Ang^3
#
#
#
# Elastic Constant Matrix: (Units=GPa)
#
#
# Indices 1 2 3 4 5 6 
#
# 1 70.7252 41.5778 20.2636 0.0000 0.0000 0.0000
# 2 41.5778 211.1890 46.7537 0.0000 0.0000 0.0000
# 3 20.2636 46.7537 64.0810 0.0000 0.0000 0.0000
# 4 0.0000 0.0000 0.0000 -13.1286 0.0000 0.0000
# 5 0.0000 0.0000 0.0000 0.0000 17.5566 0.0000
# 6 0.0000 0.0000 0.0000 0.0000 0.0000 87.6074
#
#
#
# Elastic Compliance Matrix: (Units=1/GPa)
#
#
# Indices 1 2 3 4 5 6 
#
# 1 0.016594 -0.002511 -0.003415 0.000000 0.000000 0.000000
# 2 -0.002511 0.006027 -0.003603 0.000000 0.000000 0.000000
# 3 -0.003415 -0.003603 0.019314 0.000000 0.000000 0.000000
# 4 0.000000 0.000000 0.000000 -0.076170 0.000000 0.000000
# 5 0.000000 0.000000 0.000000 0.000000 0.056959 0.000000
# 6 0.000000 0.000000 0.000000 0.000000 0.000000 0.011415
#
#
# Mechanical properties :
#
#
# Convention : Reuss Voigt Hill
#
# Bulk Modulus (GPa) = 43.71389 62.57616 53.14503
# Shear Modulus (GPa) = 82.20488 34.23375 58.21931
#
# Velocity S-wave (km/s) = 5.53266 3.57036 4.65606
# Velocity P-wave (km/s) = 7.55588 6.34806 6.97815
#
# Compressibility (1/GPa) = 0.02287602
#
# Stress axis : x y z
#
# Youngs Moduli (GPa) = 60.26343 165.91581 51.77495
#
# Poissons Ratio (x) = 0.41658 0.17683
# Poissons Ratio (y) = 0.15131 0.18657
# Poissons Ratio (z) = 0.20582 0.59787
#
# Static dielectric constant tensor:
#      x y z
#    x 2.412760 0.000000 0.000000 
#    y 0.000000 2.357550 0.000000 
#    z 0.000000 0.000000 2.128540 
# 
# From -- ./inp_files/3782.got.cif
#   From: 2010.05.17/outbox.cif.g08.bks.cpg/sg39_2_cif.got.tgz:3782.got - 2010.06.03 18:22:40.
