data_PCOD9362867
_publ_section_title
;
Structure prediction by ZEFSAII (Michael W. Deem and Ramdas Pophale) SiO2 
 PCOD9362867
Probable space group: A M A 2
;
_chemical_formula_sum "Si O2"
_cell_formula_units_Z 56
_cell_length_a 8.839411
_cell_length_b 13.931239
_cell_length_c 30.074677
_cell_angle_alpha 90.000000
_cell_angle_beta 90.000000
_cell_angle_gamma 90.000000
_cell_volume 3703.514438
_symmetry_space_group_name_H-M "A M A 2"
_symmetry_group_IT_number 40
_symmetry_cell_setting 'orthorhombic'
loop_
_space_group_symop_operation_xyz
x,y,z
-x,-y,z
1/2-x,y,z
1/2+x,-y,z
x,1/2+y,1/2+z
-x,1/2-y,1/2+z
1/2-x,1/2+y,1/2+z
1/2+x,1/2-y,1/2+z
loop_
_atom_site_type_symbol
_atom_site_label
_atom_site_fract_x
_atom_site_fract_y
_atom_site_fract_z
Si Si1 0.931661 0.395831 0.776940
Si Si2 0.430953 0.606856 0.411379
Si Si3 0.931364 0.790318 0.819261
Si Si4 0.430829 0.205816 0.184518
Si Si5 0.068537 0.897489 0.735528
Si Si6 0.431202 0.892794 0.001634
Si Si7 0.069555 0.893335 0.100041
O O1 0.750000 0.396769 0.780521
O O2 0.970582 0.362152 0.726527
O O3 0.000000 0.500000 0.785655
O O4 0.999123 0.313695 0.808711
O O5 0.500000 0.500000 0.405630
O O6 0.250000 0.598021 0.415302
O O7 0.466842 0.669936 0.368175
O O8 0.497524 0.650505 0.457049
O O9 0.750000 0.787205 0.814139
O O10 0.000427 0.861764 0.782378
O O11 0.250000 0.199945 0.178575
O O12 0.468618 0.313576 0.200286
O O13 0.510331 0.171276 0.140030
O O14 0.250000 0.902734 0.739368
O O15 0.000000 0.000000 0.723701
O O16 0.250000 0.897027 0.997074
O O17 0.468171 0.853019 0.050679
O O18 0.500000 0.000000 0.002672
O O19 0.250000 0.902489 0.102488
O O20 0.000000 0.000000 0.104273
#
# Coordination Sequence:
#
# PCOD9362867 Si02
#       7
#     8   8   8   8   8   8   8
#     4  10  20  33  48  67  92 121 153 188 225 265
#     4  10  19  29  44  66  91 120 151 183 221 265
#     4  10  20  32  47  68  92 120 154 187 223 267
#     4   9  19  32  46  66  90 118 151 183 219 264
#     4  10  20  33  48  67  91 120 153 187 225 266
#     4   9  17  28  42  62  88 117 148 181 220 265
#     4  10  19  29  44  66  91 120 151 183 221 264
#
# _framework density 15.120772000000001
#
# number of rings (size 3 to 8) (size 9 to 14) (size 15 to 20)
#    0.000    2.286    0.000    5.143    0.000    9.714 
#    0.000    0.000    0.000    0.000    0.000    1.000 
#    0.000    4.571    0.000    0.000    0.000    0.000 
#
# Total GULP energy -156122.882681 kJ/mol
# GULP energy per Si atom -5575.817239 kJ/mol
# Density = 1.508636 g / cm^3
# Si number density = 15.120772 Si / 1000 Ang^3
#
#
#
# Elastic Constant Matrix: (Units=GPa)
#
#
# Indices 1 2 3 4 5 6 
#
# 1 62.4815 40.3918 64.7980 0.0000 0.0000 0.0000
# 2 40.3918 88.9577 62.3813 0.0000 0.0000 0.0000
# 3 64.7980 62.3813 154.9497 0.0000 0.0000 0.0000
# 4 0.0000 0.0000 0.0000 17.9341 0.0000 0.0000
# 5 0.0000 0.0000 0.0000 0.0000 28.5355 0.0000
# 6 0.0000 0.0000 0.0000 0.0000 0.0000 24.3892
#
#
#
# Elastic Compliance Matrix: (Units=1/GPa)
#
#
# Indices 1 2 3 4 5 6 
#
# 1 0.031076 -0.006963 -0.010193 0.000000 0.000000 0.000000
# 2 -0.006963 0.017223 -0.004022 0.000000 0.000000 0.000000
# 3 -0.010193 -0.004022 0.012335 0.000000 0.000000 0.000000
# 4 0.000000 0.000000 0.000000 0.055760 0.000000 0.000000
# 5 0.000000 0.000000 0.000000 0.000000 0.035044 0.000000
# 6 0.000000 0.000000 0.000000 0.000000 0.000000 0.041002
#
#
# Mechanical properties :
#
#
# Convention : Reuss Voigt Hill
#
# Bulk Modulus (GPa) = 54.70488 71.28121 62.99305
# Shear Modulus (GPa) = 20.75643 23.42630 22.09136
#
# Velocity S-wave (km/s) = 3.70903 3.94036 3.82644
# Velocity P-wave (km/s) = 7.38916 8.24291 7.82768
#
# Compressibility (1/GPa) = 0.01827990
#
# Stress axis : x y z
#
# Youngs Moduli (GPa) = 32.17866 58.06050 81.06756
#
# Poissons Ratio (x) = 0.40427 0.82629
# Poissons Ratio (y) = 0.22406 0.32607
# Poissons Ratio (z) = 0.32798 0.23353
#
# Static dielectric constant tensor:
#      x y z
#    x 1.501320 0.000000 0.000000 
#    y 0.000000 1.477500 0.000000 
#    z 0.000000 0.000000 1.519880 
# 
# From -- ./inp_files/26396.got.cif
#   From: 2010.05.17/outbox.cif.g08.bks.cpg/sg40_14_cif.got.tgz:26396.got - 2010.06.03 18:35:42.
