data_PCOD9362090
_publ_section_title
;
Structure prediction by ZEFSAII (Michael W. Deem and Ramdas Pophale) SiO2 
 PCOD9362090
Probable space group: A B M 2
;
_chemical_formula_sum "Si O2"
_cell_formula_units_Z 40
_cell_length_a 5.246110
_cell_length_b 29.243285
_cell_length_c 10.383914
_cell_angle_alpha 90.000000
_cell_angle_beta 90.000000
_cell_angle_gamma 90.000000
_cell_volume 1593.032485
_symmetry_space_group_name_H-M "A B M 2"
_symmetry_group_IT_number 39
_symmetry_cell_setting 'orthorhombic'
loop_
_space_group_symop_operation_xyz
x,y,z
-x,-y,z
-x,1/2+y,z
x,1/2-y,z
x,1/2+y,1/2+z
-x,1/2-y,1/2+z
-x,y,1/2+z
x,-y,1/2+z
loop_
_atom_site_type_symbol
_atom_site_label
_atom_site_fract_x
_atom_site_fract_y
_atom_site_fract_z
Si Si1 0.796931 0.541115 0.457100
Si Si2 0.872219 0.117723 0.539580
Si Si3 0.444243 0.342061 0.833478
Si Si4 0.479123 0.435459 0.204392
Si Si5 0.042211 0.301966 0.225190
O O1 0.595191 0.542223 0.340197
O O2 0.656967 0.540949 0.596972
O O3 0.000000 0.500000 0.443893
O O4 0.941521 0.590233 0.445840
O O5 0.616809 0.136030 0.471011
O O6 0.786601 0.077760 0.636322
O O7 0.979686 0.162101 0.608896
O O8 0.216151 0.307172 0.805420
O O9 0.714147 0.319018 0.807159
O O10 0.590049 0.385806 0.240468
O O11 0.080424 0.250000 0.182904
#
# Coordination Sequence:
#
# PCOD9362090 Si02
#       5
#     8   8   8   8   8
#     4  12  28  53  83 122 167 224 289 357 433 520
#     4  11  24  48  78 112 161 220 279 350 424 506
#     4  11  23  46  76 109 162 216 276 341 427 502
#     4  11  25  52  79 117 161 219 280 351 430 508
#     4  11  25  43  74 120 166 218 280 349 426 510
#
# _framework density 25.109342000000002
#
# number of rings (size 3 to 8) (size 9 to 14) (size 15 to 20)
#    0.000    0.800    4.000    3.000    0.000    3.200 
#    7.200    1.000    0.000    0.000    0.000    0.000 
#    0.000    0.000    0.000    0.000    0.000    0.000 
#
# Total GULP energy -111980.530512 kJ/mol
# GULP energy per Si atom -5599.026526 kJ/mol
# Density = 2.505219 g / cm^3
# Si number density = 25.109342 Si / 1000 Ang^3
#
#
#
# Elastic Constant Matrix: (Units=GPa)
#
#
# Indices 1 2 3 4 5 6 
#
# 1 129.1819 71.4479 44.4339 0.0000 0.0000 0.0000
# 2 71.4479 169.3998 29.6318 0.0000 0.0000 0.0000
# 3 44.4339 29.6318 115.7165 0.0000 0.0000 0.0000
# 4 0.0000 0.0000 0.0000 35.1560 0.0000 0.0000
# 5 0.0000 0.0000 0.0000 0.0000 48.4587 0.0000
# 6 0.0000 0.0000 0.0000 0.0000 0.0000 37.2023
#
#
#
# Elastic Compliance Matrix: (Units=1/GPa)
#
#
# Indices 1 2 3 4 5 6 
#
# 1 0.011133 -0.004133 -0.003217 0.000000 0.000000 0.000000
# 2 -0.004133 0.007714 -0.000388 0.000000 0.000000 0.000000
# 3 -0.003217 -0.000388 0.009976 0.000000 0.000000 0.000000
# 4 0.000000 0.000000 0.000000 0.028445 0.000000 0.000000
# 5 0.000000 0.000000 0.000000 0.000000 0.020636 0.000000
# 6 0.000000 0.000000 0.000000 0.000000 0.000000 0.026880
#
#
# Mechanical properties :
#
#
# Convention : Reuss Voigt Hill
#
# Bulk Modulus (GPa) = 74.91859 78.36950 76.64405
# Shear Modulus (GPa) = 40.09281 42.08236 41.08758
#
# Velocity S-wave (km/s) = 4.00024 4.09830 4.04957
# Velocity P-wave (km/s) = 7.15805 7.32624 7.24263
#
# Compressibility (1/GPa) = 0.01334782
#
# Stress axis : x y z
#
# Youngs Moduli (GPa) = 89.81994 129.62874 100.23592
#
# Poissons Ratio (x) = 0.53576 0.32243
# Poissons Ratio (y) = 0.37123 0.03893
# Poissons Ratio (z) = 0.28893 0.05035
#
# Static dielectric constant tensor:
#      x y z
#    x 2.034450 0.000000 0.000000 
#    y 0.000000 1.864890 0.000000 
#    z 0.000000 0.000000 2.062040 
# 
# From -- ./inp_files/7465.got.cif
#   From: 2010.05.17/outbox.cif.g08.bks.cpg/sg39_4_cif.got.tgz:7465.got - 2010.06.03 18:22:40.
