data_PCOD9362404
_publ_section_title
;
Structure prediction by ZEFSAII (Michael W. Deem and Ramdas Pophale) SiO2 
 PCOD9362404
Probable space group: A M A 2
;
_chemical_formula_sum "Si O2"
_cell_formula_units_Z 64
_cell_length_a 8.562864
_cell_length_b 21.802808
_cell_length_c 16.381324
_cell_angle_alpha 90.000000
_cell_angle_beta 90.000000
_cell_angle_gamma 90.000000
_cell_volume 3058.302761
_symmetry_space_group_name_H-M "A M A 2"
_symmetry_group_IT_number 40
_symmetry_cell_setting 'orthorhombic'
loop_
_space_group_symop_operation_xyz
x,y,z
-x,-y,z
1/2-x,y,z
1/2+x,-y,z
x,1/2+y,1/2+z
-x,1/2-y,1/2+z
1/2-x,1/2+y,1/2+z
1/2+x,1/2-y,1/2+z
loop_
_atom_site_type_symbol
_atom_site_label
_atom_site_fract_x
_atom_site_fract_y
_atom_site_fract_z
Si Si1 0.562319 0.431797 0.293000
Si Si2 0.436947 0.696597 0.040978
Si Si3 0.561679 0.930233 0.972854
Si Si4 0.940672 0.309961 0.218882
Si Si5 0.438560 0.935648 0.486538
Si Si6 0.073631 0.894213 0.314910
Si Si7 0.427167 0.255385 0.879838
Si Si8 0.435928 0.069361 0.147976
O O1 0.500000 0.500000 0.280270
O O2 0.750000 0.435209 0.293307
O O3 0.512112 0.407520 0.383421
O O4 0.516707 0.381590 0.226526
O O5 0.250000 0.693639 0.039832
O O6 0.490465 0.716182 0.131676
O O7 0.500435 0.627397 0.026138
O O8 0.491534 0.740243 0.967386
O O9 0.750000 0.929972 0.972451
O O10 0.500000 0.000000 0.974286
O O11 0.509812 0.903283 0.060187
O O12 0.750000 0.304773 0.221515
O O13 0.999025 0.279099 0.302150
O O14 0.250000 0.934562 0.487302
O O15 0.493906 0.931524 0.391503
O O16 0.500000 0.000000 0.521784
O O17 0.250000 0.916542 0.299643
O O18 0.081254 0.825356 0.348605
O O19 0.987176 0.896785 0.229522
O O20 0.250000 0.231935 0.892903
O O21 0.250000 0.066463 0.146182
O O22 0.500000 0.000000 0.153864
#
# Coordination Sequence:
#
# PCOD9362404 Si02
#       8
#     8   8   8   8   8   8   8   8
#     4   9  17  33  55  78 106 140 174 213 264 323
#     4  10  20  36  58  84 113 144 184 235 284 332
#     4   8  15  27  43  64  94 130 166 205 250 304
#     4   9  19  37  61  83 108 146 185 222 275 336
#     4  10  20  34  53  79 111 149 188 226 277 337
#     4   9  18  31  48  69  97 135 179 222 266 317
#     4   9  19  39  59  76 104 146 187 225 275 333
#     4  10  18  27  42  67 100 134 173 218 266 316
#
# _framework density 20.926639999999999
#
# number of rings (size 3 to 8) (size 9 to 14) (size 15 to 20)
#    0.000    2.750    0.000    2.250    0.000    4.500 
#    2.250    4.375    0.000    0.000    0.000    0.000 
#    0.000    0.000    0.000    0.000    0.000    0.000 
#
# Total GULP energy -178300.376696 kJ/mol
# GULP energy per Si atom -5571.886772 kJ/mol
# Density = 2.087901 g / cm^3
# Si number density = 20.926640 Si / 1000 Ang^3
#
#
#
# Elastic Constant Matrix: (Units=GPa)
#
#
# Indices 1 2 3 4 5 6 
#
# 1 25.3892 0.1638 29.1752 0.0000 0.0000 0.0000
# 2 0.1638 37.3282 31.4013 0.0000 0.0000 0.0000
# 3 29.1752 31.4013 162.6901 0.0000 0.0000 0.0000
# 4 0.0000 0.0000 0.0000 22.8227 0.0000 0.0000
# 5 0.0000 0.0000 0.0000 0.0000 5.8253 0.0000
# 6 0.0000 0.0000 0.0000 0.0000 0.0000 11.2277
#
#
#
# Elastic Compliance Matrix: (Units=1/GPa)
#
#
# Indices 1 2 3 4 5 6 
#
# 1 0.052080 0.009107 -0.011097 0.000000 0.000000 0.000000
# 2 0.009107 0.033575 -0.008113 0.000000 0.000000 0.000000
# 3 -0.011097 -0.008113 0.009703 0.000000 0.000000 0.000000
# 4 0.000000 0.000000 0.000000 0.043816 0.000000 0.000000
# 5 0.000000 0.000000 0.000000 0.000000 0.171665 0.000000
# 6 0.000000 0.000000 0.000000 0.000000 0.000000 0.089065
#
#
# Mechanical properties :
#
#
# Convention : Reuss Voigt Hill
#
# Bulk Modulus (GPa) = 13.30680 38.54311 25.92496
# Shear Modulus (GPa) = 11.23187 18.95294 15.09240
#
# Velocity S-wave (km/s) = 2.31925 3.01272 2.68844
# Velocity P-wave (km/s) = 3.68028 5.52813 4.69599
#
# Compressibility (1/GPa) = 0.07514955
#
# Stress axis : x y z
#
# Youngs Moduli (GPa) = 19.20117 29.78436 103.06396
#
# Poissons Ratio (x) = -0.27124 1.14372
# Poissons Ratio (y) = -0.17486 0.83620
# Poissons Ratio (z) = 0.21308 0.24165
#
# Static dielectric constant tensor:
#      x y z
#    x 1.750230 0.000000 0.000000 
#    y 0.000000 1.758190 0.000000 
#    z 0.000000 0.000000 1.812920 
# 
# From -- ./inp_files/15710.got.cif
#   From: 2010.05.17/outbox.cif.g08.bks.cpg/sg40_8_cif.got.tgz:15710.got - 2010.06.03 18:35:42.
