data_PCOD9362747
_publ_section_title
;
Structure prediction by ZEFSAII (Michael W. Deem and Ramdas Pophale) SiO2 
 PCOD9362747
Probable space group: A M A 2
;
_chemical_formula_sum "Si O2"
_cell_formula_units_Z 60
_cell_length_a 16.770473
_cell_length_b 15.063449
_cell_length_c 11.457678
_cell_angle_alpha 90.000000
_cell_angle_beta 90.000000
_cell_angle_gamma 90.000000
_cell_volume 2894.451962
_symmetry_space_group_name_H-M "A M A 2"
_symmetry_group_IT_number 40
_symmetry_cell_setting 'orthorhombic'
loop_
_space_group_symop_operation_xyz
x,y,z
-x,-y,z
1/2-x,y,z
1/2+x,-y,z
x,1/2+y,1/2+z
-x,1/2-y,1/2+z
1/2-x,1/2+y,1/2+z
1/2+x,1/2-y,1/2+z
loop_
_atom_site_type_symbol
_atom_site_label
_atom_site_fract_x
_atom_site_fract_y
_atom_site_fract_z
Si Si1 0.250000 0.761500 0.872581
Si Si2 0.612955 0.812339 0.522659
Si Si3 0.887519 0.184731 0.228290
Si Si4 0.392602 0.337707 0.232758
Si Si5 0.970449 0.794107 0.905976
Si Si6 0.153048 0.996193 0.561828
Si Si7 0.434189 0.646701 0.645639
Si Si8 0.660844 0.497584 0.790708
O O1 0.320016 0.829014 0.822945
O O2 0.320834 0.694498 0.922636
O O3 0.640312 0.742244 0.619582
O O4 0.528874 0.778582 0.469707
O O5 0.614309 0.907521 0.584170
O O6 0.897413 0.244287 0.343667
O O7 0.978109 0.156045 0.199462
O O8 0.839189 0.095848 0.239085
O O9 0.474602 0.339143 0.306681
O O10 0.380554 0.417884 0.142631
O O11 0.392152 0.242004 0.167084
O O12 0.943174 0.861180 0.006597
O O13 0.250000 0.998767 0.574220
O O14 0.134053 0.986483 0.424020
O O15 0.392124 0.567706 0.713621
O O16 0.750000 0.461590 0.789095
#
# Coordination Sequence:
#
# PCOD9362747 Si02
#       8
#     4   8   8   8   8   8   8   8
#     4  10  18  34  58  86 124 162 206 252 322 382
#     4  10  21  36  64  87 122 167 209 257 321 384
#     4  10  21  41  60  86 123 164 211 262 315 383
#     4  10  20  35  63  94 126 164 212 269 323 382
#     4   9  20  41  62  86 122 172 213 267 323 380
#     4  11  21  36  59  98 128 159 206 268 321 380
#     4  10  21  39  64  90 125 167 216 267 324 384
#     4  11  24  37  64  94 126 161 211 263 324 388
#
# _framework density 20.729313000000001
#
# number of rings (size 3 to 8) (size 9 to 14) (size 15 to 20)
#    0.000    1.867    1.333    3.600    3.733    0.000 
#    0.000   17.333    0.000    0.000    0.000    0.000 
#    0.000    0.000    0.000    0.000    0.000    0.000 
#
# Total GULP energy -167005.270925 kJ/mol
# GULP energy per Si atom -5566.842364 kJ/mol
# Density = 2.068213 g / cm^3
# Si number density = 20.729313 Si / 1000 Ang^3
#
#
#
# Elastic Constant Matrix: (Units=GPa)
#
#
# Indices 1 2 3 4 5 6 
#
# 1 42.7583 34.2960 17.8289 0.0000 0.0000 0.0000
# 2 34.2960 121.3647 57.6057 0.0000 0.0000 0.0000
# 3 17.8289 57.6057 95.6335 0.0000 0.0000 0.0000
# 4 0.0000 0.0000 0.0000 48.1917 0.0000 0.0000
# 5 0.0000 0.0000 0.0000 0.0000 13.7135 0.0000
# 6 0.0000 0.0000 0.0000 0.0000 0.0000 22.3825
#
#
#
# Elastic Compliance Matrix: (Units=1/GPa)
#
#
# Indices 1 2 3 4 5 6 
#
# 1 0.030274 -0.008229 -0.000687 0.000000 0.000000 0.000000
# 2 -0.008229 0.013775 -0.006764 0.000000 0.000000 0.000000
# 3 -0.000687 -0.006764 0.014659 0.000000 0.000000 0.000000
# 4 0.000000 0.000000 0.000000 0.020750 0.000000 0.000000
# 5 0.000000 0.000000 0.000000 0.000000 0.072921 0.000000
# 6 0.000000 0.000000 0.000000 0.000000 0.000000 0.044678
#
#
# Mechanical properties :
#
#
# Convention : Reuss Voigt Hill
#
# Bulk Modulus (GPa) = 36.56460 53.24641 44.90550
# Shear Modulus (GPa) = 21.04971 26.85927 23.95449
#
# Velocity S-wave (km/s) = 3.19008 3.60351 3.40308
# Velocity P-wave (km/s) = 5.58983 6.56171 6.09517
#
# Compressibility (1/GPa) = 0.02734886
#
# Stress axis : x y z
#
# Youngs Moduli (GPa) = 33.03152 72.59361 68.21832
#
# Poissons Ratio (x) = 0.59736 0.04689
# Poissons Ratio (y) = 0.27181 0.46140
# Poissons Ratio (z) = 0.02270 0.49099
#
# Static dielectric constant tensor:
#      x y z
#    x 1.749960 0.000000 0.000000 
#    y 0.000000 1.762660 0.000000 
#    z 0.000000 0.000000 1.799790 
# 
# From -- ./inp_files/13069.got.cif
#   From: 2010.05.17/outbox.cif.g08.bks.cpg/sg40_7_cif.got.tgz:13069.got - 2010.06.03 18:35:42.
