data_PCOD9362838
_publ_section_title
;
Structure prediction by ZEFSAII (Michael W. Deem and Ramdas Pophale) SiO2 
 PCOD9362838
Probable space group: A M A 2
;
_chemical_formula_sum "Si O2"
_cell_formula_units_Z 28
_cell_length_a 14.776267
_cell_length_b 14.160740
_cell_length_c 4.700931
_cell_angle_alpha 90.000000
_cell_angle_beta 90.000000
_cell_angle_gamma 90.000000
_cell_volume 983.636318
_symmetry_space_group_name_H-M "A M A 2"
_symmetry_group_IT_number 40
_symmetry_cell_setting 'orthorhombic'
loop_
_space_group_symop_operation_xyz
x,y,z
-x,-y,z
1/2-x,y,z
1/2+x,-y,z
x,1/2+y,1/2+z
-x,1/2-y,1/2+z
1/2-x,1/2+y,1/2+z
1/2+x,1/2-y,1/2+z
loop_
_atom_site_type_symbol
_atom_site_label
_atom_site_fract_x
_atom_site_fract_y
_atom_site_fract_z
Si Si1 0.250000 0.691175 0.362581
Si Si2 0.091281 0.461322 0.069429
Si Si3 0.250000 0.363608 0.183712
Si Si4 0.750000 0.481171 0.747415
Si Si5 0.941201 0.221561 0.195518
O O1 0.250000 0.753835 0.654732
O O2 0.250000 0.583402 0.468692
O O3 0.156033 0.726407 0.222899
O O4 0.160048 0.412304 0.294187
O O5 0.153885 0.538924 0.906834
O O6 0.063523 0.380617 0.844881
O O7 0.000000 0.500000 0.198538
O O8 0.250000 0.407219 0.855299
O O9 0.014369 0.277884 0.387681
#
# Coordination Sequence:
#
# PCOD9362838 Si02
#       5
#     4   8   4   4   8
#     4  10  18  40  65  97 141 183 235 299 359 431
#     4   8  15  33  56  86 126 158 222 270 336 409
#     4   6  16  26  51  92 121 169 219 274 337 419
#     4   8  16  30  60  91 124 176 212 285 348 410
#     4  11  24  41  66  98 133 185 233 293 362 428
#
# _framework density 28.465803000000001
#
# number of rings (size 3 to 8) (size 9 to 14) (size 15 to 20)
#    1.714    1.143    0.000    1.714    0.000    1.143 
#    0.000    7.143    0.000    3.429    0.000    0.000 
#    0.000    0.000    0.000    0.000    0.000    0.000 
#
# Total GULP energy -78177.962788 kJ/mol
# GULP energy per Si atom -5584.140199 kJ/mol
# Density = 2.840101 g / cm^3
# Si number density = 28.465803 Si / 1000 Ang^3
#
#
#
# Elastic Constant Matrix: (Units=GPa)
#
#
# Indices 1 2 3 4 5 6 
#
# 1 249.1422 37.3045 33.5331 0.0000 0.0000 0.0000
# 2 37.3045 127.9122 30.1965 0.0000 0.0000 0.0000
# 3 33.5331 30.1965 119.3724 0.0000 0.0000 0.0000
# 4 0.0000 0.0000 0.0000 23.2195 0.0000 0.0000
# 5 0.0000 0.0000 0.0000 0.0000 17.9229 0.0000
# 6 0.0000 0.0000 0.0000 0.0000 0.0000 49.7042
#
#
#
# Elastic Compliance Matrix: (Units=1/GPa)
#
#
# Indices 1 2 3 4 5 6 
#
# 1 0.004295 -0.001029 -0.000946 0.000000 0.000000 0.000000
# 2 -0.001029 0.008561 -0.001876 0.000000 0.000000 0.000000
# 3 -0.000946 -0.001876 0.009118 0.000000 0.000000 0.000000
# 4 0.000000 0.000000 0.000000 0.043067 0.000000 0.000000
# 5 0.000000 0.000000 0.000000 0.000000 0.055794 0.000000
# 6 0.000000 0.000000 0.000000 0.000000 0.000000 0.020119
#
#
# Mechanical properties :
#
#
# Convention : Reuss Voigt Hill
#
# Bulk Modulus (GPa) = 70.07731 77.61054 73.84393
# Shear Modulus (GPa) = 32.59128 44.52883 38.56006
#
# Velocity S-wave (km/s) = 3.38735 3.95940 3.68450
# Velocity P-wave (km/s) = 6.32221 6.94451 6.64065
#
# Compressibility (1/GPa) = 0.01426995
#
# Stress axis : x y z
#
# Youngs Moduli (GPa) = 232.81561 116.80835 109.67774
#
# Poissons Ratio (x) = 0.12023 0.10378
# Poissons Ratio (y) = 0.23964 0.20581
# Poissons Ratio (z) = 0.22029 0.21919
#
# Static dielectric constant tensor:
#      x y z
#    x 2.320300 0.000000 0.000000 
#    y 0.000000 2.219200 0.000000 
#    z 0.000000 0.000000 2.154690 
# 
# From -- ./inp_files/1027.got.cif
#   From: 2010.05.17/outbox.cif.g08.bks.cpg/sg40_1_cif.got.tgz:1027.got - 2010.06.03 18:35:42.
