data_PCOD9362743
_publ_section_title
;
Structure prediction by ZEFSAII (Michael W. Deem and Ramdas Pophale) SiO2 
 PCOD9362743
Probable space group: A M A 2
;
_chemical_formula_sum "Si O2"
_cell_formula_units_Z 64
_cell_length_a 8.572876
_cell_length_b 20.251769
_cell_length_c 21.265976
_cell_angle_alpha 90.000000
_cell_angle_beta 90.000000
_cell_angle_gamma 90.000000
_cell_volume 3692.111657
_symmetry_space_group_name_H-M "A M A 2"
_symmetry_group_IT_number 40
_symmetry_cell_setting 'orthorhombic'
loop_
_space_group_symop_operation_xyz
x,y,z
-x,-y,z
1/2-x,y,z
1/2+x,-y,z
x,1/2+y,1/2+z
-x,1/2-y,1/2+z
1/2-x,1/2+y,1/2+z
1/2+x,1/2-y,1/2+z
loop_
_atom_site_type_symbol
_atom_site_label
_atom_site_fract_x
_atom_site_fract_y
_atom_site_fract_z
Si Si1 0.561060 0.703831 0.595990
Si Si2 0.440100 0.210645 0.715464
Si Si3 0.937792 0.430009 0.165267
Si Si4 0.562159 0.429861 0.018206
Si Si5 0.936092 0.570891 0.403682
Si Si6 0.561654 0.288692 0.972479
Si Si7 0.435904 0.570089 0.545827
Si Si8 0.063089 0.207157 0.855072
O O1 0.750000 0.698764 0.596310
O O2 0.510358 0.741282 0.659241
O O3 0.517473 0.747609 0.534998
O O4 0.489057 0.631828 0.587188
O O5 0.250000 0.209992 0.713570
O O6 0.491207 0.135617 0.700897
O O7 0.487240 0.230243 0.785645
O O8 0.750000 0.431738 0.167250
O O9 0.984760 0.423452 0.091737
O O10 0.000000 0.500000 0.189328
O O11 0.500000 0.500000 0.994601
O O12 0.750000 0.431145 0.017036
O O13 0.509940 0.364437 0.981636
O O14 0.750000 0.570599 0.402322
O O15 0.000000 0.500000 0.381629
O O16 0.992148 0.579183 0.476005
O O17 0.001555 0.633076 0.366155
O O18 0.750000 0.287912 0.969699
O O19 0.497569 0.253148 0.910971
O O20 0.500000 0.500000 0.569725
O O21 0.250000 0.567449 0.540146
O O22 0.250000 0.205610 0.857384
#
# Coordination Sequence:
#
# PCOD9362743 Si02
#       8
#     8   8   8   8   8   8   8   8
#     4  10  18  34  58  79 103 141 182 220 265 316
#     4   9  19  35  54  75 105 145 181 213 259 319
#     4   9  16  30  49  72 101 135 172 206 246 300
#     4   9  17  30  51  78 104 133 169 213 260 309
#     4  11  21  35  53  75 106 145 184 221 264 317
#     4  10  19  33  55  78 103 139 180 220 268 318
#     4  11  21  34  54  83 111 137 173 221 272 321
#     4  11  22  35  52  78 110 143 180 222 268 318
#
# _framework density 17.334254000000001
#
# number of rings (size 3 to 8) (size 9 to 14) (size 15 to 20)
#    0.000    2.000    2.500    3.375    0.000    1.000 
#    0.000    4.375    0.000    0.750    0.000    1.750 
#    0.000    0.000    0.000    0.000    0.000    0.000 
#
# Total GULP energy -178604.792067 kJ/mol
# GULP energy per Si atom -5581.399752 kJ/mol
# Density = 1.729480 g / cm^3
# Si number density = 17.334254 Si / 1000 Ang^3
#
#
#
# Elastic Constant Matrix: (Units=GPa)
#
#
# Indices 1 2 3 4 5 6 
#
# 1 36.9178 30.8549 28.2715 0.0000 0.0000 0.0000
# 2 30.8549 139.4724 74.9304 0.0000 0.0000 0.0000
# 3 28.2715 74.9304 118.0977 0.0000 0.0000 0.0000
# 4 0.0000 0.0000 0.0000 20.7207 0.0000 0.0000
# 5 0.0000 0.0000 0.0000 0.0000 16.9342 0.0000
# 6 0.0000 0.0000 0.0000 0.0000 0.0000 26.4101
#
#
#
# Elastic Compliance Matrix: (Units=1/GPa)
#
#
# Indices 1 2 3 4 5 6 
#
# 1 0.035292 -0.004959 -0.005302 0.000000 0.000000 0.000000
# 2 -0.004959 0.011575 -0.006157 0.000000 0.000000 0.000000
# 3 -0.005302 -0.006157 0.013643 0.000000 0.000000 0.000000
# 4 0.000000 0.000000 0.000000 0.048261 0.000000 0.000000
# 5 0.000000 0.000000 0.000000 0.000000 0.059052 0.000000
# 6 0.000000 0.000000 0.000000 0.000000 0.000000 0.037864
#
#
# Mechanical properties :
#
#
# Convention : Reuss Voigt Hill
#
# Bulk Modulus (GPa) = 36.13483 62.51128 49.32305
# Shear Modulus (GPa) = 20.18183 23.50843 21.84513
#
# Velocity S-wave (km/s) = 3.41585 3.68663 3.55382
# Velocity P-wave (km/s) = 6.03726 7.36629 6.73464
#
# Compressibility (1/GPa) = 0.02767413
#
# Stress axis : x y z
#
# Youngs Moduli (GPa) = 28.33483 86.39644 73.29688
#
# Poissons Ratio (x) = 0.42844 0.38864
# Poissons Ratio (y) = 0.14051 0.45126
# Poissons Ratio (z) = 0.15024 0.53191
#
# Static dielectric constant tensor:
#      x y z
#    x 1.589820 0.000000 0.000000 
#    y 0.000000 1.589110 0.000000 
#    z 0.000000 0.000000 1.583790 
# 
# From -- ./inp_files/19588.got.cif
#   From: 2010.05.17/outbox.cif.g08.bks.cpg/sg40_10_cif.got.tgz:19588.got - 2010.06.03 18:35:42.
