data_PCOD9362050
_publ_section_title
;
Structure prediction by ZEFSAII (Michael W. Deem and Ramdas Pophale) SiO2 
 PCOD9362050
Probable space group: A B M 2
;
_chemical_formula_sum "Si O2"
_cell_formula_units_Z 64
_cell_length_a 24.175672
_cell_length_b 8.642896
_cell_length_c 15.108474
_cell_angle_alpha 90.000000
_cell_angle_beta 90.000000
_cell_angle_gamma 90.000000
_cell_volume 3156.882688
_symmetry_space_group_name_H-M "A B M 2"
_symmetry_group_IT_number 39
_symmetry_cell_setting 'orthorhombic'
loop_
_space_group_symop_operation_xyz
x,y,z
-x,-y,z
-x,1/2+y,z
x,1/2-y,z
x,1/2+y,1/2+z
-x,1/2-y,1/2+z
-x,y,1/2+z
x,-y,1/2+z
loop_
_atom_site_type_symbol
_atom_site_label
_atom_site_fract_x
_atom_site_fract_y
_atom_site_fract_z
Si Si1 0.113762 0.068909 0.500000
Si Si2 0.866884 0.570686 0.182698
Si Si3 0.942066 0.932357 0.830444
Si Si4 0.772228 0.431160 0.437408
Si Si5 0.560684 0.064654 0.603912
Si Si6 0.368056 0.437129 0.755872
Si Si7 0.245248 0.070036 0.724728
Si Si8 0.350482 0.061619 0.958457
O O1 0.107630 0.250000 0.517281
O O2 0.105927 0.974247 0.589923
O O3 0.073560 0.014119 0.422271
O O4 0.175843 0.030860 0.466703
O O5 0.874311 0.750000 0.203508
O O6 0.894419 0.470822 0.260076
O O7 0.801871 0.529446 0.178452
O O8 0.945678 0.750000 0.843687
O O9 0.000000 0.000000 0.797130
O O10 0.782047 0.250000 0.461111
O O11 0.765463 0.436172 0.330833
O O12 0.713088 0.485393 0.475391
O O13 0.559161 0.250000 0.602234
O O14 0.605205 0.010285 0.530542
O O15 0.500000 0.000000 0.585905
O O16 0.583238 0.007469 0.698311
O O17 0.370550 0.250000 0.753738
O O18 0.308553 0.482151 0.713935
O O19 0.367314 0.485255 0.858779
O O20 0.239979 0.250000 0.697796
O O21 0.349197 0.250000 0.958255
#
# Coordination Sequence:
#
# PCOD9362050 Si02
#       8
#     8   8   8   8   8   8   8   8
#     4  12  25  41  63  97 132 170 215 261 314 376
#     4  12  25  41  64  96 131 172 216 261 313 374
#     4  12  26  48  72  96 129 170 215 266 318 375
#     4   9  17  35  62  90 124 165 202 250 314 377
#     4  11  23  39  58  84 117 158 206 256 306 369
#     4   9  19  38  61  87 119 158 199 247 307 368
#     4   9  18  35  61  91 128 165 201 250 314 378
#     4   8  18  37  60  85 117 158 200 245 305 367
#
# _framework density 20.273163
#
# number of rings (size 3 to 8) (size 9 to 14) (size 15 to 20)
#    0.000    1.750    1.250    5.250    1.750    1.500 
#    0.000    7.500    0.000    0.000    0.000    0.000 
#    0.000    0.000    0.000    0.000    0.000    0.000 
#
# Total GULP energy -178904.552978 kJ/mol
# GULP energy per Si atom -5590.767281 kJ/mol
# Density = 2.022702 g / cm^3
# Si number density = 20.273163 Si / 1000 Ang^3
#
#
#
# Elastic Constant Matrix: (Units=GPa)
#
#
# Indices 1 2 3 4 5 6 
#
# 1 71.1330 12.9588 -2.4134 0.0000 0.0000 0.0000
# 2 12.9588 41.2002 -9.9547 0.0000 0.0000 0.0000
# 3 -2.4134 -9.9547 33.2658 0.0000 0.0000 0.0000
# 4 0.0000 0.0000 0.0000 21.9205 0.0000 0.0000
# 5 0.0000 0.0000 0.0000 0.0000 16.9373 0.0000
# 6 0.0000 0.0000 0.0000 0.0000 0.0000 30.2324
#
#
#
# Elastic Compliance Matrix: (Units=1/GPa)
#
#
# Indices 1 2 3 4 5 6 
#
# 1 0.014916 -0.004776 -0.000347 0.000000 0.000000 0.000000
# 2 -0.004776 0.027692 0.007940 0.000000 0.000000 0.000000
# 3 -0.000347 0.007940 0.032412 0.000000 0.000000 0.000000
# 4 0.000000 0.000000 0.000000 0.045619 0.000000 0.000000
# 5 0.000000 0.000000 0.000000 0.000000 0.059041 0.000000
# 6 0.000000 0.000000 0.000000 0.000000 0.000000 0.033077
#
#
# Mechanical properties :
#
#
# Convention : Reuss Voigt Hill
#
# Bulk Modulus (GPa) = 12.39825 16.30894 14.35360
# Shear Modulus (GPa) = 21.36678 23.48524 22.42601
#
# Velocity S-wave (km/s) = 3.24997 3.40728 3.32955
# Velocity P-wave (km/s) = 4.49577 4.85195 4.67726
#
# Compressibility (1/GPa) = 0.08065654
#
# Stress axis : x y z
#
# Youngs Moduli (GPa) = 67.04032 36.11108 30.85287
#
# Poissons Ratio (x) = 0.17245 0.01070
# Poissons Ratio (y) = 0.32015 -0.24498
# Poissons Ratio (z) = 0.02326 -0.28674
#
# Static dielectric constant tensor:
#      x y z
#    x 1.706360 0.000000 0.000000 
#    y 0.000000 1.683300 0.000000 
#    z 0.000000 0.000000 1.719010 
# 
# From -- ./inp_files/10634.got.cif
#   From: 2010.05.17/outbox.cif.g08.bks.cpg/sg39_6_cif.got.tgz:10634.got - 2010.06.03 18:22:40.
