data_PCOD9362276
_publ_section_title
;
Structure prediction by ZEFSAII (Michael W. Deem and Ramdas Pophale) SiO2 
 PCOD9362276
Probable space group: A M A 2
;
_chemical_formula_sum "Si O2"
_cell_formula_units_Z 48
_cell_length_a 8.470991
_cell_length_b 7.626012
_cell_length_c 33.967437
_cell_angle_alpha 90.000000
_cell_angle_beta 90.000000
_cell_angle_gamma 90.000000
_cell_volume 2194.292321
_symmetry_space_group_name_H-M "A M A 2"
_symmetry_group_IT_number 40
_symmetry_cell_setting 'orthorhombic'
loop_
_space_group_symop_operation_xyz
x,y,z
-x,-y,z
1/2-x,y,z
1/2+x,-y,z
x,1/2+y,1/2+z
-x,1/2-y,1/2+z
1/2-x,1/2+y,1/2+z
1/2+x,1/2-y,1/2+z
loop_
_atom_site_type_symbol
_atom_site_label
_atom_site_fract_x
_atom_site_fract_y
_atom_site_fract_z
Si Si1 0.059245 0.201526 0.773470
Si Si2 0.939380 0.797656 0.858269
Si Si3 0.439682 0.202183 0.688574
Si Si4 0.062722 0.798032 0.606908
Si Si5 0.561398 0.196470 0.939129
Si Si6 0.938892 0.803307 0.526011
O O1 0.250000 0.199385 0.773479
O O2 0.008919 0.279117 0.815783
O O3 0.009391 0.278800 0.731128
O O4 0.000000 0.000000 0.773412
O O5 0.750000 0.799685 0.860254
O O6 0.001816 0.714514 0.898840
O O7 0.000000 0.000000 0.857051
O O8 0.250000 0.201730 0.686190
O O9 0.506116 0.282148 0.648268
O O10 0.500000 0.000000 0.689468
O O11 0.250000 0.802883 0.605814
O O12 0.001066 0.715108 0.566108
O O13 0.000000 0.000000 0.607965
O O14 0.750000 0.205013 0.939032
O O15 0.504148 0.249690 0.982564
O O16 0.500000 0.000000 0.935629
O O17 0.750000 0.794173 0.526569
O O18 0.000000 0.000000 0.529220
#
# Coordination Sequence:
#
# PCOD9362276 Si02
#       6
#     8   8   8   8   8   8
#     4   8  14  21  31  49  73 104 138 170 205 249
#     4   9  15  24  38  56  80 110 143 176 213 255
#     4   9  14  21  32  48  74 105 137 171 207 250
#     4  10  17  25  38  56  79 108 141 175 215 259
#     4  10  20  32  47  67  90 117 149 183 221 264
#     4  10  20  33  48  66  88 116 150 185 222 263
#
# _framework density 21.874935000000001
#
# number of rings (size 3 to 8) (size 9 to 14) (size 15 to 20)
#    0.000    2.667    0.000    6.500    0.000    4.000 
#    0.000    0.000    0.000    0.000    0.000    0.000 
#    0.000    1.333    0.000   11.333    0.000   16.833 
#
# Total GULP energy -133647.893070 kJ/mol
# GULP energy per Si atom -5568.662211 kJ/mol
# Density = 2.182515 g / cm^3
# Si number density = 21.874935 Si / 1000 Ang^3
#
#
#
# Elastic Constant Matrix: (Units=GPa)
#
#
# Indices 1 2 3 4 5 6 
#
# 1 69.0479 -3.6831 57.0965 0.0000 0.0000 0.0000
# 2 -3.6831 35.6409 21.0349 0.0000 0.0000 0.0000
# 3 57.0965 21.0349 324.3165 0.0000 0.0000 0.0000
# 4 0.0000 0.0000 0.0000 5.9104 0.0000 0.0000
# 5 0.0000 0.0000 0.0000 0.0000 32.9815 0.0000
# 6 0.0000 0.0000 0.0000 0.0000 0.0000 -3.3288
#
#
#
# Elastic Compliance Matrix: (Units=1/GPa)
#
#
# Indices 1 2 3 4 5 6 
#
# 1 0.017420 0.003754 -0.003310 0.000000 0.000000 0.000000
# 2 0.003754 0.029983 -0.002606 0.000000 0.000000 0.000000
# 3 -0.003310 -0.002606 0.003835 0.000000 0.000000 0.000000
# 4 0.000000 0.000000 0.000000 0.169194 0.000000 0.000000
# 5 0.000000 0.000000 0.000000 0.000000 0.030320 0.000000
# 6 0.000000 0.000000 0.000000 0.000000 0.000000 -0.300411
#
#
# Mechanical properties :
#
#
# Convention : Reuss Voigt Hill
#
# Bulk Modulus (GPa) = 21.31517 64.21130 42.76324
# Shear Modulus (GPa) = -168.37759 30.74975 -68.81392
#
# Velocity S-wave (km/s) = -8.78293 3.75334 -5.61482
# Velocity P-wave (km/s) = 9.64821 6.94269 4.73746
#
# Compressibility (1/GPa) = 0.04691493
#
# Stress axis : x y z
#
# Youngs Moduli (GPa) = 57.40430 33.35178 260.74292
#
# Poissons Ratio (x) = -0.12520 0.86315
# Poissons Ratio (y) = -0.21549 0.67939
# Poissons Ratio (z) = 0.19003 0.08690
#
# Static dielectric constant tensor:
#      x y z
#    x 1.729760 0.000000 0.000000 
#    y 0.000000 1.840260 0.000000 
#    z 0.000000 0.000000 1.991280 
# 
# From -- ./inp_files/26258.got.cif
#   From: 2010.05.17/outbox.cif.g08.bks.cpg/sg40_14_cif.got.tgz:26258.got - 2010.06.03 18:35:42.
