data_PCOD9362197
_publ_section_title
;
Structure prediction by ZEFSAII (Michael W. Deem and Ramdas Pophale) SiO2 
 PCOD9362197
Probable space group: A B M 2
;
_chemical_formula_sum "Si O2"
_cell_formula_units_Z 28
_cell_length_a 15.000000
_cell_length_b 9.000000
_cell_length_c 21.000000
_cell_angle_alpha 90.000000
_cell_angle_beta 90.000000
_cell_angle_gamma 90.000000
_cell_volume 2835.000000
_symmetry_space_group_name_H-M "A B M 2"
_symmetry_group_IT_number 39
_symmetry_cell_setting 'orthorhombic'
loop_
_space_group_symop_operation_xyz
x,y,z
-x,-y,z
-x,1/2+y,z
x,1/2-y,z
x,1/2+y,1/2+z
-x,1/2-y,1/2+z
-x,y,1/2+z
x,-y,1/2+z
loop_
_atom_site_type_symbol
_atom_site_label
_atom_site_fract_x
_atom_site_fract_y
_atom_site_fract_z
Si Si1 0.909574 0.574518 0.962560
Si Si2 0.665170 0.075809 0.780695
Si Si3 0.089783 0.575079 0.685988
Si Si4 0.133611 0.581406 0.831828
Si Si5 0.720058 0.429092 0.518956
Si Si6 0.592091 0.929328 0.414894
Si Si7 0.278954 0.928008 0.153085
O O1 0.919365 0.750000 0.964088
O O2 0.892974 0.524978 0.889190
O O3 0.000000 0.500000 0.985433
O O4 0.823696 0.534971 0.004722
O O5 0.650779 0.250000 0.765151
O O6 0.763120 0.064395 0.812705
O O7 0.603997 0.030854 0.840084
O O8 0.666206 0.983635 0.715347
O O9 0.096501 0.750000 0.669498
O O10 0.087444 0.565051 0.763276
O O11 0.178699 0.490304 0.664474
O O12 0.000000 0.500000 0.660782
O O13 0.118489 0.750000 0.854793
O O14 0.709790 0.250000 0.520137
O O15 0.667060 0.499863 0.459867
O O16 0.691090 0.500083 0.586176
O O17 0.594404 0.750000 0.419381
O O18 0.500000 0.000000 0.437308
O O19 0.279675 0.750000 0.149843
#
# Coordination Sequence:
#
# PCOD9362197 Si02
#       7
#     8   8   8   8   8   8   8
#     4  11  23  35  54  83 118 162 209 258 309 363
#     4   9  19  38  63  90 122 159 198 250 307 366
#     4  10  20  34  52  79 115 158 207 259 313 367
#     4   9  17  32  54  80 114 154 198 251 306 360
#     4  11  24  43  63  89 127 169 213 263 312 370
#     4  11  23  42  70 101 130 162 202 252 313 376
#     4  11  23  38  61  88 119 163 208 256 314 374
#
# _framework density 9.8765429999999999
#
# number of rings (size 3 to 8) (size 9 to 14) (size 15 to 20)
#    0.000    1.714    1.429    4.286    0.000    7.429 
#    0.000    2.143    0.000    1.714    0.000    0.000 
#    0.000    0.000    0.000    0.000    0.000    0.000 
#
# Total GULP energy -156394.364765 kJ/mol
# GULP energy per Si atom -5585.513027 kJ/mol
# Density = 0.985406 g / cm^3
# Si number density = 9.876543 Si / 1000 Ang^3
#
#
#
# Elastic Constant Matrix: (Units=GPa)
#
#
# Indices 1 2 3 4 5 6 
#
# 1 65.9448 35.3168 25.3773 0.0000 0.0000 0.0000
# 2 35.3168 99.2580 61.9075 0.0000 0.0000 0.0000
# 3 25.3773 61.9075 117.0622 0.0000 0.0000 0.0000
# 4 0.0000 0.0000 0.0000 28.2383 0.0000 0.0000
# 5 0.0000 0.0000 0.0000 0.0000 1.6096 0.0000
# 6 0.0000 0.0000 0.0000 0.0000 0.0000 22.8848
#
#
#
# Elastic Compliance Matrix: (Units=1/GPa)
#
#
# Indices 1 2 3 4 5 6 
#
# 1 0.018784 -0.006183 -0.000802 0.000000 0.000000 0.000000
# 2 -0.006183 0.017069 -0.007686 0.000000 0.000000 0.000000
# 3 -0.000802 -0.007686 0.012781 0.000000 0.000000 0.000000
# 4 0.000000 0.000000 0.000000 0.035413 0.000000 0.000000
# 5 0.000000 0.000000 0.000000 0.000000 0.621274 0.000000
# 6 0.000000 0.000000 0.000000 0.000000 0.000000 0.043697
#
#
# Mechanical properties :
#
#
# Convention : Reuss Voigt Hill
#
# Bulk Modulus (GPa) = 51.83801 58.60758 55.22280
# Shear Modulus (GPa) = 6.37112 21.19076 13.78094
#
# Velocity S-wave (km/s) = 1.79788 3.27889 2.64419
# Velocity P-wave (km/s) = 5.53261 6.63847 6.11061
#
# Compressibility (1/GPa) = 0.01929086
#
# Stress axis : x y z
#
# Youngs Moduli (GPa) = 53.23574 58.58654 78.24005
#
# Poissons Ratio (x) = 0.36226 0.06276
# Poissons Ratio (y) = 0.32917 0.60137
# Poissons Ratio (z) = 0.04270 0.45031
#
# Static dielectric constant tensor:
#      x y z
#    x 1.746310 0.000000 0.000000 
#    y 0.000000 1.658080 0.000000 
#    z 0.000000 0.000000 1.678580 
# 
# From -- ./inp_files/14814.got.cif
#   From: 2010.05.17/outbox.ucp.g08.bks.cvg/sg39_8_cif.got.tgz:14814.got - 2010.06.11 10:41:16.
