data_PCOD9362962
_publ_section_title
;
Structure prediction by ZEFSAII (Michael W. Deem and Ramdas Pophale) SiO2 
 PCOD9362962
Probable space group: A M A 2
;
_chemical_formula_sum "Si O2"
_cell_formula_units_Z 64
_cell_length_a 7.653722
_cell_length_b 21.825018
_cell_length_c 16.420278
_cell_angle_alpha 90.000000
_cell_angle_beta 90.000000
_cell_angle_gamma 90.000000
_cell_volume 2742.886265
_symmetry_space_group_name_H-M "A M A 2"
_symmetry_group_IT_number 40
_symmetry_cell_setting 'orthorhombic'
loop_
_space_group_symop_operation_xyz
x,y,z
-x,-y,z
1/2-x,y,z
1/2+x,-y,z
x,1/2+y,1/2+z
-x,1/2-y,1/2+z
1/2-x,1/2+y,1/2+z
1/2+x,1/2-y,1/2+z
loop_
_atom_site_type_symbol
_atom_site_label
_atom_site_fract_x
_atom_site_fract_y
_atom_site_fract_z
Si Si1 0.539238 0.188381 0.940970
Si Si2 0.960074 0.572306 0.872243
Si Si3 0.044371 0.378422 0.044019
Si Si4 0.459475 0.927359 0.197023
Si Si5 0.957858 0.300101 0.263339
Si Si6 0.457772 0.066820 0.707267
Si Si7 0.552765 0.748980 0.604129
Si Si8 0.040584 0.929103 0.018236
O O1 0.750000 0.192077 0.941809
O O2 0.484039 0.217715 0.856499
O O3 0.481318 0.117526 0.948821
O O4 0.472143 0.218072 0.024595
O O5 0.750000 0.578743 0.872131
O O6 0.025516 0.596440 0.784323
O O7 0.000000 0.500000 0.876395
O O8 0.023372 0.602683 0.955421
O O9 0.250000 0.363062 0.037890
O O10 0.025396 0.429282 0.114176
O O11 0.943563 0.320081 0.078266
O O12 0.250000 0.919288 0.197050
O O13 0.500000 0.000000 0.197993
O O14 0.525188 0.907596 0.108028
O O15 0.750000 0.301218 0.249111
O O16 0.025251 0.370167 0.249642
O O17 0.028950 0.253873 0.194131
O O18 0.250000 0.071031 0.705840
O O19 0.500000 0.000000 0.743258
O O20 0.750000 0.723168 0.612091
O O21 0.250000 0.924917 0.021473
O O22 0.000000 0.000000 0.005239
#
# Coordination Sequence:
#
# PCOD9362962 Si02
#       8
#     8   8   8   8   8   8   8   8
#     4  10  21  38  60  84 109 143 184 226 277 333
#     4   9  17  27  42  69 101 135 176 219 264 317
#     4  10  19  31  49  76 106 140 186 234 280 328
#     4   8  14  27  44  64  95 132 167 205 251 304
#     4   9  20  38  58  81 110 145 183 228 279 329
#     4  10  20  34  53  79 112 150 188 227 279 337
#     4   9  20  40  58  76 107 145 184 227 279 332
#     4   9  18  33  54  79 107 140 174 214 266 324
#
# _framework density 23.333085000000001
#
# number of rings (size 3 to 8) (size 9 to 14) (size 15 to 20)
#    0.000    2.750    0.000    1.875    0.000    6.000 
#    2.250    2.500    0.000    0.000    0.000    0.000 
#    0.000    0.000    0.000    0.000    0.000    0.000 
#
# Total GULP energy -178428.804749 kJ/mol
# GULP energy per Si atom -5575.900148 kJ/mol
# Density = 2.327998 g / cm^3
# Si number density = 23.333085 Si / 1000 Ang^3
#
#
#
# Elastic Constant Matrix: (Units=GPa)
#
#
# Indices 1 2 3 4 5 6 
#
# 1 57.5155 -0.4622 0.8478 0.0000 0.0000 0.0000
# 2 -0.4622 40.7649 31.2228 0.0000 0.0000 0.0000
# 3 0.8478 31.2228 165.2822 0.0000 0.0000 0.0000
# 4 0.0000 0.0000 0.0000 27.5938 0.0000 0.0000
# 5 0.0000 0.0000 0.0000 0.0000 19.3278 0.0000
# 6 0.0000 0.0000 0.0000 0.0000 0.0000 26.5352
#
#
#
# Elastic Compliance Matrix: (Units=1/GPa)
#
#
# Indices 1 2 3 4 5 6 
#
# 1 0.017391 0.000310 -0.000148 0.000000 0.000000 0.000000
# 2 0.000310 0.028686 -0.005421 0.000000 0.000000 0.000000
# 3 -0.000148 -0.005421 0.007075 0.000000 0.000000 0.000000
# 4 0.000000 0.000000 0.000000 0.036240 0.000000 0.000000
# 5 0.000000 0.000000 0.000000 0.000000 0.051739 0.000000
# 6 0.000000 0.000000 0.000000 0.000000 0.000000 0.037686
#
#
# Mechanical properties :
#
#
# Convention : Reuss Voigt Hill
#
# Bulk Modulus (GPa) = 23.45411 36.30881 29.88146
# Shear Modulus (GPa) = 24.56454 30.15497 27.35976
#
# Velocity S-wave (km/s) = 3.24817 3.59885 3.42800
# Velocity P-wave (km/s) = 4.91337 5.73270 5.33878
#
# Compressibility (1/GPa) = 0.04263646
#
# Stress axis : x y z
#
# Youngs Moduli (GPa) = 57.50007 34.85999 141.34279
#
# Poissons Ratio (x) = -0.01082 0.02090
# Poissons Ratio (y) = -0.01785 0.76616
# Poissons Ratio (z) = 0.00850 0.18896
#
# Static dielectric constant tensor:
#      x y z
#    x 1.875050 0.000000 0.000000 
#    y 0.000000 1.901620 0.000000 
#    z 0.000000 0.000000 1.931550 
# 
# From -- ./inp_files/15673.got.cif
#   From: 2010.05.17/outbox.cif.g08.bks.cpg/sg40_8_cif.got.tgz:15673.got - 2010.06.03 18:35:42.
