data_PCOD9362700
_publ_section_title
;
Structure prediction by ZEFSAII (Michael W. Deem and Ramdas Pophale) SiO2 
 PCOD9362700
Probable space group: A M A 2
;
_chemical_formula_sum "Si O2"
_cell_formula_units_Z 64
_cell_length_a 7.987556
_cell_length_b 20.469208
_cell_length_c 21.353672
_cell_angle_alpha 90.000000
_cell_angle_beta 90.000000
_cell_angle_gamma 90.000000
_cell_volume 3491.302848
_symmetry_space_group_name_H-M "A M A 2"
_symmetry_group_IT_number 40
_symmetry_cell_setting 'orthorhombic'
loop_
_space_group_symop_operation_xyz
x,y,z
-x,-y,z
1/2-x,y,z
1/2+x,-y,z
x,1/2+y,1/2+z
-x,1/2-y,1/2+z
1/2-x,1/2+y,1/2+z
1/2+x,1/2-y,1/2+z
loop_
_atom_site_type_symbol
_atom_site_label
_atom_site_fract_x
_atom_site_fract_y
_atom_site_fract_z
Si Si1 0.951196 0.571184 0.762890
Si Si2 0.450334 0.571898 0.520832
Si Si3 0.044878 0.708544 0.327385
Si Si4 0.548880 0.928684 0.875958
Si Si5 0.951525 0.071196 0.407669
Si Si6 0.052855 0.289865 0.569877
Si Si7 0.549917 0.209846 0.448594
Si Si8 0.455437 0.791815 0.208051
O O1 0.750000 0.574021 0.764514
O O2 0.011115 0.575784 0.835218
O O3 0.009652 0.634432 0.725136
O O4 0.000000 0.500000 0.737861
O O5 0.500000 0.500000 0.544280
O O6 0.250000 0.577118 0.520945
O O7 0.510575 0.576692 0.448276
O O8 0.521350 0.633417 0.557659
O O9 0.250000 0.709250 0.327450
O O10 0.990208 0.633838 0.337013
O O11 0.988426 0.749554 0.388223
O O12 0.991474 0.743711 0.263723
O O13 0.750000 0.925922 0.878281
O O14 0.500000 0.000000 0.851857
O O15 0.750000 0.073012 0.406035
O O16 0.012550 0.135246 0.444334
O O17 0.000000 0.000000 0.432538
O O18 0.250000 0.278438 0.570215
O O19 0.985917 0.273005 0.638831
O O20 0.983567 0.248140 0.512329
O O21 0.750000 0.207051 0.441520
O O22 0.250000 0.791914 0.207594
#
# Coordination Sequence:
#
# PCOD9362700 Si02
#       8
#     8   8   8   8   8   8   8   8
#     4   9  16  29  48  70  97 128 162 200 238 290
#     4  10  19  33  51  73 102 138 174 209 248 299
#     4   9  15  30  54  74  92 126 173 208 241 294
#     4   9  17  29  50  75  97 123 159 204 250 294
#     4   9  17  29  51  77 100 126 161 207 253 295
#     4  11  22  33  48  75 106 137 169 211 257 301
#     4  10  18  33  55  75  96 132 174 210 251 301
#     4   9  18  32  50  71  98 132 171 206 243 295
#
# _framework density 18.331264999999998
#
# number of rings (size 3 to 8) (size 9 to 14) (size 15 to 20)
#    0.000    2.500    2.500    0.750    0.000    1.500 
#    0.000    2.500    0.000    4.500    0.000    3.500 
#    0.000    0.000    0.000    0.000    0.000    0.000 
#
# Total GULP energy -178460.176609 kJ/mol
# GULP energy per Si atom -5576.880519 kJ/mol
# Density = 1.828954 g / cm^3
# Si number density = 18.331265 Si / 1000 Ang^3
#
#
#
# Elastic Constant Matrix: (Units=GPa)
#
#
# Indices 1 2 3 4 5 6 
#
# 1 8.1430 3.2279 1.0748 0.0000 0.0000 0.0000
# 2 3.2279 149.9507 77.9292 0.0000 0.0000 0.0000
# 3 1.0748 77.9292 115.3012 0.0000 0.0000 0.0000
# 4 0.0000 0.0000 0.0000 13.9516 0.0000 0.0000
# 5 0.0000 0.0000 0.0000 0.0000 12.5024 0.0000
# 6 0.0000 0.0000 0.0000 0.0000 0.0000 24.1086
#
#
#
# Elastic Compliance Matrix: (Units=1/GPa)
#
#
# Indices 1 2 3 4 5 6 
#
# 1 0.123937 -0.003187 0.000999 0.000000 0.000000 0.000000
# 2 -0.003187 0.010362 -0.006973 0.000000 0.000000 0.000000
# 3 0.000999 -0.006973 0.013377 0.000000 0.000000 0.000000
# 4 0.000000 0.000000 0.000000 0.071676 0.000000 0.000000
# 5 0.000000 0.000000 0.000000 0.000000 0.079985 0.000000
# 6 0.000000 0.000000 0.000000 0.000000 0.000000 0.041479
#
#
# Mechanical properties :
#
#
# Convention : Reuss Voigt Hill
#
# Bulk Modulus (GPa) = 7.73084 48.65097 28.19091
# Shear Modulus (GPa) = 12.42989 22.85670 17.64330
#
# Velocity S-wave (km/s) = 2.60680 3.53494 3.10574
# Velocity P-wave (km/s) = 3.64514 6.57712 5.31721
#
# Compressibility (1/GPa) = 0.12935202
#
# Stress axis : x y z
#
# Youngs Moduli (GPa) = 8.06861 96.51098 74.75650
#
# Poissons Ratio (x) = 0.30757 -0.07465
# Poissons Ratio (y) = 0.02571 0.52131
# Poissons Ratio (z) = -0.00806 0.67301
#
# Static dielectric constant tensor:
#      x y z
#    x 1.664850 0.000000 0.000000 
#    y 0.000000 1.648760 0.000000 
#    z 0.000000 0.000000 1.628070 
# 
# From -- ./inp_files/19565.got.cif
#   From: 2010.05.17/outbox.cif.g08.bks.cpg/sg40_10_cif.got.tgz:19565.got - 2010.06.03 18:35:42.
