data_PCOD9362649
_publ_section_title
;
Structure prediction by ZEFSAII (Michael W. Deem and Ramdas Pophale) SiO2 
 PCOD9362649
Probable space group: A M A 2
;
_chemical_formula_sum "Si O2"
_cell_formula_units_Z 64
_cell_length_a 15.093637
_cell_length_b 9.450135
_cell_length_c 21.753940
_cell_angle_alpha 90.000000
_cell_angle_beta 90.000000
_cell_angle_gamma 90.000000
_cell_volume 3102.914723
_symmetry_space_group_name_H-M "A M A 2"
_symmetry_group_IT_number 40
_symmetry_cell_setting 'orthorhombic'
loop_
_space_group_symop_operation_xyz
x,y,z
-x,-y,z
1/2-x,y,z
1/2+x,-y,z
x,1/2+y,1/2+z
-x,1/2-y,1/2+z
1/2-x,1/2+y,1/2+z
1/2+x,1/2-y,1/2+z
loop_
_atom_site_type_symbol
_atom_site_label
_atom_site_fract_x
_atom_site_fract_y
_atom_site_fract_z
Si Si1 0.092858 0.919145 0.931160
Si Si2 0.101981 0.144824 0.630067
Si Si3 0.645883 0.374485 0.535970
Si Si4 0.017771 0.668208 0.000691
Si Si5 0.853688 0.465325 0.302087
Si Si6 0.647078 0.939529 0.171522
Si Si7 0.093582 0.369683 0.186230
Si Si8 0.848488 0.185920 0.244578
O O1 0.067697 0.757529 0.947482
O O2 0.138707 0.960555 0.867528
O O3 0.000000 0.000000 0.927198
O O4 0.141976 0.998712 0.986850
O O5 0.156450 0.238440 0.677421
O O6 0.082898 0.180517 0.560004
O O7 0.004658 0.154272 0.661238
O O8 0.133649 0.983383 0.638521
O O9 0.750000 0.328049 0.541628
O O10 0.574946 0.252220 0.516263
O O11 0.613183 0.438000 0.601460
O O12 0.000000 0.500000 0.990401
O O13 0.750000 0.460927 0.284375
O O14 0.903772 0.557153 0.251862
O O15 0.886205 0.302560 0.292025
O O16 0.750000 0.980632 0.167241
O O17 0.641494 0.777621 0.190546
O O18 0.605289 0.041147 0.223163
O O19 0.750000 0.152539 0.268717
#
# Coordination Sequence:
#
# PCOD9362649 Si02
#       8
#     8   8   8   8   8   8   8   8
#     4  10  23  37  61  81 111 160 210 253 304 368
#     4  10  18  33  56  81 117 152 193 239 304 365
#     4  10  20  37  59  87 121 160 206 257 318 375
#     4  11  20  39  60  91 124 162 205 265 316 371
#     4  10  21  39  58  80 113 154 201 244 293 361
#     4  10  18  32  53  84 118 145 186 244 305 358
#     4  10  19  32  56  84 113 155 186 237 301 366
#     4   9  20  33  52  81 114 152 191 244 298 357
#
# _framework density 20.625768999999998
#
# number of rings (size 3 to 8) (size 9 to 14) (size 15 to 20)
#    0.000    2.000    2.500    1.500    3.500    1.000 
#    0.000    5.000    0.000    0.000    0.000    0.000 
#    0.000    0.000    0.000    0.000    0.000    0.000 
#
# Total GULP energy -178197.026942 kJ/mol
# GULP energy per Si atom -5568.657092 kJ/mol
# Density = 2.057882 g / cm^3
# Si number density = 20.625769 Si / 1000 Ang^3
#
#
#
# Elastic Constant Matrix: (Units=GPa)
#
#
# Indices 1 2 3 4 5 6 
#
# 1 51.6555 14.9492 3.5953 0.0000 0.0000 0.0000
# 2 14.9492 120.6185 41.8621 0.0000 0.0000 0.0000
# 3 3.5953 41.8621 88.1162 0.0000 0.0000 0.0000
# 4 0.0000 0.0000 0.0000 26.1809 0.0000 0.0000
# 5 0.0000 0.0000 0.0000 0.0000 16.5117 0.0000
# 6 0.0000 0.0000 0.0000 0.0000 0.0000 -40.3961
#
#
#
# Elastic Compliance Matrix: (Units=1/GPa)
#
#
# Indices 1 2 3 4 5 6 
#
# 1 0.020093 -0.002641 0.000435 0.000000 0.000000 0.000000
# 2 -0.002641 0.010275 -0.004774 0.000000 0.000000 0.000000
# 3 0.000435 -0.004774 0.013599 0.000000 0.000000 0.000000
# 4 0.000000 0.000000 0.000000 0.038196 0.000000 0.000000
# 5 0.000000 0.000000 0.000000 0.000000 0.060563 0.000000
# 6 0.000000 0.000000 0.000000 0.000000 0.000000 -0.024755
#
#
# Mechanical properties :
#
#
# Convention : Reuss Voigt Hill
#
# Bulk Modulus (GPa) = 33.32568 42.35594 37.84081
# Shear Modulus (GPa) = 35.22803 13.79153 24.50978
#
# Velocity S-wave (km/s) = 4.13723 2.58864 3.45093
# Velocity P-wave (km/s) = 6.24617 5.43275 5.85361
#
# Compressibility (1/GPa) = 0.03000689
#
# Stress axis : x y z
#
# Youngs Moduli (GPa) = 49.76825 97.32682 73.53646
#
# Poissons Ratio (x) = 0.25707 -0.03199
# Poissons Ratio (y) = 0.13145 0.35103
# Poissons Ratio (z) = -0.02165 0.46459
#
# Static dielectric constant tensor:
#      x y z
#    x 1.812870 0.000000 0.000000 
#    y 0.000000 1.821650 0.000000 
#    z 0.000000 0.000000 1.770610 
# 
# From -- ./inp_files/23409.got.cif
#   From: 2010.05.17/outbox.cif.g08.bks.cpg/sg40_12_cif.got.tgz:23409.got - 2010.06.03 18:35:42.
