data_PCOD9362777
_publ_section_title
;
Structure prediction by ZEFSAII (Michael W. Deem and Ramdas Pophale) SiO2 
 PCOD9362777
Probable space group: A M A 2
;
_chemical_formula_sum "Si O2"
_cell_formula_units_Z 64
_cell_length_a 8.709204
_cell_length_b 21.139469
_cell_length_c 20.274834
_cell_angle_alpha 90.000000
_cell_angle_beta 90.000000
_cell_angle_gamma 90.000000
_cell_volume 3732.758083
_symmetry_space_group_name_H-M "A M A 2"
_symmetry_group_IT_number 40
_symmetry_cell_setting 'orthorhombic'
loop_
_space_group_symop_operation_xyz
x,y,z
-x,-y,z
1/2-x,y,z
1/2+x,-y,z
x,1/2+y,1/2+z
-x,1/2-y,1/2+z
1/2-x,1/2+y,1/2+z
1/2+x,1/2-y,1/2+z
loop_
_atom_site_type_symbol
_atom_site_label
_atom_site_fract_x
_atom_site_fract_y
_atom_site_fract_z
Si Si1 0.565716 0.734066 0.468300
Si Si2 0.432550 0.567397 0.689336
Si Si3 0.564509 0.432991 0.106121
Si Si4 0.065646 0.233873 0.828801
Si Si5 0.062933 0.188747 0.688623
Si Si6 0.933347 0.616814 0.824486
Si Si7 0.934996 0.882583 0.464669
Si Si8 0.436136 0.315182 0.608691
O O1 0.750000 0.731854 0.466177
O O2 0.500923 0.711914 0.398407
O O3 0.523808 0.808438 0.475396
O O4 0.516126 0.695745 0.532884
O O5 0.500000 0.500000 0.668323
O O6 0.250000 0.565779 0.687709
O O7 0.488706 0.581543 0.763836
O O8 0.494502 0.623810 0.643511
O O9 0.500000 0.500000 0.128218
O O10 0.750000 0.433997 0.107421
O O11 0.512220 0.374343 0.151250
O O12 0.517872 0.419523 0.030329
O O13 0.250000 0.230614 0.831923
O O14 0.012355 0.196305 0.764214
O O15 0.026198 0.308276 0.819634
O O16 0.250000 0.187936 0.688535
O O17 0.019175 0.251870 0.648768
O O18 0.750000 0.610815 0.819054
O O19 0.989176 0.595429 0.896608
O O20 0.750000 0.885983 0.458177
O O21 0.250000 0.319497 0.611304
#
# Coordination Sequence:
#
# PCOD9362777 Si02
#       8
#     8   8   8   8   8   8   8   8
#     4   9  17  30  53  80 106 136 173 218 264 316
#     4  12  25  39  55  78 108 142 178 220 267 321
#     4  10  20  34  52  74 105 144 182 219 263 314
#     4   9  17  30  52  78 106 137 173 218 264 316
#     4   9  16  32  56  77 101 140 181 216 265 318
#     4  10  19  33  53  77 107 142 179 218 261 312
#     4   9  17  31  50  74 106 145 183 217 258 312
#     4  10  18  35  59  80 104 138 179 221 269 320
#
# _framework density 17.145499999999998
#
# number of rings (size 3 to 8) (size 9 to 14) (size 15 to 20)
#    0.000    2.250    2.500    1.500    0.000    2.000 
#    0.000    2.500    0.000    0.750    0.000    3.500 
#    0.000    0.000    0.000    0.000    0.000    0.000 
#
# Total GULP energy -178556.629967 kJ/mol
# GULP energy per Si atom -5579.894686 kJ/mol
# Density = 1.710648 g / cm^3
# Si number density = 17.145500 Si / 1000 Ang^3
#
#
#
# Elastic Constant Matrix: (Units=GPa)
#
#
# Indices 1 2 3 4 5 6 
#
# 1 28.1117 30.8594 30.3059 0.0000 0.0000 0.0000
# 2 30.8594 117.2080 73.3618 0.0000 0.0000 0.0000
# 3 30.3059 73.3618 137.5681 0.0000 0.0000 0.0000
# 4 0.0000 0.0000 0.0000 21.4507 0.0000 0.0000
# 5 0.0000 0.0000 0.0000 0.0000 27.2905 0.0000
# 6 0.0000 0.0000 0.0000 0.0000 0.0000 17.9336
#
#
#
# Elastic Compliance Matrix: (Units=1/GPa)
#
#
# Indices 1 2 3 4 5 6 
#
# 1 0.053565 -0.010082 -0.006424 0.000000 0.000000 0.000000
# 2 -0.010082 0.014704 -0.005620 0.000000 0.000000 0.000000
# 3 -0.006424 -0.005620 0.011681 0.000000 0.000000 0.000000
# 4 0.000000 0.000000 0.000000 0.046619 0.000000 0.000000
# 5 0.000000 0.000000 0.000000 0.000000 0.036643 0.000000
# 6 0.000000 0.000000 0.000000 0.000000 0.000000 0.055761
#
#
# Mechanical properties :
#
#
# Convention : Reuss Voigt Hill
#
# Bulk Modulus (GPa) = 28.01257 61.32687 44.66972
# Shear Modulus (GPa) = 18.17353 23.22567 20.69960
#
# Velocity S-wave (km/s) = 3.25923 3.68451 3.47838
# Velocity P-wave (km/s) = 5.52604 7.34486 6.49939
#
# Compressibility (1/GPa) = 0.03569826
#
# Stress axis : x y z
#
# Youngs Moduli (GPa) = 18.66882 68.00773 85.60638
#
# Poissons Ratio (x) = 0.68569 0.54990
# Poissons Ratio (y) = 0.18823 0.48113
# Poissons Ratio (z) = 0.11992 0.38222
#
# Static dielectric constant tensor:
#      x y z
#    x 1.581280 0.000000 0.000000 
#    y 0.000000 1.569360 0.000000 
#    z 0.000000 0.000000 1.584460 
# 
# From -- ./inp_files/22374.got.cif
#   From: 2010.05.17/outbox.cif.g08.bks.cpg/sg40_12_cif.got.tgz:22374.got - 2010.06.03 18:35:42.
