data_PCOD9362778
_publ_section_title
;
Structure prediction by ZEFSAII (Michael W. Deem and Ramdas Pophale) SiO2 
 PCOD9362778
Probable space group: A M A 2
;
_chemical_formula_sum "Si O2"
_cell_formula_units_Z 64
_cell_length_a 20.035350
_cell_length_b 9.236178
_cell_length_c 16.087714
_cell_angle_alpha 90.000000
_cell_angle_beta 90.000000
_cell_angle_gamma 90.000000
_cell_volume 2977.032423
_symmetry_space_group_name_H-M "A M A 2"
_symmetry_group_IT_number 40
_symmetry_cell_setting 'orthorhombic'
loop_
_space_group_symop_operation_xyz
x,y,z
-x,-y,z
1/2-x,y,z
1/2+x,-y,z
x,1/2+y,1/2+z
-x,1/2-y,1/2+z
1/2-x,1/2+y,1/2+z
1/2+x,1/2-y,1/2+z
loop_
_atom_site_type_symbol
_atom_site_label
_atom_site_fract_x
_atom_site_fract_y
_atom_site_fract_z
Si Si1 0.175888 0.549424 0.118030
Si Si2 0.822603 0.891820 0.423257
Si Si3 0.325517 0.817289 0.329273
Si Si4 0.055506 0.786529 0.924801
Si Si5 0.411951 0.123761 0.930145
Si Si6 0.398622 0.259263 0.115037
Si Si7 0.045366 0.206880 0.611889
Si Si8 0.571885 0.521211 0.712753
O O1 0.250000 0.575002 0.153659
O O2 0.158527 0.379236 0.118823
O O3 0.108848 0.626740 0.151611
O O4 0.178077 0.610480 0.023387
O O5 0.750000 0.837908 0.393541
O O6 0.884604 0.804584 0.384233
O O7 0.827188 0.060101 0.400865
O O8 0.250000 0.805482 0.298973
O O9 0.352778 0.671557 0.369958
O O10 0.375213 0.886947 0.263430
O O11 0.980364 0.806895 0.892117
O O12 0.080198 0.951461 0.936669
O O13 0.047091 0.703110 0.012293
O O14 0.402494 0.190894 0.022271
O O15 0.470067 0.336393 0.134457
O O16 0.396195 0.126336 0.179115
O O17 0.051554 0.375680 0.635790
O O18 0.500000 0.500000 0.757657
#
# Coordination Sequence:
#
# PCOD9362778 Si02
#       8
#     8   8   8   8   8   8   8   8
#     4  10  19  32  54  85 115 147 191 238 287 346
#     4   9  19  34  51  80 119 150 185 234 287 344
#     4  11  24  39  55  83 122 157 193 237 291 359
#     4   9  18  33  59  88 110 141 194 246 296 342
#     4  10  19  34  59  87 114 145 196 248 292 345
#     4  10  18  35  59  85 114 148 192 247 292 343
#     4   9  18  35  57  85 113 145 187 247 294 340
#     4  10  22  39  61  84 116 153 197 239 294 358
#
# _framework density 21.497919
#
# number of rings (size 3 to 8) (size 9 to 14) (size 15 to 20)
#    0.000    2.250    2.500    0.375    1.750    1.500 
#    0.000    1.250    2.750    0.000    0.000    0.000 
#    0.000    0.000    0.000    0.000    0.000    0.000 
#
# Total GULP energy -178365.788572 kJ/mol
# GULP energy per Si atom -5573.930893 kJ/mol
# Density = 2.144899 g / cm^3
# Si number density = 21.497919 Si / 1000 Ang^3
#
#
#
# Elastic Constant Matrix: (Units=GPa)
#
#
# Indices 1 2 3 4 5 6 
#
# 1 111.3731 26.5093 18.4501 0.0000 0.0000 0.0000
# 2 26.5093 67.1183 -0.2729 0.0000 0.0000 0.0000
# 3 18.4501 -0.2729 28.4134 0.0000 0.0000 0.0000
# 4 0.0000 0.0000 0.0000 17.6492 0.0000 0.0000
# 5 0.0000 0.0000 0.0000 0.0000 7.0600 0.0000
# 6 0.0000 0.0000 0.0000 0.0000 0.0000 26.2052
#
#
#
# Elastic Compliance Matrix: (Units=1/GPa)
#
#
# Indices 1 2 3 4 5 6 
#
# 1 0.011264 -0.004479 -0.007357 0.000000 0.000000 0.000000
# 2 -0.004479 0.016680 0.003068 0.000000 0.000000 0.000000
# 3 -0.007357 0.003068 0.040001 0.000000 0.000000 0.000000
# 4 0.000000 0.000000 0.000000 0.056660 0.000000 0.000000
# 5 0.000000 0.000000 0.000000 0.000000 0.141642 0.000000
# 6 0.000000 0.000000 0.000000 0.000000 0.000000 0.038160
#
#
# Mechanical properties :
#
#
# Convention : Reuss Voigt Hill
#
# Bulk Modulus (GPa) = 19.83695 32.91974 26.37834
# Shear Modulus (GPa) = 14.76033 20.99745 17.87889
#
# Velocity S-wave (km/s) = 2.62314 3.12864 2.88697
# Velocity P-wave (km/s) = 4.29207 5.32892 4.83835
#
# Compressibility (1/GPa) = 0.05041099
#
# Stress axis : x y z
#
# Youngs Moduli (GPa) = 88.78159 59.95041 24.99916
#
# Poissons Ratio (x) = 0.26850 0.18392
# Poissons Ratio (y) = 0.39762 -0.07671
# Poissons Ratio (z) = 0.65316 -0.18395
#
# Static dielectric constant tensor:
#      x y z
#    x 1.839300 0.000000 0.000000 
#    y 0.000000 1.786260 0.000000 
#    z 0.000000 0.000000 1.800370 
# 
# From -- ./inp_files/21360.got.cif
#   From: 2010.05.17/outbox.cif.g08.bks.cpg/sg40_11_cif.got.tgz:21360.got - 2010.06.03 18:35:42.
