data_PCOD9362677
_publ_section_title
;
Structure prediction by ZEFSAII (Michael W. Deem and Ramdas Pophale) SiO2 
 PCOD9362677
Probable space group: A M A 2
;
_chemical_formula_sum "Si O2"
_cell_formula_units_Z 56
_cell_length_a 21.466219
_cell_length_b 11.188749
_cell_length_c 9.042696
_cell_angle_alpha 90.000000
_cell_angle_beta 90.000000
_cell_angle_gamma 90.000000
_cell_volume 2171.875958
_symmetry_space_group_name_H-M "A M A 2"
_symmetry_group_IT_number 40
_symmetry_cell_setting 'orthorhombic'
loop_
_space_group_symop_operation_xyz
x,y,z
-x,-y,z
1/2-x,y,z
1/2+x,-y,z
x,1/2+y,1/2+z
-x,1/2-y,1/2+z
1/2-x,1/2+y,1/2+z
1/2+x,1/2-y,1/2+z
loop_
_atom_site_type_symbol
_atom_site_label
_atom_site_fract_x
_atom_site_fract_y
_atom_site_fract_z
Si Si1 0.679352 0.828407 0.605950
Si Si2 0.579960 0.227931 0.677672
Si Si3 0.682516 0.853751 0.030018
Si Si4 0.436040 0.029532 0.343040
Si Si5 0.313457 0.998217 0.325576
Si Si6 0.044928 0.095643 0.673058
Si Si7 0.320667 0.389885 0.377007
O O1 0.750000 0.829930 0.673458
O O2 0.683499 0.933768 0.481703
O O3 0.615022 0.851092 0.698274
O O4 0.673553 0.705958 0.510618
O O5 0.620813 0.273637 0.538520
O O6 0.576588 0.335404 0.795864
O O7 0.508412 0.195405 0.645715
O O8 0.625236 0.131858 0.757615
O O9 0.750000 0.797480 0.997079
O O10 0.688576 0.901336 0.198859
O O11 0.675480 0.976754 0.940595
O O12 0.380304 0.941855 0.300540
O O13 0.442308 0.027676 0.518470
O O14 0.500000 0.000000 0.266961
O O15 0.250000 0.927378 0.312147
O O16 0.000000 0.000000 0.764153
O O17 0.250000 0.373939 0.315710
#
# Coordination Sequence:
#
# PCOD9362677 Si02
#       7
#     8   8   8   8   8   8   8
#     4   9  16  33  59  80 109 151 198 250 301 364
#     4  11  20  36  56  85 121 162 193 254 313 363
#     4   9  17  30  53  86 117 148 197 249 301 368
#     4   9  18  34  53  76 110 147 191 237 287 357
#     4   8  13  26  50  77 105 137 179 237 294 345
#     4  10  21  37  54  80 116 154 194 237 303 374
#     4  10  18  32  57  88 118 155 206 257 307 369
#
# _framework density 25.784161000000001
#
# number of rings (size 3 to 8) (size 9 to 14) (size 15 to 20)
#    0.000    2.571    4.286    0.429    0.000    2.286 
#    2.571    1.429    0.000    1.714    0.000    0.000 
#    0.000    0.000    0.000    0.000    0.000    0.000 
#
# Total GULP energy -155929.533901 kJ/mol
# GULP energy per Si atom -5568.911925 kJ/mol
# Density = 2.572547 g / cm^3
# Si number density = 25.784161 Si / 1000 Ang^3
#
#
#
# Elastic Constant Matrix: (Units=GPa)
#
#
# Indices 1 2 3 4 5 6 
#
# 1 311.5817 53.8178 33.0380 0.0000 0.0000 0.0000
# 2 53.8178 65.9779 11.1291 0.0000 0.0000 0.0000
# 3 33.0380 11.1291 63.2299 0.0000 0.0000 0.0000
# 4 0.0000 0.0000 0.0000 34.0182 0.0000 0.0000
# 5 0.0000 0.0000 0.0000 0.0000 3.3392 0.0000
# 6 0.0000 0.0000 0.0000 0.0000 0.0000 44.0558
#
#
#
# Elastic Compliance Matrix: (Units=1/GPa)
#
#
# Indices 1 2 3 4 5 6 
#
# 1 0.003871 -0.002903 -0.001512 0.000000 0.000000 0.000000
# 2 -0.002903 0.017797 -0.001616 0.000000 0.000000 0.000000
# 3 -0.001512 -0.001616 0.016890 0.000000 0.000000 0.000000
# 4 0.000000 0.000000 0.000000 0.029396 0.000000 0.000000
# 5 0.000000 0.000000 0.000000 0.000000 0.299473 0.000000
# 6 0.000000 0.000000 0.000000 0.000000 0.000000 0.022698
#
#
# Mechanical properties :
#
#
# Convention : Reuss Voigt Hill
#
# Bulk Modulus (GPa) = 37.73992 70.75105 54.24549
# Shear Modulus (GPa) = 12.16493 39.13629 25.65061
#
# Velocity S-wave (km/s) = 2.17445 3.90018 3.15750
# Velocity P-wave (km/s) = 4.57962 6.91239 5.86319
#
# Compressibility (1/GPa) = 0.02649714
#
# Stress axis : x y z
#
# Youngs Moduli (GPa) = 258.32564 56.18996 59.20801
#
# Poissons Ratio (x) = 0.16310 0.08951
# Poissons Ratio (y) = 0.74982 0.09567
# Poissons Ratio (z) = 0.39053 0.09079
#
# Static dielectric constant tensor:
#      x y z
#    x 2.194280 0.000000 0.000000 
#    y 0.000000 2.167160 0.000000 
#    z 0.000000 0.000000 2.034230 
# 
# From -- ./inp_files/14012.got.cif
#   From: 2010.05.17/outbox.cif.g08.bks.cpg/sg40_8_cif.got.tgz:14012.got - 2010.06.03 18:35:42.
