data_PCOD9362012
_publ_section_title
;
Structure prediction by ZEFSAII (Michael W. Deem and Ramdas Pophale) SiO2 
 PCOD9362012
Probable space group: A B M 2
;
_chemical_formula_sum "Si O2"
_cell_formula_units_Z 52
_cell_length_a 9.172143
_cell_length_b 24.724435
_cell_length_c 11.168842
_cell_angle_alpha 90.000000
_cell_angle_beta 90.000000
_cell_angle_gamma 90.000000
_cell_volume 2532.825910
_symmetry_space_group_name_H-M "A B M 2"
_symmetry_group_IT_number 39
_symmetry_cell_setting 'orthorhombic'
loop_
_space_group_symop_operation_xyz
x,y,z
-x,-y,z
-x,1/2+y,z
x,1/2-y,z
x,1/2+y,1/2+z
-x,1/2-y,1/2+z
-x,y,1/2+z
x,-y,1/2+z
loop_
_atom_site_type_symbol
_atom_site_label
_atom_site_fract_x
_atom_site_fract_y
_atom_site_fract_z
Si Si1 0.500000 0.000000 0.143320
Si Si2 0.697245 0.593808 0.412773
Si Si3 0.257015 0.024908 0.801399
Si Si4 0.892456 0.843587 0.069804
Si Si5 0.367935 0.096270 0.994989
Si Si6 0.091781 0.811387 0.838148
Si Si7 0.067509 0.948936 0.088250
O O1 0.400639 0.962845 0.224342
O O2 0.600662 0.958755 0.070460
O O3 0.713024 0.536434 0.343878
O O4 0.529906 0.607689 0.443385
O O5 0.782701 0.643423 0.353565
O O6 0.793415 0.579197 0.528796
O O7 0.257175 0.072293 0.897039
O O8 0.122800 0.029675 0.714369
O O9 0.941214 0.813842 0.193699
O O10 0.946683 0.904052 0.096949
O O11 0.717729 0.853205 0.052944
O O12 0.970060 0.824200 0.944147
O O13 0.139820 0.750000 0.862830
O O14 0.000000 0.000000 0.017894
#
# Coordination Sequence:
#
# PCOD9362012 Si02
#       7
#     4   8   8   8   8   8   8
#     4  12  18  32  52  86 136 178 202 246 302 386
#     4  11  22  38  61  93 129 174 217 270 330 398
#     4  12  20  33  57  87 137 175 211 255 314 399
#     4  11  25  43  70  97 131 174 225 279 344 406
#     4  12  22  37  60  99 134 175 213 262 333 407
#     4  11  25  48  70  93 125 172 231 296 346 392
#     4  11  22  35  55  89 131 172 217 258 316 401
#
# _framework density 20.530427
#
# number of rings (size 3 to 8) (size 9 to 14) (size 15 to 20)
#    0.000    0.615    4.615    5.077    0.000    3.077 
#    0.000    1.538    0.000    0.000    0.000    0.000 
#    0.000    0.000    0.000    0.000    0.000    0.000 
#
# Total GULP energy -144844.120448 kJ/mol
# GULP energy per Si atom -5570.927710 kJ/mol
# Density = 2.048370 g / cm^3
# Si number density = 20.530427 Si / 1000 Ang^3
#
#
#
# Elastic Constant Matrix: (Units=GPa)
#
#
# Indices 1 2 3 4 5 6 
#
# 1 96.3679 16.6152 37.7245 0.0000 0.0000 0.0000
# 2 16.6152 81.8802 13.2557 0.0000 0.0000 0.0000
# 3 37.7245 13.2557 93.5993 0.0000 0.0000 0.0000
# 4 0.0000 0.0000 0.0000 18.1672 0.0000 0.0000
# 5 0.0000 0.0000 0.0000 0.0000 24.0346 0.0000
# 6 0.0000 0.0000 0.0000 0.0000 0.0000 14.7821
#
#
#
# Elastic Compliance Matrix: (Units=1/GPa)
#
#
# Indices 1 2 3 4 5 6 
#
# 1 0.012567 -0.001771 -0.004814 0.000000 0.000000 0.000000
# 2 -0.001771 0.012749 -0.001092 0.000000 0.000000 0.000000
# 3 -0.004814 -0.001092 0.012779 0.000000 0.000000 0.000000
# 4 0.000000 0.000000 0.000000 0.055044 0.000000 0.000000
# 5 0.000000 0.000000 0.000000 0.000000 0.041607 0.000000
# 6 0.000000 0.000000 0.000000 0.000000 0.000000 0.067649
#
#
# Mechanical properties :
#
#
# Convention : Reuss Voigt Hill
#
# Bulk Modulus (GPa) = 43.97319 45.22645 44.59982
# Shear Modulus (GPa) = 22.18980 25.01358 23.60169
#
# Velocity S-wave (km/s) = 3.29116 3.49430 3.39425
# Velocity P-wave (km/s) = 5.99227 6.19330 6.09362
#
# Compressibility (1/GPa) = 0.02274113
#
# Stress axis : x y z
#
# Youngs Moduli (GPa) = 79.57499 78.43727 78.25466
#
# Poissons Ratio (x) = 0.13889 0.37673
# Poissons Ratio (y) = 0.14090 0.08544
# Poissons Ratio (z) = 0.38309 0.08564
#
# Static dielectric constant tensor:
#      x y z
#    x 1.788600 0.000000 0.000000 
#    y 0.000000 1.698960 0.000000 
#    z 0.000000 0.000000 1.906270 
# 
# From -- ./inp_files/5287.got.cif
#   From: 2010.05.17/outbox.cif.g08.bks.cpg/sg39_3_cif.got.tgz:5287.got - 2010.06.03 18:22:40.
