data_PCOD9362127
_publ_section_title
;
Structure prediction by ZEFSAII (Michael W. Deem and Ramdas Pophale) SiO2 
 PCOD9362127
Probable space group: A B M 2
;
_chemical_formula_sum "Si O2"
_cell_formula_units_Z 48
_cell_length_a 13.871893
_cell_length_b 9.446370
_cell_length_c 18.178965
_cell_angle_alpha 90.000000
_cell_angle_beta 90.000000
_cell_angle_gamma 90.000000
_cell_volume 2382.154011
_symmetry_space_group_name_H-M "A B M 2"
_symmetry_group_IT_number 39
_symmetry_cell_setting 'orthorhombic'
loop_
_space_group_symop_operation_xyz
x,y,z
-x,-y,z
-x,1/2+y,z
x,1/2-y,z
x,1/2+y,1/2+z
-x,1/2-y,1/2+z
-x,y,1/2+z
x,-y,1/2+z
loop_
_atom_site_type_symbol
_atom_site_label
_atom_site_fract_x
_atom_site_fract_y
_atom_site_fract_z
Si Si1 0.412144 0.413736 0.962050
Si Si2 0.848477 0.750000 0.481985
Si Si3 0.894040 0.250000 0.810014
Si Si4 0.598359 0.575125 0.308065
Si Si5 0.049567 0.250000 0.062059
Si Si6 0.213516 0.510844 0.719928
Si Si7 0.068621 0.250000 0.714755
Si Si8 0.778693 0.461225 0.550459
O O1 0.500000 0.500000 0.000324
O O2 0.439526 0.250000 0.942781
O O3 0.392598 0.512830 0.890831
O O4 0.314585 0.405289 0.008310
O O5 0.858342 0.750000 0.393824
O O6 0.796168 0.615169 0.516717
O O7 0.957024 0.750000 0.511522
O O8 0.849345 0.381338 0.767211
O O9 0.007405 0.250000 0.790381
O O10 0.500000 0.500000 0.280573
O O11 0.599119 0.750000 0.304865
O O12 0.686715 0.507328 0.263603
O O13 0.119323 0.119272 0.043957
O O14 0.006736 0.250000 0.145761
O O15 0.141375 0.380214 0.710885
O O16 0.240179 0.551609 0.637084
#
# Coordination Sequence:
#
# PCOD9362127 Si02
#       8
#     8   4   4   8   4   8   4   8
#     4  11  25  45  73 104 144 194 243 308 372 443
#     4  12  28  44  71 107 141 195 240 310 360 448
#     4  12  26  46  71 103 147 185 248 298 378 428
#     4  11  25  46  74 104 148 194 243 307 374 442
#     4  12  24  48  69 103 148 191 248 297 377 426
#     4  12  25  45  72 104 142 192 238 305 363 444
#     4  12  26  44  73 103 146 197 242 301 369 442
#     4  12  25  45  73 102 144 190 241 302 372 441
#
# _framework density 20.149830000000001
#
# number of rings (size 3 to 8) (size 9 to 14) (size 15 to 20)
#    0.000    0.333    5.000    4.000    4.667    4.667 
#    0.000    0.000    0.000    0.000    0.000    0.000 
#    0.000    0.000    0.000    0.000    0.000    0.000 
#
# Total GULP energy -133922.128329 kJ/mol
# GULP energy per Si atom -5580.088680 kJ/mol
# Density = 2.010397 g / cm^3
# Si number density = 20.149830 Si / 1000 Ang^3
#
#
#
# Elastic Constant Matrix: (Units=GPa)
#
#
# Indices 1 2 3 4 5 6 
#
# 1 130.8439 26.8230 21.9026 0.0000 0.0000 0.0000
# 2 26.8230 103.9152 21.9100 0.0000 0.0000 0.0000
# 3 21.9026 21.9100 86.1958 0.0000 0.0000 0.0000
# 4 0.0000 0.0000 0.0000 18.1650 0.0000 0.0000
# 5 0.0000 0.0000 0.0000 0.0000 52.4384 0.0000
# 6 0.0000 0.0000 0.0000 0.0000 0.0000 42.7381
#
#
#
# Elastic Compliance Matrix: (Units=1/GPa)
#
#
# Indices 1 2 3 4 5 6 
#
# 1 0.008286 -0.001791 -0.001650 0.000000 0.000000 0.000000
# 2 -0.001791 0.010555 -0.002228 0.000000 0.000000 0.000000
# 3 -0.001650 -0.002228 0.012587 0.000000 0.000000 0.000000
# 4 0.000000 0.000000 0.000000 0.055051 0.000000 0.000000
# 5 0.000000 0.000000 0.000000 0.000000 0.019070 0.000000
# 6 0.000000 0.000000 0.000000 0.000000 0.000000 0.023398
#
#
# Mechanical properties :
#
#
# Convention : Reuss Voigt Hill
#
# Bulk Modulus (GPa) = 49.77545 51.35846 50.56696
# Shear Modulus (GPa) = 34.01759 39.35625 36.68692
#
# Velocity S-wave (km/s) = 4.11327 4.42427 4.27160
# Velocity P-wave (km/s) = 6.87858 7.18628 7.03411
#
# Compressibility (1/GPa) = 0.02009022
#
# Stress axis : x y z
#
# Youngs Moduli (GPa) = 120.68433 94.73959 79.44605
#
# Poissons Ratio (x) = 0.16967 0.13111
# Poissons Ratio (y) = 0.21613 0.17700
# Poissons Ratio (z) = 0.19916 0.21108
#
# Static dielectric constant tensor:
#      x y z
#    x 1.752540 0.000000 0.000000 
#    y 0.000000 1.657850 0.000000 
#    z 0.000000 0.000000 1.717340 
# 
# From -- ./inp_files/12710.got.cif
#   From: 2010.05.17/outbox.cif.g08.bks.cpg/sg39_7_cif.got.tgz:12710.got - 2010.06.03 18:22:40.
