data_PCOD9362661
_publ_section_title
;
Structure prediction by ZEFSAII (Michael W. Deem and Ramdas Pophale) SiO2 
 PCOD9362661
Probable space group: A M A 2
;
_chemical_formula_sum "Si O2"
_cell_formula_units_Z 60
_cell_length_a 9.184503
_cell_length_b 20.728455
_cell_length_c 17.197467
_cell_angle_alpha 90.000000
_cell_angle_beta 90.000000
_cell_angle_gamma 90.000000
_cell_volume 3274.063349
_symmetry_space_group_name_H-M "A M A 2"
_symmetry_group_IT_number 40
_symmetry_cell_setting 'orthorhombic'
loop_
_space_group_symop_operation_xyz
x,y,z
-x,-y,z
1/2-x,y,z
1/2+x,-y,z
x,1/2+y,1/2+z
-x,1/2-y,1/2+z
1/2-x,1/2+y,1/2+z
1/2+x,1/2-y,1/2+z
loop_
_atom_site_type_symbol
_atom_site_label
_atom_site_fract_x
_atom_site_fract_y
_atom_site_fract_z
Si Si1 0.920861 0.931452 0.072360
Si Si2 0.000000 0.500000 0.308910
Si Si3 0.580704 0.387512 0.187710
Si Si4 0.912964 0.108719 0.923830
Si Si5 0.076652 0.569038 0.742673
Si Si6 0.928654 0.929448 0.515890
Si Si7 0.423835 0.707247 0.315276
Si Si8 0.423835 0.852519 0.377932
O O1 0.750000 0.941888 0.061845
O O2 0.942558 0.899996 0.156986
O O3 0.000000 0.000000 0.073478
O O4 0.987095 0.896538 0.999013
O O5 0.934243 0.446164 0.250296
O O6 0.911538 0.544327 0.369925
O O7 0.750000 0.377803 0.172439
O O8 0.521788 0.409026 0.103635
O O9 0.530270 0.321186 0.230091
O O10 0.750000 0.122884 0.948478
O O11 0.981934 0.163707 0.871853
O O12 0.250000 0.563464 0.757357
O O13 0.000000 0.500000 0.738491
O O14 0.993645 0.605478 0.809743
O O15 0.750000 0.933369 0.511015
O O16 0.992051 0.876633 0.455338
O O17 0.000000 0.000000 0.498864
O O18 0.250000 0.693428 0.321667
O O19 0.444133 0.779874 0.345177
O O20 0.250000 0.863097 0.387613
#
# Coordination Sequence:
#
# PCOD9362661 Si02
#       8
#     8   4   8   8   8   8   8   8
#     4  10  20  34  54  81 116 148 185 231 282 337
#     4  10  18  32  54  86 122 150 188 230 296 352
#     4   9  18  35  58  84 116 155 194 240 296 356
#     4  11  21  32  55  87 118 154 193 236 288 347
#     4  10  21  38  61  87 114 147 190 242 293 346
#     4  11  22  38  63  93 124 154 198 254 309 365
#     4   9  21  41  60  79 114 158 200 239 290 355
#     4  11  23  41  62  84 116 158 200 246 301 359
#
# _framework density 18.325852000000001
#
# number of rings (size 3 to 8) (size 9 to 14) (size 15 to 20)
#    0.000    1.867    1.333    2.800    0.000    3.733 
#    2.400    0.667    0.000    0.000    0.000    0.000 
#    0.000    0.000    0.000    0.000    0.000    0.000 
#
# Total GULP energy -167002.876193 kJ/mol
# GULP energy per Si atom -5566.762540 kJ/mol
# Density = 1.828414 g / cm^3
# Si number density = 18.325852 Si / 1000 Ang^3
#
#
#
# Elastic Constant Matrix: (Units=GPa)
#
#
# Indices 1 2 3 4 5 6 
#
# 1 72.4612 45.3800 52.9225 0.0000 0.0000 0.0000
# 2 45.3800 49.4839 34.3112 0.0000 0.0000 0.0000
# 3 52.9225 34.3112 113.4777 0.0000 0.0000 0.0000
# 4 0.0000 0.0000 0.0000 4.9963 0.0000 0.0000
# 5 0.0000 0.0000 0.0000 0.0000 -56.7301 0.0000
# 6 0.0000 0.0000 0.0000 0.0000 0.0000 19.6437
#
#
#
# Elastic Compliance Matrix: (Units=1/GPa)
#
#
# Indices 1 2 3 4 5 6 
#
# 1 0.038893 -0.029216 -0.009305 0.000000 0.000000 0.000000
# 2 -0.029216 0.047516 -0.000741 0.000000 0.000000 0.000000
# 3 -0.009305 -0.000741 0.013376 0.000000 0.000000 0.000000
# 4 0.000000 0.000000 0.000000 0.200150 0.000000 0.000000
# 5 0.000000 0.000000 0.000000 0.000000 -0.017627 0.000000
# 6 0.000000 0.000000 0.000000 0.000000 0.000000 0.050907
#
#
# Mechanical properties :
#
#
# Convention : Reuss Voigt Hill
#
# Bulk Modulus (GPa) = 47.03578 55.62782 51.33180
# Shear Modulus (GPa) = 11.93813 0.43591 6.18702
#
# Velocity S-wave (km/s) = 2.55509 0.48825 1.83941
# Velocity P-wave (km/s) = 5.86743 5.54424 5.70812
#
# Compressibility (1/GPa) = 0.02126041
#
# Stress axis : x y z
#
# Youngs Moduli (GPa) = 25.71133 21.04570 74.76065
#
# Poissons Ratio (x) = 0.61487 0.69564
# Poissons Ratio (y) = 0.75118 0.05543
# Poissons Ratio (z) = 0.23924 0.01560
#
# Static dielectric constant tensor:
#      x y z
#    x 1.626940 0.000000 0.000000 
#    y 0.000000 1.676420 0.000000 
#    z 0.000000 0.000000 1.667780 
# 
# From -- ./inp_files/19403.got.cif
#   From: 2010.05.17/outbox.cif.g08.bks.cpg/sg40_10_cif.got.tgz:19403.got - 2010.06.03 18:35:42.
