data_PCOD9362786
_publ_section_title
;
Structure prediction by ZEFSAII (Michael W. Deem and Ramdas Pophale) SiO2 
 PCOD9362786
Probable space group: A M A 2
;
_chemical_formula_sum "Si O2"
_cell_formula_units_Z 44
_cell_length_a 15.817721
_cell_length_b 17.009220
_cell_length_c 8.933953
_cell_angle_alpha 90.000000
_cell_angle_beta 90.000000
_cell_angle_gamma 90.000000
_cell_volume 2403.654114
_symmetry_space_group_name_H-M "A M A 2"
_symmetry_group_IT_number 40
_symmetry_cell_setting 'orthorhombic'
loop_
_space_group_symop_operation_xyz
x,y,z
-x,-y,z
1/2-x,y,z
1/2+x,-y,z
x,1/2+y,1/2+z
-x,1/2-y,1/2+z
1/2-x,1/2+y,1/2+z
1/2+x,1/2-y,1/2+z
loop_
_atom_site_type_symbol
_atom_site_label
_atom_site_fract_x
_atom_site_fract_y
_atom_site_fract_z
Si Si1 0.847109 0.921783 0.352080
Si Si2 0.089069 0.534017 0.543059
Si Si3 0.655961 0.286564 0.097589
Si Si4 0.842784 0.629661 0.428231
Si Si5 0.500000 0.500000 0.013594
Si Si6 0.486292 0.129966 0.764420
O O1 0.750000 0.948076 0.370635
O O2 0.867493 0.917134 0.175424
O O3 0.855098 0.841006 0.448070
O O4 0.915417 0.982649 0.419634
O O5 0.142097 0.457905 0.491379
O O6 0.062507 0.582925 0.396189
O O7 0.000000 0.500000 0.602396
O O8 0.750000 0.307780 0.157239
O O9 0.578879 0.305430 0.206465
O O10 0.656499 0.195396 0.056369
O O11 0.750000 0.633160 0.355036
O O12 0.922581 0.652733 0.327189
O O13 0.506246 0.573504 0.125153
#
# Coordination Sequence:
#
# PCOD9362786 Si02
#       6
#     8   8   8   8   4   8
#     4  10  20  34  56  79 108 148 181 229 282 332
#     4  10  19  35  57  83 110 140 189 232 276 332
#     4   9  21  38  56  79 112 150 187 228 287 341
#     4  10  20  35  57  84 113 143 184 236 283 329
#     4  10  18  36  52  80 112 136 190 226 264 340
#     4  10  20  37  58  83 109 152 190 229 281 338
#
# _framework density 18.305461999999999
#
# number of rings (size 3 to 8) (size 9 to 14) (size 15 to 20)
#    0.000    2.182    3.636    0.545    0.000    5.091 
#    0.000    0.000    0.000    1.091    0.000    0.000 
#    0.000    0.000    0.000    0.000    0.000    0.000 
#
# Total GULP energy -122514.703082 kJ/mol
# GULP energy per Si atom -5568.850140 kJ/mol
# Density = 1.826380 g / cm^3
# Si number density = 18.305462 Si / 1000 Ang^3
#
#
#
# Elastic Constant Matrix: (Units=GPa)
#
#
# Indices 1 2 3 4 5 6 
#
# 1 153.1303 45.3627 50.5119 0.0000 0.0000 0.0000
# 2 45.3627 35.5610 16.7991 0.0000 0.0000 0.0000
# 3 50.5119 16.7991 74.4413 0.0000 0.0000 0.0000
# 4 0.0000 0.0000 0.0000 10.1828 0.0000 0.0000
# 5 0.0000 0.0000 0.0000 0.0000 28.5531 0.0000
# 6 0.0000 0.0000 0.0000 0.0000 0.0000 18.4863
#
#
#
# Elastic Compliance Matrix: (Units=1/GPa)
#
#
# Indices 1 2 3 4 5 6 
#
# 1 0.012114 -0.012951 -0.005298 0.000000 0.000000 0.000000
# 2 -0.012951 0.045321 -0.001440 0.000000 0.000000 0.000000
# 3 -0.005298 -0.001440 0.017353 0.000000 0.000000 0.000000
# 4 0.000000 0.000000 0.000000 0.098205 0.000000 0.000000
# 5 0.000000 0.000000 0.000000 0.000000 0.035022 0.000000
# 6 0.000000 0.000000 0.000000 0.000000 0.000000 0.054094
#
#
# Mechanical properties :
#
#
# Convention : Reuss Voigt Hill
#
# Bulk Modulus (GPa) = 28.23889 54.27555 41.25722
# Shear Modulus (GPa) = 15.95964 21.47505 18.71734
#
# Velocity S-wave (km/s) = 2.95592 3.42884 3.20113
# Velocity P-wave (km/s) = 5.20672 6.73723 6.02080
#
# Compressibility (1/GPa) = 0.03541215
#
# Stress axis : x y z
#
# Youngs Moduli (GPa) = 82.54674 22.06465 57.62704
#
# Poissons Ratio (x) = 0.28576 0.30528
# Poissons Ratio (y) = 1.06905 0.08298
# Poissons Ratio (z) = 0.43729 0.03177
#
# Static dielectric constant tensor:
#      x y z
#    x 1.654870 0.000000 0.000000 
#    y 0.000000 1.620710 0.000000 
#    z 0.000000 0.000000 1.643920 
# 
# From -- ./inp_files/6354.got.cif
#   From: 2010.05.17/outbox.cif.g08.bks.cpg/sg40_4_cif.got.tgz:6354.got - 2010.06.03 18:35:42.
