data_PCOD9362376
_publ_section_title
;
Structure prediction by ZEFSAII (Michael W. Deem and Ramdas Pophale) SiO2 
 PCOD9362376
Probable space group: A M A 2
;
_chemical_formula_sum "Si O2"
_cell_formula_units_Z 64
_cell_length_a 13.887672
_cell_length_b 10.668651
_cell_length_c 19.070147
_cell_angle_alpha 90.000000
_cell_angle_beta 90.000000
_cell_angle_gamma 90.000000
_cell_volume 2825.484960
_symmetry_space_group_name_H-M "A M A 2"
_symmetry_group_IT_number 40
_symmetry_cell_setting 'orthorhombic'
loop_
_space_group_symop_operation_xyz
x,y,z
-x,-y,z
1/2-x,y,z
1/2+x,-y,z
x,1/2+y,1/2+z
-x,1/2-y,1/2+z
1/2-x,1/2+y,1/2+z
1/2+x,1/2-y,1/2+z
loop_
_atom_site_type_symbol
_atom_site_label
_atom_site_fract_x
_atom_site_fract_y
_atom_site_fract_z
Si Si1 0.141032 0.897147 0.145170
Si Si2 0.861789 0.925653 0.760809
Si Si3 0.488182 0.704144 0.051164
Si Si4 0.101187 0.069667 0.025401
Si Si5 0.447913 0.328685 0.197580
Si Si6 0.132521 0.158787 0.418175
Si Si7 0.355111 0.939872 0.889401
Si Si8 0.633597 0.426016 0.763869
O O1 0.250000 0.849628 0.150637
O O2 0.141831 0.026345 0.099590
O O3 0.105719 0.948038 0.220704
O O4 0.079851 0.801373 0.096854
O O5 0.750000 0.886044 0.755473
O O6 0.942732 0.839889 0.726516
O O7 0.880180 0.062976 0.728169
O O8 0.895651 0.951984 0.840297
O O9 0.574002 0.786531 0.017165
O O10 0.541755 0.638615 0.115470
O O11 0.425261 0.636360 0.991223
O O12 0.000000 0.000000 0.019444
O O13 0.156151 0.003709 0.963749
O O14 0.407335 0.195887 0.223394
O O15 0.250000 0.155899 0.429981
O O16 0.102581 0.302489 0.398862
O O17 0.110156 0.080528 0.347355
O O18 0.250000 0.914251 0.857355
O O19 0.750000 0.420061 0.760211
#
# Coordination Sequence:
#
# PCOD9362376 Si02
#       8
#     8   8   8   8   8   8   8   8
#     4  10  19  33  52  77 118 154 180 229 288 345
#     4  10  23  39  57  82 112 147 191 243 299 351
#     4  11  22  33  52  85 116 149 197 237 295 351
#     4  10  18  26  45  79 116 139 173 220 283 343
#     4  11  22  35  58  81 112 150 190 246 292 344
#     4  10  19  32  53  80 113 149 191 240 289 351
#     4  10  18  30  50  79 109 140 175 223 290 349
#     4  10  20  34  55  86 118 156 194 229 289 364
#
# _framework density 22.650980000000001
#
# number of rings (size 3 to 8) (size 9 to 14) (size 15 to 20)
#    0.000    1.750    5.000    1.125    3.500    1.000 
#    0.000    0.000    0.000    3.000    0.000    0.000 
#    0.000    0.000    0.000    0.000    0.000    0.000 
#
# Total GULP energy -178254.246410 kJ/mol
# GULP energy per Si atom -5570.445200 kJ/mol
# Density = 2.259943 g / cm^3
# Si number density = 22.650980 Si / 1000 Ang^3
#
#
#
# Elastic Constant Matrix: (Units=GPa)
#
#
# Indices 1 2 3 4 5 6 
#
# 1 84.9651 10.1178 16.1617 0.0000 0.0000 0.0000
# 2 10.1178 36.8194 18.1378 0.0000 0.0000 0.0000
# 3 16.1617 18.1378 155.8079 0.0000 0.0000 0.0000
# 4 0.0000 0.0000 0.0000 37.2566 0.0000 0.0000
# 5 0.0000 0.0000 0.0000 0.0000 36.2119 0.0000
# 6 0.0000 0.0000 0.0000 0.0000 0.0000 21.2197
#
#
#
# Elastic Compliance Matrix: (Units=1/GPa)
#
#
# Indices 1 2 3 4 5 6 
#
# 1 0.012295 -0.002918 -0.000936 0.000000 0.000000 0.000000
# 2 -0.002918 0.029504 -0.003132 0.000000 0.000000 0.000000
# 3 -0.000936 -0.003132 0.006880 0.000000 0.000000 0.000000
# 4 0.000000 0.000000 0.000000 0.026841 0.000000 0.000000
# 5 0.000000 0.000000 0.000000 0.000000 0.027615 0.000000
# 6 0.000000 0.000000 0.000000 0.000000 0.000000 0.047126
#
#
# Mechanical properties :
#
#
# Convention : Reuss Voigt Hill
#
# Bulk Modulus (GPa) = 28.81153 40.71411 34.76282
# Shear Modulus (GPa) = 28.44121 34.48265 31.46193
#
# Velocity S-wave (km/s) = 3.54733 3.90596 3.73096
# Velocity P-wave (km/s) = 5.43373 6.19319 5.82585
#
# Compressibility (1/GPa) = 0.03470833
#
# Stress axis : x y z
#
# Youngs Moduli (GPa) = 81.33412 33.89347 145.35279
#
# Poissons Ratio (x) = 0.09889 0.13600
# Poissons Ratio (y) = 0.23731 0.45524
# Poissons Ratio (z) = 0.07610 0.10615
#
# Static dielectric constant tensor:
#      x y z
#    x 1.433250 0.000000 0.000000 
#    y 0.000000 1.915200 0.000000 
#    z 0.000000 0.000000 1.928440 
# 
# From -- ./inp_files/20855.got.cif
#   From: 2010.05.17/outbox.cif.g08.bks.cpg/sg40_11_cif.got.tgz:20855.got - 2010.06.03 18:35:42.
