data_PCOD9362474
_publ_section_title
;
Structure prediction by ZEFSAII (Michael W. Deem and Ramdas Pophale) SiO2 
 PCOD9362474
Probable space group: A M A 2
;
_chemical_formula_sum "Si O2"
_cell_formula_units_Z 64
_cell_length_a 8.731576
_cell_length_b 27.017539
_cell_length_c 18.752884
_cell_angle_alpha 90.000000
_cell_angle_beta 90.000000
_cell_angle_gamma 90.000000
_cell_volume 4423.912135
_symmetry_space_group_name_H-M "A M A 2"
_symmetry_group_IT_number 40
_symmetry_cell_setting 'orthorhombic'
loop_
_space_group_symop_operation_xyz
x,y,z
-x,-y,z
1/2-x,y,z
1/2+x,-y,z
x,1/2+y,1/2+z
-x,1/2-y,1/2+z
1/2-x,1/2+y,1/2+z
1/2+x,1/2-y,1/2+z
loop_
_atom_site_type_symbol
_atom_site_label
_atom_site_fract_x
_atom_site_fract_y
_atom_site_fract_z
Si Si1 0.933619 0.797501 0.721970
Si Si2 0.066933 0.256706 0.860321
Si Si3 0.432497 0.701986 0.640112
Si Si4 0.433136 0.054091 0.349913
Si Si5 0.068029 0.742667 0.016301
Si Si6 0.933475 0.945799 0.517038
Si Si7 0.933117 0.646117 0.765730
Si Si8 0.566999 0.147352 0.598603
O O1 0.750000 0.795431 0.712837
O O2 0.966151 0.788124 0.805207
O O3 0.008583 0.750289 0.682973
O O4 0.000942 0.843260 0.678066
O O5 0.250000 0.257383 0.873693
O O6 0.028574 0.307705 0.818437
O O7 0.979053 0.253528 0.934188
O O8 0.250000 0.701463 0.636492
O O9 0.502867 0.711350 0.562228
O O10 0.493833 0.657346 0.688601
O O11 0.250000 0.053711 0.342164
O O12 0.468654 0.064400 0.433430
O O13 0.505564 0.096391 0.301280
O O14 0.500000 0.000000 0.333269
O O15 0.250000 0.739979 0.024761
O O16 0.995532 0.692542 0.049616
O O17 0.750000 0.945696 0.525194
O O18 0.007931 0.903443 0.564942
O O19 0.000000 0.000000 0.533561
O O20 0.750000 0.645321 0.758834
O O21 0.750000 0.149419 0.599668
#
# Coordination Sequence:
#
# PCOD9362474 Si02
#       8
#     8   8   8   8   8   8   8   8
#     4   9  17  30  45  61  84 112 143 179 217 256
#     4   9  18  30  44  63  87 115 145 178 217 259
#     4  10  18  29  44  61  84 112 144 179 215 257
#     4  10  20  32  46  64  86 114 147 183 220 256
#     4  11  20  29  43  63  88 116 147 181 216 256
#     4  10  20  33  47  64  87 114 147 184 220 256
#     4  10  19  31  46  63  86 115 147 181 217 258
#     4  11  20  30  45  63  86 116 149 181 216 258
#
# _framework density 14.466832999999999
#
# number of rings (size 3 to 8) (size 9 to 14) (size 15 to 20)
#    0.000    2.000    0.000    7.875    0.000    6.500 
#    0.000    0.000    0.000    0.000    0.000    0.000 
#    0.000    1.000    0.000    5.500    0.000    5.875 
#
# Total GULP energy -178467.847266 kJ/mol
# GULP energy per Si atom -5577.120227 kJ/mol
# Density = 1.443391 g / cm^3
# Si number density = 14.466833 Si / 1000 Ang^3
#
#
#
# Elastic Constant Matrix: (Units=GPa)
#
#
# Indices 1 2 3 4 5 6 
#
# 1 99.9103 45.8711 55.0230 0.0000 0.0000 0.0000
# 2 45.8711 87.2888 55.9357 0.0000 0.0000 0.0000
# 3 55.0230 55.9357 95.0545 0.0000 0.0000 0.0000
# 4 0.0000 0.0000 0.0000 28.8566 0.0000 0.0000
# 5 0.0000 0.0000 0.0000 0.0000 35.3200 0.0000
# 6 0.0000 0.0000 0.0000 0.0000 0.0000 23.6913
#
#
#
# Elastic Compliance Matrix: (Units=1/GPa)
#
#
# Indices 1 2 3 4 5 6 
#
# 1 0.015453 -0.003835 -0.006689 0.000000 0.000000 0.000000
# 2 -0.003835 0.019343 -0.009163 0.000000 0.000000 0.000000
# 3 -0.006689 -0.009163 0.019784 0.000000 0.000000 0.000000
# 4 0.000000 0.000000 0.000000 0.034654 0.000000 0.000000
# 5 0.000000 0.000000 0.000000 0.000000 0.028313 0.000000
# 6 0.000000 0.000000 0.000000 0.000000 0.000000 0.042210
#
#
# Mechanical properties :
#
#
# Convention : Reuss Voigt Hill
#
# Bulk Modulus (GPa) = 65.75524 66.21256 65.98390
# Shear Modulus (GPa) = 24.48602 25.93516 25.21059
#
# Velocity S-wave (km/s) = 4.11854 4.23866 4.17903
# Velocity P-wave (km/s) = 8.25637 8.35601 8.30634
#
# Compressibility (1/GPa) = 0.01520791
#
# Stress axis : x y z
#
# Youngs Moduli (GPa) = 64.71181 51.69816 50.54577
#
# Poissons Ratio (x) = 0.19824 0.33808
# Poissons Ratio (y) = 0.24814 0.46315
# Poissons Ratio (z) = 0.43283 0.47371
#
# Static dielectric constant tensor:
#      x y z
#    x 1.475870 0.000000 0.000000 
#    y 0.000000 1.478080 0.000000 
#    z 0.000000 0.000000 1.491390 
# 
# From -- ./inp_files/19765.got.cif
#   From: 2010.05.17/outbox.cif.g08.bks.cpg/sg40_10_cif.got.tgz:19765.got - 2010.06.03 18:35:42.
