data_PCOD9362245
_publ_section_title
;
Structure prediction by ZEFSAII (Michael W. Deem and Ramdas Pophale) SiO2 
 PCOD9362245
Probable space group: A M A 2
;
_chemical_formula_sum "Si O2"
_cell_formula_units_Z 48
_cell_length_a 7.898527
_cell_length_b 34.040089
_cell_length_c 7.241104
_cell_angle_alpha 90.000000
_cell_angle_beta 90.000000
_cell_angle_gamma 90.000000
_cell_volume 1946.890738
_symmetry_space_group_name_H-M "A M A 2"
_symmetry_group_IT_number 40
_symmetry_cell_setting 'orthorhombic'
loop_
_space_group_symop_operation_xyz
x,y,z
-x,-y,z
1/2-x,y,z
1/2+x,-y,z
x,1/2+y,1/2+z
-x,1/2-y,1/2+z
1/2-x,1/2+y,1/2+z
1/2+x,1/2-y,1/2+z
loop_
_atom_site_type_symbol
_atom_site_label
_atom_site_fract_x
_atom_site_fract_y
_atom_site_fract_z
Si Si1 0.041288 0.627938 0.900490
Si Si2 0.547060 0.702431 0.347057
Si Si3 0.054250 0.459670 0.259220
Si Si4 0.943432 0.788573 0.437306
Si Si5 0.441615 0.043706 0.341027
Si Si6 0.049082 0.120313 0.833958
O O1 0.250000 0.628658 0.891131
O O2 0.979664 0.671948 0.846972
O O3 0.980918 0.587447 0.805698
O O4 0.994353 0.623702 0.117783
O O5 0.750000 0.703534 0.322447
O O6 0.487918 0.744151 0.429259
O O7 0.506376 0.660143 0.433901
O O8 0.450688 0.701998 0.152946
O O9 0.250000 0.461043 0.206362
O O10 0.000000 0.500000 0.352847
O O11 0.021796 0.422042 0.385137
O O12 0.949785 0.457567 0.067286
O O13 0.750000 0.786272 0.370892
O O14 0.250000 0.046677 0.276420
O O15 0.500000 0.000000 0.285361
O O16 0.250000 0.118380 0.843099
#
# Coordination Sequence:
#
# PCOD9362245 Si02
#       6
#     8   8   8   8   8   8
#     4   7  12  23  37  51  72 106 139 167 208 258
#     4  10  19  30  47  69  89 116 154 189 227 276
#     4  10  16  22  33  51  76 106 141 176 212 259
#     4   9  18  32  47  64  90 120 150 187 228 270
#     4   9  14  20  31  48  72 104 138 170 211 258
#     4   9  16  27  40  55  80 112 142 177 222 265
#
# _framework density 24.654698
#
# number of rings (size 3 to 8) (size 9 to 14) (size 15 to 20)
#    0.000    3.000    0.000    6.000    0.000    1.333 
#    0.000    0.833    0.000    0.000    0.000    0.000 
#    0.000    1.333    0.000   12.333    0.000    8.667 
#
# Total GULP energy -133661.883799 kJ/mol
# GULP energy per Si atom -5569.245158 kJ/mol
# Density = 2.459858 g / cm^3
# Si number density = 24.654698 Si / 1000 Ang^3
#
#
#
# Elastic Constant Matrix: (Units=GPa)
#
#
# Indices 1 2 3 4 5 6 
#
# 1 54.5721 17.8432 -11.1260 0.0000 0.0000 0.0000
# 2 17.8432 263.8459 -38.4559 0.0000 0.0000 0.0000
# 3 -11.1260 -38.4559 28.6630 0.0000 0.0000 0.0000
# 4 0.0000 0.0000 0.0000 3.9493 0.0000 0.0000
# 5 0.0000 0.0000 0.0000 0.0000 -13.8609 0.0000
# 6 0.0000 0.0000 0.0000 0.0000 0.0000 26.7103
#
#
#
# Elastic Compliance Matrix: (Units=1/GPa)
#
#
# Indices 1 2 3 4 5 6 
#
# 1 0.019915 -0.000274 0.007363 0.000000 0.000000 0.000000
# 2 -0.000274 0.004715 0.006220 0.000000 0.000000 0.000000
# 3 0.007363 0.006220 0.046091 0.000000 0.000000 0.000000
# 4 0.000000 0.000000 0.000000 0.253210 0.000000 0.000000
# 5 0.000000 0.000000 0.000000 0.000000 -0.072146 0.000000
# 6 0.000000 0.000000 0.000000 0.000000 0.000000 0.037439
#
#
# Mechanical properties :
#
#
# Convention : Reuss Voigt Hill
#
# Bulk Modulus (GPa) = 10.27319 31.51152 20.89235
# Shear Modulus (GPa) = 16.94613 28.61439 22.78026
#
# Velocity S-wave (km/s) = 2.62456 3.41046 3.04299
# Velocity P-wave (km/s) = 3.65517 5.32139 4.56495
#
# Compressibility (1/GPa) = 0.09734073
#
# Stress axis : x y z
#
# Youngs Moduli (GPa) = 50.21331 212.08214 21.69604
#
# Poissons Ratio (x) = 0.05802 -0.15975
# Poissons Ratio (y) = 0.01374 -0.13495
# Poissons Ratio (z) = -0.36973 -1.31913
#
# Static dielectric constant tensor:
#      x y z
#    x 1.898650 0.000000 0.000000 
#    y 0.000000 2.190370 0.000000 
#    z 0.000000 0.000000 2.003750 
# 
# From -- ./inp_files/10452.got.cif
#   From: 2010.05.17/outbox.cif.g08.bks.cpg/sg40_6_cif.got.tgz:10452.got - 2010.06.03 18:35:42.
