data_PCOD9362016
_publ_section_title
;
Structure prediction by ZEFSAII (Michael W. Deem and Ramdas Pophale) SiO2 
 PCOD9362016
Probable space group: A B M 2
;
_chemical_formula_sum "Si O2"
_cell_formula_units_Z 64
_cell_length_a 21.770251
_cell_length_b 15.094478
_cell_length_c 9.133866
_cell_angle_alpha 90.000000
_cell_angle_beta 90.000000
_cell_angle_gamma 90.000000
_cell_volume 3001.484956
_symmetry_space_group_name_H-M "A B M 2"
_symmetry_group_IT_number 39
_symmetry_cell_setting 'orthorhombic'
loop_
_space_group_symop_operation_xyz
x,y,z
-x,-y,z
-x,1/2+y,z
x,1/2-y,z
x,1/2+y,1/2+z
-x,1/2-y,1/2+z
-x,y,1/2+z
x,-y,1/2+z
loop_
_atom_site_type_symbol
_atom_site_label
_atom_site_fract_x
_atom_site_fract_y
_atom_site_fract_z
Si Si1 0.818870 0.355072 0.222210
Si Si2 0.438462 0.858581 0.723954
Si Si3 0.181130 0.355072 0.391029
Si Si4 0.059523 0.403654 0.881650
Si Si5 0.561539 0.141419 0.389290
Si Si6 0.683759 0.357587 0.885005
Si Si7 0.316241 0.142413 0.728239
Si Si8 0.059524 0.096345 0.231588
O O1 0.811542 0.250000 0.206391
O O2 0.874815 0.367117 0.332436
O O3 0.752030 0.388849 0.273280
O O4 0.832681 0.390287 0.056619
O O5 0.438099 0.750000 0.727645
O O6 0.441051 0.886459 0.556622
O O7 0.500001 0.886843 0.806621
O O8 0.375117 0.889630 0.796775
O O9 0.188457 0.250000 0.406846
O O10 0.247971 0.388848 0.339962
O O11 0.125186 0.367119 0.280801
O O12 0.060729 0.499999 0.806619
O O13 0.999999 0.358192 0.806620
O O14 0.052497 0.406287 0.056619
O O15 0.561901 0.250000 0.385599
O O16 0.624885 0.110370 0.316471
O O17 0.682982 0.250000 0.871618
O O18 0.676932 0.377911 0.056622
O O19 0.317018 0.250000 0.741626
#
# Coordination Sequence:
#
# PCOD9362016 Si02
#       8
#     8   8   8   8   8   8   8   8
#     4   9  18  33  52  74 101 131 162 198 242 291
#     4   9  15  21  31  49  76 112 153 193 231 275
#     4   9  18  33  52  74 101 131 162 198 242 291
#     4  11  22  37  56  75  98 127 161 200 242 289
#     4   9  15  21  31  49  76 112 153 193 231 275
#     4   8  14  25  40  58  84 118 152 188 232 279
#     4   8  14  25  40  58  84 118 152 188 232 279
#     4  11  22  37  56  75  98 127 161 200 242 289
#
# _framework density 21.322780000000002
#
# number of rings (size 3 to 8) (size 9 to 14) (size 15 to 20)
#    0.000    2.750    0.000    5.250    0.000    5.000 
#    0.000    2.500    0.000    0.000    0.000    0.000 
#    0.000    1.000    0.000   10.500    0.000   14.500 
#
# Total GULP energy -178448.762341 kJ/mol
# GULP energy per Si atom -5576.523823 kJ/mol
# Density = 2.127425 g / cm^3
# Si number density = 21.322780 Si / 1000 Ang^3
#
#
#
# Elastic Constant Matrix: (Units=GPa)
#
#
# Indices 1 2 3 4 5 6 
#
# 1 243.5358 10.5339 140.1341 0.0000 0.0000 0.0000
# 2 10.5339 29.5271 9.4010 0.0000 0.0000 0.0000
# 3 140.1341 9.4010 161.3680 0.0000 0.0000 0.0000
# 4 0.0000 0.0000 0.0000 8.3898 0.0000 0.0000
# 5 0.0000 0.0000 0.0000 0.0000 34.4863 0.0000
# 6 0.0000 0.0000 0.0000 0.0000 0.0000 39.1919
#
#
#
# Elastic Compliance Matrix: (Units=1/GPa)
#
#
# Indices 1 2 3 4 5 6 
#
# 1 0.008220 -0.000672 -0.007100 0.000000 0.000000 0.000000
# 2 -0.000672 0.034562 -0.001430 0.000000 0.000000 0.000000
# 3 -0.007100 -0.001430 0.012446 0.000000 0.000000 0.000000
# 4 0.000000 0.000000 0.000000 0.119192 0.000000 0.000000
# 5 0.000000 0.000000 0.000000 0.000000 0.028997 0.000000
# 6 0.000000 0.000000 0.000000 0.000000 0.000000 0.025516
#
#
# Mechanical properties :
#
#
# Convention : Reuss Voigt Hill
#
# Bulk Modulus (GPa) = 27.15531 83.84099 55.49815
# Shear Modulus (GPa) = 19.25960 34.70439 26.98199
#
# Velocity S-wave (km/s) = 3.00866 4.03870 3.56112
# Velocity P-wave (km/s) = 4.98321 7.82006 6.55689
#
# Compressibility (1/GPa) = 0.03682521
#
# Stress axis : x y z
#
# Youngs Moduli (GPa) = 121.64756 28.93333 80.34905
#
# Poissons Ratio (x) = 0.01945 0.57045
# Poissons Ratio (y) = 0.08178 0.11488
# Poissons Ratio (z) = 0.86365 0.04137
#
# Static dielectric constant tensor:
#      x y z
#    x 1.834990 0.000000 0.000000 
#    y 0.000000 1.872570 0.000000 
#    z 0.000000 0.000000 1.726800 
# 
# From -- ./inp_files/3851.got.cif
#   From: 2010.05.17/outbox.cif.g08.bks.cpg/sg39_2_cif.got.tgz:3851.got - 2010.06.03 18:22:40.
