data_PCOD9362403
_publ_section_title
;
Structure prediction by ZEFSAII (Michael W. Deem and Ramdas Pophale) SiO2 
 PCOD9362403
Probable space group: A M A 2
;
_chemical_formula_sum "Si O2"
_cell_formula_units_Z 64
_cell_length_a 28.484333
_cell_length_b 23.673039
_cell_length_c 5.175034
_cell_angle_alpha 90.000000
_cell_angle_beta 90.000000
_cell_angle_gamma 90.000000
_cell_volume 3489.580934
_symmetry_space_group_name_H-M "A M A 2"
_symmetry_group_IT_number 40
_symmetry_cell_setting 'orthorhombic'
loop_
_space_group_symop_operation_xyz
x,y,z
-x,-y,z
1/2-x,y,z
1/2+x,-y,z
x,1/2+y,1/2+z
-x,1/2-y,1/2+z
1/2-x,1/2+y,1/2+z
1/2+x,1/2-y,1/2+z
loop_
_atom_site_type_symbol
_atom_site_label
_atom_site_fract_x
_atom_site_fract_y
_atom_site_fract_z
Si Si1 0.890505 0.593142 0.245170
Si Si2 0.542712 0.963324 0.343204
Si Si3 0.465630 0.168180 0.294564
Si Si4 0.596944 0.834999 0.796839
Si Si5 0.570150 0.151752 0.244387
Si Si6 0.802892 0.677610 0.238555
Si Si7 0.659900 0.234165 0.237045
Si Si8 0.596301 0.468531 0.346185
O O1 0.922661 0.615045 0.484021
O O2 0.842433 0.628999 0.248601
O O3 0.878030 0.526819 0.268822
O O4 0.919023 0.610600 0.987106
O O5 0.529629 0.899238 0.295511
O O6 0.552957 0.972569 0.644037
O O7 0.500000 0.000000 0.252167
O O8 0.585611 0.974458 0.149678
O O9 0.437324 0.179944 0.556774
O O10 0.520267 0.184168 0.268159
O O11 0.432158 0.181822 0.053407
O O12 0.643578 0.798132 0.772028
O O13 0.609565 0.902294 0.802777
O O14 0.611573 0.197891 0.242091
O O15 0.750000 0.655828 0.263601
O O16 0.814754 0.720273 0.470430
O O17 0.809553 0.710704 0.971595
#
# Coordination Sequence:
#
# PCOD9362403 Si02
#       8
#     8   8   8   8   8   8   8   8
#     4  10  19  33  52  76 102 128 164 210 262 305
#     4  10  18  27  42  65  97 136 177 211 234 270
#     4  10  19  30  45  70 104 143 183 211 237 278
#     4  10  21  33  48  73 104 144 178 202 240 292
#     4  10  20  32  49  73 103 139 177 217 251 280
#     4  10  21  38  61  81  95 119 158 210 265 313
#     4  10  21  37  55  77 104 131 166 210 254 304
#     4  10  19  30  46  69  99 134 165 199 246 292
#
# _framework density 18.340312999999998
#
# number of rings (size 3 to 8) (size 9 to 14) (size 15 to 20)
#    0.000    2.000    0.000    4.500    0.000    3.000 
#    0.000    0.000    0.000    1.500    0.000    0.000 
#    0.000    0.000    0.000    0.000    0.000    0.000 
#
# Total GULP energy -178348.002271 kJ/mol
# GULP energy per Si atom -5573.375071 kJ/mol
# Density = 1.829857 g / cm^3
# Si number density = 18.340313 Si / 1000 Ang^3
#
#
#
# Elastic Constant Matrix: (Units=GPa)
#
#
# Indices 1 2 3 4 5 6 
#
# 1 41.4018 7.3163 -9.4456 0.0000 0.0000 0.0000
# 2 7.3163 63.3839 -2.3778 0.0000 0.0000 0.0000
# 3 -9.4456 -2.3778 76.2120 0.0000 0.0000 0.0000
# 4 0.0000 0.0000 0.0000 5.8266 0.0000 0.0000
# 5 0.0000 0.0000 0.0000 0.0000 68.9017 0.0000
# 6 0.0000 0.0000 0.0000 0.0000 0.0000 65.5241
#
#
#
# Elastic Compliance Matrix: (Units=1/GPa)
#
#
# Indices 1 2 3 4 5 6 
#
# 1 0.025347 -0.002811 0.003054 0.000000 0.000000 0.000000
# 2 -0.002811 0.016107 0.000154 0.000000 0.000000 0.000000
# 3 0.003054 0.000154 0.013505 0.000000 0.000000 0.000000
# 4 0.000000 0.000000 0.000000 0.171628 0.000000 0.000000
# 5 0.000000 0.000000 0.000000 0.000000 0.014513 0.000000
# 6 0.000000 0.000000 0.000000 0.000000 0.000000 0.015262
#
#
# Mechanical properties :
#
#
# Convention : Reuss Voigt Hill
#
# Bulk Modulus (GPa) = 17.93653 19.10927 18.52290
# Shear Modulus (GPa) = 18.23803 40.41744 29.32773
#
# Velocity S-wave (km/s) = 3.15687 4.69950 4.00320
# Velocity P-wave (km/s) = 4.80508 6.31577 5.61150
#
# Compressibility (1/GPa) = 0.05575215
#
# Stress axis : x y z
#
# Youngs Moduli (GPa) = 39.45236 62.08424 74.04891
#
# Poissons Ratio (x) = 0.17453 -0.22613
# Poissons Ratio (y) = 0.11091 -0.01141
# Poissons Ratio (z) = -0.12048 -0.00957
#
# Static dielectric constant tensor:
#      x y z
#    x 1.647360 0.000000 0.000000 
#    y 0.000000 1.664620 0.000000 
#    z 0.000000 0.000000 1.678160 
# 
# From -- ./inp_files/2869.got.cif
#   From: 2010.05.17/outbox.cif.g08.bks.cpg/sg40_2_cif.got.tgz:2869.got - 2010.06.03 18:35:42.
