data_PCOD9362756
_publ_section_title
;
Structure prediction by ZEFSAII (Michael W. Deem and Ramdas Pophale) SiO2 
 PCOD9362756
Probable space group: A M A 2
;
_chemical_formula_sum "Si O2"
_cell_formula_units_Z 64
_cell_length_a 16.356064
_cell_length_b 16.608573
_cell_length_c 12.467363
_cell_angle_alpha 90.000000
_cell_angle_beta 90.000000
_cell_angle_gamma 90.000000
_cell_volume 3386.770167
_symmetry_space_group_name_H-M "A M A 2"
_symmetry_group_IT_number 40
_symmetry_cell_setting 'orthorhombic'
loop_
_space_group_symop_operation_xyz
x,y,z
-x,-y,z
1/2-x,y,z
1/2+x,-y,z
x,1/2+y,1/2+z
-x,1/2-y,1/2+z
1/2-x,1/2+y,1/2+z
1/2+x,1/2-y,1/2+z
loop_
_atom_site_type_symbol
_atom_site_label
_atom_site_fract_x
_atom_site_fract_y
_atom_site_fract_z
Si Si1 0.092852 0.024921 0.628140
Si Si2 0.849043 0.820777 0.519925
Si Si3 0.348769 0.367476 0.548120
Si Si4 0.651731 0.076360 0.813796
Si Si5 0.849247 0.219732 0.649550
Si Si6 0.845805 0.106496 0.466778
Si Si7 0.910550 0.037934 0.251808
Si Si8 0.345589 0.634516 0.781919
O O1 0.110669 0.117180 0.602352
O O2 0.114564 0.997918 0.748498
O O3 0.146499 0.970245 0.546659
O O4 0.000000 0.000000 0.605949
O O5 0.750000 0.830663 0.525228
O O6 0.867144 0.727503 0.540620
O O7 0.878335 0.845663 0.400415
O O8 0.250000 0.374959 0.558302
O O9 0.373211 0.409566 0.436037
O O10 0.390635 0.409186 0.648746
O O11 0.750000 0.068918 0.811633
O O12 0.631149 0.155643 0.743318
O O13 0.750000 0.220722 0.639593
O O14 0.877601 0.181757 0.537322
O O15 0.879528 0.306238 0.689947
O O16 0.750000 0.117240 0.439825
O O17 0.895071 0.088263 0.359712
O O18 0.853834 0.958807 0.256496
O O19 0.000000 0.000000 0.249946
O O20 0.250000 0.655364 0.788983
#
# Coordination Sequence:
#
# PCOD9362756 Si02
#       8
#     8   8   8   8   8   8   8   8
#     4  11  21  33  55  90 125 150 185 239 303 350
#     4  10  19  35  61  87 112 151 205 247 278 346
#     4  10  21  40  62  82 110 153 203 248 291 346
#     4   9  17  34  59  84 109 145 195 244 283 339
#     4   8  15  30  56  87 105 128 183 245 286 322
#     4  10  19  35  59  84 114 149 191 245 288 334
#     4  12  25  39  53  84 122 160 192 237 304 368
#     4  10  18  34  60  84 107 146 200 243 278 345
#
# _framework density 18.89706
#
# number of rings (size 3 to 8) (size 9 to 14) (size 15 to 20)
#    0.000    2.000    2.500    3.375    0.000    0.500 
#    4.500    1.250    0.000    3.000    0.000    0.000 
#    0.000    0.000    0.000    0.000    0.000    0.000 
#
# Total GULP energy -178565.071278 kJ/mol
# GULP energy per Si atom -5580.158477 kJ/mol
# Density = 1.885405 g / cm^3
# Si number density = 18.897060 Si / 1000 Ang^3
#
#
#
# Elastic Constant Matrix: (Units=GPa)
#
#
# Indices 1 2 3 4 5 6 
#
# 1 34.1964 19.0670 26.8618 0.0000 0.0000 0.0000
# 2 19.0670 102.5052 78.5755 0.0000 0.0000 0.0000
# 3 26.8618 78.5755 144.6259 0.0000 0.0000 0.0000
# 4 0.0000 0.0000 0.0000 30.8686 0.0000 0.0000
# 5 0.0000 0.0000 0.0000 0.0000 -87.6930 0.0000
# 6 0.0000 0.0000 0.0000 0.0000 0.0000 7.4783
#
#
#
# Elastic Compliance Matrix: (Units=1/GPa)
#
#
# Indices 1 2 3 4 5 6 
#
# 1 0.034635 -0.002590 -0.005026 0.000000 0.000000 0.000000
# 2 -0.002590 0.016912 -0.008707 0.000000 0.000000 0.000000
# 3 -0.005026 -0.008707 0.012578 0.000000 0.000000 0.000000
# 4 0.000000 0.000000 0.000000 0.032395 0.000000 0.000000
# 5 0.000000 0.000000 0.000000 0.000000 -0.011403 0.000000
# 6 0.000000 0.000000 0.000000 0.000000 0.000000 0.133720
#
#
# Mechanical properties :
#
#
# Convention : Reuss Voigt Hill
#
# Bulk Modulus (GPa) = 31.76689 58.92625 45.34657
# Shear Modulus (GPa) = 19.08575 0.58565 9.83570
#
# Velocity S-wave (km/s) = 3.18147 0.55731 2.28390
# Velocity P-wave (km/s) = 5.50842 5.62713 5.56809
#
# Compressibility (1/GPa) = 0.03147932
#
# Stress axis : x y z
#
# Youngs Moduli (GPa) = 28.87281 59.12993 79.50083
#
# Poissons Ratio (x) = 0.15314 0.39955
# Poissons Ratio (y) = 0.07478 0.69223
# Poissons Ratio (z) = 0.14511 0.51486
#
# Static dielectric constant tensor:
#      x y z
#    x 3.296320 0.000000 0.000000 
#    y 0.000000 1.668230 0.000000 
#    z 0.000000 0.000000 1.652750 
# 
# From -- ./inp_files/12426.got.cif
#   From: 2010.05.17/outbox.cif.g08.bks.cpg/sg40_7_cif.got.tgz:12426.got - 2010.06.03 18:35:42.
