data_PCOD9362263
_publ_section_title
;
Structure prediction by ZEFSAII (Michael W. Deem and Ramdas Pophale) SiO2 
 PCOD9362263
Probable space group: A M A 2
;
_chemical_formula_sum "Si O2"
_cell_formula_units_Z 44
_cell_length_a 22.971366
_cell_length_b 8.507184
_cell_length_c 11.055350
_cell_angle_alpha 90.000000
_cell_angle_beta 90.000000
_cell_angle_gamma 90.000000
_cell_volume 2160.454598
_symmetry_space_group_name_H-M "A M A 2"
_symmetry_group_IT_number 40
_symmetry_cell_setting 'orthorhombic'
loop_
_space_group_symop_operation_xyz
x,y,z
-x,-y,z
1/2-x,y,z
1/2+x,-y,z
x,1/2+y,1/2+z
-x,1/2-y,1/2+z
1/2-x,1/2+y,1/2+z
1/2+x,1/2-y,1/2+z
loop_
_atom_site_type_symbol
_atom_site_label
_atom_site_fract_x
_atom_site_fract_y
_atom_site_fract_z
Si Si1 0.567129 0.537975 0.208710
Si Si2 0.376296 0.579074 0.962791
Si Si3 0.250000 0.379653 0.484360
Si Si4 0.624625 0.542156 0.456742
Si Si5 0.381692 0.116772 0.199589
Si Si6 0.250000 0.246271 0.222275
Si Si7 0.250000 0.053458 0.561238
O O1 0.500000 0.500000 0.227187
O O2 0.601462 0.479198 0.328930
O O3 0.582581 0.721808 0.203653
O O4 0.587189 0.472423 0.079038
O O5 0.380245 0.768695 0.957527
O O6 0.391904 0.526778 0.826676
O O7 0.310396 0.526660 0.991524
O O8 0.306716 0.483659 0.473123
O O9 0.250000 0.272355 0.365101
O O10 0.250000 0.244050 0.588780
O O11 0.598667 0.473017 0.579354
O O12 0.312046 0.162167 0.195092
O O13 0.250000 0.421652 0.165412
#
# Coordination Sequence:
#
# PCOD9362263 Si02
#       7
#     8   8   4   8   8   4   4
#     4  11  24  42  61  83 118 162 208 250 292 343
#     4  10  20  40  60  88 121 154 190 246 299 352
#     4  10  17  36  59  89 124 150 184 240 298 361
#     4  10  22  39  63  92 120 154 194 246 300 357
#     4  11  22  37  63  89 120 153 196 245 297 357
#     4  12  17  35  61  90 122 158 185 232 304 364
#     4  10  16  31  62  83 116 156 183 226 298 361
#
# _framework density 20.366084000000001
#
# number of rings (size 3 to 8) (size 9 to 14) (size 15 to 20)
#    0.000    1.455    7.273    0.545    0.000    4.364 
#    0.000    0.909    0.000    0.000    0.000    0.000 
#    0.000    0.000    0.000    0.000    0.000    0.000 
#
# Total GULP energy -122572.049620 kJ/mol
# GULP energy per Si atom -5571.456801 kJ/mol
# Density = 2.031973 g / cm^3
# Si number density = 20.366084 Si / 1000 Ang^3
#
#
#
# Elastic Constant Matrix: (Units=GPa)
#
#
# Indices 1 2 3 4 5 6 
#
# 1 49.6533 9.2298 39.8019 0.0000 0.0000 0.0000
# 2 9.2298 14.0848 43.9711 0.0000 0.0000 0.0000
# 3 39.8019 43.9711 163.9122 0.0000 0.0000 0.0000
# 4 0.0000 0.0000 0.0000 40.4355 0.0000 0.0000
# 5 0.0000 0.0000 0.0000 0.0000 8.6143 0.0000
# 6 0.0000 0.0000 0.0000 0.0000 0.0000 -27.6679
#
#
#
# Elastic Compliance Matrix: (Units=1/GPa)
#
#
# Indices 1 2 3 4 5 6 
#
# 1 0.025593 0.016183 -0.010556 0.000000 0.000000 0.000000
# 2 0.016183 0.447078 -0.123863 0.000000 0.000000 0.000000
# 3 -0.010556 -0.123863 0.041891 0.000000 0.000000 0.000000
# 4 0.000000 0.000000 0.000000 0.024731 0.000000 0.000000
# 5 0.000000 0.000000 0.000000 0.000000 0.116085 0.000000
# 6 0.000000 0.000000 0.000000 0.000000 0.000000 -0.036143
#
#
# Mechanical properties :
#
#
# Convention : Reuss Voigt Hill
#
# Bulk Modulus (GPa) = 3.59594 45.96174 24.77884
# Shear Modulus (GPa) = 5.27202 13.25290 9.26246
#
# Velocity S-wave (km/s) = 1.61067 2.55372 2.13491
# Velocity P-wave (km/s) = 2.28659 5.59572 4.27437
#
# Compressibility (1/GPa) = 0.27809120
#
# Stress axis : x y z
#
# Youngs Moduli (GPa) = 39.07314 2.23675 23.87121
#
# Poissons Ratio (x) = -0.03620 0.25198
# Poissons Ratio (y) = -0.63233 2.95675
# Poissons Ratio (z) = 0.41245 0.27705
#
# Static dielectric constant tensor:
#      x y z
#    x 1.746690 0.000000 0.000000 
#    y 0.000000 1.753090 0.000000 
#    z 0.000000 0.000000 1.786210 
# 
# From -- ./inp_files/8695.got.cif
#   From: 2010.05.17/outbox.cif.g08.bks.cpg/sg40_5_cif.got.tgz:8695.got - 2010.06.03 18:35:42.
