data_PCOD9362213
_publ_section_title
;
Structure prediction by ZEFSAII (Michael W. Deem and Ramdas Pophale) SiO2 
 PCOD9362213
Probable space group: A B M 2
;
_chemical_formula_sum "Si O2"
_cell_formula_units_Z 32
_cell_length_a 12.000000
_cell_length_b 30.000000
_cell_length_c 9.000000
_cell_angle_alpha 90.000000
_cell_angle_beta 90.000000
_cell_angle_gamma 90.000000
_cell_volume 3240.000000
_symmetry_space_group_name_H-M "A B M 2"
_symmetry_group_IT_number 39
_symmetry_cell_setting 'orthorhombic'
loop_
_space_group_symop_operation_xyz
x,y,z
-x,-y,z
-x,1/2+y,z
x,1/2-y,z
x,1/2+y,1/2+z
-x,1/2-y,1/2+z
-x,y,1/2+z
x,-y,1/2+z
loop_
_atom_site_type_symbol
_atom_site_label
_atom_site_fract_x
_atom_site_fract_y
_atom_site_fract_z
Si Si1 0.175341 0.483524 0.661830
Si Si2 0.267965 0.909056 0.945407
Si Si3 0.097593 0.196630 0.200886
Si Si4 0.494932 0.411515 0.069256
Si Si5 0.074441 0.645012 0.003980
Si Si6 0.900372 0.435520 0.451866
Si Si7 0.597950 0.033984 0.322248
Si Si8 0.733288 0.624471 0.114347
O O1 0.222016 0.453595 0.524467
O O2 0.116237 0.525305 0.577460
O O3 0.100676 0.457446 0.786634
O O4 0.287946 0.487919 0.763780
O O5 0.199023 0.871626 0.035509
O O6 0.242061 0.901652 0.770777
O O7 0.400238 0.903893 0.961392
O O8 0.098481 0.250000 0.187597
O O9 0.087300 0.178866 0.367765
O O10 0.205986 0.172004 0.130846
O O11 0.992364 0.172522 0.124764
O O12 0.562339 0.424978 0.217176
O O13 0.399653 0.374871 0.093387
O O14 0.420034 0.450922 0.992805
O O15 0.004114 0.598980 0.970339
O O16 0.794275 0.403200 0.483040
O O17 0.500000 0.000000 0.294483
#
# Coordination Sequence:
#
# PCOD9362213 Si02
#       8
#     8   8   8   8   8   8   8   8
#     4  11  23  34  54  82 118 163 218 246 298 341
#     4  10  22  38  56  83 116 169 202 246 297 363
#     4  10  21  40  70  95 116 148 193 257 315 386
#     4  11  20  35  55  80 116 157 202 251 303 348
#     4  10  22  41  64  88 125 155 206 244 312 374
#     4  11  22  37  57  83 119 167 204 259 295 347
#     4  11  22  31  52  78 114 158 212 258 289 338
#     4  10  20  38  58  87 119 150 197 251 312 368
#
# _framework density 9.8765429999999999
#
# number of rings (size 3 to 8) (size 9 to 14) (size 15 to 20)
#    0.000    1.500    2.500    3.000    3.500    0.500 
#    0.000    1.250    0.000    3.750    0.000    0.000 
#    0.000    0.000    0.000    0.000    0.000    0.000 
#
# Total GULP energy -178482.297740 kJ/mol
# GULP energy per Si atom -5577.571804 kJ/mol
# Density = 0.985406 g / cm^3
# Si number density = 9.876543 Si / 1000 Ang^3
#
#
#
# Elastic Constant Matrix: (Units=GPa)
#
#
# Indices 1 2 3 4 5 6 
#
# 1 77.4990 26.8629 -6.0054 0.0000 0.0000 0.0000
# 2 26.8629 99.8660 24.1214 0.0000 0.0000 0.0000
# 3 -6.0054 24.1214 59.5491 0.0000 0.0000 0.0000
# 4 0.0000 0.0000 0.0000 26.8794 0.0000 0.0000
# 5 0.0000 0.0000 0.0000 0.0000 24.0366 0.0000
# 6 0.0000 0.0000 0.0000 0.0000 0.0000 18.0320
#
#
#
# Elastic Compliance Matrix: (Units=1/GPa)
#
#
# Indices 1 2 3 4 5 6 
#
# 1 0.014844 -0.004827 0.003452 0.000000 0.000000 0.000000
# 2 -0.004827 0.012669 -0.005618 0.000000 0.000000 0.000000
# 3 0.003452 -0.005618 0.019417 0.000000 0.000000 0.000000
# 4 0.000000 0.000000 0.000000 0.037203 0.000000 0.000000
# 5 0.000000 0.000000 0.000000 0.000000 0.041603 0.000000
# 6 0.000000 0.000000 0.000000 0.000000 0.000000 0.055457
#
#
# Mechanical properties :
#
#
# Convention : Reuss Voigt Hill
#
# Bulk Modulus (GPa) = 30.35503 36.31913 33.33708
# Shear Modulus (GPa) = 24.25300 26.58529 25.41915
#
# Velocity S-wave (km/s) = 3.50781 3.67260 3.59115
# Velocity P-wave (km/s) = 5.63976 6.03411 5.84027
#
# Compressibility (1/GPa) = 0.03294347
#
# Stress axis : x y z
#
# Youngs Moduli (GPa) = 67.36763 78.93392 51.50164
#
# Poissons Ratio (x) = 0.38099 -0.17779
# Poissons Ratio (y) = 0.32516 0.28936
# Poissons Ratio (z) = -0.23256 0.44349
#
# Static dielectric constant tensor:
#      x y z
#    x 1.755780 0.000000 0.000000 
#    y 0.000000 1.692010 0.000000 
#    z 0.000000 0.000000 1.774300 
# 
# From -- ./inp_files/2893.got.cif
#   From: 2010.05.17/outbox.ucp.g08.bks.cvg/sg39_2_cif.got.tgz:2893.got - 2010.06.11 10:41:16.
