data_PCOD9362215
_publ_section_title
;
Structure prediction by ZEFSAII (Michael W. Deem and Ramdas Pophale) SiO2 
 PCOD9362215
Probable space group: A B M 2
;
_chemical_formula_sum "Si O2"
_cell_formula_units_Z 32
_cell_length_a 12.000000
_cell_length_b 15.000000
_cell_length_c 18.000000
_cell_angle_alpha 90.000000
_cell_angle_beta 90.000000
_cell_angle_gamma 90.000000
_cell_volume 3240.000000
_symmetry_space_group_name_H-M "A B M 2"
_symmetry_group_IT_number 39
_symmetry_cell_setting 'orthorhombic'
loop_
_space_group_symop_operation_xyz
x,y,z
-x,-y,z
-x,1/2+y,z
x,1/2-y,z
x,1/2+y,1/2+z
-x,1/2-y,1/2+z
-x,y,1/2+z
x,-y,1/2+z
loop_
_atom_site_type_symbol
_atom_site_label
_atom_site_fract_x
_atom_site_fract_y
_atom_site_fract_z
Si Si1 0.127185 0.982634 0.810280
Si Si2 0.532768 0.355924 0.273871
Si Si3 0.304500 0.854848 0.143026
Si Si4 0.285503 0.144161 0.039541
Si Si5 0.870156 0.487904 0.636228
Si Si6 0.464766 0.854212 0.001729
Si Si7 0.676230 0.359151 0.857754
Si Si8 0.740333 0.851647 0.867083
O O1 0.123910 0.959460 0.722875
O O2 0.205678 0.908885 0.850275
O O3 0.189207 0.076330 0.823199
O O4 0.000000 0.000000 0.836117
O O5 0.520434 0.250000 0.260288
O O6 0.610330 0.388985 0.207117
O O7 0.407857 0.387773 0.290567
O O8 0.610434 0.366664 0.346612
O O9 0.276014 0.750000 0.157704
O O10 0.377573 0.857496 0.068743
O O11 0.197801 0.918485 0.135293
O O12 0.286034 0.250000 0.062576
O O13 0.205675 0.083044 0.090406
O O14 0.414923 0.110992 0.030968
O O15 0.242162 0.140078 0.954750
O O16 0.000000 0.500000 0.610841
O O17 0.489891 0.750000 0.983578
O O18 0.394244 0.887938 0.930804
O O19 0.688050 0.250000 0.858310
O O20 0.765821 0.750000 0.844403
#
# Coordination Sequence:
#
# PCOD9362215 Si02
#       8
#     8   8   8   8   8   8   8   8
#     4  11  26  43  61  92 130 172 222 265 309 379
#     4   9  17  35  64  92 120 157 205 260 323 391
#     4  10  21  39  63  90 124 165 207 265 330 387
#     4  10  22  42  66  94 129 169 210 264 328 389
#     4  11  26  44  61  90 130 175 226 265 309 386
#     4   9  19  38  63  93 127 158 201 260 332 400
#     4  10  21  40  65  96 131 165 206 269 334 390
#     4  10  20  41  67  89 121 165 211 262 317 378
#
# _framework density 9.8765429999999999
#
# number of rings (size 3 to 8) (size 9 to 14) (size 15 to 20)
#    0.000    2.000    2.500    0.000    3.500    3.000 
#    0.000    2.500    0.000    0.000    0.000    0.000 
#    0.000    0.000    0.000    0.000    0.000    0.000 
#
# Total GULP energy -178553.155928 kJ/mol
# GULP energy per Si atom -5579.786123 kJ/mol
# Density = 0.985406 g / cm^3
# Si number density = 9.876543 Si / 1000 Ang^3
#
#
#
# Elastic Constant Matrix: (Units=GPa)
#
#
# Indices 1 2 3 4 5 6 
#
# 1 170.0118 54.5421 44.6314 0.0000 0.0000 0.0000
# 2 54.5421 76.1126 28.9297 0.0000 0.0000 0.0000
# 3 44.6314 28.9297 77.9215 0.0000 0.0000 0.0000
# 4 0.0000 0.0000 0.0000 28.5126 0.0000 0.0000
# 5 0.0000 0.0000 0.0000 0.0000 29.3013 0.0000
# 6 0.0000 0.0000 0.0000 0.0000 0.0000 35.6985
#
#
#
# Elastic Compliance Matrix: (Units=1/GPa)
#
#
# Indices 1 2 3 4 5 6 
#
# 1 0.008170 -0.004746 -0.002918 0.000000 0.000000 0.000000
# 2 -0.004746 0.018054 -0.003984 0.000000 0.000000 0.000000
# 3 -0.002918 -0.003984 0.015984 0.000000 0.000000 0.000000
# 4 0.000000 0.000000 0.000000 0.035072 0.000000 0.000000
# 5 0.000000 0.000000 0.000000 0.000000 0.034128 0.000000
# 6 0.000000 0.000000 0.000000 0.000000 0.000000 0.028012
#
#
# Mechanical properties :
#
#
# Convention : Reuss Voigt Hill
#
# Bulk Modulus (GPa) = 52.87684 64.47247 58.67465
# Shear Modulus (GPa) = 29.58207 31.76535 30.67371
#
# Velocity S-wave (km/s) = 3.87407 4.01449 3.94491
# Velocity P-wave (km/s) = 6.84385 7.36194 7.10762
#
# Compressibility (1/GPa) = 0.01891187
#
# Stress axis : x y z
#
# Youngs Moduli (GPa) = 122.39173 55.39006 62.56262
#
# Poissons Ratio (x) = 0.26288 0.18255
# Poissons Ratio (y) = 0.58086 0.24928
# Poissons Ratio (z) = 0.35712 0.22070
#
# Static dielectric constant tensor:
#      x y z
#    x 1.684910 0.000000 0.000000 
#    y 0.000000 1.717560 0.000000 
#    z 0.000000 0.000000 1.747340 
# 
# From -- ./inp_files/12362.got.cif
#   From: 2010.05.17/outbox.ucp.g08.bks.cvg/sg39_7_cif.got.tgz:12362.got - 2010.06.11 10:41:16.
