data_PCOD9362809
_publ_section_title
;
Structure prediction by ZEFSAII (Michael W. Deem and Ramdas Pophale) SiO2 
 PCOD9362809
Probable space group: A M A 2
;
_chemical_formula_sum "Si O2"
_cell_formula_units_Z 60
_cell_length_a 23.693526
_cell_length_b 14.382664
_cell_length_c 7.161054
_cell_angle_alpha 90.000000
_cell_angle_beta 90.000000
_cell_angle_gamma 90.000000
_cell_volume 2440.315506
_symmetry_space_group_name_H-M "A M A 2"
_symmetry_group_IT_number 40
_symmetry_cell_setting 'orthorhombic'
loop_
_space_group_symop_operation_xyz
x,y,z
-x,-y,z
1/2-x,y,z
1/2+x,-y,z
x,1/2+y,1/2+z
-x,1/2-y,1/2+z
1/2-x,1/2+y,1/2+z
1/2+x,1/2-y,1/2+z
loop_
_atom_site_type_symbol
_atom_site_label
_atom_site_fract_x
_atom_site_fract_y
_atom_site_fract_z
Si Si1 0.313241 0.736726 0.801190
Si Si2 0.143206 0.045716 0.211839
Si Si3 0.090279 0.376481 0.351291
Si Si4 0.619291 0.415963 0.303422
Si Si5 0.250000 0.412820 0.681641
Si Si6 0.564620 0.116430 0.273961
Si Si7 0.008602 0.108694 0.598094
Si Si8 0.332413 0.260686 0.861230
O O1 0.250000 0.756877 0.869886
O O2 0.332486 0.631055 0.829039
O O3 0.359649 0.804823 0.881723
O O4 0.314430 0.755630 0.577570
O O5 0.198546 0.988967 0.142266
O O6 0.100575 0.977561 0.319875
O O7 0.111418 0.086371 0.029373
O O8 0.118770 0.472464 0.275216
O O9 0.060635 0.388332 0.551386
O O10 0.042149 0.342821 0.210445
O O11 0.569488 0.373209 0.179093
O O12 0.670661 0.343905 0.279735
O O13 0.297497 0.337452 0.753797
O O14 0.505780 0.120851 0.381822
O O15 0.603936 0.200295 0.343865
O O16 0.000000 0.000000 0.644219
#
# Coordination Sequence:
#
# PCOD9362809 Si02
#       8
#     8   8   8   8   4   8   8   8
#     4  11  20  40  67 103 141 187 233 293 357 425
#     4   9  20  38  70 101 142 186 239 292 355 432
#     4  10  22  43  65  98 143 184 234 294 357 427
#     4   9  21  41  65 100 138 183 238 294 354 428
#     4  10  18  36  68 108 138 192 242 284 364 430
#     4  10  21  42  66  95 136 181 229 295 349 415
#     4  10  21  42  71  95 134 185 237 291 362 422
#     4  10  20  39  67  98 139 182 235 285 348 432
#
# _framework density 24.586983
#
# number of rings (size 3 to 8) (size 9 to 14) (size 15 to 20)
#    0.000    2.133    2.667    0.000    0.000    2.667 
#   19.200    0.000    0.000    0.000    0.000    0.000 
#    0.000    0.000    0.000    0.000    0.000    0.000 
#
# Total GULP energy -167153.704861 kJ/mol
# GULP energy per Si atom -5571.790162 kJ/mol
# Density = 2.453102 g / cm^3
# Si number density = 24.586983 Si / 1000 Ang^3
#
#
#
# Elastic Constant Matrix: (Units=GPa)
#
#
# Indices 1 2 3 4 5 6 
#
# 1 70.9299 32.7591 39.8030 0.0000 0.0000 0.0000
# 2 32.7591 72.9354 22.2789 0.0000 0.0000 0.0000
# 3 39.8030 22.2789 110.4492 0.0000 0.0000 0.0000
# 4 0.0000 0.0000 0.0000 2.1834 0.0000 0.0000
# 5 0.0000 0.0000 0.0000 0.0000 25.6000 0.0000
# 6 0.0000 0.0000 0.0000 0.0000 0.0000 23.5055
#
#
#
# Elastic Compliance Matrix: (Units=1/GPa)
#
#
# Indices 1 2 3 4 5 6 
#
# 1 0.020986 -0.007583 -0.006033 0.000000 0.000000 0.000000
# 2 -0.007583 0.017351 -0.000767 0.000000 0.000000 0.000000
# 3 -0.006033 -0.000767 0.011383 0.000000 0.000000 0.000000
# 4 0.000000 0.000000 0.000000 0.457999 0.000000 0.000000
# 5 0.000000 0.000000 0.000000 0.000000 0.039062 0.000000
# 6 0.000000 0.000000 0.000000 0.000000 0.000000 0.042543
#
#
# Mechanical properties :
#
#
# Convention : Reuss Voigt Hill
#
# Bulk Modulus (GPa) = 47.72552 49.33294 48.52923
# Shear Modulus (GPa) = 7.99902 20.88935 14.44418
#
# Velocity S-wave (km/s) = 1.80566 2.91797 2.42641
# Velocity P-wave (km/s) = 4.87855 5.60901 5.25648
#
# Compressibility (1/GPa) = 0.02095315
#
# Stress axis : x y z
#
# Youngs Moduli (GPa) = 47.64998 57.63329 87.85078
#
# Poissons Ratio (x) = 0.43704 0.53003
# Poissons Ratio (y) = 0.36134 0.06740
# Poissons Ratio (z) = 0.28749 0.04421
#
# Static dielectric constant tensor:
#      x y z
#    x 1.943170 0.000000 0.000000 
#    y 0.000000 1.991340 0.000000 
#    z 0.000000 0.000000 1.975460 
# 
# From -- ./inp_files/8882.got.cif
#   From: 2010.05.17/outbox.cif.g08.bks.cpg/sg40_5_cif.got.tgz:8882.got - 2010.06.03 18:35:42.
