data_PCOD9362614
_publ_section_title
;
Structure prediction by ZEFSAII (Michael W. Deem and Ramdas Pophale) SiO2 
 PCOD9362614
Probable space group: A M A 2
;
_chemical_formula_sum "Si O2"
_cell_formula_units_Z 64
_cell_length_a 18.003114
_cell_length_b 9.158453
_cell_length_c 22.551383
_cell_angle_alpha 90.000000
_cell_angle_beta 90.000000
_cell_angle_gamma 90.000000
_cell_volume 3718.287216
_symmetry_space_group_name_H-M "A M A 2"
_symmetry_group_IT_number 40
_symmetry_cell_setting 'orthorhombic'
loop_
_space_group_symop_operation_xyz
x,y,z
-x,-y,z
1/2-x,y,z
1/2+x,-y,z
x,1/2+y,1/2+z
-x,1/2-y,1/2+z
1/2-x,1/2+y,1/2+z
1/2+x,1/2-y,1/2+z
loop_
_atom_site_type_symbol
_atom_site_label
_atom_site_fract_x
_atom_site_fract_y
_atom_site_fract_z
Si Si1 0.579272 0.419114 0.716610
Si Si2 0.334317 0.331211 0.370858
Si Si3 0.041528 0.362145 0.286395
Si Si4 0.921426 0.914087 0.081287
Si Si5 0.509651 0.826760 0.516372
Si Si6 0.663601 0.504643 0.832665
Si Si7 0.463957 0.340291 0.881834
Si Si8 0.837966 0.654836 0.510746
O O1 0.500000 0.500000 0.717693
O O2 0.568253 0.253688 0.738417
O O3 0.605965 0.416032 0.649048
O O4 0.629684 0.495904 0.766504
O O5 0.250000 0.360591 0.353515
O O6 0.390242 0.412084 0.327530
O O7 0.343750 0.363520 0.439822
O O8 0.347857 0.157239 0.360797
O O9 0.000000 0.500000 0.260324
O O10 0.990320 0.273126 0.332722
O O11 0.948784 0.759151 0.055672
O O12 0.863171 0.004718 0.042025
O O13 0.000000 0.000000 0.079574
O O14 0.489220 0.795224 0.447277
O O15 0.594927 0.769957 0.526856
O O16 0.500000 0.000000 0.524619
O O17 0.750000 0.532595 0.829832
O O18 0.622081 0.623323 0.872695
O O19 0.500000 0.500000 0.869020
O O20 0.750000 0.691508 0.523344
#
# Coordination Sequence:
#
# PCOD9362614 Si02
#       8
#     8   8   8   8   8   8   8   8
#     4  10  18  37  55  74 103 140 187 227 261 330
#     4   9  17  30  49  76 108 138 172 216 273 330
#     4  11  20  29  53  80 105 143 173 224 278 329
#     4   9  21  35  55  78 104 144 192 230 272 335
#     4  10  20  34  56  82 113 154 183 236 285 346
#     4  10  18  31  55  81 103 138 182 230 278 323
#     4  11  17  33  52  76 110 139 184 224 271 332
#     4  10  19  34  54  80 111 147 189 236 284 335
#
# _framework density 17.212226000000001
#
# number of rings (size 3 to 8) (size 9 to 14) (size 15 to 20)
#    0.000    2.000    5.000    0.750    1.750    1.000 
#    0.000    1.875    0.000    0.000    0.000    3.500 
#    0.000    0.000    0.000    0.000    0.000    0.000 
#
# Total GULP energy -178259.320628 kJ/mol
# GULP energy per Si atom -5570.603770 kJ/mol
# Density = 1.717305 g / cm^3
# Si number density = 17.212226 Si / 1000 Ang^3
#
#
#
# Elastic Constant Matrix: (Units=GPa)
#
#
# Indices 1 2 3 4 5 6 
#
# 1 107.8783 25.6185 30.4663 0.0000 0.0000 0.0000
# 2 25.6185 40.8697 20.5081 0.0000 0.0000 0.0000
# 3 30.4663 20.5081 84.3164 0.0000 0.0000 0.0000
# 4 0.0000 0.0000 0.0000 14.3080 0.0000 0.0000
# 5 0.0000 0.0000 0.0000 0.0000 14.9194 0.0000
# 6 0.0000 0.0000 0.0000 0.0000 0.0000 20.5271
#
#
#
# Elastic Compliance Matrix: (Units=1/GPa)
#
#
# Indices 1 2 3 4 5 6 
#
# 1 0.011412 -0.005791 -0.002715 0.000000 0.000000 0.000000
# 2 -0.005791 0.030808 -0.005401 0.000000 0.000000 0.000000
# 3 -0.002715 -0.005401 0.014155 0.000000 0.000000 0.000000
# 4 0.000000 0.000000 0.000000 0.069891 0.000000 0.000000
# 5 0.000000 0.000000 0.000000 0.000000 0.067027 0.000000
# 6 0.000000 0.000000 0.000000 0.000000 0.000000 0.048716
#
#
# Mechanical properties :
#
#
# Convention : Reuss Voigt Hill
#
# Bulk Modulus (GPa) = 35.01278 42.91668 38.96473
# Shear Modulus (GPa) = 17.89923 20.38236 19.14079
#
# Velocity S-wave (km/s) = 3.22827 3.44492 3.33835
# Velocity P-wave (km/s) = 5.85505 6.38837 6.12751
#
# Compressibility (1/GPa) = 0.02856100
#
# Stress axis : x y z
#
# Youngs Moduli (GPa) = 87.62996 32.45901 70.64776
#
# Poissons Ratio (x) = 0.18797 0.19180
# Poissons Ratio (y) = 0.50745 0.38157
# Poissons Ratio (z) = 0.23791 0.17531
#
# Static dielectric constant tensor:
#      x y z
#    x 1.619250 0.000000 0.000000 
#    y 0.000000 1.591380 0.000000 
#    z 0.000000 0.000000 1.576470 
# 
# From -- ./inp_files/24915.got.cif
#   From: 2010.05.17/outbox.cif.g08.bks.cpg/sg40_13_cif.got.tgz:24915.got - 2010.06.03 18:35:42.
