data_PCOD9362336
_publ_section_title
;
Structure prediction by ZEFSAII (Michael W. Deem and Ramdas Pophale) SiO2 
 PCOD9362336
Probable space group: A M A 2
;
_chemical_formula_sum "Si O2"
_cell_formula_units_Z 64
_cell_length_a 17.860520
_cell_length_b 20.805839
_cell_length_c 8.284983
_cell_angle_alpha 90.000000
_cell_angle_beta 90.000000
_cell_angle_gamma 90.000000
_cell_volume 3078.725396
_symmetry_space_group_name_H-M "A M A 2"
_symmetry_group_IT_number 40
_symmetry_cell_setting 'orthorhombic'
loop_
_space_group_symop_operation_xyz
x,y,z
-x,-y,z
1/2-x,y,z
1/2+x,-y,z
x,1/2+y,1/2+z
-x,1/2-y,1/2+z
1/2-x,1/2+y,1/2+z
1/2+x,1/2-y,1/2+z
loop_
_atom_site_type_symbol
_atom_site_label
_atom_site_fract_x
_atom_site_fract_y
_atom_site_fract_z
Si Si1 0.589320 0.490001 0.428330
Si Si2 0.131732 0.897733 0.305000
Si Si3 0.039589 0.135180 0.267437
Si Si4 0.061037 0.278926 0.291173
Si Si5 0.334763 0.381450 0.433618
Si Si6 0.833469 0.232435 0.487280
Si Si7 0.836967 0.463992 0.779989
Si Si8 0.918568 0.850655 0.884820
O O1 0.500000 0.500000 0.452602
O O2 0.623525 0.556023 0.359840
O O3 0.631747 0.478386 0.598753
O O4 0.601088 0.423117 0.334083
O O5 0.160412 0.834678 0.394523
O O6 0.041544 0.895274 0.294666
O O7 0.155129 0.967646 0.369867
O O8 0.163957 0.892003 0.124893
O O9 0.040998 0.206586 0.340885
O O10 0.106718 0.091690 0.335974
O O11 0.052417 0.141871 0.072432
O O12 0.117823 0.317606 0.403763
O O13 0.986341 0.320843 0.284368
O O14 0.104490 0.272723 0.124495
O O15 0.250000 0.376644 0.374069
O O16 0.750000 0.240118 0.553817
O O17 0.854227 0.296777 0.387834
O O18 0.750000 0.444739 0.774728
#
# Coordination Sequence:
#
# PCOD9362336 Si02
#       8
#     8   8   8   8   8   8   8   8
#     4  10  17  31  55  80 111 141 187 235 278 328
#     4  11  19  37  59  83 113 149 189 233 285 346
#     4  10  20  34  60  80 112 146 195 235 277 337
#     4  11  21  37  57  84 115 155 187 232 279 345
#     4  11  21  34  59  88 112 144 189 236 290 336
#     4  11  24  37  57  87 120 152 187 236 294 342
#     4  10  19  31  53  86 115 141 184 241 293 324
#     4  10  19  36  58  82 111 151 190 235 281 336
#
# _framework density 20.787824000000001
#
# number of rings (size 3 to 8) (size 9 to 14) (size 15 to 20)
#    0.000    1.500    3.750    5.250    0.000    5.500 
#    0.000    0.000    5.500    0.000    0.000    0.000 
#    0.000    0.000    0.000    0.000    0.000    0.000 
#
# Total GULP energy -178584.371223 kJ/mol
# GULP energy per Si atom -5580.761601 kJ/mol
# Density = 2.074051 g / cm^3
# Si number density = 20.787824 Si / 1000 Ang^3
#
#
#
# Elastic Constant Matrix: (Units=GPa)
#
#
# Indices 1 2 3 4 5 6 
#
# 1 123.1574 42.1067 6.2030 0.0000 0.0000 0.0000
# 2 42.1067 97.1125 7.0723 0.0000 0.0000 0.0000
# 3 6.2030 7.0723 5.1528 0.0000 0.0000 0.0000
# 4 0.0000 0.0000 0.0000 25.0011 0.0000 0.0000
# 5 0.0000 0.0000 0.0000 0.0000 25.2944 0.0000
# 6 0.0000 0.0000 0.0000 0.0000 0.0000 -238.3352
#
#
#
# Elastic Compliance Matrix: (Units=1/GPa)
#
#
# Indices 1 2 3 4 5 6 
#
# 1 0.009730 -0.003739 -0.006580 0.000000 0.000000 0.000000
# 2 -0.003739 0.012878 -0.013174 0.000000 0.000000 0.000000
# 3 -0.006580 -0.013174 0.220074 0.000000 0.000000 0.000000
# 4 0.000000 0.000000 0.000000 0.039998 0.000000 0.000000
# 5 0.000000 0.000000 0.000000 0.000000 0.039534 0.000000
# 6 0.000000 0.000000 0.000000 0.000000 0.000000 -0.004196
#
#
# Mechanical properties :
#
#
# Convention : Reuss Voigt Hill
#
# Bulk Modulus (GPa) = 5.11000 37.35404 21.23202
# Shear Modulus (GPa) = 11.62150 -26.27190 -7.32520
#
# Velocity S-wave (km/s) = 2.36700 -3.55887 -1.87921
# Velocity P-wave (km/s) = 3.15178 1.05867 2.35101
#
# Compressibility (1/GPa) = 0.19569456
#
# Stress axis : x y z
#
# Youngs Moduli (GPa) = 102.77927 77.65122 4.54393
#
# Poissons Ratio (x) = 0.29037 0.02990
# Poissons Ratio (y) = 0.38433 0.05986
# Poissons Ratio (z) = 0.67631 1.02297
#
# Static dielectric constant tensor:
#      x y z
#    x 1.731520 0.000000 0.000000 
#    y 0.000000 1.829060 0.000000 
#    z 0.000000 0.000000 1.782580 
# 
# From -- ./inp_files/7778.got.cif
#   From: 2010.05.17/outbox.cif.g08.bks.cpg/sg40_4_cif.got.tgz:7778.got - 2010.06.03 18:35:42.
