data_PCOD9362825
_publ_section_title
;
Structure prediction by ZEFSAII (Michael W. Deem and Ramdas Pophale) SiO2 
 PCOD9362825
Probable space group: A M A 2
;
_chemical_formula_sum "Si O2"
_cell_formula_units_Z 52
_cell_length_a 19.607056
_cell_length_b 12.547619
_cell_length_c 8.795872
_cell_angle_alpha 90.000000
_cell_angle_beta 90.000000
_cell_angle_gamma 90.000000
_cell_volume 2163.976864
_symmetry_space_group_name_H-M "A M A 2"
_symmetry_group_IT_number 40
_symmetry_cell_setting 'orthorhombic'
loop_
_space_group_symop_operation_xyz
x,y,z
-x,-y,z
1/2-x,y,z
1/2+x,-y,z
x,1/2+y,1/2+z
-x,1/2-y,1/2+z
1/2-x,1/2+y,1/2+z
1/2+x,1/2-y,1/2+z
loop_
_atom_site_type_symbol
_atom_site_label
_atom_site_fract_x
_atom_site_fract_y
_atom_site_fract_z
Si Si1 0.396181 0.139227 0.551670
Si Si2 0.250000 0.875553 0.499375
Si Si3 0.570920 0.455726 0.751529
Si Si4 0.828807 0.520280 0.507334
Si Si5 0.032506 0.238338 0.041181
Si Si6 0.348600 0.708010 0.341811
Si Si7 0.381874 0.424110 0.193734
O O1 0.382658 0.095300 0.383488
O O2 0.456570 0.222028 0.526642
O O3 0.340090 0.189691 0.662665
O O4 0.417670 0.035589 0.651480
O O5 0.308103 0.807045 0.405778
O O6 0.310313 0.928131 0.604586
O O7 0.500000 0.500000 0.821890
O O8 0.622137 0.527583 0.653047
O O9 0.541966 0.370785 0.631251
O O10 0.750000 0.547742 0.538527
O O11 0.829084 0.397565 0.440605
O O12 0.862547 0.584846 0.369856
O O13 0.073844 0.326639 0.136037
O O14 0.071615 0.227504 0.880776
#
# Coordination Sequence:
#
# PCOD9362825 Si02
#       7
#     8   4   8   8   8   8   8
#     4  11  22  39  63  97 133 167 218 275 347 403
#     4  10  18  38  62  94 126 172 232 264 338 388
#     4  11  25  42  65  93 140 178 219 286 351 406
#     4  10  20  40  62  94 130 177 223 276 331 411
#     4  10  21  40  67  97 125 170 223 282 337 402
#     4   9  20  36  67  90 124 173 225 277 325 403
#     4  10  21  37  69  95 126 176 220 275 325 415
#
# _framework density 24.029833
#
# number of rings (size 3 to 8) (size 9 to 14) (size 15 to 20)
#    0.000    1.846    1.538    2.308    0.000    6.154 
#    2.769    0.769    0.000    0.000    0.000    0.000 
#    0.000    0.000    0.000    0.000    0.000    0.000 
#
# Total GULP energy -144886.471889 kJ/mol
# GULP energy per Si atom -5572.556611 kJ/mol
# Density = 2.397514 g / cm^3
# Si number density = 24.029833 Si / 1000 Ang^3
#
#
#
# Elastic Constant Matrix: (Units=GPa)
#
#
# Indices 1 2 3 4 5 6 
#
# 1 71.1256 15.6742 30.3489 0.0000 0.0000 0.0000
# 2 15.6742 38.6405 10.3356 0.0000 0.0000 0.0000
# 3 30.3489 10.3356 130.3226 0.0000 0.0000 0.0000
# 4 0.0000 0.0000 0.0000 39.6008 0.0000 0.0000
# 5 0.0000 0.0000 0.0000 0.0000 3.8344 0.0000
# 6 0.0000 0.0000 0.0000 0.0000 0.0000 11.4973
#
#
#
# Elastic Compliance Matrix: (Units=1/GPa)
#
#
# Indices 1 2 3 4 5 6 
#
# 1 0.016834 -0.005905 -0.003452 0.000000 0.000000 0.000000
# 2 -0.005905 0.028512 -0.000886 0.000000 0.000000 0.000000
# 3 -0.003452 -0.000886 0.008547 0.000000 0.000000 0.000000
# 4 0.000000 0.000000 0.000000 0.025252 0.000000 0.000000
# 5 0.000000 0.000000 0.000000 0.000000 0.260796 0.000000
# 6 0.000000 0.000000 0.000000 0.000000 0.000000 0.086977
#
#
# Mechanical properties :
#
#
# Convention : Reuss Voigt Hill
#
# Bulk Modulus (GPa) = 29.93386 39.20069 34.56728
# Shear Modulus (GPa) = 10.90418 23.23517 17.06968
#
# Velocity S-wave (km/s) = 2.13251 3.11292 2.66814
# Velocity P-wave (km/s) = 4.30668 5.41010 4.88961
#
# Compressibility (1/GPa) = 0.03340698
#
# Stress axis : x y z
#
# Youngs Moduli (GPa) = 59.40400 35.07296 116.99485
#
# Poissons Ratio (x) = 0.20711 0.40385
# Poissons Ratio (y) = 0.35079 0.10366
# Poissons Ratio (z) = 0.20505 0.03108
#
# Static dielectric constant tensor:
#      x y z
#    x 1.927440 0.000000 0.000000 
#    y 0.000000 1.962090 0.000000 
#    z 0.000000 0.000000 1.916470 
# 
# From -- ./inp_files/8259.got.cif
#   From: 2010.05.17/outbox.cif.g08.bks.cpg/sg40_5_cif.got.tgz:8259.got - 2010.06.03 18:35:42.
