data_PCOD9362896
_publ_section_title
;
Structure prediction by ZEFSAII (Michael W. Deem and Ramdas Pophale) SiO2 
 PCOD9362896
Probable space group: A M A 2
;
_chemical_formula_sum "Si O2"
_cell_formula_units_Z 56
_cell_length_a 8.809286
_cell_length_b 15.867528
_cell_length_c 19.982657
_cell_angle_alpha 90.000000
_cell_angle_beta 90.000000
_cell_angle_gamma 90.000000
_cell_volume 2793.207613
_symmetry_space_group_name_H-M "A M A 2"
_symmetry_group_IT_number 40
_symmetry_cell_setting 'orthorhombic'
loop_
_space_group_symop_operation_xyz
x,y,z
-x,-y,z
1/2-x,y,z
1/2+x,-y,z
x,1/2+y,1/2+z
-x,1/2-y,1/2+z
1/2-x,1/2+y,1/2+z
1/2+x,1/2-y,1/2+z
loop_
_atom_site_type_symbol
_atom_site_label
_atom_site_fract_x
_atom_site_fract_y
_atom_site_fract_z
Si Si1 0.930969 0.230217 0.995780
Si Si2 0.568408 0.752834 0.342410
Si Si3 0.572891 0.819073 0.130469
Si Si4 0.578496 0.582700 0.288326
Si Si5 0.582209 0.117530 0.636527
Si Si6 0.567994 0.093986 0.261834
Si Si7 0.923299 0.417267 0.011516
O O1 0.750000 0.231959 0.010707
O O2 0.949608 0.215245 0.917268
O O3 0.993713 0.326327 0.997483
O O4 0.007458 0.175796 0.054481
O O5 0.750000 0.766410 0.331366
O O6 0.507133 0.674136 0.300023
O O7 0.490237 0.839159 0.318246
O O8 0.750000 0.843272 0.131571
O O9 0.564382 0.718452 0.145004
O O10 0.487655 0.869229 0.189418
O O11 0.500000 0.500000 0.316326
O O12 0.750000 0.586656 0.314897
O O13 0.586007 0.576766 0.208627
O O14 0.750000 0.103342 0.604152
O O15 0.446833 0.082449 0.591474
O O16 0.750000 0.090149 0.263115
O O17 0.500000 0.000000 0.271345
O O18 0.750000 0.415674 0.990640
O O19 0.000000 0.500000 0.982723
#
# Coordination Sequence:
#
# PCOD9362896 Si02
#       7
#     8   8   8   8   8   8   8
#     4   9  20  37  59  83 114 160 205 250 310 373
#     4  10  21  42  63  85 123 165 206 257 317 376
#     4  10  19  37  62  88 120 155 199 251 307 366
#     4  10  20  34  54  81 113 149 188 233 290 351
#     4   9  17  31  52  78 108 144 179 223 282 342
#     4  12  25  41  65  95 127 165 215 268 324 387
#     4  10  19  30  46  74 107 142 184 230 282 345
#
# _framework density 20.048635000000001
#
# number of rings (size 3 to 8) (size 9 to 14) (size 15 to 20)
#    0.000    2.000    1.429    2.571    0.000    4.571 
#    0.000    2.143    0.000    1.714    0.000    0.000 
#    0.000    0.000    0.000    0.000    0.000    0.000 
#
# Total GULP energy -155927.695068 kJ/mol
# GULP energy per Si atom -5568.846252 kJ/mol
# Density = 2.000300 g / cm^3
# Si number density = 20.048635 Si / 1000 Ang^3
#
#
#
# Elastic Constant Matrix: (Units=GPa)
#
#
# Indices 1 2 3 4 5 6 
#
# 1 80.0116 29.1301 15.5843 0.0000 0.0000 0.0000
# 2 29.1301 74.4638 0.2651 0.0000 0.0000 0.0000
# 3 15.5843 0.2651 56.5847 0.0000 0.0000 0.0000
# 4 0.0000 0.0000 0.0000 8.1209 0.0000 0.0000
# 5 0.0000 0.0000 0.0000 0.0000 20.8952 0.0000
# 6 0.0000 0.0000 0.0000 0.0000 0.0000 29.3180
#
#
#
# Elastic Compliance Matrix: (Units=1/GPa)
#
#
# Indices 1 2 3 4 5 6 
#
# 1 0.015533 -0.006061 -0.004250 0.000000 0.000000 0.000000
# 2 -0.006061 0.015795 0.001595 0.000000 0.000000 0.000000
# 3 -0.004250 0.001595 0.018836 0.000000 0.000000 0.000000
# 4 0.000000 0.000000 0.000000 0.123140 0.000000 0.000000
# 5 0.000000 0.000000 0.000000 0.000000 0.047858 0.000000
# 6 0.000000 0.000000 0.000000 0.000000 0.000000 0.034109
#
#
# Mechanical properties :
#
#
# Convention : Reuss Voigt Hill
#
# Bulk Modulus (GPa) = 30.55095 33.44655 31.99875
# Shear Modulus (GPa) = 17.62980 22.73886 20.18433
#
# Velocity S-wave (km/s) = 2.96860 3.37142 3.17640
# Velocity P-wave (km/s) = 5.19823 5.64573 5.42659
#
# Compressibility (1/GPa) = 0.03273221
#
# Stress axis : x y z
#
# Youngs Moduli (GPa) = 64.38062 63.31204 53.09108
#
# Poissons Ratio (x) = 0.38375 0.22561
# Poissons Ratio (y) = 0.39022 -0.08470
# Poissons Ratio (z) = 0.27359 -0.10101
#
# Static dielectric constant tensor:
#      x y z
#    x 1.752970 0.000000 0.000000 
#    y 0.000000 1.763100 0.000000 
#    z 0.000000 0.000000 1.799450 
# 
# From -- ./inp_files/22205.got.cif
#   From: 2010.05.17/outbox.cif.g08.bks.cpg/sg40_12_cif.got.tgz:22205.got - 2010.06.03 18:35:42.
