data_PCOD9362341
_publ_section_title
;
Structure prediction by ZEFSAII (Michael W. Deem and Ramdas Pophale) SiO2 
 PCOD9362341
Probable space group: A M A 2
;
_chemical_formula_sum "Si O2"
_cell_formula_units_Z 64
_cell_length_a 21.577544
_cell_length_b 13.376945
_cell_length_c 9.971436
_cell_angle_alpha 90.000000
_cell_angle_beta 90.000000
_cell_angle_gamma 90.000000
_cell_volume 2878.171434
_symmetry_space_group_name_H-M "A M A 2"
_symmetry_group_IT_number 40
_symmetry_cell_setting 'orthorhombic'
loop_
_space_group_symop_operation_xyz
x,y,z
-x,-y,z
1/2-x,y,z
1/2+x,-y,z
x,1/2+y,1/2+z
-x,1/2-y,1/2+z
1/2-x,1/2+y,1/2+z
1/2+x,1/2-y,1/2+z
loop_
_atom_site_type_symbol
_atom_site_label
_atom_site_fract_x
_atom_site_fract_y
_atom_site_fract_z
Si Si1 0.021265 0.607320 0.358920
Si Si2 0.820876 0.557588 0.178087
Si Si3 0.440476 0.114265 0.169694
Si Si4 0.144211 0.714980 0.305924
Si Si5 0.180358 0.141168 0.531145
Si Si6 0.317454 0.718792 0.594898
Si Si7 0.889640 0.670964 0.416328
Si Si8 0.079786 0.394510 0.717421
O O1 0.043727 0.592422 0.512683
O O2 0.079936 0.654319 0.286389
O O3 0.039813 0.324518 0.363980
O O4 0.000000 0.500000 0.304518
O O5 0.750000 0.528558 0.213759
O O6 0.844277 0.467994 0.081064
O O7 0.818352 0.661576 0.098777
O O8 0.855125 0.593368 0.315490
O O9 0.380935 0.184695 0.164867
O O10 0.508289 0.141586 0.224604
O O11 0.420483 0.011976 0.240532
O O12 0.183092 0.697597 0.174172
O O13 0.176530 0.683004 0.441883
O O14 0.122126 0.829249 0.313326
O O15 0.250000 0.128400 0.476394
O O16 0.141927 0.220331 0.440657
O O17 0.250000 0.686697 0.649806
O O18 0.896137 0.624676 0.565695
#
# Coordination Sequence:
#
# PCOD9362341 Si02
#       8
#     8   8   8   8   8   8   8   8
#     4  10  17  32  57  82 115 151 185 239 298 357
#     4  10  22  39  58  82 119 162 196 245 302 361
#     4   9  17  35  57  80 112 149 192 235 294 354
#     4  10  21  35  58  84 116 148 189 246 305 349
#     4  10  21  38  60  86 119 155 200 255 302 357
#     4  10  22  39  56  81 116 155 198 238 296 368
#     4  10  19  35  60  88 116 152 203 244 300 364
#     4   9  18  35  58  87 113 145 188 252 302 346
#
# _framework density 22.236340999999999
#
# number of rings (size 3 to 8) (size 9 to 14) (size 15 to 20)
#    0.000    2.250    2.500    1.500    3.500    0.000 
#    2.250    3.125    0.000    0.000    0.000    0.000 
#    0.000    0.000    0.000    0.000    0.000    0.000 
#
# Total GULP energy -178373.708982 kJ/mol
# GULP energy per Si atom -5574.178406 kJ/mol
# Density = 2.218573 g / cm^3
# Si number density = 22.236341 Si / 1000 Ang^3
#
#
#
# Elastic Constant Matrix: (Units=GPa)
#
#
# Indices 1 2 3 4 5 6 
#
# 1 116.3741 55.9862 27.2405 0.0000 0.0000 0.0000
# 2 55.9862 117.9126 14.9126 0.0000 0.0000 0.0000
# 3 27.2405 14.9126 63.5045 0.0000 0.0000 0.0000
# 4 0.0000 0.0000 0.0000 26.8710 0.0000 0.0000
# 5 0.0000 0.0000 0.0000 0.0000 5.3654 0.0000
# 6 0.0000 0.0000 0.0000 0.0000 0.0000 26.4170
#
#
#
# Elastic Compliance Matrix: (Units=1/GPa)
#
#
# Indices 1 2 3 4 5 6 
#
# 1 0.012020 -0.005210 -0.003933 0.000000 0.000000 0.000000
# 2 -0.005210 0.010999 -0.000348 0.000000 0.000000 0.000000
# 3 -0.003933 -0.000348 0.017516 0.000000 0.000000 0.000000
# 4 0.000000 0.000000 0.000000 0.037215 0.000000 0.000000
# 5 0.000000 0.000000 0.000000 0.000000 0.186378 0.000000
# 6 0.000000 0.000000 0.000000 0.000000 0.000000 0.037854
#
#
# Mechanical properties :
#
#
# Convention : Reuss Voigt Hill
#
# Bulk Modulus (GPa) = 46.39682 54.89666 50.64674
# Shear Modulus (GPa) = 15.23708 25.04080 20.13894
#
# Velocity S-wave (km/s) = 2.62054 3.35941 3.01271
# Velocity P-wave (km/s) = 5.48333 6.30785 5.90998
#
# Compressibility (1/GPa) = 0.02155320
#
# Stress axis : x y z
#
# Youngs Moduli (GPa) = 83.19553 90.92112 57.09222
#
# Poissons Ratio (x) = 0.47368 0.22452
# Poissons Ratio (y) = 0.43343 0.01987
# Poissons Ratio (z) = 0.32717 0.03164
#
# Static dielectric constant tensor:
#      x y z
#    x 1.818270 0.000000 0.000000 
#    y 0.000000 1.865000 0.000000 
#    z 0.000000 0.000000 1.803640 
# 
# From -- ./inp_files/14037.got.cif
#   From: 2010.05.17/outbox.cif.g08.bks.cpg/sg40_8_cif.got.tgz:14037.got - 2010.06.03 18:35:42.
