data_PCOD9362494
_publ_section_title
;
Structure prediction by ZEFSAII (Michael W. Deem and Ramdas Pophale) SiO2 
 PCOD9362494
Probable space group: A M A 2
;
_chemical_formula_sum "Si O2"
_cell_formula_units_Z 64
_cell_length_a 7.597323
_cell_length_b 31.746276
_cell_length_c 15.119609
_cell_angle_alpha 90.000000
_cell_angle_beta 90.000000
_cell_angle_gamma 90.000000
_cell_volume 3646.648794
_symmetry_space_group_name_H-M "A M A 2"
_symmetry_group_IT_number 40
_symmetry_cell_setting 'orthorhombic'
loop_
_space_group_symop_operation_xyz
x,y,z
-x,-y,z
1/2-x,y,z
1/2+x,-y,z
x,1/2+y,1/2+z
-x,1/2-y,1/2+z
1/2-x,1/2+y,1/2+z
1/2+x,1/2-y,1/2+z
loop_
_atom_site_type_symbol
_atom_site_label
_atom_site_fract_x
_atom_site_fract_y
_atom_site_fract_z
Si Si1 0.959893 0.793008 0.454490
Si Si2 0.964035 0.322429 0.259368
Si Si3 0.538935 0.952159 0.860616
Si Si4 0.535352 0.867473 0.577568
Si Si5 0.962258 0.867617 0.937793
Si Si6 0.540745 0.209602 0.060428
Si Si7 0.538827 0.952033 0.657568
Si Si8 0.462299 0.773644 0.256145
O O1 0.750000 0.792362 0.468380
O O2 0.027457 0.835530 0.501739
O O3 0.027785 0.749514 0.501471
O O4 0.989661 0.793923 0.349658
O O5 0.750000 0.322352 0.260818
O O6 0.013881 0.345250 0.169674
O O7 0.022894 0.346305 0.346404
O O8 0.023956 0.274606 0.260830
O O9 0.750000 0.948123 0.855457
O O10 0.476506 0.915945 0.927852
O O11 0.472889 0.945847 0.759138
O O12 0.500000 0.000000 0.886807
O O13 0.750000 0.868534 0.571416
O O14 0.475443 0.915713 0.590776
O O15 0.750000 0.868086 0.939165
O O16 0.013969 0.835333 0.014183
O O17 0.750000 0.216346 0.065804
O O18 0.473386 0.209362 0.161423
O O19 0.750000 0.947787 0.662365
O O20 0.500000 0.000000 0.631600
O O21 0.250000 0.773773 0.253523
#
# Coordination Sequence:
#
# PCOD9362494 Si02
#       8
#     8   8   8   8   8   8   8   8
#     4  10  19  30  46  68  90 116 156 196 223 258
#     4   9  14  24  44  65  87 120 157 183 209 260
#     4   9  17  28  44  67  92 120 152 185 223 270
#     4   9  15  27  46  65  88 123 158 182 214 267
#     4  10  18  29  47  68  90 123 162 188 216 266
#     4  10  20  31  45  67  93 121 153 189 230 271
#     4   9  16  27  44  65  90 119 150 183 221 267
#     4  10  19  32  47  63  90 126 156 185 226 270
#
# _framework density 17.550360000000001
#
# number of rings (size 3 to 8) (size 9 to 14) (size 15 to 20)
#    0.000    2.500    3.750    0.000    0.000    1.000 
#    0.000    0.625    0.000    1.500    0.000    0.875 
#    0.000    2.000    0.000    0.000    0.000    0.000 
#
# Total GULP energy -178299.199114 kJ/mol
# GULP energy per Si atom -5571.849972 kJ/mol
# Density = 1.751041 g / cm^3
# Si number density = 17.550360 Si / 1000 Ang^3
#
#
#
# Elastic Constant Matrix: (Units=GPa)
#
#
# Indices 1 2 3 4 5 6 
#
# 1 35.7101 4.7085 2.5639 0.0000 0.0000 0.0000
# 2 4.7085 147.1593 80.7534 0.0000 0.0000 0.0000
# 3 2.5639 80.7534 120.8914 0.0000 0.0000 0.0000
# 4 0.0000 0.0000 0.0000 16.2915 0.0000 0.0000
# 5 0.0000 0.0000 0.0000 0.0000 14.1231 0.0000
# 6 0.0000 0.0000 0.0000 0.0000 0.0000 13.4181
#
#
#
# Elastic Compliance Matrix: (Units=1/GPa)
#
#
# Indices 1 2 3 4 5 6 
#
# 1 0.028122 -0.000904 0.000007 0.000000 0.000000 0.000000
# 2 -0.000904 0.010757 -0.007166 0.000000 0.000000 0.000000
# 3 0.000007 -0.007166 0.013059 0.000000 0.000000 0.000000
# 4 0.000000 0.000000 0.000000 0.061382 0.000000 0.000000
# 5 0.000000 0.000000 0.000000 0.000000 0.070806 0.000000
# 6 0.000000 0.000000 0.000000 0.000000 0.000000 0.074526
#
#
# Mechanical properties :
#
#
# Convention : Reuss Voigt Hill
#
# Bulk Modulus (GPa) = 27.92363 53.31249 40.61806
# Shear Modulus (GPa) = 17.43902 23.14888 20.29395
#
# Velocity S-wave (km/s) = 3.15565 3.63574 3.40417
# Velocity P-wave (km/s) = 5.40580 6.93308 6.21652
#
# Compressibility (1/GPa) = 0.03581196
#
# Stress axis : x y z
#
# Youngs Moduli (GPa) = 35.55945 92.96567 76.57804
#
# Poissons Ratio (x) = 0.08402 -0.00056
# Poissons Ratio (y) = 0.03214 0.54877
# Poissons Ratio (z) = -0.00026 0.66620
#
# Static dielectric constant tensor:
#      x y z
#    x 1.674070 0.000000 0.000000 
#    y 0.000000 1.624140 0.000000 
#    z 0.000000 0.000000 1.591620 
# 
# From -- ./inp_files/11475.got.cif
#   From: 2010.05.17/outbox.cif.g08.bks.cpg/sg40_6_cif.got.tgz:11475.got - 2010.06.03 18:35:42.
