data_PCOD9362736
_publ_section_title
;
Structure prediction by ZEFSAII (Michael W. Deem and Ramdas Pophale) SiO2 
 PCOD9362736
Probable space group: A M A 2
;
_chemical_formula_sum "Si O2"
_cell_formula_units_Z 64
_cell_length_a 18.865885
_cell_length_b 13.397574
_cell_length_c 12.968827
_cell_angle_alpha 90.000000
_cell_angle_beta 90.000000
_cell_angle_gamma 90.000000
_cell_volume 3277.962978
_symmetry_space_group_name_H-M "A M A 2"
_symmetry_group_IT_number 40
_symmetry_cell_setting 'orthorhombic'
loop_
_space_group_symop_operation_xyz
x,y,z
-x,-y,z
1/2-x,y,z
1/2+x,-y,z
x,1/2+y,1/2+z
-x,1/2-y,1/2+z
1/2-x,1/2+y,1/2+z
1/2+x,1/2-y,1/2+z
loop_
_atom_site_type_symbol
_atom_site_label
_atom_site_fract_x
_atom_site_fract_y
_atom_site_fract_z
Si Si1 0.020353 0.606221 0.929170
Si Si2 0.671790 0.839178 0.363053
Si Si3 0.979610 0.107072 0.796546
Si Si4 0.036746 0.316866 0.715530
Si Si5 0.833062 0.585892 0.631760
Si Si6 0.667744 0.361354 0.634030
Si Si7 0.829636 0.616617 0.397137
Si Si8 0.463275 0.684043 0.510247
O O1 0.983786 0.622057 0.817256
O O2 0.000000 0.500000 0.975280
O O3 0.104345 0.605652 0.907853
O O4 0.994673 0.704811 0.990330
O O5 0.750000 0.887236 0.368306
O O6 0.659815 0.806548 0.243656
O O7 0.673836 0.734325 0.421297
O O8 0.006983 0.204667 0.735005
O O9 0.895576 0.103167 0.820937
O O10 0.017629 0.122379 0.908359
O O11 0.000000 0.000000 0.751413
O O12 0.118955 0.332487 0.688175
O O13 0.999896 0.358045 0.612781
O O14 0.750000 0.606885 0.645541
O O15 0.849723 0.474422 0.669952
O O16 0.845850 0.572304 0.509166
O O17 0.750000 0.360042 0.603067
O O18 0.618559 0.319789 0.543813
O O19 0.750000 0.585950 0.362672
#
# Coordination Sequence:
#
# PCOD9362736 Si02
#       8
#     8   8   8   8   8   8   8   8
#     4  11  22  36  54  85 114 147 188 234 293 345
#     4  10  18  34  56  79 106 140 190 238 272 323
#     4  11  22  36  54  85 114 147 188 234 293 345
#     4  11  21  36  56  82 112 144 190 235 282 338
#     4  10  20  34  56  85 112 146 187 235 291 344
#     4  10  20  34  56  85 112 146 187 235 291 344
#     4  10  18  34  56  79 106 140 190 238 272 323
#     4  11  21  36  56  82 112 144 190 235 282 338
#
# _framework density 19.524321
#
# number of rings (size 3 to 8) (size 9 to 14) (size 15 to 20)
#    0.000    1.500    5.000    1.500    0.000    0.500 
#    0.000    3.750    0.000    0.000    0.000    8.750 
#    0.000    0.000    0.000    0.000    0.000    0.000 
#
# Total GULP energy -178348.247534 kJ/mol
# GULP energy per Si atom -5573.382735 kJ/mol
# Density = 1.947988 g / cm^3
# Si number density = 19.524321 Si / 1000 Ang^3
#
#
#
# Elastic Constant Matrix: (Units=GPa)
#
#
# Indices 1 2 3 4 5 6 
#
# 1 159.9082 32.1489 16.4636 0.0000 0.0000 0.0000
# 2 32.1489 56.7393 -4.1361 0.0000 0.0000 0.0000
# 3 16.4636 -4.1361 44.1031 0.0000 0.0000 0.0000
# 4 0.0000 0.0000 0.0000 9.3780 0.0000 0.0000
# 5 0.0000 0.0000 0.0000 0.0000 29.3135 0.0000
# 6 0.0000 0.0000 0.0000 0.0000 0.0000 17.0530
#
#
#
# Elastic Compliance Matrix: (Units=1/GPa)
#
#
# Indices 1 2 3 4 5 6 
#
# 1 0.007484 -0.004475 -0.003213 0.000000 0.000000 0.000000
# 2 -0.004475 0.020421 0.003586 0.000000 0.000000 0.000000
# 3 -0.003213 0.003586 0.024210 0.000000 0.000000 0.000000
# 4 0.000000 0.000000 0.000000 0.106632 0.000000 0.000000
# 5 0.000000 0.000000 0.000000 0.000000 0.034114 0.000000
# 6 0.000000 0.000000 0.000000 0.000000 0.000000 0.058641
#
#
# Mechanical properties :
#
#
# Convention : Reuss Voigt Hill
#
# Bulk Modulus (GPa) = 22.77380 38.85594 30.81487
# Shear Modulus (GPa) = 18.22531 25.56721 21.89626
#
# Velocity S-wave (km/s) = 3.05858 3.62264 3.35249
# Velocity P-wave (km/s) = 4.91558 6.11903 5.55002
#
# Compressibility (1/GPa) = 0.04391011
#
# Stress axis : x y z
#
# Youngs Moduli (GPa) = 133.61710 48.96847 41.30525
#
# Poissons Ratio (x) = 0.21912 0.13273
# Poissons Ratio (y) = 0.59791 -0.14810
# Poissons Ratio (z) = 0.42937 -0.17558
#
# Static dielectric constant tensor:
#      x y z
#    x 1.763240 0.000000 0.000000 
#    y 0.000000 1.684630 0.000000 
#    z 0.000000 0.000000 1.672060 
# 
# From -- ./inp_files/13163.got.cif
#   From: 2010.05.17/outbox.cif.g08.bks.cpg/sg40_7_cif.got.tgz:13163.got - 2010.06.03 18:35:42.
