data_PCOD9362500
_publ_section_title
;
Structure prediction by ZEFSAII (Michael W. Deem and Ramdas Pophale) SiO2 
 PCOD9362500
Probable space group: A M A 2
;
_chemical_formula_sum "Si O2"
_cell_formula_units_Z 64
_cell_length_a 23.468092
_cell_length_b 25.461557
_cell_length_c 6.933901
_cell_angle_alpha 90.000000
_cell_angle_beta 90.000000
_cell_angle_gamma 90.000000
_cell_volume 4143.242724
_symmetry_space_group_name_H-M "A M A 2"
_symmetry_group_IT_number 40
_symmetry_cell_setting 'orthorhombic'
loop_
_space_group_symop_operation_xyz
x,y,z
-x,-y,z
1/2-x,y,z
1/2+x,-y,z
x,1/2+y,1/2+z
-x,1/2-y,1/2+z
1/2-x,1/2+y,1/2+z
1/2+x,1/2-y,1/2+z
loop_
_atom_site_type_symbol
_atom_site_label
_atom_site_fract_x
_atom_site_fract_y
_atom_site_fract_z
Si Si1 0.532718 0.634536 0.470890
Si Si2 0.906257 0.018361 0.360557
Si Si3 0.484134 0.183402 0.582889
Si Si4 0.479628 0.584847 0.814713
Si Si5 0.648003 0.078383 0.027381
Si Si6 0.186678 0.936150 0.615899
Si Si7 0.184695 0.338301 0.846701
Si Si8 0.427297 0.277067 0.775544
O O1 0.512787 0.657894 0.270584
O O2 0.485740 0.601716 0.590977
O O3 0.588263 0.599157 0.442181
O O4 0.551793 0.679632 0.620733
O O5 0.869183 0.031750 0.171289
O O6 0.863199 0.027146 0.535727
O O7 0.957298 0.061806 0.367824
O O8 0.935913 0.962200 0.348343
O O9 0.466110 0.135651 0.443658
O O10 0.435895 0.221876 0.667755
O O11 0.530035 0.217054 0.458163
O O12 0.674936 0.123791 0.161407
O O13 0.685429 0.064558 0.845270
O O14 0.250000 0.951058 0.545401
O O15 0.175569 0.877885 0.527312
O O16 0.250000 0.319541 0.850283
O O17 0.136177 0.293956 0.837627
#
# Coordination Sequence:
#
# PCOD9362500 Si02
#       8
#     8   8   8   8   8   8   8   8
#     4   9  17  29  44  67  94 125 154 195 235 283
#     4   9  18  33  46  69  99 126 154 198 234 279
#     4  11  18  30  47  71  97 126 158 196 238 284
#     4   9  19  31  48  69  96 126 161 190 238 285
#     4   9  16  28  47  67  95 124 155 188 237 284
#     4  10  18  29  48  72  95 124 157 191 238 290
#     4   9  18  31  45  67  97 125 155 195 238 285
#     4  10  19  29  46  70  96 126 157 195 240 286
#
# _framework density 15.446837
#
# number of rings (size 3 to 8) (size 9 to 14) (size 15 to 20)
#    0.000    2.500    1.250    4.125    0.000    1.500 
#    0.000    2.500    0.000    0.750    0.000    0.875 
#    0.000    0.000    0.000    0.000    0.000    0.000 
#
# Total GULP energy -178232.900276 kJ/mol
# GULP energy per Si atom -5569.778134 kJ/mol
# Density = 1.541168 g / cm^3
# Si number density = 15.446837 Si / 1000 Ang^3
#
#
#
# Elastic Constant Matrix: (Units=GPa)
#
#
# Indices 1 2 3 4 5 6 
#
# 1 77.9010 35.5522 29.5162 0.0000 0.0000 0.0000
# 2 35.5522 64.8624 17.6136 0.0000 0.0000 0.0000
# 3 29.5162 17.6136 70.0079 0.0000 0.0000 0.0000
# 4 0.0000 0.0000 0.0000 13.1639 0.0000 0.0000
# 5 0.0000 0.0000 0.0000 0.0000 17.2635 0.0000
# 6 0.0000 0.0000 0.0000 0.0000 0.0000 21.1579
#
#
#
# Elastic Compliance Matrix: (Units=1/GPa)
#
#
# Indices 1 2 3 4 5 6 
#
# 1 0.019096 -0.008888 -0.005815 0.000000 0.000000 0.000000
# 2 -0.008888 0.020684 -0.001457 0.000000 0.000000 0.000000
# 3 -0.005815 -0.001457 0.017102 0.000000 0.000000 0.000000
# 4 0.000000 0.000000 0.000000 0.075965 0.000000 0.000000
# 5 0.000000 0.000000 0.000000 0.000000 0.057926 0.000000
# 6 0.000000 0.000000 0.000000 0.000000 0.000000 0.047264
#
#
# Mechanical properties :
#
#
# Convention : Reuss Voigt Hill
#
# Bulk Modulus (GPa) = 40.71090 42.01503 41.36296
# Shear Modulus (GPa) = 17.95040 18.98968 18.47004
#
# Velocity S-wave (km/s) = 3.41262 3.51002 3.46166
# Velocity P-wave (km/s) = 6.47616 6.60953 6.54318
#
# Compressibility (1/GPa) = 0.02456345
#
# Stress axis : x y z
#
# Youngs Moduli (GPa) = 52.36601 48.34542 58.47145
#
# Poissons Ratio (x) = 0.42969 0.34002
# Poissons Ratio (y) = 0.46542 0.08518
# Poissons Ratio (z) = 0.30451 0.07043
#
# Static dielectric constant tensor:
#      x y z
#    x 1.517070 0.000000 0.000000 
#    y 0.000000 1.512030 0.000000 
#    z 0.000000 0.000000 1.525140 
# 
# From -- ./inp_files/2880.got.cif
#   From: 2010.05.17/outbox.cif.g08.bks.cpg/sg40_2_cif.got.tgz:2880.got - 2010.06.03 18:35:42.
