data_PCOD9362175
_publ_section_title
;
Structure prediction by ZEFSAII (Michael W. Deem and Ramdas Pophale) SiO2 
 PCOD9362175
Probable space group: A B M 2
;
_chemical_formula_sum "Si O2"
_cell_formula_units_Z 28
_cell_length_a 15.000000
_cell_length_b 9.000000
_cell_length_c 21.000000
_cell_angle_alpha 90.000000
_cell_angle_beta 90.000000
_cell_angle_gamma 90.000000
_cell_volume 2835.000000
_symmetry_space_group_name_H-M "A B M 2"
_symmetry_group_IT_number 39
_symmetry_cell_setting 'orthorhombic'
loop_
_space_group_symop_operation_xyz
x,y,z
-x,-y,z
-x,1/2+y,z
x,1/2-y,z
x,1/2+y,1/2+z
-x,1/2-y,1/2+z
-x,y,1/2+z
x,-y,1/2+z
loop_
_atom_site_type_symbol
_atom_site_label
_atom_site_fract_x
_atom_site_fract_y
_atom_site_fract_z
Si Si1 0.088175 0.574721 0.120960
Si Si2 0.908620 0.428101 0.346799
Si Si3 0.411241 0.070272 0.901315
Si Si4 0.712186 0.928490 0.656812
Si Si5 0.724393 0.069088 0.294543
Si Si6 0.133215 0.578662 0.493318
Si Si7 0.659235 0.921226 0.031714
O O1 0.081242 0.750000 0.128241
O O2 0.183686 0.526571 0.148791
O O3 0.000000 0.500000 0.148694
O O4 0.094182 0.528903 0.046645
O O5 0.914034 0.250000 0.342819
O O6 0.825607 0.479207 0.304774
O O7 0.889800 0.463544 0.421252
O O8 0.000000 0.500000 0.326515
O O9 0.414170 0.250000 0.902584
O O10 0.330995 0.024047 0.855882
O O11 0.500000 0.000000 0.874420
O O12 0.397448 0.016397 0.973448
O O13 0.709023 0.750000 0.653060
O O14 0.684521 0.978239 0.727132
O O15 0.658594 0.993565 0.597840
O O16 0.725246 0.250000 0.294051
O O17 0.103582 0.750000 0.504303
O O18 0.239536 0.577069 0.504499
O O19 0.635012 0.750000 0.043007
#
# Coordination Sequence:
#
# PCOD9362175 Si02
#       7
#     8   8   8   8   8   8   8
#     4  10  19  29  43  68 100 136 179 223 265 310
#     4  10  19  31  49  74 104 141 183 222 264 313
#     4  10  20  37  62  87 109 139 177 220 270 324
#     4   9  19  34  54  76 102 141 182 220 263 314
#     4   9  18  37  58  76 107 149 184 215 265 327
#     4   9  16  29  49  71  98 134 174 218 266 313
#     4   9  17  33  56  80 105 136 172 214 268 323
#
# _framework density 9.8765429999999999
#
# number of rings (size 3 to 8) (size 9 to 14) (size 15 to 20)
#    0.000    2.571    1.429    0.857    0.000    3.429 
#    0.000    2.857    0.000    3.429    0.000    0.000 
#    0.000    0.000    0.000    0.000    0.000    0.000 
#
# Total GULP energy -156092.957956 kJ/mol
# GULP energy per Si atom -5574.748498 kJ/mol
# Density = 0.985406 g / cm^3
# Si number density = 9.876543 Si / 1000 Ang^3
#
#
#
# Elastic Constant Matrix: (Units=GPa)
#
#
# Indices 1 2 3 4 5 6 
#
# 1 52.3053 9.3935 32.0499 0.0000 0.0000 0.0000
# 2 9.3935 0.9443 20.4149 0.0000 0.0000 0.0000
# 3 32.0499 20.4149 122.5543 0.0000 0.0000 0.0000
# 4 0.0000 0.0000 0.0000 14.5193 0.0000 0.0000
# 5 0.0000 0.0000 0.0000 0.0000 -5.5115 0.0000
# 6 0.0000 0.0000 0.0000 0.0000 0.0000 17.8913
#
#
#
# Elastic Compliance Matrix: (Units=1/GPa)
#
#
# Indices 1 2 3 4 5 6 
#
# 1 0.019756 0.032611 -0.010599 0.000000 0.000000 0.000000
# 2 0.032611 -0.353269 0.050319 0.000000 0.000000 0.000000
# 3 -0.010599 0.050319 0.002549 0.000000 0.000000 0.000000
# 4 0.000000 0.000000 0.000000 0.068874 0.000000 0.000000
# 5 0.000000 0.000000 0.000000 0.000000 -0.181439 0.000000
# 6 0.000000 0.000000 0.000000 0.000000 0.000000 0.055893
#
#
# Mechanical properties :
#
#
# Convention : Reuss Voigt Hill
#
# Bulk Modulus (GPa) = -5.36763 33.28005 13.95621
# Shear Modulus (GPa) = -8.41188 12.97618 2.28215
#
# Velocity S-wave (km/s) = -2.06586 2.56582 1.07603
# Velocity P-wave (km/s) = 2.90062 5.06582 2.93674
#
# Compressibility (1/GPa) = -0.18630192
#
# Stress axis : x y z
#
# Youngs Moduli (GPa) = 50.61654 -2.83071 392.24316
#
# Poissons Ratio (x) = 0.09231 4.15733
# Poissons Ratio (y) = -1.65065 -19.73714
# Poissons Ratio (z) = 0.53648 0.14244
#
# Static dielectric constant tensor:
#      x y z
#    x 1.723610 0.000000 0.000000 
#    y 0.000000 1.669970 0.000000 
#    z 0.000000 0.000000 1.701110 
# 
# From -- ./inp_files/14753.got.cif
#   From: 2010.05.17/outbox.ucp.g08.bks.cvg/sg39_8_cif.got.tgz:14753.got - 2010.06.11 10:41:16.
