data_PCOD9362054
_publ_section_title
;
Structure prediction by ZEFSAII (Michael W. Deem and Ramdas Pophale) SiO2 
 PCOD9362054
Probable space group: A B M 2
;
_chemical_formula_sum "Si O2"
_cell_formula_units_Z 48
_cell_length_a 18.819570
_cell_length_b 8.713739
_cell_length_c 16.030868
_cell_angle_alpha 90.000000
_cell_angle_beta 90.000000
_cell_angle_gamma 90.000000
_cell_volume 2628.883144
_symmetry_space_group_name_H-M "A B M 2"
_symmetry_group_IT_number 39
_symmetry_cell_setting 'orthorhombic'
loop_
_space_group_symop_operation_xyz
x,y,z
-x,-y,z
-x,1/2+y,z
x,1/2-y,z
x,1/2+y,1/2+z
-x,1/2-y,1/2+z
-x,y,1/2+z
x,-y,1/2+z
loop_
_atom_site_type_symbol
_atom_site_label
_atom_site_fract_x
_atom_site_fract_y
_atom_site_fract_z
Si Si1 0.342594 0.070127 0.812710
Si Si2 0.078255 0.433270 0.477574
Si Si3 0.579184 0.933372 0.473128
Si Si4 0.207511 0.568803 0.548600
Si Si5 0.346956 0.568340 0.638203
Si Si6 0.790774 0.929070 0.377542
O O1 0.353128 0.250000 0.823625
O O2 0.380550 0.982964 0.888597
O O3 0.369196 0.014229 0.722924
O O4 0.258629 0.028966 0.818978
O O5 0.077454 0.250000 0.488680
O O6 0.126110 0.511715 0.550413
O O7 0.125815 0.464719 0.393802
O O8 0.000000 0.500000 0.473233
O O9 0.578690 0.750000 0.479484
O O10 0.500000 0.000000 0.468086
O O11 0.615080 0.004050 0.555977
O O12 0.208605 0.750000 0.527003
O O13 0.261961 0.546678 0.623335
O O14 0.236453 0.467951 0.471251
O O15 0.360010 0.750000 0.644664
O O16 0.782518 0.750000 0.357767
#
# Coordination Sequence:
#
# PCOD9362054 Si02
#       6
#     8   8   8   8   8   8
#     4  12  24  39  62  90 119 155 197 242 292 347
#     4   9  17  27  48  78 112 151 194 237 290 347
#     4  12  25  43  65  89 121 155 192 239 291 350
#     4   9  17  31  54  80 111 146 189 236 285 340
#     4  11  23  40  63  90 119 154 196 241 291 349
#     4   9  18  32  53  80 111 148 191 237 285 339
#
# _framework density 18.258704000000002
#
# number of rings (size 3 to 8) (size 9 to 14) (size 15 to 20)
#    1.000    0.667    1.667    4.500    0.000    2.667 
#    0.000    3.333    0.000    1.000    0.000    4.667 
#    0.000    0.000    0.000    0.000    0.000    0.000 
#
# Total GULP energy -133641.022023 kJ/mol
# GULP energy per Si atom -5568.375918 kJ/mol
# Density = 1.821715 g / cm^3
# Si number density = 18.258704 Si / 1000 Ang^3
#
#
#
# Elastic Constant Matrix: (Units=GPa)
#
#
# Indices 1 2 3 4 5 6 
#
# 1 104.5995 26.9179 24.9737 0.0000 0.0000 0.0000
# 2 26.9179 74.9463 10.4970 0.0000 0.0000 0.0000
# 3 24.9737 10.4970 73.7096 0.0000 0.0000 0.0000
# 4 0.0000 0.0000 0.0000 26.1921 0.0000 0.0000
# 5 0.0000 0.0000 0.0000 0.0000 9.2208 0.0000
# 6 0.0000 0.0000 0.0000 0.0000 0.0000 25.7309
#
#
#
# Elastic Compliance Matrix: (Units=1/GPa)
#
#
# Indices 1 2 3 4 5 6 
#
# 1 0.011273 -0.003585 -0.003309 0.000000 0.000000 0.000000
# 2 -0.003585 0.014755 -0.000886 0.000000 0.000000 0.000000
# 3 -0.003309 -0.000886 0.014814 0.000000 0.000000 0.000000
# 4 0.000000 0.000000 0.000000 0.038179 0.000000 0.000000
# 5 0.000000 0.000000 0.000000 0.000000 0.108450 0.000000
# 6 0.000000 0.000000 0.000000 0.000000 0.000000 0.038864
#
#
# Mechanical properties :
#
#
# Convention : Reuss Voigt Hill
#
# Bulk Modulus (GPa) = 39.55623 42.00362 40.77993
# Shear Modulus (GPa) = 19.97418 24.95323 22.46370
#
# Velocity S-wave (km/s) = 3.31109 3.70083 3.51137
# Velocity P-wave (km/s) = 6.02736 6.42777 6.23078
#
# Compressibility (1/GPa) = 0.02528047
#
# Stress axis : x y z
#
# Youngs Moduli (GPa) = 88.70798 67.77470 67.50347
#
# Poissons Ratio (x) = 0.24300 0.22336
# Poissons Ratio (y) = 0.31805 0.05984
# Poissons Ratio (z) = 0.29352 0.06008
#
# Static dielectric constant tensor:
#      x y z
#    x 1.687870 0.000000 0.000000 
#    y 0.000000 1.604180 0.000000 
#    z 0.000000 0.000000 1.621490 
# 
# From -- ./inp_files/10239.got.cif
#   From: 2010.05.17/outbox.cif.g08.bks.cpg/sg39_6_cif.got.tgz:10239.got - 2010.06.03 18:22:40.
