data_PCOD9362436
_publ_section_title
;
Structure prediction by ZEFSAII (Michael W. Deem and Ramdas Pophale) SiO2 
 PCOD9362436
Probable space group: A M A 2
;
_chemical_formula_sum "Si O2"
_cell_formula_units_Z 56
_cell_length_a 8.642998
_cell_length_b 18.946633
_cell_length_c 21.568038
_cell_angle_alpha 90.000000
_cell_angle_beta 90.000000
_cell_angle_gamma 90.000000
_cell_volume 3531.889400
_symmetry_space_group_name_H-M "A M A 2"
_symmetry_group_IT_number 40
_symmetry_cell_setting 'orthorhombic'
loop_
_space_group_symop_operation_xyz
x,y,z
-x,-y,z
1/2-x,y,z
1/2+x,-y,z
x,1/2+y,1/2+z
-x,1/2-y,1/2+z
1/2-x,1/2+y,1/2+z
1/2+x,1/2-y,1/2+z
loop_
_atom_site_type_symbol
_atom_site_label
_atom_site_fract_x
_atom_site_fract_y
_atom_site_fract_z
Si Si1 0.434181 0.922820 0.057610
Si Si2 0.564439 0.844586 0.677068
Si Si3 0.437048 0.921859 0.555587
Si Si4 0.928079 0.211174 0.487524
Si Si5 0.938616 0.351763 0.433133
Si Si6 0.936666 0.421094 0.303368
Si Si7 0.071946 0.709121 0.620945
O O1 0.250000 0.924711 0.054527
O O2 0.488350 0.864527 0.107544
O O3 0.500000 0.000000 0.071367
O O4 0.499667 0.897046 0.990946
O O5 0.750000 0.847479 0.672048
O O6 0.493251 0.891909 0.621893
O O7 0.516325 0.876149 0.743217
O O8 0.509057 0.764398 0.666562
O O9 0.250000 0.921461 0.555441
O O10 0.494625 0.865558 0.503627
O O11 0.500000 0.000000 0.545922
O O12 0.750000 0.199848 0.468362
O O13 0.994811 0.270708 0.442102
O O14 0.927773 0.250780 0.554218
O O15 0.750000 0.351334 0.437080
O O16 0.985340 0.385088 0.367891
O O17 0.750000 0.423948 0.303676
O O18 0.000000 0.500000 0.299128
O O19 0.250000 0.697678 0.638497
#
# Coordination Sequence:
#
# PCOD9362436 Si02
#       7
#     8   8   8   8   8   8   8
#     4  11  20  30  46  70  96 122 151 189 232 276
#     4  10  19  31  45  65  91 121 155 191 226 269
#     4  10  18  28  43  65  89 117 148 185 232 279
#     4   7  13  26  44  61  81 109 144 181 224 271
#     4   9  17  32  48  64  89 123 159 194 228 270
#     4  10  21  32  45  65  92 124 159 193 227 267
#     4   9  17  31  48  66  88 118 151 187 230 276
#
# _framework density 15.855537
#
# number of rings (size 3 to 8) (size 9 to 14) (size 15 to 20)
#    0.000    2.571    0.000    5.143    0.000    4.000 
#    0.000    0.714    0.000    0.000    0.000    1.000 
#    0.000    2.286    0.000    0.000    0.000    0.000 
#
# Total GULP energy -155989.544116 kJ/mol
# GULP energy per Si atom -5571.055147 kJ/mol
# Density = 1.581945 g / cm^3
# Si number density = 15.855537 Si / 1000 Ang^3
#
#
#
# Elastic Constant Matrix: (Units=GPa)
#
#
# Indices 1 2 3 4 5 6 
#
# 1 53.7310 40.3740 21.9931 0.0000 0.0000 0.0000
# 2 40.3740 169.9044 67.7941 0.0000 0.0000 0.0000
# 3 21.9931 67.7941 76.2260 0.0000 0.0000 0.0000
# 4 0.0000 0.0000 0.0000 26.4998 0.0000 0.0000
# 5 0.0000 0.0000 0.0000 0.0000 14.4968 0.0000
# 6 0.0000 0.0000 0.0000 0.0000 0.0000 27.3668
#
#
#
# Elastic Compliance Matrix: (Units=1/GPa)
#
#
# Indices 1 2 3 4 5 6 
#
# 1 0.023024 -0.004372 -0.002755 0.000000 0.000000 0.000000
# 2 -0.004372 0.009953 -0.007591 0.000000 0.000000 0.000000
# 3 -0.002755 -0.007591 0.020665 0.000000 0.000000 0.000000
# 4 0.000000 0.000000 0.000000 0.037736 0.000000 0.000000
# 5 0.000000 0.000000 0.000000 0.000000 0.068981 0.000000
# 6 0.000000 0.000000 0.000000 0.000000 0.000000 0.036541
#
#
# Mechanical properties :
#
#
# Convention : Reuss Voigt Hill
#
# Bulk Modulus (GPa) = 41.31014 62.24266 51.77640
# Shear Modulus (GPa) = 21.33066 24.98600 23.15833
#
# Velocity S-wave (km/s) = 3.67183 3.97401 3.82590
# Velocity P-wave (km/s) = 6.63981 7.77164 7.22791
#
# Compressibility (1/GPa) = 0.02420713
#
# Stress axis : x y z
#
# Youngs Moduli (GPa) = 43.43307 100.46725 48.39103
#
# Poissons Ratio (x) = 0.43924 0.13330
# Poissons Ratio (y) = 0.18989 0.36734
# Poissons Ratio (z) = 0.11964 0.76265
#
# Static dielectric constant tensor:
#      x y z
#    x 1.541700 0.000000 0.000000 
#    y 0.000000 1.547920 0.000000 
#    z 0.000000 0.000000 1.514990 
# 
# From -- ./inp_files/22306.got.cif
#   From: 2010.05.17/outbox.cif.g08.bks.cpg/sg40_12_cif.got.tgz:22306.got - 2010.06.03 18:35:42.
