data_PCOD9362402
_publ_section_title
;
Structure prediction by ZEFSAII (Michael W. Deem and Ramdas Pophale) SiO2 
 PCOD9362402
Probable space group: A M A 2
;
_chemical_formula_sum "Si O2"
_cell_formula_units_Z 56
_cell_length_a 8.988532
_cell_length_b 18.614223
_cell_length_c 21.574901
_cell_angle_alpha 90.000000
_cell_angle_beta 90.000000
_cell_angle_gamma 90.000000
_cell_volume 3609.794617
_symmetry_space_group_name_H-M "A M A 2"
_symmetry_group_IT_number 40
_symmetry_cell_setting 'orthorhombic'
loop_
_space_group_symop_operation_xyz
x,y,z
-x,-y,z
1/2-x,y,z
1/2+x,-y,z
x,1/2+y,1/2+z
-x,1/2-y,1/2+z
1/2-x,1/2+y,1/2+z
1/2+x,1/2-y,1/2+z
loop_
_atom_site_type_symbol
_atom_site_label
_atom_site_fract_x
_atom_site_fract_y
_atom_site_fract_z
Si Si1 0.921385 0.294046 0.634260
Si Si2 0.920478 0.204863 0.763675
Si Si3 0.071939 0.422481 0.699557
Si Si4 0.929007 0.837307 0.574640
Si Si5 0.429979 0.150564 0.320121
Si Si6 0.571119 0.921601 0.450971
Si Si7 0.926858 0.422566 0.200421
O O1 0.750000 0.310800 0.619650
O O2 0.922263 0.249772 0.699206
O O3 0.014826 0.365257 0.648703
O O4 0.993984 0.239247 0.585791
O O5 0.750000 0.183630 0.776150
O O6 0.969119 0.265053 0.813075
O O7 0.017942 0.134962 0.751224
O O8 0.250000 0.426130 0.700586
O O9 0.000000 0.500000 0.688659
O O10 0.011138 0.393184 0.765704
O O11 0.750000 0.827976 0.575349
O O12 0.973713 0.875331 0.510900
O O13 0.967385 0.888690 0.633085
O O14 0.250000 0.145484 0.310395
O O15 0.466743 0.118095 0.386792
O O16 0.750000 0.928881 0.453018
O O17 0.500000 0.000000 0.452816
O O18 0.750000 0.429102 0.202670
O O19 0.000000 0.500000 0.207897
#
# Coordination Sequence:
#
# PCOD9362402 Si02
#       7
#     8   8   8   8   8   8   8
#     4   9  17  30  47  66  88 116 150 187 227 272
#     4   8  15  28  44  61  84 113 146 183 224 267
#     4  11  20  30  46  68  94 121 150 188 231 275
#     4   9  18  31  45  64  91 123 155 186 221 264
#     4   9  18  32  47  65  91 124 158 191 227 269
#     4  10  20  32  46  66  94 126 160 192 223 262
#     4  10  18  27  42  64  89 115 145 181 223 267
#
# _framework density 15.513348000000001
#
# number of rings (size 3 to 8) (size 9 to 14) (size 15 to 20)
#    0.000    2.571    0.000    3.857    0.000    6.286 
#    0.000    0.000    0.000    0.000    0.000    1.000 
#    0.000    4.571    0.000    0.000    0.000    0.000 
#
# Total GULP energy -156068.370371 kJ/mol
# GULP energy per Si atom -5573.870370 kJ/mol
# Density = 1.547804 g / cm^3
# Si number density = 15.513348 Si / 1000 Ang^3
#
#
#
# Elastic Constant Matrix: (Units=GPa)
#
#
# Indices 1 2 3 4 5 6 
#
# 1 66.0455 70.4471 33.4972 0.0000 0.0000 0.0000
# 2 70.4471 154.6066 68.2554 0.0000 0.0000 0.0000
# 3 33.4972 68.2554 80.3266 0.0000 0.0000 0.0000
# 4 0.0000 0.0000 0.0000 25.4484 0.0000 0.0000
# 5 0.0000 0.0000 0.0000 0.0000 15.5251 0.0000
# 6 0.0000 0.0000 0.0000 0.0000 0.0000 30.6789
#
#
#
# Elastic Compliance Matrix: (Units=1/GPa)
#
#
# Indices 1 2 3 4 5 6 
#
# 1 0.029558 -0.012845 -0.001411 0.000000 0.000000 0.000000
# 2 -0.012845 0.015933 -0.008182 0.000000 0.000000 0.000000
# 3 -0.001411 -0.008182 0.019990 0.000000 0.000000 0.000000
# 4 0.000000 0.000000 0.000000 0.039295 0.000000 0.000000
# 5 0.000000 0.000000 0.000000 0.000000 0.064412 0.000000
# 6 0.000000 0.000000 0.000000 0.000000 0.000000 0.032596
#
#
# Mechanical properties :
#
#
# Convention : Reuss Voigt Hill
#
# Bulk Modulus (GPa) = 48.53352 71.70868 60.12110
# Shear Modulus (GPa) = 19.72153 22.91574 21.31864
#
# Velocity S-wave (km/s) = 3.56934 3.84756 3.71106
# Velocity P-wave (km/s) = 6.95269 8.12788 7.56315
#
# Compressibility (1/GPa) = 0.02060432
#
# Stress axis : x y z
#
# Youngs Moduli (GPa) = 33.83161 62.76156 50.02422
#
# Poissons Ratio (x) = 0.80619 0.07059
# Poissons Ratio (y) = 0.43458 0.40931
# Poissons Ratio (z) = 0.04774 0.51353
#
# Static dielectric constant tensor:
#      x y z
#    x 1.521450 0.000000 0.000000 
#    y 0.000000 1.509800 0.000000 
#    z 0.000000 0.000000 1.507530 
# 
# From -- ./inp_files/22290.got.cif
#   From: 2010.05.17/outbox.cif.g08.bks.cpg/sg40_12_cif.got.tgz:22290.got - 2010.06.03 18:35:42.
