data_PCOD9362312
_publ_section_title
;
Structure prediction by ZEFSAII (Michael W. Deem and Ramdas Pophale) SiO2 
 PCOD9362312
Probable space group: A M A 2
;
_chemical_formula_sum "Si O2"
_cell_formula_units_Z 64
_cell_length_a 8.565916
_cell_length_b 31.415609
_cell_length_c 14.998833
_cell_angle_alpha 90.000000
_cell_angle_beta 90.000000
_cell_angle_gamma 90.000000
_cell_volume 4036.237973
_symmetry_space_group_name_H-M "A M A 2"
_symmetry_group_IT_number 40
_symmetry_cell_setting 'orthorhombic'
loop_
_space_group_symop_operation_xyz
x,y,z
-x,-y,z
1/2-x,y,z
1/2+x,-y,z
x,1/2+y,1/2+z
-x,1/2-y,1/2+z
1/2-x,1/2+y,1/2+z
1/2+x,1/2-y,1/2+z
loop_
_atom_site_type_symbol
_atom_site_label
_atom_site_fract_x
_atom_site_fract_y
_atom_site_fract_z
Si Si1 0.558256 0.292917 0.097320
Si Si2 0.061128 0.546512 0.510232
Si Si3 0.061054 0.046368 0.802591
Si Si4 0.435310 0.291660 0.705910
Si Si5 0.431995 0.224720 0.399501
Si Si6 0.930870 0.315493 0.405295
Si Si7 0.433693 0.633414 0.589038
Si Si8 0.063012 0.632586 0.224299
O O1 0.750000 0.292225 0.098336
O O2 0.506460 0.250039 0.150089
O O3 0.503990 0.335242 0.148837
O O4 0.507642 0.292595 0.994421
O O5 0.250000 0.546568 0.511708
O O6 0.014593 0.553988 0.406403
O O7 0.006730 0.585452 0.572374
O O8 0.000000 0.500000 0.536030
O O9 0.250000 0.046297 0.801354
O O10 0.003605 0.084770 0.739871
O O11 0.000000 0.000000 0.776820
O O12 0.250000 0.289109 0.703314
O O13 0.488693 0.289496 0.808080
O O14 0.487681 0.335248 0.659273
O O15 0.250000 0.214314 0.393046
O O16 0.457260 0.275340 0.406666
O O17 0.750000 0.300224 0.400723
O O18 0.947569 0.343542 0.493225
O O19 0.958746 0.343478 0.318157
O O20 0.250000 0.630997 0.610984
O O21 0.250000 0.629108 0.210119
#
# Coordination Sequence:
#
# PCOD9362312 Si02
#       8
#     8   8   8   8   8   8   8   8
#     4   9  18  30  47  68  91 120 160 199 230 276
#     4   9  17  29  45  68  97 128 159 194 235 283
#     4   9  16  27  45  67  93 124 157 190 230 280
#     4  11  21  34  50  69  94 128 164 198 239 287
#     4  11  21  33  46  68  97 124 159 205 243 274
#     4  10  17  28  48  69  94 128 163 193 230 279
#     4  10  19  31  48  72  99 129 164 200 238 283
#     4   9  15  28  48  67  89 127 165 188 222 281
#
# _framework density 15.856349
#
# number of rings (size 3 to 8) (size 9 to 14) (size 15 to 20)
#    0.000    2.250    3.750    0.750    0.000    0.500 
#    0.000    0.625    0.000    0.000    0.000    0.875 
#    0.000    2.000    0.000    0.000    0.000    0.000 
#
# Total GULP energy -178323.024319 kJ/mol
# GULP energy per Si atom -5572.594510 kJ/mol
# Density = 1.582026 g / cm^3
# Si number density = 15.856349 Si / 1000 Ang^3
#
#
#
# Elastic Constant Matrix: (Units=GPa)
#
#
# Indices 1 2 3 4 5 6 
#
# 1 8.8122 16.3835 19.8837 0.0000 0.0000 0.0000
# 2 16.3835 125.8505 56.6980 0.0000 0.0000 0.0000
# 3 19.8837 56.6980 98.9773 0.0000 0.0000 0.0000
# 4 0.0000 0.0000 0.0000 5.9441 0.0000 0.0000
# 5 0.0000 0.0000 0.0000 0.0000 -141.2790 0.0000
# 6 0.0000 0.0000 0.0000 0.0000 0.0000 23.4127
#
#
#
# Elastic Compliance Matrix: (Units=1/GPa)
#
#
# Indices 1 2 3 4 5 6 
#
# 1 0.219747 -0.011752 -0.037414 0.000000 0.000000 0.000000
# 2 -0.011752 0.011338 -0.004134 0.000000 0.000000 0.000000
# 3 -0.037414 -0.004134 0.019988 0.000000 0.000000 0.000000
# 4 0.000000 0.000000 0.000000 0.168234 0.000000 0.000000
# 5 0.000000 0.000000 0.000000 0.000000 -0.007078 0.000000
# 6 0.000000 0.000000 0.000000 0.000000 0.000000 0.042712
#
#
# Mechanical properties :
#
#
# Convention : Reuss Voigt Hill
#
# Bulk Modulus (GPa) = 6.92164 46.61894 26.77029
# Shear Modulus (GPa) = 8.20078 -13.00612 -2.40267
#
# Velocity S-wave (km/s) = 2.27665 -2.86710 -1.23230
# Velocity P-wave (km/s) = 3.35940 4.30166 3.85939
#
# Compressibility (1/GPa) = 0.14447453
#
# Stress axis : x y z
#
# Youngs Moduli (GPa) = 4.55068 88.19634 50.03095
#
# Poissons Ratio (x) = 1.03645 1.87184
# Poissons Ratio (y) = 0.05348 0.20684
# Poissons Ratio (z) = 0.17026 0.36462
#
# Static dielectric constant tensor:
#      x y z
#    x 1.554420 0.000000 0.000000 
#    y 0.000000 1.538530 0.000000 
#    z 0.000000 0.000000 1.528440 
# 
# From -- ./inp_files/15885.got.cif
#   From: 2010.05.17/outbox.cif.g08.bks.cpg/sg40_8_cif.got.tgz:15885.got - 2010.06.03 18:35:42.
