data_PCOD9362918
_publ_section_title
;
Structure prediction by ZEFSAII (Michael W. Deem and Ramdas Pophale) SiO2 
 PCOD9362918
Probable space group: A M A 2
;
_chemical_formula_sum "Si O2"
_cell_formula_units_Z 64
_cell_length_a 7.944028
_cell_length_b 25.892052
_cell_length_c 15.511235
_cell_angle_alpha 90.000000
_cell_angle_beta 90.000000
_cell_angle_gamma 90.000000
_cell_volume 3190.462280
_symmetry_space_group_name_H-M "A M A 2"
_symmetry_group_IT_number 40
_symmetry_cell_setting 'orthorhombic'
loop_
_space_group_symop_operation_xyz
x,y,z
-x,-y,z
1/2-x,y,z
1/2+x,-y,z
x,1/2+y,1/2+z
-x,1/2-y,1/2+z
1/2-x,1/2+y,1/2+z
1/2+x,1/2-y,1/2+z
loop_
_atom_site_type_symbol
_atom_site_label
_atom_site_fract_x
_atom_site_fract_y
_atom_site_fract_z
Si Si1 0.550062 0.059406 0.232320
Si Si2 0.450414 0.058012 0.587463
Si Si3 0.548908 0.266692 0.695521
Si Si4 0.043572 0.164981 0.902518
Si Si5 0.946584 0.720266 0.890937
Si Si6 0.452983 0.392170 0.910713
Si Si7 0.453909 0.151191 0.707001
Si Si8 0.452019 0.636877 0.583795
O O1 0.750000 0.062017 0.238036
O O2 0.481258 0.085350 0.320211
O O3 0.497962 0.091529 0.148708
O O4 0.500000 0.000000 0.227303
O O5 0.250000 0.060750 0.589605
O O6 0.506582 0.071514 0.490700
O O7 0.516098 0.103213 0.650440
O O8 0.500000 0.000000 0.611755
O O9 0.750000 0.271655 0.707164
O O10 0.462604 0.279674 0.786934
O O11 0.509954 0.207358 0.673029
O O12 0.491879 0.308864 0.626121
O O13 0.250000 0.165715 0.899945
O O14 0.983872 0.224061 0.917382
O O15 0.989942 0.147977 0.807126
O O16 0.988379 0.132471 0.985266
O O17 0.750000 0.721208 0.915567
O O18 0.019391 0.666281 0.924270
O O19 0.250000 0.388492 0.904268
O O20 0.250000 0.151033 0.706448
O O21 0.250000 0.639122 0.580202
#
# Coordination Sequence:
#
# PCOD9362918 Si02
#       8
#     8   8   8   8   8   8   8   8
#     4  11  23  39  58  81 111 151 190 230 278 332
#     4  11  24  40  59  83 110 146 192 243 291 339
#     4  10  19  30  52  85 117 146 183 230 276 326
#     4   8  16  33  57  80 110 149 186 222 271 333
#     4   9  17  33  55  79 113 153 187 218 269 336
#     4  10  21  36  58  85 114 151 187 226 280 341
#     4   9  20  39  59  79 110 152 192 232 284 340
#     4  10  20  34  55  84 114 148 187 231 276 327
#
# _framework density 20.059788999999999
#
# number of rings (size 3 to 8) (size 9 to 14) (size 15 to 20)
#    0.000    2.250    1.250    2.250    1.750    4.000 
#    0.000    3.125    0.000    1.500    0.000    0.000 
#    0.000    0.000    0.000    0.000    0.000    0.000 
#
# Total GULP energy -178600.239614 kJ/mol
# GULP energy per Si atom -5581.257488 kJ/mol
# Density = 2.001413 g / cm^3
# Si number density = 20.059789 Si / 1000 Ang^3
#
#
#
# Elastic Constant Matrix: (Units=GPa)
#
#
# Indices 1 2 3 4 5 6 
#
# 1 11.3500 -3.7098 0.0657 0.0000 0.0000 0.0000
# 2 -3.7098 113.2440 48.0880 0.0000 0.0000 0.0000
# 3 0.0657 48.0880 81.2890 0.0000 0.0000 0.0000
# 4 0.0000 0.0000 0.0000 31.6265 0.0000 0.0000
# 5 0.0000 0.0000 0.0000 0.0000 10.3010 0.0000
# 6 0.0000 0.0000 0.0000 0.0000 0.0000 13.0376
#
#
#
# Elastic Compliance Matrix: (Units=1/GPa)
#
#
# Indices 1 2 3 4 5 6 
#
# 1 0.089411 0.003953 -0.002410 0.000000 0.000000 0.000000
# 2 0.003953 0.011968 -0.007083 0.000000 0.000000 0.000000
# 3 -0.002410 -0.007083 0.016494 0.000000 0.000000 0.000000
# 4 0.000000 0.000000 0.000000 0.031619 0.000000 0.000000
# 5 0.000000 0.000000 0.000000 0.000000 0.097078 0.000000
# 6 0.000000 0.000000 0.000000 0.000000 0.000000 0.076702
#
#
# Mechanical properties :
#
#
# Convention : Reuss Voigt Hill
#
# Bulk Modulus (GPa) = 9.36405 32.75232 21.05818
# Shear Modulus (GPa) = 13.51533 21.75561 17.63547
#
# Velocity S-wave (km/s) = 2.59849 3.29681 2.96826
# Velocity P-wave (km/s) = 3.69879 5.55470 4.71889
#
# Compressibility (1/GPa) = 0.10679143
#
# Stress axis : x y z
#
# Youngs Moduli (GPa) = 11.18425 83.55853 60.62902
#
# Poissons Ratio (x) = -0.33028 0.14615
# Poissons Ratio (y) = -0.04421 0.42943
# Poissons Ratio (z) = 0.02696 0.59184
#
# Static dielectric constant tensor:
#      x y z
#    x 1.726320 0.000000 0.000000 
#    y 0.000000 1.761920 0.000000 
#    z 0.000000 0.000000 1.721680 
# 
# From -- ./inp_files/15567.got.cif
#   From: 2010.05.17/outbox.cif.g08.bks.cpg/sg40_8_cif.got.tgz:15567.got - 2010.06.03 18:35:42.
