data_PCOD9362540
_publ_section_title
;
Structure prediction by ZEFSAII (Michael W. Deem and Ramdas Pophale) SiO2 
 PCOD9362540
Probable space group: A M A 2
;
_chemical_formula_sum "Si O2"
_cell_formula_units_Z 64
_cell_length_a 8.650287
_cell_length_b 30.830282
_cell_length_c 14.990633
_cell_angle_alpha 90.000000
_cell_angle_beta 90.000000
_cell_angle_gamma 90.000000
_cell_volume 3997.863721
_symmetry_space_group_name_H-M "A M A 2"
_symmetry_group_IT_number 40
_symmetry_cell_setting 'orthorhombic'
loop_
_space_group_symop_operation_xyz
x,y,z
-x,-y,z
1/2-x,y,z
1/2+x,-y,z
x,1/2+y,1/2+z
-x,1/2-y,1/2+z
1/2-x,1/2+y,1/2+z
1/2+x,1/2-y,1/2+z
loop_
_atom_site_type_symbol
_atom_site_label
_atom_site_fract_x
_atom_site_fract_y
_atom_site_fract_z
Si Si1 0.069462 0.630493 0.914140
Si Si2 0.432289 0.722711 0.592484
Si Si3 0.438301 0.710837 0.792687
Si Si4 0.563708 0.295590 0.396758
Si Si5 0.934479 0.452617 0.187738
Si Si6 0.067533 0.369379 0.273043
Si Si7 0.427386 0.826066 0.580303
Si Si8 0.566686 0.546979 0.989512
O O1 0.250000 0.621760 0.900109
O O2 0.017160 0.666346 0.842392
O O3 0.981061 0.585095 0.922392
O O4 0.042112 0.653653 0.009242
O O5 0.250000 0.711384 0.595062
O O6 0.494319 0.710626 0.690075
O O7 0.494285 0.704174 0.499372
O O8 0.443446 0.774566 0.583555
O O9 0.250000 0.713971 0.793597
O O10 0.500527 0.752957 0.845308
O O11 0.750000 0.292662 0.396990
O O12 0.510051 0.338715 0.346126
O O13 0.750000 0.453683 0.183673
O O14 0.000000 0.500000 0.210864
O O15 0.991940 0.416030 0.255808
O O16 0.998614 0.442582 0.088089
O O17 0.250000 0.373801 0.290666
O O18 0.049713 0.344535 0.178654
O O19 0.250000 0.836657 0.552648
O O20 0.500000 0.500000 0.964045
O O21 0.750000 0.544270 0.997946
#
# Coordination Sequence:
#
# PCOD9362540 Si02
#       8
#     8   8   8   8   8   8   8   8
#     4  11  21  31  49  75 102 133 173 213 253 303
#     4   9  18  34  50  67  97 136 173 211 255 299
#     4  10  20  35  51  70  99 136 174 212 256 305
#     4  11  21  32  50  74  99 132 175 217 254 300
#     4  11  21  34  52  76 104 133 170 208 250 302
#     4  11  21  34  51  72 102 140 173 206 255 305
#     4  10  18  30  49  68  98 138 172 205 249 300
#     4  11  21  34  51  72 103 136 168 206 253 304
#
# _framework density 16.00855
#
# number of rings (size 3 to 8) (size 9 to 14) (size 15 to 20)
#    0.000    1.500    3.750    4.125    0.000    1.000 
#    0.000    1.250    0.000    0.000    0.000    0.875 
#    0.000    4.000    0.000    0.000    0.000    0.000 
#
# Total GULP energy -178582.471514 kJ/mol
# GULP energy per Si atom -5580.702235 kJ/mol
# Density = 1.597211 g / cm^3
# Si number density = 16.008550 Si / 1000 Ang^3
#
#
#
# Elastic Constant Matrix: (Units=GPa)
#
#
# Indices 1 2 3 4 5 6 
#
# 1 66.1044 36.1316 35.5913 0.0000 0.0000 0.0000
# 2 36.1316 103.7518 63.1424 0.0000 0.0000 0.0000
# 3 35.5913 63.1424 94.1389 0.0000 0.0000 0.0000
# 4 0.0000 0.0000 0.0000 24.3229 0.0000 0.0000
# 5 0.0000 0.0000 0.0000 0.0000 15.8341 0.0000
# 6 0.0000 0.0000 0.0000 0.0000 0.0000 25.1307
#
#
#
# Elastic Compliance Matrix: (Units=1/GPa)
#
#
# Indices 1 2 3 4 5 6 
#
# 1 0.019920 -0.003977 -0.004864 0.000000 0.000000 0.000000
# 2 -0.003977 0.017081 -0.009953 0.000000 0.000000 0.000000
# 3 -0.004864 -0.009953 0.019137 0.000000 0.000000 0.000000
# 4 0.000000 0.000000 0.000000 0.041114 0.000000 0.000000
# 5 0.000000 0.000000 0.000000 0.000000 0.063155 0.000000
# 6 0.000000 0.000000 0.000000 0.000000 0.000000 0.039792
#
#
# Mechanical properties :
#
#
# Convention : Reuss Voigt Hill
#
# Bulk Modulus (GPa) = 53.90706 59.30287 56.60496
# Shear Modulus (GPa) = 20.49438 21.66620 21.08029
#
# Velocity S-wave (km/s) = 3.58189 3.68287 3.63273
# Velocity P-wave (km/s) = 7.13117 7.43032 7.28228
#
# Compressibility (1/GPa) = 0.01855045
#
# Stress axis : x y z
#
# Youngs Moduli (GPa) = 50.20063 58.54530 52.25417
#
# Poissons Ratio (x) = 0.23285 0.25414
# Poissons Ratio (y) = 0.19966 0.52009
# Poissons Ratio (z) = 0.24415 0.58270
#
# Static dielectric constant tensor:
#      x y z
#    x 1.549280 0.000000 0.000000 
#    y 0.000000 1.535080 0.000000 
#    z 0.000000 0.000000 1.533950 
# 
# From -- ./inp_files/15915.got.cif
#   From: 2010.05.17/outbox.cif.g08.bks.cpg/sg40_8_cif.got.tgz:15915.got - 2010.06.03 18:35:42.
