data_PCOD9362498
_publ_section_title
;
Structure prediction by ZEFSAII (Michael W. Deem and Ramdas Pophale) SiO2 
 PCOD9362498
Probable space group: A M A 2
;
_chemical_formula_sum "Si O2"
_cell_formula_units_Z 64
_cell_length_a 8.259989
_cell_length_b 21.729457
_cell_length_c 16.258693
_cell_angle_alpha 90.000000
_cell_angle_beta 90.000000
_cell_angle_gamma 90.000000
_cell_volume 2918.192745
_symmetry_space_group_name_H-M "A M A 2"
_symmetry_group_IT_number 40
_symmetry_cell_setting 'orthorhombic'
loop_
_space_group_symop_operation_xyz
x,y,z
-x,-y,z
1/2-x,y,z
1/2+x,-y,z
x,1/2+y,1/2+z
-x,1/2-y,1/2+z
1/2-x,1/2+y,1/2+z
1/2+x,1/2-y,1/2+z
loop_
_atom_site_type_symbol
_atom_site_label
_atom_site_fract_x
_atom_site_fract_y
_atom_site_fract_z
Si Si1 0.439683 0.433352 0.020970
Si Si2 0.558572 0.686740 0.249418
Si Si3 0.563046 0.749979 0.409524
Si Si4 0.555125 0.429000 0.503701
Si Si5 0.444328 0.070222 0.822549
Si Si6 0.558147 0.298976 0.074393
Si Si7 0.445308 0.571250 0.681588
Si Si8 0.438863 0.875866 0.351784
O O1 0.500000 0.500000 0.049612
O O2 0.250000 0.429770 0.037804
O O3 0.514105 0.370560 0.057300
O O4 0.464880 0.427256 0.922052
O O5 0.750000 0.696025 0.250808
O O6 0.484635 0.713556 0.333859
O O7 0.518026 0.614636 0.254404
O O8 0.495414 0.716455 0.166100
O O9 0.750000 0.729602 0.417519
O O10 0.488497 0.756073 0.500834
O O11 0.553470 0.819889 0.377118
O O12 0.500000 0.500000 0.505505
O O13 0.750000 0.426844 0.502578
O O14 0.498808 0.406950 0.414041
O O15 0.502784 0.402317 0.591856
O O16 0.250000 0.072749 0.819081
O O17 0.500000 0.000000 0.813427
O O18 0.750000 0.294056 0.069050
O O19 0.500000 0.500000 0.683457
O O20 0.250000 0.574211 0.687247
O O21 0.522518 0.603081 0.760257
O O22 0.250000 0.856978 0.358437
#
# Coordination Sequence:
#
# PCOD9362498 Si02
#       8
#     8   8   8   8   8   8   8   8
#     4  10  20  34  54  83 118 155 195 239 293 352
#     4  11  23  41  64  91 120 154 193 239 294 351
#     4   9  21  42  63  82 114 154 193 240 295 345
#     4   8  16  30  48  71 104 144 185 229 279 332
#     4  10  20  37  60  87 118 153 192 238 290 348
#     4  10  21  40  64  88 117 154 196 244 292 344
#     4  10  18  29  47  73 110 151 195 242 293 348
#     4  10  20  33  52  79 111 149 196 245 294 346
#
# _framework density 21.931383
#
# number of rings (size 3 to 8) (size 9 to 14) (size 15 to 20)
#    0.000    2.250    0.000    2.625    0.000    5.500 
#    2.250    2.500    0.000    0.000    0.000    0.000 
#    0.000    0.000    0.000    0.000    0.000    0.000 
#
# Total GULP energy -178515.924216 kJ/mol
# GULP energy per Si atom -5578.622632 kJ/mol
# Density = 2.188147 g / cm^3
# Si number density = 21.931383 Si / 1000 Ang^3
#
#
#
# Elastic Constant Matrix: (Units=GPa)
#
#
# Indices 1 2 3 4 5 6 
#
# 1 37.5930 -2.0145 14.6264 0.0000 0.0000 0.0000
# 2 -2.0145 25.7967 25.0743 0.0000 0.0000 0.0000
# 3 14.6264 25.0743 152.5690 0.0000 0.0000 0.0000
# 4 0.0000 0.0000 0.0000 20.1581 0.0000 0.0000
# 5 0.0000 0.0000 0.0000 0.0000 26.3656 0.0000
# 6 0.0000 0.0000 0.0000 0.0000 0.0000 11.0950
#
#
#
# Elastic Compliance Matrix: (Units=1/GPa)
#
#
# Indices 1 2 3 4 5 6 
#
# 1 0.028337 0.005776 -0.003666 0.000000 0.000000 0.000000
# 2 0.005776 0.047312 -0.008329 0.000000 0.000000 0.000000
# 3 -0.003666 -0.008329 0.008275 0.000000 0.000000 0.000000
# 4 0.000000 0.000000 0.000000 0.049608 0.000000 0.000000
# 5 0.000000 0.000000 0.000000 0.000000 0.037928 0.000000
# 6 0.000000 0.000000 0.000000 0.000000 0.000000 0.090130
#
#
# Mechanical properties :
#
#
# Convention : Reuss Voigt Hill
#
# Bulk Modulus (GPa) = 13.98899 32.37013 23.17956
# Shear Modulus (GPa) = 16.78664 23.40858 20.09761
#
# Velocity S-wave (km/s) = 2.76962 3.27058 3.03047
# Velocity P-wave (km/s) = 4.07677 5.39018 4.77882
#
# Compressibility (1/GPa) = 0.07148478
#
# Stress axis : x y z
#
# Youngs Moduli (GPa) = 35.29016 21.13640 120.84956
#
# Poissons Ratio (x) = -0.12208 0.44301
# Poissons Ratio (y) = -0.20384 1.00659
# Poissons Ratio (z) = 0.12937 0.17605
#
# Static dielectric constant tensor:
#      x y z
#    x 1.764540 0.000000 0.000000 
#    y 0.000000 1.855080 0.000000 
#    z 0.000000 0.000000 1.869760 
# 
# From -- ./inp_files/15642.got.cif
#   From: 2010.05.17/outbox.cif.g08.bks.cpg/sg40_8_cif.got.tgz:15642.got - 2010.06.03 18:35:42.
