data_PCOD9362318
_publ_section_title
;
Structure prediction by ZEFSAII (Michael W. Deem and Ramdas Pophale) SiO2 
 PCOD9362318
Probable space group: A M A 2
;
_chemical_formula_sum "Si O2"
_cell_formula_units_Z 56
_cell_length_a 18.540993
_cell_length_b 5.528920
_cell_length_c 25.420998
_cell_angle_alpha 90.000000
_cell_angle_beta 90.000000
_cell_angle_gamma 90.000000
_cell_volume 2605.948882
_symmetry_space_group_name_H-M "A M A 2"
_symmetry_group_IT_number 40
_symmetry_cell_setting 'orthorhombic'
loop_
_space_group_symop_operation_xyz
x,y,z
-x,-y,z
1/2-x,y,z
1/2+x,-y,z
x,1/2+y,1/2+z
-x,1/2-y,1/2+z
1/2-x,1/2+y,1/2+z
1/2+x,1/2-y,1/2+z
loop_
_atom_site_type_symbol
_atom_site_label
_atom_site_fract_x
_atom_site_fract_y
_atom_site_fract_z
Si Si1 0.893664 0.614634 0.416240
Si Si2 0.250000 0.858155 0.988744
Si Si3 0.336350 0.943240 0.799857
Si Si4 0.093259 0.386147 0.954020
Si Si5 0.416698 0.491030 0.077546
Si Si6 0.750000 0.141777 0.484925
Si Si7 0.163298 0.941605 0.238202
Si Si8 0.087982 0.990858 0.126487
O O1 0.820845 0.639005 0.451946
O O2 0.874212 0.567390 0.356157
O O3 0.932708 0.377437 0.438326
O O4 0.929884 0.875911 0.423207
O O5 0.250000 0.603549 0.018083
O O6 0.250000 0.112989 0.017763
O O7 0.250000 0.946720 0.808319
O O8 0.354655 0.193632 0.769715
O O9 0.352652 0.693131 0.768908
O O10 0.083073 0.439454 0.015506
O O11 0.180206 0.362522 0.948151
O O12 0.500000 0.500000 0.094999
O O13 0.388731 0.759316 0.091097
O O14 0.385265 0.251600 0.105130
O O15 0.250000 0.937194 0.228745
O O16 0.119465 0.946504 0.184099
O O17 0.000000 0.000000 0.126530
#
# Coordination Sequence:
#
# PCOD9362318 Si02
#       8
#     8   4   8   8   8   4   8   8
#     4  10  17  29  49  74 109 142 173 213 252 314
#     4   8  14  24  40  62  93 132 169 196 232 288
#     4  10  19  32  54  80 112 149 181 217 272 332
#     4  10  19  31  49  76 108 137 176 218 257 306
#     4  10  21  38  59  79 102 143 192 224 268 332
#     4   8  16  26  40  66  97 128 159 200 250 292
#     4  10  21  36  56  84 112 139 179 234 285 322
#     4  10  21  40  62  80 104 143 187 230 277 336
#
# _framework density 21.489294999999998
#
# number of rings (size 3 to 8) (size 9 to 14) (size 15 to 20)
#    0.000    2.286    0.714    2.571    0.000    0.000 
#    2.571    0.000    0.000    5.143    0.000    0.000 
#    0.000    0.000    0.000    0.000    0.000    0.000 
#
# Total GULP energy -156179.854020 kJ/mol
# GULP energy per Si atom -5577.851929 kJ/mol
# Density = 2.144038 g / cm^3
# Si number density = 21.489295 Si / 1000 Ang^3
#
#
#
# Elastic Constant Matrix: (Units=GPa)
#
#
# Indices 1 2 3 4 5 6 
#
# 1 50.6366 37.2228 2.5566 0.0000 0.0000 0.0000
# 2 37.2228 279.1828 87.4846 0.0000 0.0000 0.0000
# 3 2.5566 87.4846 119.4473 0.0000 0.0000 0.0000
# 4 0.0000 0.0000 0.0000 40.2848 0.0000 0.0000
# 5 0.0000 0.0000 0.0000 0.0000 64.8193 0.0000
# 6 0.0000 0.0000 0.0000 0.0000 0.0000 20.7267
#
#
#
# Elastic Compliance Matrix: (Units=1/GPa)
#
#
# Indices 1 2 3 4 5 6 
#
# 1 0.022335 -0.003671 0.002210 0.000000 0.000000 0.000000
# 2 -0.003671 0.005252 -0.003768 0.000000 0.000000 0.000000
# 3 0.002210 -0.003768 0.011084 0.000000 0.000000 0.000000
# 4 0.000000 0.000000 0.000000 0.024823 0.000000 0.000000
# 5 0.000000 0.000000 0.000000 0.000000 0.015428 0.000000
# 6 0.000000 0.000000 0.000000 0.000000 0.000000 0.048247
#
#
# Mechanical properties :
#
#
# Convention : Reuss Voigt Hill
#
# Bulk Modulus (GPa) = 35.44226 78.19941 56.82083
# Shear Modulus (GPa) = 34.00646 46.63300 40.31973
#
# Velocity S-wave (km/s) = 3.98236 4.66344 4.33629
# Velocity P-wave (km/s) = 6.13795 8.09110 7.18123
#
# Compressibility (1/GPa) = 0.02821491
#
# Stress axis : x y z
#
# Youngs Moduli (GPa) = 44.77252 190.40256 90.21704
#
# Poissons Ratio (x) = 0.69887 -0.19940
# Poissons Ratio (y) = 0.16434 0.33995
# Poissons Ratio (z) = -0.09896 0.71745
#
# Static dielectric constant tensor:
#      x y z
#    x 1.841850 0.000000 0.000000 
#    y 0.000000 1.864330 0.000000 
#    z 0.000000 0.000000 1.698990 
# 
# From -- ./inp_files/23640.got.cif
#   From: 2010.05.17/outbox.cif.g08.bks.cpg/sg40_12_cif.got.tgz:23640.got - 2010.06.03 18:35:42.
