data_PCOD9362908
_publ_section_title
;
Structure prediction by ZEFSAII (Michael W. Deem and Ramdas Pophale) SiO2 
 PCOD9362908
Probable space group: A M A 2
;
_chemical_formula_sum "Si O2"
_cell_formula_units_Z 48
_cell_length_a 17.074780
_cell_length_b 9.401379
_cell_length_c 12.652027
_cell_angle_alpha 90.000000
_cell_angle_beta 90.000000
_cell_angle_gamma 90.000000
_cell_volume 2030.985335
_symmetry_space_group_name_H-M "A M A 2"
_symmetry_group_IT_number 40
_symmetry_cell_setting 'orthorhombic'
loop_
_space_group_symop_operation_xyz
x,y,z
-x,-y,z
1/2-x,y,z
1/2+x,-y,z
x,1/2+y,1/2+z
-x,1/2-y,1/2+z
1/2-x,1/2+y,1/2+z
1/2+x,1/2-y,1/2+z
loop_
_atom_site_type_symbol
_atom_site_label
_atom_site_fract_x
_atom_site_fract_y
_atom_site_fract_z
Si Si1 0.583749 0.760408 0.077520
Si Si2 0.416907 0.260562 0.574990
Si Si3 0.750000 0.028092 0.902533
Si Si4 0.750000 0.821439 0.533387
Si Si5 0.083467 0.508387 0.750084
Si Si6 0.750000 0.546168 0.854537
Si Si7 0.250000 0.250730 0.013448
Si Si8 0.917014 0.008042 0.895938
O O1 0.500518 0.681074 0.074792
O O2 0.669144 0.694890 0.062319
O O3 0.587077 0.843979 0.187690
O O4 0.580024 0.878977 0.982271
O O5 0.333506 0.187033 0.591614
O O6 0.423196 0.383580 0.663168
O O7 0.414760 0.346550 0.463973
O O8 0.831951 0.002835 0.843023
O O9 0.750000 0.184681 0.953907
O O10 0.750000 0.922013 0.006360
O O11 0.750000 0.958518 0.461830
O O12 0.167471 0.488386 0.802121
O O13 0.000000 0.500000 0.811745
O O14 0.750000 0.709037 0.889939
O O15 0.000000 0.000000 0.836285
#
# Coordination Sequence:
#
# PCOD9362908 Si02
#       8
#     8   8   4   4   8   4   4   8
#     4   8  14  28  51  71  88 125 182 223 240 284
#     4   8  14  28  51  71  88 125 182 223 240 284
#     4   8  14  27  44  59  84 128 172 196 224 291
#     4  10  19  30  48  76 107 136 169 216 268 314
#     4   9  18  34  56  78 102 140 187 223 254 311
#     4  12  24  31  44  83 128 142 148 210 302 339
#     4  10  19  30  48  76 107 136 169 216 268 314
#     4   7  10  18  38  68  85  94 140 213 249 251
#
# _framework density 23.633848
#
# number of rings (size 3 to 8) (size 9 to 14) (size 15 to 20)
#    0.000    3.333    0.000    4.000    0.000    2.667 
#    0.000    0.000    0.000    4.000    0.000    2.333 
#    0.000    0.000    0.000    0.000    0.000    0.000 
#
# Total GULP energy -133614.256056 kJ/mol
# GULP energy per Si atom -5567.260669 kJ/mol
# Density = 2.358006 g / cm^3
# Si number density = 23.633848 Si / 1000 Ang^3
#
#
#
# Elastic Constant Matrix: (Units=GPa)
#
#
# Indices 1 2 3 4 5 6 
#
# 1 358.8965 21.4898 35.5518 0.0000 0.0000 0.0000
# 2 21.4898 37.9158 7.9397 0.0000 0.0000 0.0000
# 3 35.5518 7.9397 16.1660 0.0000 0.0000 0.0000
# 4 0.0000 0.0000 0.0000 19.9141 0.0000 0.0000
# 5 0.0000 0.0000 0.0000 0.0000 -102.9594 0.0000
# 6 0.0000 0.0000 0.0000 0.0000 0.0000 -14.4156
#
#
#
# Elastic Compliance Matrix: (Units=1/GPa)
#
#
# Indices 1 2 3 4 5 6 
#
# 1 0.003568 -0.000423 -0.007640 0.000000 0.000000 0.000000
# 2 -0.000423 0.029448 -0.013533 0.000000 0.000000 0.000000
# 3 -0.007640 -0.013533 0.085306 0.000000 0.000000 0.000000
# 4 0.000000 0.000000 0.000000 0.050216 0.000000 0.000000
# 5 0.000000 0.000000 0.000000 0.000000 -0.009713 0.000000
# 6 0.000000 0.000000 0.000000 0.000000 0.000000 -0.069369
#
#
# Mechanical properties :
#
#
# Convention : Reuss Voigt Hill
#
# Bulk Modulus (GPa) = 13.31014 60.32674 36.81844
# Shear Modulus (GPa) = 31.70748 3.70761 17.70755
#
# Velocity S-wave (km/s) = 3.66678 1.25387 2.74020
# Velocity P-wave (km/s) = 4.85500 5.26091 5.06203
#
# Compressibility (1/GPa) = 0.07513068
#
# Stress axis : x y z
#
# Youngs Moduli (GPa) = 280.23506 33.95851 11.72248
#
# Poissons Ratio (x) = 0.01435 0.08956
# Poissons Ratio (y) = 0.11845 0.15864
# Poissons Ratio (z) = 2.14099 0.45957
#
# Static dielectric constant tensor:
#      x y z
#    x 2.062620 0.000000 0.000000 
#    y 0.000000 1.838700 0.000000 
#    z 0.000000 0.000000 1.858330 
# 
# From -- ./inp_files/17737.got.cif
#   From: 2010.05.17/outbox.cif.g08.bks.cpg/sg40_9_cif.got.tgz:17737.got - 2010.06.03 18:35:42.
