data_PCOD9362681
_publ_section_title
;
Structure prediction by ZEFSAII (Michael W. Deem and Ramdas Pophale) SiO2 
 PCOD9362681
Probable space group: A M A 2
;
_chemical_formula_sum "Si O2"
_cell_formula_units_Z 40
_cell_length_a 22.308093
_cell_length_b 4.950497
_cell_length_c 14.229689
_cell_angle_alpha 90.000000
_cell_angle_beta 90.000000
_cell_angle_gamma 90.000000
_cell_volume 1571.472033
_symmetry_space_group_name_H-M "A M A 2"
_symmetry_group_IT_number 40
_symmetry_cell_setting 'orthorhombic'
loop_
_space_group_symop_operation_xyz
x,y,z
-x,-y,z
1/2-x,y,z
1/2+x,-y,z
x,1/2+y,1/2+z
-x,1/2-y,1/2+z
1/2-x,1/2+y,1/2+z
1/2+x,1/2-y,1/2+z
loop_
_atom_site_type_symbol
_atom_site_label
_atom_site_fract_x
_atom_site_fract_y
_atom_site_fract_z
Si Si1 0.449719 0.721849 0.620540
Si Si2 0.750000 0.640619 0.311243
Si Si3 0.049447 0.273366 0.894061
Si Si4 0.620796 0.249355 0.893780
Si Si5 0.877628 0.758785 0.619210
Si Si6 0.750000 0.667050 0.697608
O O1 0.500000 0.500000 0.649874
O O2 0.457971 0.748851 0.507495
O O3 0.392184 0.546975 0.647232
O O4 0.429172 0.024037 0.651055
O O5 0.687310 0.685951 0.363046
O O6 0.750000 0.320440 0.295546
O O7 0.750000 0.848666 0.221538
O O8 0.107226 0.445169 0.864606
O O9 0.000000 0.500000 0.865911
O O10 0.931702 0.031649 0.864704
O O11 0.617833 0.257524 0.006650
O O12 0.809276 0.789272 0.648492
#
# Coordination Sequence:
#
# PCOD9362681 Si02
#       6
#     8   4   8   8   8   4
#     4  10  18  32  58  93 123 148 188 246 304 356
#     4  12  25  42  61  84 122 166 208 254 303 358
#     4  10  18  32  58  93 123 148 188 246 304 356
#     4  10  21  37  61  90 120 155 198 246 297 358
#     4  10  21  37  61  90 120 155 198 246 297 358
#     4  12  25  42  61  84 122 166 208 254 303 358
#
# _framework density 25.453842999999999
#
# number of rings (size 3 to 8) (size 9 to 14) (size 15 to 20)
#    0.000    1.600    0.000    7.800    0.000    0.000 
#    0.000    8.000    0.000   18.000    0.000    0.000 
#    0.000    0.000    0.000    0.000    0.000    0.000 
#
# Total GULP energy -111381.451425 kJ/mol
# GULP energy per Si atom -5569.072571 kJ/mol
# Density = 2.539591 g / cm^3
# Si number density = 25.453843 Si / 1000 Ang^3
#
#
#
# Elastic Constant Matrix: (Units=GPa)
#
#
# Indices 1 2 3 4 5 6 
#
# 1 130.9724 49.4487 1.3991 0.0000 0.0000 0.0000
# 2 49.4487 206.4459 -0.6017 0.0000 0.0000 0.0000
# 3 1.3991 -0.6017 82.6311 0.0000 0.0000 0.0000
# 4 0.0000 0.0000 0.0000 9.1077 0.0000 0.0000
# 5 0.0000 0.0000 0.0000 0.0000 365.3363 0.0000
# 6 0.0000 0.0000 0.0000 0.0000 0.0000 45.3249
#
#
#
# Elastic Compliance Matrix: (Units=1/GPa)
#
#
# Indices 1 2 3 4 5 6 
#
# 1 0.008396 -0.002012 -0.000157 0.000000 0.000000 0.000000
# 2 -0.002012 0.005326 0.000073 0.000000 0.000000 0.000000
# 3 -0.000157 0.000073 0.012105 0.000000 0.000000 0.000000
# 4 0.000000 0.000000 0.000000 0.109797 0.000000 0.000000
# 5 0.000000 0.000000 0.000000 0.000000 0.002737 0.000000
# 6 0.000000 0.000000 0.000000 0.000000 0.000000 0.022063
#
#
# Mechanical properties :
#
#
# Convention : Reuss Voigt Hill
#
# Bulk Modulus (GPa) = 46.21855 57.83794 52.02824
# Shear Modulus (GPa) = 29.09888 108.60734 68.85311
#
# Velocity S-wave (km/s) = 3.38479 6.53919 5.20662
# Velocity P-wave (km/s) = 5.78558 8.93234 7.52528
#
# Compressibility (1/GPa) = 0.02163633
#
# Stress axis : x y z
#
# Youngs Moduli (GPa) = 119.09938 187.76099 82.60933
#
# Poissons Ratio (x) = 0.37770 0.01295
# Poissons Ratio (y) = 0.23958 -0.00602
# Poissons Ratio (z) = 0.01868 -0.01368
#
# Static dielectric constant tensor:
#      x y z
#    x 1.959130 0.000000 0.000000 
#    y 0.000000 1.994710 0.000000 
#    z 0.000000 0.000000 2.039270 
# 
# From -- ./inp_files/21290.got.cif
#   From: 2010.05.17/outbox.cif.g08.bks.cpg/sg40_11_cif.got.tgz:21290.got - 2010.06.03 18:35:42.
