data_PCOD9362654
_publ_section_title
;
Structure prediction by ZEFSAII (Michael W. Deem and Ramdas Pophale) SiO2 
 PCOD9362654
Probable space group: A M A 2
;
_chemical_formula_sum "Si O2"
_cell_formula_units_Z 64
_cell_length_a 21.399771
_cell_length_b 22.565630
_cell_length_c 7.698776
_cell_angle_alpha 90.000000
_cell_angle_beta 90.000000
_cell_angle_gamma 90.000000
_cell_volume 3717.733653
_symmetry_space_group_name_H-M "A M A 2"
_symmetry_group_IT_number 40
_symmetry_cell_setting 'orthorhombic'
loop_
_space_group_symop_operation_xyz
x,y,z
-x,-y,z
1/2-x,y,z
1/2+x,-y,z
x,1/2+y,1/2+z
-x,1/2-y,1/2+z
1/2-x,1/2+y,1/2+z
1/2+x,1/2-y,1/2+z
loop_
_atom_site_type_symbol
_atom_site_label
_atom_site_fract_x
_atom_site_fract_y
_atom_site_fract_z
Si Si1 0.144005 0.054300 0.589200
Si Si2 0.065408 0.709088 0.400449
Si Si3 0.940321 0.043656 0.715390
Si Si4 0.679338 0.876504 0.933368
Si Si5 0.944689 0.049144 0.127567
Si Si6 0.820959 0.478723 0.714199
Si Si7 0.023836 0.634763 0.073421
Si Si8 0.516406 0.681550 0.735450
O O1 0.174711 0.090614 0.746563
O O2 0.179344 0.046541 0.409466
O O3 0.080174 0.089208 0.549223
O O4 0.121521 0.990417 0.658241
O O5 0.130700 0.677139 0.440627
O O6 0.033809 0.667705 0.254538
O O7 0.068698 0.772674 0.305119
O O8 0.022516 0.706671 0.572638
O O9 0.958931 0.099463 0.597974
O O10 0.937992 0.056124 0.919789
O O11 0.000000 0.000000 0.696355
O O12 0.750000 0.856619 0.962515
O O13 0.663790 0.926133 0.077899
O O14 0.962641 0.114293 0.195741
O O15 0.878760 0.024430 0.199217
O O16 0.000000 0.000000 0.162016
O O17 0.750000 0.500286 0.673553
O O18 0.025937 0.676228 0.907181
#
# Coordination Sequence:
#
# PCOD9362654 Si02
#       8
#     8   8   8   8   8   8   8   8
#     4  10  18  32  54  80 114 150 185 229 283 341
#     4  11  22  36  54  84 111 148 191 238 287 334
#     4   9  17  30  52  83 115 146 183 230 286 340
#     4  10  21  37  56  79 112 150 190 237 281 333
#     4  11  20  35  59  86 116 153 188 237 293 343
#     4  11  22  36  56  88 117 150 192 234 291 350
#     4  10  19  32  52  81 112 145 188 235 286 338
#     4  12  22  36  58  83 117 148 188 236 289 337
#
# _framework density 17.214790000000001
#
# number of rings (size 3 to 8) (size 9 to 14) (size 15 to 20)
#    0.000    1.500    3.750    3.375    0.000    1.000 
#    0.000    0.625    0.000    0.000    0.000    1.750 
#    0.000    0.000    0.000    0.000    0.000    0.000 
#
# Total GULP energy -178327.793475 kJ/mol
# GULP energy per Si atom -5572.743546 kJ/mol
# Density = 1.717561 g / cm^3
# Si number density = 17.214790 Si / 1000 Ang^3
#
#
#
# Elastic Constant Matrix: (Units=GPa)
#
#
# Indices 1 2 3 4 5 6 
#
# 1 75.0538 44.4529 23.2266 0.0000 0.0000 0.0000
# 2 44.4529 83.7665 23.0437 0.0000 0.0000 0.0000
# 3 23.2266 23.0437 98.7629 0.0000 0.0000 0.0000
# 4 0.0000 0.0000 0.0000 26.2999 0.0000 0.0000
# 5 0.0000 0.0000 0.0000 0.0000 4.4186 0.0000
# 6 0.0000 0.0000 0.0000 0.0000 0.0000 14.0921
#
#
#
# Elastic Compliance Matrix: (Units=1/GPa)
#
#
# Indices 1 2 3 4 5 6 
#
# 1 0.019938 -0.009928 -0.002373 0.000000 0.000000 0.000000
# 2 -0.009928 0.017700 -0.001795 0.000000 0.000000 0.000000
# 3 -0.002373 -0.001795 0.011102 0.000000 0.000000 0.000000
# 4 0.000000 0.000000 0.000000 0.038023 0.000000 0.000000
# 5 0.000000 0.000000 0.000000 0.000000 0.226314 0.000000
# 6 0.000000 0.000000 0.000000 0.000000 0.000000 0.070962
#
#
# Mechanical properties :
#
#
# Convention : Reuss Voigt Hill
#
# Bulk Modulus (GPa) = 48.66353 48.78110 48.72231
# Shear Modulus (GPa) = 11.93088 20.08612 16.00850
#
# Velocity S-wave (km/s) = 2.63546 3.41954 3.05278
# Velocity P-wave (km/s) = 6.13112 6.63244 6.38670
#
# Compressibility (1/GPa) = 0.02054927
#
# Stress axis : x y z
#
# Youngs Moduli (GPa) = 50.15500 56.49606 90.07349
#
# Poissons Ratio (x) = 0.56090 0.21370
# Poissons Ratio (y) = 0.49794 0.16169
# Poissons Ratio (z) = 0.11899 0.10141
#
# Static dielectric constant tensor:
#      x y z
#    x 1.592300 0.000000 0.000000 
#    y 0.000000 1.625220 0.000000 
#    z 0.000000 0.000000 1.604970 
# 
# From -- ./inp_files/8538.got.cif
#   From: 2010.05.17/outbox.cif.g08.bks.cpg/sg40_5_cif.got.tgz:8538.got - 2010.06.03 18:35:42.
