data_PCOD9362416
_publ_section_title
;
Structure prediction by ZEFSAII (Michael W. Deem and Ramdas Pophale) SiO2 
 PCOD9362416
Probable space group: A M A 2
;
_chemical_formula_sum "Si O2"
_cell_formula_units_Z 64
_cell_length_a 8.167752
_cell_length_b 19.115344
_cell_length_c 27.397895
_cell_angle_alpha 90.000000
_cell_angle_beta 90.000000
_cell_angle_gamma 90.000000
_cell_volume 4277.616611
_symmetry_space_group_name_H-M "A M A 2"
_symmetry_group_IT_number 40
_symmetry_cell_setting 'orthorhombic'
loop_
_space_group_symop_operation_xyz
x,y,z
-x,-y,z
1/2-x,y,z
1/2+x,-y,z
x,1/2+y,1/2+z
-x,1/2-y,1/2+z
1/2-x,1/2+y,1/2+z
1/2+x,1/2-y,1/2+z
loop_
_atom_site_type_symbol
_atom_site_label
_atom_site_fract_x
_atom_site_fract_y
_atom_site_fract_z
Si Si1 0.447641 0.078749 0.844610
Si Si2 0.554166 0.920169 0.035443
Si Si3 0.440098 0.295768 0.989412
Si Si4 0.447904 0.420267 0.049467
Si Si5 0.553959 0.421009 0.233752
Si Si6 0.549357 0.336989 0.437810
Si Si7 0.445115 0.331168 0.143562
Si Si8 0.940219 0.213218 0.081578
O O1 0.750000 0.918967 0.844145
O O2 0.504809 0.092860 0.789254
O O3 0.505556 0.131352 0.886523
O O4 0.500000 0.000000 0.857390
O O5 0.750000 0.916628 0.037397
O O6 0.482925 0.868216 0.076607
O O7 0.500000 0.000000 0.039776
O O8 0.501242 0.887370 0.982976
O O9 0.250000 0.306678 0.976800
O O10 0.510369 0.370698 0.005275
O O11 0.452206 0.251332 0.039774
O O12 0.510190 0.241594 0.949978
O O13 0.500000 0.500000 0.046255
O O14 0.250000 0.417387 0.048979
O O15 0.501854 0.384265 0.100356
O O16 0.500000 0.500000 0.220554
O O17 0.750000 0.419437 0.233566
O O18 0.491027 0.365505 0.194723
O O19 0.750000 0.335408 0.437918
O O20 0.250000 0.325012 0.140330
O O21 0.520933 0.255719 0.130673
O O22 0.750000 0.223093 0.069401
#
# Coordination Sequence:
#
# PCOD9362416 Si02
#       8
#     8   8   8   8   8   8   8   8
#     4   9  17  28  41  58  80 106 136 171 206 239
#     4  10  18  28  42  61  85 112 142 172 203 240
#     4   8  15  28  41  55  78 107 137 167 201 241
#     4   9  17  26  38  56  77 102 131 163 196 235
#     4  10  19  29  41  59  82 107 137 172 208 244
#     4   8  14  26  43  58  77 108 141 171 203 240
#     4  10  19  31  44  57  77 107 140 170 204 244
#     4  10  18  28  42  60  81 105 134 168 206 245
#
# _framework density 14.961601999999999
#
# number of rings (size 3 to 8) (size 9 to 14) (size 15 to 20)
#    0.000    2.750    0.000    4.500    0.000    4.000 
#    0.000    2.500    0.000    0.000    0.000    0.000 
#    0.000    1.000    0.000    6.500    0.000    2.125 
#
# Total GULP energy -178187.240391 kJ/mol
# GULP energy per Si atom -5568.351262 kJ/mol
# Density = 1.492755 g / cm^3
# Si number density = 14.961602 Si / 1000 Ang^3
#
#
#
# Elastic Constant Matrix: (Units=GPa)
#
#
# Indices 1 2 3 4 5 6 
#
# 1 26.0061 11.7185 9.8822 0.0000 0.0000 0.0000
# 2 11.7185 110.4212 52.4762 0.0000 0.0000 0.0000
# 3 9.8822 52.4762 76.5348 0.0000 0.0000 0.0000
# 4 0.0000 0.0000 0.0000 29.1633 0.0000 0.0000
# 5 0.0000 0.0000 0.0000 0.0000 22.1598 0.0000
# 6 0.0000 0.0000 0.0000 0.0000 0.0000 21.2699
#
#
#
# Elastic Compliance Matrix: (Units=1/GPa)
#
#
# Indices 1 2 3 4 5 6 
#
# 1 0.040980 -0.002721 -0.003426 0.000000 0.000000 0.000000
# 2 -0.002721 0.013614 -0.008983 0.000000 0.000000 0.000000
# 3 -0.003426 -0.008983 0.019668 0.000000 0.000000 0.000000
# 4 0.000000 0.000000 0.000000 0.034290 0.000000 0.000000
# 5 0.000000 0.000000 0.000000 0.000000 0.045127 0.000000
# 6 0.000000 0.000000 0.000000 0.000000 0.000000 0.047015
#
#
# Mechanical properties :
#
#
# Convention : Reuss Voigt Hill
#
# Bulk Modulus (GPa) = 22.72613 40.12398 31.42505
# Shear Modulus (GPa) = 20.35659 23.77762 22.06710
#
# Velocity S-wave (km/s) = 3.69262 3.99086 3.84463
# Velocity P-wave (km/s) = 5.77955 6.93629 6.38417
#
# Compressibility (1/GPa) = 0.04400222
#
# Stress axis : x y z
#
# Youngs Moduli (GPa) = 24.40194 73.45291 50.84494
#
# Poissons Ratio (x) = 0.19987 0.17418
# Poissons Ratio (y) = 0.06640 0.45675
# Poissons Ratio (z) = 0.08359 0.65984
#
# Static dielectric constant tensor:
#      x y z
#    x 1.527690 0.000000 0.000000 
#    y 0.000000 1.509000 0.000000 
#    z 0.000000 0.000000 1.502310 
# 
# From -- ./inp_files/25537.got.cif
#   From: 2010.05.17/outbox.cif.g08.bks.cpg/sg40_13_cif.got.tgz:25537.got - 2010.06.03 18:35:42.
