data_PCOD9362581
_publ_section_title
;
Structure prediction by ZEFSAII (Michael W. Deem and Ramdas Pophale) SiO2 
 PCOD9362581
Probable space group: A M A 2
;
_chemical_formula_sum "Si O2"
_cell_formula_units_Z 48
_cell_length_a 8.568108
_cell_length_b 24.283138
_cell_length_c 14.193517
_cell_angle_alpha 90.000000
_cell_angle_beta 90.000000
_cell_angle_gamma 90.000000
_cell_volume 2953.110939
_symmetry_space_group_name_H-M "A M A 2"
_symmetry_group_IT_number 40
_symmetry_cell_setting 'orthorhombic'
loop_
_space_group_symop_operation_xyz
x,y,z
-x,-y,z
1/2-x,y,z
1/2+x,-y,z
x,1/2+y,1/2+z
-x,1/2-y,1/2+z
1/2-x,1/2+y,1/2+z
1/2+x,1/2-y,1/2+z
loop_
_atom_site_type_symbol
_atom_site_label
_atom_site_fract_x
_atom_site_fract_y
_atom_site_fract_z
Si Si1 0.936283 0.060588 0.061910
Si Si2 0.936145 0.939576 0.852367
Si Si3 0.939236 0.773651 0.352926
Si Si4 0.438185 0.726436 0.066800
Si Si5 0.562041 0.835000 0.167772
Si Si6 0.562421 0.163641 0.743219
O O1 0.750000 0.059556 0.060099
O O2 0.996595 0.107382 0.131966
O O3 0.000000 0.000000 0.086335
O O4 0.997514 0.073463 0.956525
O O5 0.750000 0.941349 0.857356
O O6 0.992286 0.892904 0.780836
O O7 0.000000 0.000000 0.826805
O O8 0.750000 0.773678 0.354319
O O9 0.991235 0.783248 0.459454
O O10 0.986420 0.817974 0.273960
O O11 0.985969 0.713650 0.313296
O O12 0.250000 0.726213 0.070186
O O13 0.498832 0.785822 0.101801
O O14 0.503698 0.682145 0.140640
O O15 0.750000 0.835248 0.163175
O O16 0.750000 0.160753 0.743418
#
# Coordination Sequence:
#
# PCOD9362581 Si02
#       6
#     8   8   8   8   8   8
#     4  11  21  34  51  74 101 131 163 202 247 297
#     4  11  21  34  52  75 100 131 165 202 245 295
#     4   8  17  31  49  70  98 131 164 201 244 287
#     4  10  18  31  50  74 100 132 169 207 247 292
#     4  10  19  33  50  72 100 133 167 205 249 295
#     4  10  19  33  50  73 103 134 164 203 248 294
#
# _framework density 16.254045000000001
#
# number of rings (size 3 to 8) (size 9 to 14) (size 15 to 20)
#    0.000    2.000    0.000    7.500    0.000    1.333 
#    0.000    9.167    0.000    1.000    0.000    4.667 
#    0.000    0.000    0.000    0.000    0.000    0.000 
#
# Total GULP energy -133960.320325 kJ/mol
# GULP energy per Si atom -5581.680014 kJ/mol
# Density = 1.621705 g / cm^3
# Si number density = 16.254045 Si / 1000 Ang^3
#
#
#
# Elastic Constant Matrix: (Units=GPa)
#
#
# Indices 1 2 3 4 5 6 
#
# 1 104.3663 45.2617 41.9696 0.0000 0.0000 0.0000
# 2 45.2617 118.5291 92.4267 0.0000 0.0000 0.0000
# 3 41.9696 92.4267 144.3573 0.0000 0.0000 0.0000
# 4 0.0000 0.0000 0.0000 20.4137 0.0000 0.0000
# 5 0.0000 0.0000 0.0000 0.0000 24.1355 0.0000
# 6 0.0000 0.0000 0.0000 0.0000 0.0000 28.4096
#
#
#
# Elastic Compliance Matrix: (Units=1/GPa)
#
#
# Indices 1 2 3 4 5 6 
#
# 1 0.011565 -0.003583 -0.001068 0.000000 0.000000 0.000000
# 2 -0.003583 0.017959 -0.010457 0.000000 0.000000 0.000000
# 3 -0.001068 -0.010457 0.013933 0.000000 0.000000 0.000000
# 4 0.000000 0.000000 0.000000 0.048987 0.000000 0.000000
# 5 0.000000 0.000000 0.000000 0.000000 0.041433 0.000000
# 6 0.000000 0.000000 0.000000 0.000000 0.000000 0.035199
#
#
# Mechanical properties :
#
#
# Convention : Reuss Voigt Hill
#
# Bulk Modulus (GPa) = 75.52482 80.72986 78.12734
# Shear Modulus (GPa) = 24.54518 27.09807 25.82162
#
# Velocity S-wave (km/s) = 3.89021 4.08751 3.99008
# Velocity P-wave (km/s) = 8.16973 8.48837 8.33057
#
# Compressibility (1/GPa) = 0.01324068
#
# Stress axis : x y z
#
# Youngs Moduli (GPa) = 86.46615 55.68209 71.77295
#
# Poissons Ratio (x) = 0.19954 0.07666
# Poissons Ratio (y) = 0.30985 0.75051
# Poissons Ratio (z) = 0.09235 0.58225
#
# Static dielectric constant tensor:
#      x y z
#    x 1.546600 0.000000 0.000000 
#    y 0.000000 1.522360 0.000000 
#    z 0.000000 0.000000 1.541940 
# 
# From -- ./inp_files/15155.got.cif
#   From: 2010.05.17/outbox.cif.g08.bks.cpg/sg40_8_cif.got.tgz:15155.got - 2010.06.03 18:35:42.
