data_PCOD9362673
_publ_section_title
;
Structure prediction by ZEFSAII (Michael W. Deem and Ramdas Pophale) SiO2 
 PCOD9362673
Probable space group: A M A 2
;
_chemical_formula_sum "Si O2"
_cell_formula_units_Z 32
_cell_length_a 11.985711
_cell_length_b 12.724491
_cell_length_c 7.964975
_cell_angle_alpha 90.000000
_cell_angle_beta 90.000000
_cell_angle_gamma 90.000000
_cell_volume 1214.754839
_symmetry_space_group_name_H-M "A M A 2"
_symmetry_group_IT_number 40
_symmetry_cell_setting 'orthorhombic'
loop_
_space_group_symop_operation_xyz
x,y,z
-x,-y,z
1/2-x,y,z
1/2+x,-y,z
x,1/2+y,1/2+z
-x,1/2-y,1/2+z
1/2-x,1/2+y,1/2+z
1/2+x,1/2-y,1/2+z
loop_
_atom_site_type_symbol
_atom_site_label
_atom_site_fract_x
_atom_site_fract_y
_atom_site_fract_z
Si Si1 0.128904 0.346903 0.346940
Si Si2 0.952955 0.225892 0.533332
Si Si3 0.621593 0.546429 0.797601
Si Si4 0.633198 0.933597 0.657052
O O1 0.250000 0.331883 0.428067
O O2 0.028383 0.320510 0.470847
O O3 0.123412 0.466836 0.280322
O O4 0.129995 0.264659 0.188960
O O5 0.037486 0.148990 0.633014
O O6 0.902664 0.163385 0.374003
O O7 0.500000 0.500000 0.728335
O O8 0.750000 0.539106 0.722212
O O9 0.634914 0.482843 0.971694
O O10 0.750000 0.880911 0.699524
#
# Coordination Sequence:
#
# PCOD9362673 Si02
#       4
#     8   8   8   8
#     4  10  20  34  55  86 121 158 207 264 317 380
#     4  10  18  32  56  84 118 159 203 255 317 378
#     4   8  14  26  47  74 105 143 186 235 294 357
#     4   8  15  30  53  80 111 150 196 248 308 371
#
# _framework density 26.342763000000001
#
# number of rings (size 3 to 8) (size 9 to 14) (size 15 to 20)
#    0.000    3.000    0.000    5.250    0.000    1.000 
#    0.000    5.000    0.000   30.000    0.000    7.000 
#    0.000    0.000    0.000    0.000    0.000    0.000 
#
# Total GULP energy -89111.060663 kJ/mol
# GULP energy per Si atom -5569.441291 kJ/mol
# Density = 2.628281 g / cm^3
# Si number density = 26.342763 Si / 1000 Ang^3
#
#
#
# Elastic Constant Matrix: (Units=GPa)
#
#
# Indices 1 2 3 4 5 6 
#
# 1 204.3141 48.3745 25.8212 0.0000 0.0000 0.0000
# 2 48.3745 49.8919 37.2904 0.0000 0.0000 0.0000
# 3 25.8212 37.2904 88.6420 0.0000 0.0000 0.0000
# 4 0.0000 0.0000 0.0000 42.0428 0.0000 0.0000
# 5 0.0000 0.0000 0.0000 0.0000 0.3556 0.0000
# 6 0.0000 0.0000 0.0000 0.0000 0.0000 77.4465
#
#
#
# Elastic Compliance Matrix: (Units=1/GPa)
#
#
# Indices 1 2 3 4 5 6 
#
# 1 0.006425 -0.007046 0.001093 0.000000 0.000000 0.000000
# 2 -0.007046 0.036963 -0.013497 0.000000 0.000000 0.000000
# 3 0.001093 -0.013497 0.016641 0.000000 0.000000 0.000000
# 4 0.000000 0.000000 0.000000 0.023785 0.000000 0.000000
# 5 0.000000 0.000000 0.000000 0.000000 2.811851 0.000000
# 6 0.000000 0.000000 0.000000 0.000000 0.000000 0.012912
#
#
# Mechanical properties :
#
#
# Convention : Reuss Voigt Hill
#
# Bulk Modulus (GPa) = 47.33126 62.86890 55.10008
# Shear Modulus (GPa) = 1.69232 39.39312 20.54272
#
# Velocity S-wave (km/s) = 0.80238 3.87124 2.79556
# Velocity P-wave (km/s) = 4.34337 6.62567 5.60198
#
# Compressibility (1/GPa) = 0.02112769
#
# Stress axis : x y z
#
# Youngs Moduli (GPa) = 155.65327 27.05404 60.09177
#
# Poissons Ratio (x) = 0.19062 -0.06566
# Poissons Ratio (y) = 1.09670 0.81108
# Poissons Ratio (z) = -0.17007 0.36516
#
# Static dielectric constant tensor:
#      x y z
#    x 2.614370 0.000000 0.000000 
#    y 0.000000 2.049130 0.000000 
#    z 0.000000 0.000000 2.187500 
# 
# From -- ./inp_files/10891.got.cif
#   From: 2010.05.17/outbox.cif.g08.bks.cpg/sg40_6_cif.got.tgz:10891.got - 2010.06.03 18:35:42.
