data_PCOD9362521
_publ_section_title
;
Structure prediction by ZEFSAII (Michael W. Deem and Ramdas Pophale) SiO2 
 PCOD9362521
Probable space group: A M A 2
;
_chemical_formula_sum "Si O2"
_cell_formula_units_Z 64
_cell_length_a 8.743804
_cell_length_b 19.265920
_cell_length_c 21.690123
_cell_angle_alpha 90.000000
_cell_angle_beta 90.000000
_cell_angle_gamma 90.000000
_cell_volume 3653.862341
_symmetry_space_group_name_H-M "A M A 2"
_symmetry_group_IT_number 40
_symmetry_cell_setting 'orthorhombic'
loop_
_space_group_symop_operation_xyz
x,y,z
-x,-y,z
1/2-x,y,z
1/2+x,-y,z
x,1/2+y,1/2+z
-x,1/2-y,1/2+z
1/2-x,1/2+y,1/2+z
1/2+x,1/2-y,1/2+z
loop_
_atom_site_type_symbol
_atom_site_label
_atom_site_fract_x
_atom_site_fract_y
_atom_site_fract_z
Si Si1 0.566678 0.425530 0.705520
Si Si2 0.066565 0.075781 0.470327
Si Si3 0.071005 0.820878 0.570377
Si Si4 0.433309 0.285771 0.656339
Si Si5 0.424416 0.072396 0.803310
Si Si6 0.074247 0.571382 0.154745
Si Si7 0.064962 0.225028 0.790817
Si Si8 0.066141 0.134649 0.338194
O O1 0.500000 0.500000 0.688592
O O2 0.750000 0.425256 0.700876
O O3 0.496960 0.362824 0.666081
O O4 0.523998 0.407969 0.776710
O O5 0.250000 0.072536 0.474037
O O6 0.020516 0.095793 0.400521
O O7 0.006664 0.137068 0.514621
O O8 0.000000 0.000000 0.486156
O O9 0.250000 0.813402 0.559038
O O10 0.998037 0.749545 0.594647
O O11 0.034765 0.870242 0.628522
O O12 0.250000 0.284975 0.654258
O O13 0.478073 0.244119 0.719744
O O14 0.250000 0.071992 0.825768
O O15 0.421558 0.070360 0.728547
O O16 0.492172 0.149577 0.814054
O O17 0.500000 0.000000 0.823844
O O18 0.250000 0.580943 0.133408
O O19 0.000000 0.500000 0.133294
O O20 0.250000 0.222141 0.791600
O O21 0.006900 0.289287 0.831161
O O22 0.250000 0.142177 0.338508
#
# Coordination Sequence:
#
# PCOD9362521 Si02
#       8
#     8   8   8   8   8   8   8   8
#     4  10  19  33  53  81 109 136 170 212 262 316
#     4  11  23  39  55  74 103 139 180 221 258 304
#     4  12  23  34  49  71  99 135 175 214 256 304
#     4  10  19  34  52  73 102 136 170 212 260 312
#     4   9  17  28  42  66  96 129 165 202 245 298
#     4  10  18  30  44  63  93 129 169 205 245 293
#     4   9  17  31  50  72 100 132 169 211 260 312
#     4   9  20  35  53  76 102 134 176 219 261 308
#
# _framework density 17.515712000000001
#
# number of rings (size 3 to 8) (size 9 to 14) (size 15 to 20)
#    0.000    2.000    1.250    3.375    0.000    3.000 
#    0.000    0.000    0.000    0.000    0.000    0.875 
#    0.000    4.000    0.000    0.000    0.000    0.000 
#
# Total GULP energy -178417.879753 kJ/mol
# GULP energy per Si atom -5575.558742 kJ/mol
# Density = 1.747585 g / cm^3
# Si number density = 17.515712 Si / 1000 Ang^3
#
#
#
# Elastic Constant Matrix: (Units=GPa)
#
#
# Indices 1 2 3 4 5 6 
#
# 1 56.7546 37.2435 22.3096 0.0000 0.0000 0.0000
# 2 37.2435 145.7843 35.1984 0.0000 0.0000 0.0000
# 3 22.3096 35.1984 58.0679 0.0000 0.0000 0.0000
# 4 0.0000 0.0000 0.0000 30.5362 0.0000 0.0000
# 5 0.0000 0.0000 0.0000 0.0000 7.7748 0.0000
# 6 0.0000 0.0000 0.0000 0.0000 0.0000 30.9339
#
#
#
# Elastic Compliance Matrix: (Units=1/GPa)
#
#
# Indices 1 2 3 4 5 6 
#
# 1 0.022903 -0.004365 -0.006153 0.000000 0.000000 0.000000
# 2 -0.004365 0.008868 -0.003698 0.000000 0.000000 0.000000
# 3 -0.006153 -0.003698 0.021827 0.000000 0.000000 0.000000
# 4 0.000000 0.000000 0.000000 0.032748 0.000000 0.000000
# 5 0.000000 0.000000 0.000000 0.000000 0.128620 0.000000
# 6 0.000000 0.000000 0.000000 0.000000 0.000000 0.032327
#
#
# Mechanical properties :
#
#
# Convention : Reuss Voigt Hill
#
# Bulk Modulus (GPa) = 39.73879 50.01222 44.87550
# Shear Modulus (GPa) = 17.59856 24.90600 21.25228
#
# Velocity S-wave (km/s) = 3.17319 3.77493 3.48706
# Velocity P-wave (km/s) = 6.01351 6.90035 6.47214
#
# Compressibility (1/GPa) = 0.02516433
#
# Stress axis : x y z
#
# Youngs Moduli (GPa) = 43.66209 112.77105 45.81519
#
# Poissons Ratio (x) = 0.49229 0.28191
# Poissons Ratio (y) = 0.19060 0.16942
# Poissons Ratio (z) = 0.26866 0.41702
#
# Static dielectric constant tensor:
#      x y z
#    x 1.595160 0.000000 0.000000 
#    y 0.000000 1.595490 0.000000 
#    z 0.000000 0.000000 1.597990 
# 
# From -- ./inp_files/24415.got.cif
#   From: 2010.05.17/outbox.cif.g08.bks.cpg/sg40_13_cif.got.tgz:24415.got - 2010.06.03 18:35:42.
