data_PCOD9362891
_publ_section_title
;
Structure prediction by ZEFSAII (Michael W. Deem and Ramdas Pophale) SiO2 
 PCOD9362891
Probable space group: A M A 2
;
_chemical_formula_sum "Si O2"
_cell_formula_units_Z 64
_cell_length_a 8.051834
_cell_length_b 24.009943
_cell_length_c 19.964907
_cell_angle_alpha 90.000000
_cell_angle_beta 90.000000
_cell_angle_gamma 90.000000
_cell_volume 3859.697186
_symmetry_space_group_name_H-M "A M A 2"
_symmetry_group_IT_number 40
_symmetry_cell_setting 'orthorhombic'
loop_
_space_group_symop_operation_xyz
x,y,z
-x,-y,z
1/2-x,y,z
1/2+x,-y,z
x,1/2+y,1/2+z
-x,1/2-y,1/2+z
1/2-x,1/2+y,1/2+z
1/2+x,1/2-y,1/2+z
loop_
_atom_site_type_symbol
_atom_site_label
_atom_site_fract_x
_atom_site_fract_y
_atom_site_fract_z
Si Si1 0.449964 0.618660 0.436490
Si Si2 0.551990 0.563401 0.297064
Si Si3 0.951224 0.164677 0.709840
Si Si4 0.449932 0.774340 0.290274
Si Si5 0.448193 0.334620 0.660088
Si Si6 0.453883 0.747843 0.435287
Si Si7 0.948347 0.436378 0.574671
Si Si8 0.552213 0.226067 0.580522
O O1 0.250000 0.619959 0.439828
O O2 0.497239 0.585934 0.369577
O O3 0.506151 0.682918 0.433864
O O4 0.512144 0.588012 0.503513
O O5 0.500000 0.500000 0.286877
O O6 0.750000 0.565623 0.295593
O O7 0.488596 0.606637 0.240759
O O8 0.750000 0.163706 0.707424
O O9 0.013529 0.183008 0.636283
O O10 0.002275 0.214332 0.759843
O O11 0.250000 0.777261 0.292514
O O12 0.507458 0.819214 0.235141
O O13 0.509808 0.776954 0.366639
O O14 0.250000 0.327736 0.658356
O O15 0.492203 0.395090 0.632849
O O16 0.522879 0.287677 0.610866
O O17 0.250000 0.748036 0.435967
O O18 0.512569 0.774864 0.504806
O O19 0.750000 0.433806 0.572899
O O20 0.000000 0.500000 0.583354
O O21 0.750000 0.217561 0.576704
#
# Coordination Sequence:
#
# PCOD9362891 Si02
#       8
#     8   8   8   8   8   8   8   8
#     4  10  19  32  48  67  92 124 158 189 221 263
#     4  11  22  33  45  65  91 125 160 193 228 267
#     4   9  18  30  45  66  90 116 152 192 230 267
#     4   9  17  29  47  68  92 119 150 184 225 272
#     4  10  19  30  45  68  94 121 152 189 227 271
#     4   9  15  27  48  71  92 120 152 182 222 272
#     4  11  22  35  49  66  90 124 161 195 228 265
#     4   9  16  30  49  67  90 119 151 190 231 273
#
# _framework density 16.581613000000001
#
# number of rings (size 3 to 8) (size 9 to 14) (size 15 to 20)
#    0.000    2.250    2.500    1.500    0.000    3.000 
#    0.000    0.625    0.000    0.000    0.000    0.875 
#    0.000    2.000    0.000    0.000    0.000    0.250 
#
# Total GULP energy -178437.431942 kJ/mol
# GULP energy per Si atom -5576.169748 kJ/mol
# Density = 1.654387 g / cm^3
# Si number density = 16.581613 Si / 1000 Ang^3
#
#
#
# Elastic Constant Matrix: (Units=GPa)
#
#
# Indices 1 2 3 4 5 6 
#
# 1 6.5881 0.4571 7.0131 0.0000 0.0000 0.0000
# 2 0.4571 96.0739 78.3076 0.0000 0.0000 0.0000
# 3 7.0131 78.3076 174.8934 0.0000 0.0000 0.0000
# 4 0.0000 0.0000 0.0000 22.8718 0.0000 0.0000
# 5 0.0000 0.0000 0.0000 0.0000 10.5626 0.0000
# 6 0.0000 0.0000 0.0000 0.0000 0.0000 13.4274
#
#
#
# Elastic Compliance Matrix: (Units=1/GPa)
#
#
# Indices 1 2 3 4 5 6 
#
# 1 0.161581 0.007106 -0.009661 0.000000 0.000000 0.000000
# 2 0.007106 0.016703 -0.007763 0.000000 0.000000 0.000000
# 3 -0.009661 -0.007763 0.009581 0.000000 0.000000 0.000000
# 4 0.000000 0.000000 0.000000 0.043722 0.000000 0.000000
# 5 0.000000 0.000000 0.000000 0.000000 0.094674 0.000000
# 6 0.000000 0.000000 0.000000 0.000000 0.000000 0.074474
#
#
# Mechanical properties :
#
#
# Convention : Reuss Voigt Hill
#
# Bulk Modulus (GPa) = 5.97988 49.90121 27.94054
# Shear Modulus (GPa) = 10.47966 22.15753 16.31859
#
# Velocity S-wave (km/s) = 2.51670 3.65947 3.14050
# Velocity P-wave (km/s) = 3.47263 6.92930 5.48062
#
# Compressibility (1/GPa) = 0.16722745
#
# Stress axis : x y z
#
# Youngs Moduli (GPa) = 6.18885 59.87061 104.37093
#
# Poissons Ratio (x) = -0.42541 1.00830
# Poissons Ratio (y) = -0.04398 0.81028
# Poissons Ratio (z) = 0.05979 0.46480
#
# Static dielectric constant tensor:
#      x y z
#    x 1.581670 0.000000 0.000000 
#    y 0.000000 1.579050 0.000000 
#    z 0.000000 0.000000 1.592780 
# 
# From -- ./inp_files/19716.got.cif
#   From: 2010.05.17/outbox.cif.g08.bks.cpg/sg40_10_cif.got.tgz:19716.got - 2010.06.03 18:35:42.
