data_PCOD9362385
_publ_section_title
;
Structure prediction by ZEFSAII (Michael W. Deem and Ramdas Pophale) SiO2 
 PCOD9362385
Probable space group: A M A 2
;
_chemical_formula_sum "Si O2"
_cell_formula_units_Z 64
_cell_length_a 9.024317
_cell_length_b 26.858311
_cell_length_c 19.000072
_cell_angle_alpha 90.000000
_cell_angle_beta 90.000000
_cell_angle_gamma 90.000000
_cell_volume 4605.197790
_symmetry_space_group_name_H-M "A M A 2"
_symmetry_group_IT_number 40
_symmetry_cell_setting 'orthorhombic'
loop_
_space_group_symop_operation_xyz
x,y,z
-x,-y,z
1/2-x,y,z
1/2+x,-y,z
x,1/2+y,1/2+z
-x,1/2-y,1/2+z
1/2-x,1/2+y,1/2+z
1/2+x,1/2-y,1/2+z
loop_
_atom_site_type_symbol
_atom_site_label
_atom_site_fract_x
_atom_site_fract_y
_atom_site_fract_z
Si Si1 0.926657 0.446951 0.438280
Si Si2 0.430568 0.251939 0.435935
Si Si3 0.927931 0.748611 0.275664
Si Si4 0.427189 0.353760 0.196155
Si Si5 0.079592 0.800949 0.152202
Si Si6 0.078517 0.195322 0.569073
Si Si7 0.570253 0.146125 0.014530
Si Si8 0.426667 0.553102 0.272118
O O1 0.750000 0.449262 0.447972
O O2 0.956021 0.437335 0.355195
O O3 0.000000 0.500000 0.455510
O O4 0.997512 0.402969 0.483567
O O5 0.250000 0.251135 0.436875
O O6 0.480554 0.245877 0.355837
O O7 0.477069 0.209115 0.490968
O O8 0.472850 0.305972 0.466941
O O9 0.750000 0.750724 0.275517
O O10 0.969006 0.694253 0.244386
O O11 0.988837 0.789986 0.222294
O O12 0.250000 0.358690 0.197866
O O13 0.482945 0.340768 0.117708
O O14 0.503536 0.402547 0.227152
O O15 0.250000 0.811781 0.170242
O O16 0.078452 0.748896 0.108682
O O17 0.026576 0.841203 0.095046
O O18 0.250000 0.178495 0.566324
O O19 0.750000 0.142711 0.012598
O O20 0.500000 0.500000 0.254753
O O21 0.250000 0.550721 0.262277
#
# Coordination Sequence:
#
# PCOD9362385 Si02
#       8
#     8   8   8   8   8   8   8   8
#     4  10  20  31  43  60  81 105 135 170 204 237
#     4   8  14  25  41  59  79 108 141 168 200 240
#     4   9  16  25  39  59  82 108 138 170 201 236
#     4  10  18  27  41  60  82 108 137 168 203 240
#     4   8  15  26  39  56  78 106 136 165 200 239
#     4   8  14  26  41  55  76 106 138 168 197 236
#     4   9  16  28  44  58  78 109 140 168 201 241
#     4  10  20  32  44  59  80 106 136 169 203 237
#
# _framework density 13.89734
#
# number of rings (size 3 to 8) (size 9 to 14) (size 15 to 20)
#    0.000    3.000    0.000    3.375    0.000    3.500 
#    0.000    3.125    0.000    0.000    0.000    0.000 
#    0.000    1.000    0.000    5.250    0.000    4.500 
#
# Total GULP energy -178184.396828 kJ/mol
# GULP energy per Si atom -5568.262401 kJ/mol
# Density = 1.386571 g / cm^3
# Si number density = 13.897340 Si / 1000 Ang^3
#
#
#
# Elastic Constant Matrix: (Units=GPa)
#
#
# Indices 1 2 3 4 5 6 
#
# 1 35.0097 41.1449 39.2237 0.0000 0.0000 0.0000
# 2 41.1449 91.8456 64.2038 0.0000 0.0000 0.0000
# 3 39.2237 64.2038 122.2542 0.0000 0.0000 0.0000
# 4 0.0000 0.0000 0.0000 26.6687 0.0000 0.0000
# 5 0.0000 0.0000 0.0000 0.0000 19.7320 0.0000
# 6 0.0000 0.0000 0.0000 0.0000 0.0000 21.1577
#
#
#
# Elastic Compliance Matrix: (Units=1/GPa)
#
#
# Indices 1 2 3 4 5 6 
#
# 1 0.065949 -0.023310 -0.008917 0.000000 0.000000 0.000000
# 2 -0.023310 0.025443 -0.005883 0.000000 0.000000 0.000000
# 3 -0.008917 -0.005883 0.014130 0.000000 0.000000 0.000000
# 4 0.000000 0.000000 0.000000 0.037497 0.000000 0.000000
# 5 0.000000 0.000000 0.000000 0.000000 0.050679 0.000000
# 6 0.000000 0.000000 0.000000 0.000000 0.000000 0.047264
#
#
# Mechanical properties :
#
#
# Convention : Reuss Voigt Hill
#
# Bulk Modulus (GPa) = 34.12810 59.80602 46.96706
# Shear Modulus (GPa) = 15.29284 20.48083 17.88684
#
# Velocity S-wave (km/s) = 3.32085 3.84308 3.59147
# Velocity P-wave (km/s) = 6.27014 7.92590 7.14614
#
# Compressibility (1/GPa) = 0.02930137
#
# Stress axis : x y z
#
# Youngs Moduli (GPa) = 15.16316 39.30395 70.77102
#
# Poissons Ratio (x) = 0.91619 0.63107
# Poissons Ratio (y) = 0.35346 0.41633
# Poissons Ratio (z) = 0.13521 0.23122
#
# Static dielectric constant tensor:
#      x y z
#    x 1.463040 0.000000 0.000000 
#    y 0.000000 1.429900 0.000000 
#    z 0.000000 0.000000 1.468080 
# 
# From -- ./inp_files/19708.got.cif
#   From: 2010.05.17/outbox.cif.g08.bks.cpg/sg40_10_cif.got.tgz:19708.got - 2010.06.03 18:35:42.
