data_PCOD9362308
_publ_section_title
;
Structure prediction by ZEFSAII (Michael W. Deem and Ramdas Pophale) SiO2 
 PCOD9362308
Probable space group: A M A 2
;
_chemical_formula_sum "Si O2"
_cell_formula_units_Z 56
_cell_length_a 18.657315
_cell_length_b 29.351398
_cell_length_c 5.319170
_cell_angle_alpha 90.000000
_cell_angle_beta 90.000000
_cell_angle_gamma 90.000000
_cell_volume 2912.874717
_symmetry_space_group_name_H-M "A M A 2"
_symmetry_group_IT_number 40
_symmetry_cell_setting 'orthorhombic'
loop_
_space_group_symop_operation_xyz
x,y,z
-x,-y,z
1/2-x,y,z
1/2+x,-y,z
x,1/2+y,1/2+z
-x,1/2-y,1/2+z
1/2-x,1/2+y,1/2+z
1/2+x,1/2-y,1/2+z
loop_
_atom_site_type_symbol
_atom_site_label
_atom_site_fract_x
_atom_site_fract_y
_atom_site_fract_z
Si Si1 0.663292 0.777565 0.982620
Si Si2 0.444756 0.930739 0.849374
Si Si3 0.471515 0.882260 0.347147
Si Si4 0.132465 0.577907 0.845130
Si Si5 0.531008 0.725936 0.856178
Si Si6 0.830900 0.322882 0.987004
Si Si7 0.890938 0.469491 0.345179
O O1 0.750000 0.805666 0.503574
O O2 0.616186 0.734830 0.898951
O O3 0.641722 0.815225 0.769565
O O4 0.637221 0.794463 0.255912
O O5 0.433755 0.902884 0.593187
O O6 0.527484 0.949184 0.845992
O O7 0.398049 0.976394 0.870569
O O8 0.435301 0.898409 0.089284
O O9 0.549507 0.906058 0.342109
O O10 0.481333 0.828139 0.361430
O O11 0.170765 0.625147 0.903204
O O12 0.147832 0.554165 0.580670
O O13 0.142299 0.544414 0.079313
O O14 0.507382 0.748697 0.591723
O O15 0.750000 0.271844 0.490416
#
# Coordination Sequence:
#
# PCOD9362308 Si02
#       7
#     8   8   8   8   8   8   8
#     4  10  21  37  54  73 103 142 177 209 252 312
#     4   9  17  30  43  66  95 125 161 191 238 300
#     4  10  19  29  46  68  98 128 157 202 251 296
#     4  10  17  28  45  70  96 125 156 193 248 294
#     4  12  23  35  53  80 108 135 172 223 275 312
#     4  10  20  34  52  73 100 135 172 207 246 307
#     4   9  17  27  45  66  94 126 154 192 236 296
#
# _framework density 19.224996000000001
#
# number of rings (size 3 to 8) (size 9 to 14) (size 15 to 20)
#    0.000    2.000    0.000    5.143    0.000    5.714 
#    0.000    0.000    0.000    0.000    0.000    6.000 
#    0.000    0.000    0.000    0.000    0.000    0.000 
#
# Total GULP energy -156112.801055 kJ/mol
# GULP energy per Si atom -5575.457181 kJ/mol
# Density = 1.918124 g / cm^3
# Si number density = 19.224996 Si / 1000 Ang^3
#
#
#
# Elastic Constant Matrix: (Units=GPa)
#
#
# Indices 1 2 3 4 5 6 
#
# 1 25.8689 -2.9800 5.5701 0.0000 0.0000 0.0000
# 2 -2.9800 93.0081 43.0036 0.0000 0.0000 0.0000
# 3 5.5701 43.0036 120.3837 0.0000 0.0000 0.0000
# 4 0.0000 0.0000 0.0000 34.4569 0.0000 0.0000
# 5 0.0000 0.0000 0.0000 0.0000 -7.1833 0.0000
# 6 0.0000 0.0000 0.0000 0.0000 0.0000 9.0490
#
#
#
# Elastic Compliance Matrix: (Units=1/GPa)
#
#
# Indices 1 2 3 4 5 6 
#
# 1 0.039537 0.002531 -0.002733 0.000000 0.000000 0.000000
# 2 0.002531 0.013041 -0.004776 0.000000 0.000000 0.000000
# 3 -0.002733 -0.004776 0.010139 0.000000 0.000000 0.000000
# 4 0.000000 0.000000 0.000000 0.029022 0.000000 0.000000
# 5 0.000000 0.000000 0.000000 0.000000 -0.139211 0.000000
# 6 0.000000 0.000000 0.000000 0.000000 0.000000 0.110509
#
#
# Mechanical properties :
#
#
# Convention : Reuss Voigt Hill
#
# Bulk Modulus (GPa) = 18.95380 36.71648 27.83514
# Shear Modulus (GPa) = 55.20012 20.17566 37.68789
#
# Velocity S-wave (km/s) = 5.36423 3.24303 4.43240
# Velocity P-wave (km/s) = 6.94601 5.75871 6.38004
#
# Compressibility (1/GPa) = 0.05275988
#
# Stress axis : x y z
#
# Youngs Moduli (GPa) = 25.29307 76.68197 98.62739
#
# Poissons Ratio (x) = -0.19405 0.26958
# Poissons Ratio (y) = -0.06400 0.47100
# Poissons Ratio (z) = 0.06913 0.36620
#
# Static dielectric constant tensor:
#      x y z
#    x 1.773890 0.000000 0.000000 
#    y 0.000000 1.634210 0.000000 
#    z 0.000000 0.000000 1.700420 
# 
# From -- ./inp_files/2455.got.cif
#   From: 2010.05.17/outbox.cif.g08.bks.cpg/sg40_2_cif.got.tgz:2455.got - 2010.06.03 18:35:42.
