data_PCOD9362229
_publ_section_title
;
Structure prediction by ZEFSAII (Michael W. Deem and Ramdas Pophale) SiO2 
 PCOD9362229
Probable space group: A B M 2
;
_chemical_formula_sum "Si O2"
_cell_formula_units_Z 30
_cell_length_a 18.000000
_cell_length_b 18.000000
_cell_length_c 9.000000
_cell_angle_alpha 90.000000
_cell_angle_beta 90.000000
_cell_angle_gamma 90.000000
_cell_volume 2916.000000
_symmetry_space_group_name_H-M "A B M 2"
_symmetry_group_IT_number 39
_symmetry_cell_setting 'orthorhombic'
loop_
_space_group_symop_operation_xyz
x,y,z
-x,-y,z
-x,1/2+y,z
x,1/2-y,z
x,1/2+y,1/2+z
-x,1/2-y,1/2+z
-x,y,1/2+z
x,-y,1/2+z
loop_
_atom_site_type_symbol
_atom_site_label
_atom_site_fract_x
_atom_site_fract_y
_atom_site_fract_z
Si Si1 0.000000 0.500000 0.912760
Si Si2 0.280198 0.340515 0.045756
Si Si3 0.884402 0.839113 0.140856
Si Si4 0.045531 0.903422 0.147004
Si Si5 0.561073 0.413702 0.045697
Si Si6 0.591915 0.071150 0.396902
Si Si7 0.162833 0.338120 0.471559
Si Si8 0.683254 0.662497 0.379453
O O1 0.964506 0.560549 0.805325
O O2 0.940153 0.467886 0.026545
O O3 0.285877 0.250000 0.027083
O O4 0.191672 0.359697 0.053950
O O5 0.312621 0.363642 0.208707
O O6 0.332091 0.384576 0.930331
O O7 0.887744 0.750000 0.133515
O O8 0.873165 0.862121 0.313817
O O9 0.966417 0.868021 0.101123
O O10 0.114656 0.851954 0.117473
O O11 0.570778 0.424924 0.222173
O O12 0.591520 0.486431 0.956578
O O13 0.476676 0.398140 0.996111
O O14 0.611452 0.350381 0.976337
O O15 0.165918 0.250000 0.458216
O O16 0.245811 0.369116 0.468610
O O17 0.693798 0.750000 0.362808
#
# Coordination Sequence:
#
# PCOD9362229 Si02
#       8
#     4   8   8   8   8   8   8   8
#     4  10  24  34  54  74 116 146 186 236 276 330
#     4   9  19  38  60  86 117 149 187 233 284 338
#     4   9  18  35  60  83 108 143 187 235 282 332
#     4  11  19  40  52  80 109 151 188 232 278 333
#     4  11  22  39  61  86 116 150 191 232 279 338
#     4  11  22  39  61  86 116 150 191 232 279 338
#     4   9  18  35  60  83 108 143 187 235 282 332
#     4   9  19  38  60  86 117 149 187 233 284 338
#
# _framework density 10.288066000000001
#
# number of rings (size 3 to 8) (size 9 to 14) (size 15 to 20)
#    0.000    2.133    1.333    5.200    0.000    1.067 
#    7.200    0.000    0.000    0.000    0.000    0.000 
#    0.000    0.000    0.000    0.000    0.000    0.000 
#
# Total GULP energy -167034.144988 kJ/mol
# GULP energy per Si atom -5567.804833 kJ/mol
# Density = 1.026465 g / cm^3
# Si number density = 10.288066 Si / 1000 Ang^3
#
#
#
# Elastic Constant Matrix: (Units=GPa)
#
#
# Indices 1 2 3 4 5 6 
#
# 1 9.3218 -2.5867 -24.5948 0.0000 0.0000 0.0000
# 2 -2.5867 6.2981 -4.6003 0.0000 0.0000 0.0000
# 3 -24.5948 -4.6003 66.7319 0.0000 0.0000 0.0000
# 4 0.0000 0.0000 0.0000 22.5719 0.0000 0.0000
# 5 0.0000 0.0000 0.0000 0.0000 28.9636 0.0000
# 6 0.0000 0.0000 0.0000 0.0000 0.0000-1824.1234
#
#
#
# Elastic Compliance Matrix: (Units=1/GPa)
#
#
# Indices 1 2 3 4 5 6 
#
# 1 -0.356025 -0.254903 -0.148789 0.000000 0.000000 0.000000
# 2 -0.254903 -0.015306 -0.095002 0.000000 0.000000 0.000000
# 3 -0.148789 -0.095002 -0.046402 0.000000 0.000000 0.000000
# 4 0.000000 0.000000 0.000000 0.044303 0.000000 0.000000
# 5 0.000000 0.000000 0.000000 0.000000 0.034526 0.000000
# 6 0.000000 0.000000 0.000000 0.000000 0.000000 -0.000548
#
#
# Mechanical properties :
#
#
# Convention : Reuss Voigt Hill
#
# Bulk Modulus (GPa) = -0.70665 2.08759 0.69047
# Shear Modulus (GPa) = 26.84854 -346.90866 -160.03006
#
# Velocity S-wave (km/s) = 3.61617 -12.99860 -8.82856
# Velocity P-wave (km/s) = 4.13418 14.97558 10.17783
#
# Compressibility (1/GPa) = -1.41512143
#
# Stress axis : x y z
#
# Youngs Moduli (GPa) = -2.80879 -65.33225 -21.55101
#
# Poissons Ratio (x) = -16.65339 -3.20655
# Poissons Ratio (y) = -0.71597 -2.04740
# Poissons Ratio (z) = -0.41792 -6.20673
#
# Static dielectric constant tensor:
#      x y z
#    x 1.781270 0.000000 0.000000 
#    y 0.000000 1.848130 0.000000 
#    z 0.000000 0.000000 1.735990 
# 
# From -- ./inp_files/3790.got.cif
#   From: 2010.05.17/outbox.ucp.g08.bks.cvg/sg39_2_cif.got.tgz:3790.got - 2010.06.11 10:41:16.
