data_PCOD9362331
_publ_section_title
;
Structure prediction by ZEFSAII (Michael W. Deem and Ramdas Pophale) SiO2 
 PCOD9362331
Probable space group: A M A 2
;
_chemical_formula_sum "Si O2"
_cell_formula_units_Z 64
_cell_length_a 19.275489
_cell_length_b 21.351224
_cell_length_c 7.317760
_cell_angle_alpha 90.000000
_cell_angle_beta 90.000000
_cell_angle_gamma 90.000000
_cell_volume 3011.662790
_symmetry_space_group_name_H-M "A M A 2"
_symmetry_group_IT_number 40
_symmetry_cell_setting 'orthorhombic'
loop_
_space_group_symop_operation_xyz
x,y,z
-x,-y,z
1/2-x,y,z
1/2+x,-y,z
x,1/2+y,1/2+z
-x,1/2-y,1/2+z
1/2-x,1/2+y,1/2+z
1/2+x,1/2-y,1/2+z
loop_
_atom_site_type_symbol
_atom_site_label
_atom_site_fract_x
_atom_site_fract_y
_atom_site_fract_z
Si Si1 0.573972 0.532876 0.807390
Si Si2 0.826788 0.928615 0.360158
Si Si3 0.557301 0.308635 0.317299
Si Si4 0.404047 0.694548 0.899815
Si Si5 0.899422 0.669050 0.404181
Si Si6 0.552468 0.170857 0.309406
Si Si7 0.832234 0.545384 0.442436
Si Si8 0.827722 0.408905 0.420889
O O1 0.500000 0.500000 0.770404
O O2 0.618750 0.481639 0.914599
O O3 0.564593 0.602001 0.894125
O O4 0.617265 0.542013 0.619400
O O5 0.750000 0.945972 0.418689
O O6 0.849084 0.860092 0.422139
O O7 0.827421 0.920667 0.139449
O O8 0.562456 0.298931 0.099886
O O9 0.480488 0.334314 0.353410
O O10 0.567150 0.238495 0.399971
O O11 0.615296 0.357709 0.375673
O O12 0.375111 0.762017 0.842594
O O13 0.469029 0.674093 0.773017
O O14 0.902003 0.670409 0.625356
O O15 0.855749 0.609092 0.343372
O O16 0.750000 0.549059 0.490973
O O17 0.841747 0.478569 0.343230
O O18 0.750000 0.388864 0.367270
#
# Coordination Sequence:
#
# PCOD9362331 Si02
#       8
#     8   8   8   8   8   8   8   8
#     4  10  17  30  56  78 101 133 177 221 261 300
#     4  10  20  34  54  78 104 138 176 215 261 317
#     4  10  20  32  52  79 107 136 177 212 263 313
#     4  10  19  33  50  78 108 136 174 217 262 310
#     4   9  19  33  55  76 103 142 171 220 262 307
#     4   9  18  34  52  77 103 132 175 222 257 297
#     4   9  19  33  52  81 106 129 174 226 264 303
#     4   9  19  35  53  73 102 138 174 216 261 311
#
# _framework density 21.250719
#
# number of rings (size 3 to 8) (size 9 to 14) (size 15 to 20)
#    0.000    2.500    1.250    1.875    5.250    2.000 
#    0.000    8.125    0.000    0.000    0.000    3.500 
#    0.000    0.000    0.000    0.000    0.000    0.000 
#
# Total GULP energy -178331.562323 kJ/mol
# GULP energy per Si atom -5572.861323 kJ/mol
# Density = 2.120235 g / cm^3
# Si number density = 21.250719 Si / 1000 Ang^3
#
#
#
# Elastic Constant Matrix: (Units=GPa)
#
#
# Indices 1 2 3 4 5 6 
#
# 1 123.4244 107.1213 0.5013 0.0000 0.0000 0.0000
# 2 107.1213 210.5624 4.5730 0.0000 0.0000 0.0000
# 3 0.5013 4.5730 32.3005 0.0000 0.0000 0.0000
# 4 0.0000 0.0000 0.0000 11.2162 0.0000 0.0000
# 5 0.0000 0.0000 0.0000 0.0000 12.6365 0.0000
# 6 0.0000 0.0000 0.0000 0.0000 0.0000 32.2196
#
#
#
# Elastic Compliance Matrix: (Units=1/GPa)
#
#
# Indices 1 2 3 4 5 6 
#
# 1 0.014530 -0.007410 0.000824 0.000000 0.000000 0.000000
# 2 -0.007410 0.008543 -0.001094 0.000000 0.000000 0.000000
# 3 0.000824 -0.001094 0.031101 0.000000 0.000000 0.000000
# 4 0.000000 0.000000 0.000000 0.089157 0.000000 0.000000
# 5 0.000000 0.000000 0.000000 0.000000 0.079136 0.000000
# 6 0.000000 0.000000 0.000000 0.000000 0.000000 0.031037
#
#
# Mechanical properties :
#
#
# Convention : Reuss Voigt Hill
#
# Bulk Modulus (GPa) = 25.76489 65.63095 45.69792
# Shear Modulus (GPa) = 17.74292 28.15390 22.94841
#
# Velocity S-wave (km/s) = 2.89265 3.64379 3.28973
# Velocity P-wave (km/s) = 4.82775 6.97525 5.99839
#
# Compressibility (1/GPa) = 0.03881251
#
# Stress axis : x y z
#
# Youngs Moduli (GPa) = 68.82422 117.06066 32.15289
#
# Poissons Ratio (x) = 0.86739 -0.02648
# Poissons Ratio (y) = 0.50997 0.03519
# Poissons Ratio (z) = -0.05668 0.12812
#
# Static dielectric constant tensor:
#      x y z
#    x 1.729480 0.000000 0.000000 
#    y 0.000000 1.846100 0.000000 
#    z 0.000000 0.000000 1.870520 
# 
# From -- ./inp_files/7836.got.cif
#   From: 2010.05.17/outbox.cif.g08.bks.cpg/sg40_4_cif.got.tgz:7836.got - 2010.06.03 18:35:42.
