data_PCOD9362136
_publ_section_title
;
Structure prediction by ZEFSAII (Michael W. Deem and Ramdas Pophale) SiO2 
 PCOD9362136
Probable space group: A B M 2
;
_chemical_formula_sum "Si O2"
_cell_formula_units_Z 32
_cell_length_a 4.926678
_cell_length_b 23.537596
_cell_length_c 9.380425
_cell_angle_alpha 90.000000
_cell_angle_beta 90.000000
_cell_angle_gamma 90.000000
_cell_volume 1087.774311
_symmetry_space_group_name_H-M "A B M 2"
_symmetry_group_IT_number 39
_symmetry_cell_setting 'orthorhombic'
loop_
_space_group_symop_operation_xyz
x,y,z
-x,-y,z
-x,1/2+y,z
x,1/2-y,z
x,1/2+y,1/2+z
-x,1/2-y,1/2+z
-x,y,1/2+z
x,-y,1/2+z
loop_
_atom_site_type_symbol
_atom_site_label
_atom_site_fract_x
_atom_site_fract_y
_atom_site_fract_z
Si Si1 0.749229 0.347056 0.702930
Si Si2 0.940389 0.065590 0.402111
Si Si3 0.373138 0.061458 0.640751
Si Si4 0.439474 0.750000 0.359951
Si Si5 0.941915 0.750000 0.540654
O O1 0.899652 0.384339 0.820856
O O2 0.584118 0.389264 0.598190
O O3 0.534548 0.305353 0.776854
O O4 0.957358 0.306367 0.620107
O O5 0.089194 0.066386 0.557284
O O6 0.658435 0.069100 0.311497
O O7 0.000000 0.000000 0.357737
O O8 0.500000 0.000000 0.608111
O O9 0.124961 0.750000 0.397575
O O10 0.627836 0.750000 0.501201
#
# Coordination Sequence:
#
# PCOD9362136 Si02
#       5
#     8   8   8   4   4
#     4  11  28  49  81 114 163 217 277 343 425 504
#     4  12  28  50  80 118 165 219 276 342 425 514
#     4  12  29  52  78 121 169 223 275 352 424 517
#     4  11  28  51  82 113 164 216 282 349 421 492
#     4  11  28  51  78 119 158 220 282 347 417 498
#
# _framework density 29.417867999999999
#
# number of rings (size 3 to 8) (size 9 to 14) (size 15 to 20)
#    0.000    0.500    2.500    2.250   14.000    2.000 
#    0.000    0.000    0.000    0.000    0.000    0.000 
#    0.000    0.000    0.000    0.000    0.000    0.000 
#
# Total GULP energy -89752.200129 kJ/mol
# GULP energy per Si atom -5609.512508 kJ/mol
# Density = 2.935091 g / cm^3
# Si number density = 29.417868 Si / 1000 Ang^3
#
#
#
# Elastic Constant Matrix: (Units=GPa)
#
#
# Indices 1 2 3 4 5 6 
#
# 1 123.4938 23.9780 26.9231 0.0000 0.0000 0.0000
# 2 23.9780 200.8912 45.0793 0.0000 0.0000 0.0000
# 3 26.9231 45.0793 162.8338 0.0000 0.0000 0.0000
# 4 0.0000 0.0000 0.0000 6.2156 0.0000 0.0000
# 5 0.0000 0.0000 0.0000 0.0000 42.2728 0.0000
# 6 0.0000 0.0000 0.0000 0.0000 0.0000 42.8877
#
#
#
# Elastic Compliance Matrix: (Units=1/GPa)
#
#
# Indices 1 2 3 4 5 6 
#
# 1 0.008504 -0.000746 -0.001200 0.000000 0.000000 0.000000
# 2 -0.000746 0.005373 -0.001364 0.000000 0.000000 0.000000
# 3 -0.001200 -0.001364 0.006717 0.000000 0.000000 0.000000
# 4 0.000000 0.000000 0.000000 0.160886 0.000000 0.000000
# 5 0.000000 0.000000 0.000000 0.000000 0.023656 0.000000
# 6 0.000000 0.000000 0.000000 0.000000 0.000000 0.023317
#
#
# Mechanical properties :
#
#
# Convention : Reuss Voigt Hill
#
# Bulk Modulus (GPa) = 71.55638 75.46439 73.51039
# Shear Modulus (GPa) = 20.85676 44.35778 32.60727
#
# Velocity S-wave (km/s) = 2.66556 3.88732 3.33290
# Velocity P-wave (km/s) = 5.81812 6.77175 6.31297
#
# Compressibility (1/GPa) = 0.01397499
#
# Stress axis : x y z
#
# Youngs Moduli (GPa) = 117.59301 186.11755 148.87103
#
# Poissons Ratio (x) = 0.13881 0.17858
# Poissons Ratio (y) = 0.08770 0.20308
# Poissons Ratio (z) = 0.14106 0.25389
#
# Static dielectric constant tensor:
#      x y z
#    x 2.242020 0.000000 0.000000 
#    y 0.000000 2.196260 0.000000 
#    z 0.000000 0.000000 2.361860 
# 
# From -- ./inp_files/4446.got.cif
#   From: 2010.05.17/outbox.cif.g08.bks.cpg/sg39_3_cif.got.tgz:4446.got - 2010.06.03 18:22:40.
