data_PCOD9362374
_publ_section_title
;
Structure prediction by ZEFSAII (Michael W. Deem and Ramdas Pophale) SiO2 
 PCOD9362374
Probable space group: A M A 2
;
_chemical_formula_sum "Si O2"
_cell_formula_units_Z 64
_cell_length_a 8.658277
_cell_length_b 27.105824
_cell_length_c 19.047704
_cell_angle_alpha 90.000000
_cell_angle_beta 90.000000
_cell_angle_gamma 90.000000
_cell_volume 4470.300557
_symmetry_space_group_name_H-M "A M A 2"
_symmetry_group_IT_number 40
_symmetry_cell_setting 'orthorhombic'
loop_
_space_group_symop_operation_xyz
x,y,z
-x,-y,z
1/2-x,y,z
1/2+x,-y,z
x,1/2+y,1/2+z
-x,1/2-y,1/2+z
1/2-x,1/2+y,1/2+z
1/2+x,1/2-y,1/2+z
loop_
_atom_site_type_symbol
_atom_site_label
_atom_site_fract_x
_atom_site_fract_y
_atom_site_fract_z
Si Si1 0.562385 0.648516 0.396210
Si Si2 0.064416 0.946644 0.807882
Si Si3 0.427669 0.803779 0.032014
Si Si4 0.938030 0.756719 0.658119
Si Si5 0.072450 0.199828 0.446880
Si Si6 0.064973 0.745189 0.320319
Si Si7 0.933614 0.648302 0.077079
Si Si8 0.065499 0.053840 0.652143
O O1 0.750000 0.652610 0.396998
O O2 0.521425 0.596583 0.361675
O O3 0.505210 0.657542 0.476151
O O4 0.498692 0.693073 0.348929
O O5 0.250000 0.948847 0.802462
O O6 0.996591 0.935507 0.730795
O O7 0.000000 0.000000 0.829074
O O8 0.250000 0.818595 0.044855
O O9 0.494605 0.787398 0.106830
O O10 0.427653 0.752330 0.988364
O O11 0.750000 0.759049 0.652734
O O12 0.979573 0.749177 0.739001
O O13 0.002739 0.807909 0.627302
O O14 0.250000 0.184286 0.439999
O O15 0.999691 0.212592 0.371829
O O16 0.982057 0.163076 0.498022
O O17 0.250000 0.744715 0.325118
O O18 0.750000 0.646165 0.083265
O O19 0.007022 0.597078 0.101831
O O20 0.250000 0.052187 0.653527
O O21 0.000000 0.000000 0.632549
#
# Coordination Sequence:
#
# PCOD9362374 Si02
#       8
#     8   8   8   8   8   8   8   8
#     4   9  17  28  42  57  77 110 146 174 206 252
#     4  10  19  30  43  61  83 109 143 181 218 253
#     4   7  12  25  41  55  74 103 137 169 201 242
#     4   9  17  28  42  61  86 115 143 173 212 254
#     4   9  17  30  44  58  81 112 141 171 210 251
#     4  10  18  26  40  63  86 109 140 175 209 248
#     4  11  20  30  45  64  85 111 145 179 211 251
#     4  11  21  33  46  61  83 111 142 176 214 251
#
# _framework density 14.316712000000001
#
# number of rings (size 3 to 8) (size 9 to 14) (size 15 to 20)
#    0.000    2.500    0.000    6.375    0.000    4.000 
#    0.000    0.000    0.000    0.000    0.000    0.000 
#    0.000    1.000    0.000    6.500    0.000    2.125 
#
# Total GULP energy -178270.721710 kJ/mol
# GULP energy per Si atom -5570.960053 kJ/mol
# Density = 1.428413 g / cm^3
# Si number density = 14.316712 Si / 1000 Ang^3
#
#
#
# Elastic Constant Matrix: (Units=GPa)
#
#
# Indices 1 2 3 4 5 6 
#
# 1 58.7585 32.4651 34.4965 0.0000 0.0000 0.0000
# 2 32.4651 88.3155 61.6619 0.0000 0.0000 0.0000
# 3 34.4965 61.6619 121.8802 0.0000 0.0000 0.0000
# 4 0.0000 0.0000 0.0000 24.9932 0.0000 0.0000
# 5 0.0000 0.0000 0.0000 0.0000 15.1856 0.0000
# 6 0.0000 0.0000 0.0000 0.0000 0.0000 17.3794
#
#
#
# Elastic Compliance Matrix: (Units=1/GPa)
#
#
# Indices 1 2 3 4 5 6 
#
# 1 0.022198 -0.005834 -0.003331 0.000000 0.000000 0.000000
# 2 -0.005834 0.019041 -0.007982 0.000000 0.000000 0.000000
# 3 -0.003331 -0.007982 0.013186 0.000000 0.000000 0.000000
# 4 0.000000 0.000000 0.000000 0.040011 0.000000 0.000000
# 5 0.000000 0.000000 0.000000 0.000000 0.065852 0.000000
# 6 0.000000 0.000000 0.000000 0.000000 0.000000 0.057539
#
#
# Mechanical properties :
#
#
# Convention : Reuss Voigt Hill
#
# Bulk Modulus (GPa) = 49.67701 58.46681 54.07191
# Shear Modulus (GPa) = 19.31764 20.86703 20.09233
#
# Velocity S-wave (km/s) = 3.67728 3.82190 3.75029
# Velocity P-wave (km/s) = 7.26662 7.77192 7.52351
#
# Compressibility (1/GPa) = 0.02013004
#
# Stress axis : x y z
#
# Youngs Moduli (GPa) = 45.04903 52.51933 75.83938
#
# Poissons Ratio (x) = 0.30641 0.25263
# Poissons Ratio (y) = 0.26283 0.60533
# Poissons Ratio (z) = 0.15006 0.41920
#
# Static dielectric constant tensor:
#      x y z
#    x 1.486240 0.000000 0.000000 
#    y 0.000000 1.454490 0.000000 
#    z 0.000000 0.000000 1.490090 
# 
# From -- ./inp_files/19777.got.cif
#   From: 2010.05.17/outbox.cif.g08.bks.cpg/sg40_10_cif.got.tgz:19777.got - 2010.06.03 18:35:42.
