data_PCOD9362371
_publ_section_title
;
Structure prediction by ZEFSAII (Michael W. Deem and Ramdas Pophale) SiO2 
 PCOD9362371
Probable space group: A M A 2
;
_chemical_formula_sum "Si O2"
_cell_formula_units_Z 36
_cell_length_a 17.889118
_cell_length_b 8.409598
_cell_length_c 12.865292
_cell_angle_alpha 90.000000
_cell_angle_beta 90.000000
_cell_angle_gamma 90.000000
_cell_volume 1935.458272
_symmetry_space_group_name_H-M "A M A 2"
_symmetry_group_IT_number 40
_symmetry_cell_setting 'orthorhombic'
loop_
_space_group_symop_operation_xyz
x,y,z
-x,-y,z
1/2-x,y,z
1/2+x,-y,z
x,1/2+y,1/2+z
-x,1/2-y,1/2+z
1/2-x,1/2+y,1/2+z
1/2+x,1/2-y,1/2+z
loop_
_atom_site_type_symbol
_atom_site_label
_atom_site_fract_x
_atom_site_fract_y
_atom_site_fract_z
Si Si1 0.119946 0.360732 0.892350
Si Si2 0.250000 0.906865 0.721470
Si Si3 0.250000 0.876080 0.113309
Si Si4 0.750000 0.802514 0.009446
Si Si5 0.122644 0.164284 0.686740
Si Si6 0.000000 0.500000 0.044923
Si Si7 0.750000 0.421402 0.828364
O O1 0.099719 0.280113 0.782107
O O2 0.173279 0.517297 0.881049
O O3 0.176706 0.239601 0.945900
O O4 0.051587 0.396398 0.967915
O O5 0.250000 0.809772 0.611925
O O6 0.250000 0.764889 0.805096
O O7 0.176826 0.019912 0.725128
O O8 0.177477 0.766882 0.113736
O O9 0.250000 0.012387 0.030389
O O10 0.250000 0.973544 0.222330
O O11 0.054069 0.099431 0.620532
#
# Coordination Sequence:
#
# PCOD9362371 Si02
#       7
#     8   4   4   4   8   4   4
#     4  10  22  42  60  90 125 163 206 256 308 372
#     4  10  17  37  71  89 118 158 210 268 303 344
#     4   8  18  38  64  89 115 153 212 264 297 351
#     4  10  17  39  67  89 116 155 213 261 305 354
#     4  10  22  42  60  90 126 160 208 260 301 368
#     4  12  24  42  62  86 142 168 194 248 324 382
#     4   8  18  36  68  89 113 158 211 263 303 349
#
# _framework density 18.600245999999999
#
# number of rings (size 3 to 8) (size 9 to 14) (size 15 to 20)
#    0.000    2.222    2.222    2.000    0.000    1.778 
#   16.000    0.000    0.000    0.000    0.000    0.000 
#    0.000    0.000    0.000    0.000    0.000    0.000 
#
# Total GULP energy -100397.446657 kJ/mol
# GULP energy per Si atom -5577.635925 kJ/mol
# Density = 1.855791 g / cm^3
# Si number density = 18.600246 Si / 1000 Ang^3
#
#
#
# Elastic Constant Matrix: (Units=GPa)
#
#
# Indices 1 2 3 4 5 6 
#
# 1 149.6506 63.0380 68.0920 0.0000 0.0000 0.0000
# 2 63.0380 122.4169 47.5288 0.0000 0.0000 0.0000
# 3 68.0920 47.5288 90.1508 0.0000 0.0000 0.0000
# 4 0.0000 0.0000 0.0000 44.8244 0.0000 0.0000
# 5 0.0000 0.0000 0.0000 0.0000 16.4366 0.0000
# 6 0.0000 0.0000 0.0000 0.0000 0.0000 11.9709
#
#
#
# Elastic Compliance Matrix: (Units=1/GPa)
#
#
# Indices 1 2 3 4 5 6 
#
# 1 0.011031 -0.003075 -0.006711 0.000000 0.000000 0.000000
# 2 -0.003075 0.011128 -0.003545 0.000000 0.000000 0.000000
# 3 -0.006711 -0.003545 0.018030 0.000000 0.000000 0.000000
# 4 0.000000 0.000000 0.000000 0.022309 0.000000 0.000000
# 5 0.000000 0.000000 0.000000 0.000000 0.060840 0.000000
# 6 0.000000 0.000000 0.000000 0.000000 0.000000 0.083536
#
#
# Mechanical properties :
#
#
# Convention : Reuss Voigt Hill
#
# Bulk Modulus (GPa) = 73.91520 79.94845 76.93182
# Shear Modulus (GPa) = 21.00454 26.88369 23.94411
#
# Velocity S-wave (km/s) = 3.36409 3.80589 3.59179
# Velocity P-wave (km/s) = 7.41044 7.89866 7.65844
#
# Compressibility (1/GPa) = 0.01352902
#
# Stress axis : x y z
#
# Youngs Moduli (GPa) = 90.65487 89.86037 55.46342
#
# Poissons Ratio (x) = 0.27631 0.37219
# Poissons Ratio (y) = 0.27875 0.19659
# Poissons Ratio (z) = 0.60835 0.31852
#
# Static dielectric constant tensor:
#      x y z
#    x 1.600230 0.000000 0.000000 
#    y 0.000000 1.641510 0.000000 
#    z 0.000000 0.000000 1.684640 
# 
# From -- ./inp_files/12757.got.cif
#   From: 2010.05.17/outbox.cif.g08.bks.cpg/sg40_7_cif.got.tgz:12757.got - 2010.06.03 18:35:42.
