data_PCOD9362014
_publ_section_title
;
Structure prediction by ZEFSAII (Michael W. Deem and Ramdas Pophale) SiO2 
 PCOD9362014
Probable space group: A B M 2
;
_chemical_formula_sum "Si O2"
_cell_formula_units_Z 64
_cell_length_a 6.920243
_cell_length_b 16.739252
_cell_length_c 27.112530
_cell_angle_alpha 90.000000
_cell_angle_beta 90.000000
_cell_angle_gamma 90.000000
_cell_volume 3140.707110
_symmetry_space_group_name_H-M "A B M 2"
_symmetry_group_IT_number 39
_symmetry_cell_setting 'orthorhombic'
loop_
_space_group_symop_operation_xyz
x,y,z
-x,-y,z
-x,1/2+y,z
x,1/2-y,z
x,1/2+y,1/2+z
-x,1/2-y,1/2+z
-x,y,1/2+z
x,-y,1/2+z
loop_
_atom_site_type_symbol
_atom_site_label
_atom_site_fract_x
_atom_site_fract_y
_atom_site_fract_z
Si Si1 0.050818 0.091377 0.127710
Si Si2 0.329880 0.657886 0.986166
Si Si3 0.620025 0.340238 0.565832
Si Si4 0.576729 0.088603 0.403196
Si Si5 0.346794 0.837485 0.160598
Si Si6 0.999187 0.846974 0.916537
Si Si7 0.305823 0.154771 0.329716
Si Si8 0.691204 0.152249 0.717366
O O1 0.180204 0.118906 0.081295
O O2 0.169159 0.112358 0.177419
O O3 0.844543 0.131201 0.135645
O O4 0.000000 0.000000 0.123013
O O5 0.297400 0.750000 0.001234
O O6 0.466371 0.651208 0.938445
O O7 0.124353 0.628502 0.965047
O O8 0.466276 0.620290 0.028318
O O9 0.664210 0.250000 0.547833
O O10 0.502626 0.333921 0.616719
O O11 0.495589 0.109372 0.349181
O O12 0.801933 0.104499 0.410842
O O13 0.500000 0.000000 0.416206
O O14 0.294487 0.750000 0.179434
O O15 0.472272 0.876217 0.204256
O O16 0.966142 0.750000 0.919010
O O17 0.133827 0.861991 0.868565
O O18 0.342248 0.250000 0.331130
O O19 0.257320 0.133844 0.273547
O O20 0.698801 0.250000 0.710993
#
# Coordination Sequence:
#
# PCOD9362014 Si02
#       8
#     8   8   8   8   8   8   8   8
#     4  11  22  36  53  87 123 161 189 237 303 359
#     4   9  19  37  60  85 111 149 202 247 287 349
#     4   9  19  37  61  86 114 151 199 246 287 349
#     4  11  22  36  53  87 122 158 187 239 312 373
#     4   9  18  35  59  81 107 148 196 242 284 339
#     4   9  18  35  61  85 112 152 199 251 298 353
#     4   9  19  37  58  82 112 153 207 256 296 349
#     4   9  19  37  58  82 112 152 206 255 289 340
#
# _framework density 20.377576999999999
#
# number of rings (size 3 to 8) (size 9 to 14) (size 15 to 20)
#    0.000    2.500    0.000    3.750    0.000    6.000 
#    6.750    6.250    0.000    0.000    0.000    0.000 
#    0.000    0.000    0.000    0.000    0.000    0.000 
#
# Total GULP energy -178203.376873 kJ/mol
# GULP energy per Si atom -5568.855527 kJ/mol
# Density = 2.033120 g / cm^3
# Si number density = 20.377577 Si / 1000 Ang^3
#
#
#
# Elastic Constant Matrix: (Units=GPa)
#
#
# Indices 1 2 3 4 5 6 
#
# 1 142.2841 49.3551 19.4855 0.0000 0.0000 0.0000
# 2 49.3551 41.3829 12.9660 0.0000 0.0000 0.0000
# 3 19.4855 12.9660 63.6085 0.0000 0.0000 0.0000
# 4 0.0000 0.0000 0.0000 7.1261 0.0000 0.0000
# 5 0.0000 0.0000 0.0000 0.0000 20.9891 0.0000
# 6 0.0000 0.0000 0.0000 0.0000 0.0000 77.1430
#
#
#
# Elastic Compliance Matrix: (Units=1/GPa)
#
#
# Indices 1 2 3 4 5 6 
#
# 1 0.012027 -0.014089 -0.000812 0.000000 0.000000 0.000000
# 2 -0.014089 0.042318 -0.004310 0.000000 0.000000 0.000000
# 3 -0.000812 -0.004310 0.016849 0.000000 0.000000 0.000000
# 4 0.000000 0.000000 0.000000 0.140328 0.000000 0.000000
# 5 0.000000 0.000000 0.000000 0.000000 0.047644 0.000000
# 6 0.000000 0.000000 0.000000 0.000000 0.000000 0.012963
#
#
# Mechanical properties :
#
#
# Convention : Reuss Voigt Hill
#
# Bulk Modulus (GPa) = 30.51533 45.65430 38.08482
# Shear Modulus (GPa) = 15.55334 32.08291 23.81813
#
# Velocity S-wave (km/s) = 2.76571 3.97220 3.42254
# Velocity P-wave (km/s) = 5.02059 6.59475 5.86076
#
# Compressibility (1/GPa) = 0.03277042
#
# Stress axis : x y z
#
# Youngs Moduli (GPa) = 83.14956 23.63062 59.35218
#
# Poissons Ratio (x) = 0.33293 0.04821
# Poissons Ratio (y) = 1.17148 0.25582
# Poissons Ratio (z) = 0.06754 0.10185
#
# Static dielectric constant tensor:
#      x y z
#    x 2.297380 0.000000 0.000000 
#    y 0.000000 1.746260 0.000000 
#    z 0.000000 0.000000 1.764850 
# 
# From -- ./inp_files/17383.got.cif
#   From: 2010.05.17/outbox.cif.g08.bks.cpg/sg39_9_cif.got.tgz:17383.got - 2010.06.03 18:22:40.
