data_PCOD9362282
_publ_section_title
;
Structure prediction by ZEFSAII (Michael W. Deem and Ramdas Pophale) SiO2 
 PCOD9362282
Probable space group: A M A 2
;
_chemical_formula_sum "Si O2"
_cell_formula_units_Z 48
_cell_length_a 8.444610
_cell_length_b 7.638958
_cell_length_c 34.058576
_cell_angle_alpha 90.000000
_cell_angle_beta 90.000000
_cell_angle_gamma 90.000000
_cell_volume 2197.051340
_symmetry_space_group_name_H-M "A M A 2"
_symmetry_group_IT_number 40
_symmetry_cell_setting 'orthorhombic'
loop_
_space_group_symop_operation_xyz
x,y,z
-x,-y,z
1/2-x,y,z
1/2+x,-y,z
x,1/2+y,1/2+z
-x,1/2-y,1/2+z
1/2-x,1/2+y,1/2+z
1/2+x,1/2-y,1/2+z
loop_
_atom_site_type_symbol
_atom_site_label
_atom_site_fract_x
_atom_site_fract_y
_atom_site_fract_z
Si Si1 0.558393 0.201832 0.994530
Si Si2 0.058217 0.297809 0.410292
Si Si3 0.559886 0.202048 0.079162
Si Si4 0.562641 0.196158 0.241236
Si Si5 0.060124 0.303239 0.326326
Si Si6 0.437557 0.701764 0.660687
O O1 0.750000 0.201587 0.994594
O O2 0.505059 0.279056 0.952417
O O3 0.500000 0.000000 0.994464
O O4 0.507663 0.278229 0.036772
O O5 0.250000 0.299097 0.409867
O O6 0.007953 0.218251 0.368112
O O7 0.000000 0.500000 0.410967
O O8 0.750000 0.201790 0.081195
O O9 0.495124 0.281960 0.119527
O O10 0.500000 0.000000 0.078396
O O11 0.750000 0.204552 0.239402
O O12 0.507985 0.249242 0.284488
O O13 0.496458 0.284863 0.201596
O O14 0.500000 0.000000 0.238261
O O15 0.250000 0.292100 0.323769
O O16 0.000000 0.500000 0.330462
O O17 0.500000 0.500000 0.659791
O O18 0.250000 0.696525 0.661242
#
# Coordination Sequence:
#
# PCOD9362282 Si02
#       6
#     8   8   8   8   8   8
#     4   8  13  20  31  49  74 106 140 173 209 253
#     4   8  14  24  38  56  81 112 145 179 216 259
#     4   9  14  20  31  49  75 106 140 174 211 257
#     4  11  21  34  50  68  91 120 155 194 236 279
#     4  10  19  32  49  70  95 124 157 192 231 273
#     4  10  17  26  39  56  80 110 144 180 222 269
#
# _framework density 21.847465
#
# number of rings (size 3 to 8) (size 9 to 14) (size 15 to 20)
#    0.000    2.667    0.000    6.000    0.000    1.333 
#    0.000    0.000    0.000    0.000    0.000    0.000 
#    0.000    1.333    0.000    6.667    0.000   14.333 
#
# Total GULP energy -133603.386484 kJ/mol
# GULP energy per Si atom -5566.807770 kJ/mol
# Density = 2.179774 g / cm^3
# Si number density = 21.847465 Si / 1000 Ang^3
#
#
#
# Elastic Constant Matrix: (Units=GPa)
#
#
# Indices 1 2 3 4 5 6 
#
# 1 96.6169 -3.6652 68.6349 0.0000 0.0000 0.0000
# 2 -3.6652 33.1931 21.9116 0.0000 0.0000 0.0000
# 3 68.6349 21.9116 331.6574 0.0000 0.0000 0.0000
# 4 0.0000 0.0000 0.0000 4.1122 0.0000 0.0000
# 5 0.0000 0.0000 0.0000 0.0000 44.8178 0.0000
# 6 0.0000 0.0000 0.0000 0.0000 0.0000 4.3710
#
#
#
# Elastic Compliance Matrix: (Units=1/GPa)
#
#
# Indices 1 2 3 4 5 6 
#
# 1 0.012454 0.003217 -0.002790 0.000000 0.000000 0.000000
# 2 0.003217 0.032331 -0.002802 0.000000 0.000000 0.000000
# 3 -0.002790 -0.002802 0.003778 0.000000 0.000000 0.000000
# 4 0.000000 0.000000 0.000000 0.243178 0.000000 0.000000
# 5 0.000000 0.000000 0.000000 0.000000 0.022313 0.000000
# 6 0.000000 0.000000 0.000000 0.000000 0.000000 0.228780
#
#
# Mechanical properties :
#
#
# Convention : Reuss Voigt Hill
#
# Bulk Modulus (GPa) = 22.82398 70.58112 46.70255
# Shear Modulus (GPa) = 8.89384 35.63260 22.26322
#
# Velocity S-wave (km/s) = 2.01983 4.04291 3.19569
# Velocity P-wave (km/s) = 3.98864 7.36002 5.91943
#
# Compressibility (1/GPa) = 0.04381357
#
# Stress axis : x y z
#
# Youngs Moduli (GPa) = 80.29526 30.92962 264.71804
#
# Poissons Ratio (x) = -0.09949 0.73852
# Poissons Ratio (y) = -0.25829 0.74167
# Poissons Ratio (z) = 0.22401 0.08666
#
# Static dielectric constant tensor:
#      x y z
#    x 1.707230 0.000000 0.000000 
#    y 0.000000 1.896020 0.000000 
#    z 0.000000 0.000000 1.993650 
# 
# From -- ./inp_files/26255.got.cif
#   From: 2010.05.17/outbox.cif.g08.bks.cpg/sg40_14_cif.got.tgz:26255.got - 2010.06.03 18:35:42.
