data_PCOD9362473
_publ_section_title
;
Structure prediction by ZEFSAII (Michael W. Deem and Ramdas Pophale) SiO2 
 PCOD9362473
Probable space group: A M A 2
;
_chemical_formula_sum "Si O2"
_cell_formula_units_Z 64
_cell_length_a 8.686136
_cell_length_b 27.229143
_cell_length_c 18.855573
_cell_angle_alpha 90.000000
_cell_angle_beta 90.000000
_cell_angle_gamma 90.000000
_cell_volume 4459.645444
_symmetry_space_group_name_H-M "A M A 2"
_symmetry_group_IT_number 40
_symmetry_cell_setting 'orthorhombic'
loop_
_space_group_symop_operation_xyz
x,y,z
-x,-y,z
1/2-x,y,z
1/2+x,-y,z
x,1/2+y,1/2+z
-x,1/2-y,1/2+z
1/2-x,1/2+y,1/2+z
1/2+x,1/2-y,1/2+z
loop_
_atom_site_type_symbol
_atom_site_label
_atom_site_fract_x
_atom_site_fract_y
_atom_site_fract_z
Si Si1 0.064883 0.946905 0.340640
Si Si2 0.434960 0.446464 0.675982
Si Si3 0.567679 0.257669 0.840522
Si Si4 0.066486 0.205559 0.546592
Si Si5 0.933433 0.740925 0.684690
Si Si6 0.434992 0.147630 0.098912
Si Si7 0.432520 0.201785 0.962649
Si Si8 0.564871 0.649173 0.926046
O O1 0.250000 0.949177 0.342458
O O2 0.020351 0.937233 0.258542
O O3 0.016099 0.901966 0.390339
O O4 0.000000 0.000000 0.361187
O O5 0.500000 0.500000 0.657004
O O6 0.250000 0.446421 0.671680
O O7 0.503580 0.403634 0.627919
O O8 0.750000 0.263577 0.844314
O O9 0.512574 0.252710 0.760137
O O10 0.516927 0.211272 0.888643
O O11 0.490448 0.306071 0.875627
O O12 0.250000 0.211185 0.535212
O O13 0.037158 0.214283 0.629701
O O14 0.977445 0.250131 0.508362
O O15 0.007256 0.158556 0.503653
O O16 0.750000 0.736448 0.694263
O O17 0.993639 0.691422 0.646437
O O18 0.250000 0.150235 0.104577
O O19 0.475988 0.158068 0.016377
O O20 0.250000 0.200634 0.950498
O O21 0.750000 0.650790 0.930393
#
# Coordination Sequence:
#
# PCOD9362473 Si02
#       8
#     8   8   8   8   8   8   8   8
#     4   9  19  31  43  60  81 109 141 174 210 244
#     4  10  19  31  45  61  85 114 145 181 216 249
#     4  11  20  28  42  63  85 111 144 176 208 249
#     4   9  17  28  42  60  81 108 141 173 206 246
#     4  10  19  30  43  60  85 114 143 175 211 249
#     4  10  19  30  45  64  84 111 146 177 211 254
#     4   9  17  29  43  59  83 111 138 172 210 249
#     4  10  18  29  44  61  84 112 141 172 211 252
#
# _framework density 14.350916
#
# number of rings (size 3 to 8) (size 9 to 14) (size 15 to 20)
#    0.000    2.250    0.000    5.625    0.000    5.500 
#    0.000    0.000    0.000    0.000    0.000    0.000 
#    0.000    1.000    0.000    7.000    0.000    5.125 
#
# Total GULP energy -178337.863997 kJ/mol
# GULP energy per Si atom -5573.058250 kJ/mol
# Density = 1.431825 g / cm^3
# Si number density = 14.350916 Si / 1000 Ang^3
#
#
#
# Elastic Constant Matrix: (Units=GPa)
#
#
# Indices 1 2 3 4 5 6 
#
# 1 37.5652 19.7611 24.2729 0.0000 0.0000 0.0000
# 2 19.7611 87.9582 50.5443 0.0000 0.0000 0.0000
# 3 24.2729 50.5443 94.9394 0.0000 0.0000 0.0000
# 4 0.0000 0.0000 0.0000 26.8364 0.0000 0.0000
# 5 0.0000 0.0000 0.0000 0.0000 22.8620 0.0000
# 6 0.0000 0.0000 0.0000 0.0000 0.0000 20.6936
#
#
#
# Elastic Compliance Matrix: (Units=1/GPa)
#
#
# Indices 1 2 3 4 5 6 
#
# 1 0.032687 -0.003661 -0.006408 0.000000 0.000000 0.000000
# 2 -0.003661 0.016790 -0.008003 0.000000 0.000000 0.000000
# 3 -0.006408 -0.008003 0.016432 0.000000 0.000000 0.000000
# 4 0.000000 0.000000 0.000000 0.037263 0.000000 0.000000
# 5 0.000000 0.000000 0.000000 0.000000 0.043741 0.000000
# 6 0.000000 0.000000 0.000000 0.000000 0.000000 0.048324
#
#
# Mechanical properties :
#
#
# Convention : Reuss Voigt Hill
#
# Bulk Modulus (GPa) = 33.59635 45.51327 39.55481
# Shear Modulus (GPa) = 20.72090 22.47069 21.59580
#
# Velocity S-wave (km/s) = 3.80395 3.96131 3.88343
# Velocity P-wave (km/s) = 6.53872 7.25989 6.90872
#
# Compressibility (1/GPa) = 0.02976514
#
# Stress axis : x y z
#
# Youngs Moduli (GPa) = 30.59341 59.55790 60.85748
#
# Poissons Ratio (x) = 0.21807 0.38995
# Poissons Ratio (y) = 0.11202 0.48703
# Poissons Ratio (z) = 0.19603 0.47663
#
# Static dielectric constant tensor:
#      x y z
#    x 1.480790 0.000000 0.000000 
#    y 0.000000 1.459850 0.000000 
#    z 0.000000 0.000000 1.491290 
# 
# From -- ./inp_files/19785.got.cif
#   From: 2010.05.17/outbox.cif.g08.bks.cpg/sg40_10_cif.got.tgz:19785.got - 2010.06.03 18:35:42.
