data_PCOD9362532
_publ_section_title
;
Structure prediction by ZEFSAII (Michael W. Deem and Ramdas Pophale) SiO2 
 PCOD9362532
Probable space group: A M A 2
;
_chemical_formula_sum "Si O2"
_cell_formula_units_Z 64
_cell_length_a 8.258232
_cell_length_b 20.384156
_cell_length_c 21.372612
_cell_angle_alpha 90.000000
_cell_angle_beta 90.000000
_cell_angle_gamma 90.000000
_cell_volume 3597.803296
_symmetry_space_group_name_H-M "A M A 2"
_symmetry_group_IT_number 40
_symmetry_cell_setting 'orthorhombic'
loop_
_space_group_symop_operation_xyz
x,y,z
-x,-y,z
1/2-x,y,z
1/2+x,-y,z
x,1/2+y,1/2+z
-x,1/2-y,1/2+z
1/2-x,1/2+y,1/2+z
1/2+x,1/2-y,1/2+z
loop_
_atom_site_type_symbol
_atom_site_label
_atom_site_fract_x
_atom_site_fract_y
_atom_site_fract_z
Si Si1 0.056404 0.429160 0.171160
Si Si2 0.943128 0.429141 0.315118
Si Si3 0.055182 0.929148 0.198682
Si Si4 0.446006 0.790881 0.246962
Si Si5 0.056163 0.928707 0.053381
Si Si6 0.944615 0.790649 0.005365
Si Si7 0.053940 0.289996 0.125288
Si Si8 0.051693 0.709434 0.367062
O O1 0.250000 0.429115 0.172551
O O2 0.000169 0.365433 0.132972
O O3 0.000000 0.500000 0.147251
O O4 0.996936 0.422744 0.242811
O O5 0.750000 0.429034 0.316202
O O6 0.001251 0.365062 0.351972
O O7 0.000000 0.500000 0.338899
O O8 0.250000 0.928479 0.197921
O O9 0.998557 0.865709 0.236800
O O10 0.000455 0.922878 0.126151
O O11 0.000000 0.000000 0.222334
O O12 0.250000 0.790823 0.247763
O O13 0.499715 0.749222 0.186834
O O14 0.502191 0.756341 0.310672
O O15 0.250000 0.926214 0.052319
O O16 0.987975 0.866444 0.017150
O O17 0.000000 0.000000 0.030188
O O18 0.750000 0.785248 0.005775
O O19 0.006569 0.746893 0.063126
O O20 0.002070 0.770699 0.936338
O O21 0.250000 0.289550 0.123972
O O22 0.250000 0.709576 0.366537
#
# Coordination Sequence:
#
# PCOD9362532 Si02
#       8
#     8   8   8   8   8   8   8   8
#     4  10  19  31  48  74 100 127 162 201 248 293
#     4  10  18  30  48  70  97 131 164 200 240 286
#     4   9  18  30  49  74 100 127 161 203 247 293
#     4  10  18  33  54  75  98 129 169 206 246 297
#     4  10  19  32  49  73 102 136 171 206 245 293
#     4  10  20  35  51  72 102 135 168 206 252 303
#     4  10  20  32  51  76 101 128 163 208 253 293
#     4   9  19  33  51  72  98 133 169 203 246 297
#
# _framework density 17.788630999999999
#
# number of rings (size 3 to 8) (size 9 to 14) (size 15 to 20)
#    0.000    2.250    2.500    1.875    0.000    2.000 
#    0.000    3.125    0.000    0.750    0.000    0.000 
#    0.000    0.000    0.000    0.000    0.000    0.000 
#
# Total GULP energy -178512.875562 kJ/mol
# GULP energy per Si atom -5578.527361 kJ/mol
# Density = 1.774814 g / cm^3
# Si number density = 17.788631 Si / 1000 Ang^3
#
#
#
# Elastic Constant Matrix: (Units=GPa)
#
#
# Indices 1 2 3 4 5 6 
#
# 1 11.2848 8.2660 8.1518 0.0000 0.0000 0.0000
# 2 8.2660 142.8483 77.1165 0.0000 0.0000 0.0000
# 3 8.1518 77.1165 123.7595 0.0000 0.0000 0.0000
# 4 0.0000 0.0000 0.0000 22.0193 0.0000 0.0000
# 5 0.0000 0.0000 0.0000 0.0000 11.6926 0.0000
# 6 0.0000 0.0000 0.0000 0.0000 0.0000 16.8595
#
#
#
# Elastic Compliance Matrix: (Units=1/GPa)
#
#
# Indices 1 2 3 4 5 6 
#
# 1 0.093979 -0.003159 -0.004222 0.000000 0.000000 0.000000
# 2 -0.003159 0.010655 -0.006431 0.000000 0.000000 0.000000
# 3 -0.004222 -0.006431 0.012366 0.000000 0.000000 0.000000
# 4 0.000000 0.000000 0.000000 0.045415 0.000000 0.000000
# 5 0.000000 0.000000 0.000000 0.000000 0.085524 0.000000
# 6 0.000000 0.000000 0.000000 0.000000 0.000000 0.059314
#
#
# Mechanical properties :
#
#
# Convention : Reuss Voigt Hill
#
# Bulk Modulus (GPa) = 11.18876 51.66235 31.42555
# Shear Modulus (GPa) = 13.71109 22.40483 18.05796
#
# Velocity S-wave (km/s) = 2.77930 3.55280 3.18958
# Velocity P-wave (km/s) = 4.07466 6.77755 5.59187
#
# Compressibility (1/GPa) = 0.08937543
#
# Stress axis : x y z
#
# Youngs Moduli (GPa) = 10.64071 93.85102 80.86868
#
# Poissons Ratio (x) = 0.29648 0.34140
# Poissons Ratio (y) = 0.03361 0.52009
# Poissons Ratio (z) = 0.04492 0.60359
#
# Static dielectric constant tensor:
#      x y z
#    x 1.621090 0.000000 0.000000 
#    y 0.000000 1.621530 0.000000 
#    z 0.000000 0.000000 1.604960 
# 
# From -- ./inp_files/22531.got.cif
#   From: 2010.05.17/outbox.cif.g08.bks.cpg/sg40_12_cif.got.tgz:22531.got - 2010.06.03 18:35:42.
