data_PCOD9362499
_publ_section_title
;
Structure prediction by ZEFSAII (Michael W. Deem and Ramdas Pophale) SiO2 
 PCOD9362499
Probable space group: A M A 2
;
_chemical_formula_sum "Si O2"
_cell_formula_units_Z 64
_cell_length_a 8.175714
_cell_length_b 23.758355
_cell_length_c 19.944649
_cell_angle_alpha 90.000000
_cell_angle_beta 90.000000
_cell_angle_gamma 90.000000
_cell_volume 3874.078850
_symmetry_space_group_name_H-M "A M A 2"
_symmetry_group_IT_number 40
_symmetry_cell_setting 'orthorhombic'
loop_
_space_group_symop_operation_xyz
x,y,z
-x,-y,z
1/2-x,y,z
1/2+x,-y,z
x,1/2+y,1/2+z
-x,1/2-y,1/2+z
1/2-x,1/2+y,1/2+z
1/2+x,1/2-y,1/2+z
loop_
_atom_site_type_symbol
_atom_site_label
_atom_site_fract_x
_atom_site_fract_y
_atom_site_fract_z
Si Si1 0.442071 0.936118 0.547150
Si Si2 0.055826 0.744734 0.677656
Si Si3 0.551213 0.270226 0.530595
Si Si4 0.448010 0.224428 0.323786
Si Si5 0.052619 0.164659 0.902613
Si Si6 0.556646 0.372526 0.178958
Si Si7 0.445842 0.658536 0.952397
Si Si8 0.052820 0.563947 0.313194
O O1 0.250000 0.935526 0.560672
O O2 0.527650 0.906274 0.610515
O O3 0.479487 0.897997 0.482387
O O4 0.500000 0.000000 0.539419
O O5 0.250000 0.734096 0.677663
O O6 0.990823 0.722547 0.606503
O O7 0.990177 0.720052 0.747621
O O8 0.028729 0.811963 0.677885
O O9 0.750000 0.269005 0.531217
O O10 0.497276 0.317081 0.476811
O O11 0.493436 0.210292 0.501294
O O12 0.250000 0.223508 0.323005
O O13 0.500846 0.284738 0.353425
O O14 0.501565 0.177974 0.378236
O O15 0.250000 0.163452 0.903583
O O16 0.994366 0.105913 0.871834
O O17 0.750000 0.362075 0.187000
O O18 0.498487 0.409504 0.242162
O O19 0.250000 0.653207 0.952317
O O20 0.250000 0.565006 0.312926
O O21 0.000000 0.500000 0.320727
#
# Coordination Sequence:
#
# PCOD9362499 Si02
#       8
#     8   8   8   8   8   8   8   8
#     4  12  24  37  51  69  94 128 166 203 241 285
#     4  10  18  29  47  73  99 128 160 192 235 284
#     4   9  17  29  48  69  93 123 157 197 240 285
#     4   9  18  30  47  70  97 125 156 195 237 282
#     4   9  17  31  46  65  91 121 159 199 239 282
#     4  11  21  33  47  68  98 131 164 198 233 276
#     4  10  19  32  48  69  96 126 160 198 239 284
#     4  10  21  33  46  65  91 126 163 198 234 274
#
# _framework density 16.520054999999999
#
# number of rings (size 3 to 8) (size 9 to 14) (size 15 to 20)
#    0.000    2.000    2.500    2.250    0.000    3.000 
#    0.000    0.000    0.000    0.000    0.000    0.875 
#    0.000    2.000    0.000    0.000    0.000    0.000 
#
# Total GULP energy -178499.466929 kJ/mol
# GULP energy per Si atom -5578.108342 kJ/mol
# Density = 1.648246 g / cm^3
# Si number density = 16.520055 Si / 1000 Ang^3
#
#
#
# Elastic Constant Matrix: (Units=GPa)
#
#
# Indices 1 2 3 4 5 6 
#
# 1 8.0104 -8.3516 -0.1860 0.0000 0.0000 0.0000
# 2 -8.3516 63.1004 48.8928 0.0000 0.0000 0.0000
# 3 -0.1860 48.8928 149.8836 0.0000 0.0000 0.0000
# 4 0.0000 0.0000 0.0000 12.9258 0.0000 0.0000
# 5 0.0000 0.0000 0.0000 0.0000 11.9719 0.0000
# 6 0.0000 0.0000 0.0000 0.0000 0.0000 19.0324
#
#
#
# Elastic Compliance Matrix: (Units=1/GPa)
#
#
# Indices 1 2 3 4 5 6 
#
# 1 0.152617 0.026836 -0.008565 0.000000 0.000000 0.000000
# 2 0.026836 0.025927 -0.008424 0.000000 0.000000 0.000000
# 3 -0.008565 -0.008424 0.009409 0.000000 0.000000 0.000000
# 4 0.000000 0.000000 0.000000 0.077364 0.000000 0.000000
# 5 0.000000 0.000000 0.000000 0.000000 0.083529 0.000000
# 6 0.000000 0.000000 0.000000 0.000000 0.000000 0.052542
#
#
# Mechanical properties :
#
#
# Convention : Reuss Voigt Hill
#
# Bulk Modulus (GPa) = 4.81585 33.52275 19.16930
# Shear Modulus (GPa) = 11.08866 20.82864 15.95865
#
# Velocity S-wave (km/s) = 2.59361 3.55464 3.11145
# Velocity P-wave (km/s) = 3.44827 6.09783 4.95349
#
# Compressibility (1/GPa) = 0.20764760
#
# Stress axis : x y z
#
# Youngs Moduli (GPa) = 6.55233 38.56977 106.27848
#
# Poissons Ratio (x) = -1.03505 0.91023
# Poissons Ratio (y) = -0.17584 0.89531
# Poissons Ratio (z) = 0.05612 0.32492
#
# Static dielectric constant tensor:
#      x y z
#    x 1.571140 0.000000 0.000000 
#    y 0.000000 1.524620 0.000000 
#    z 0.000000 0.000000 1.599780 
# 
# From -- ./inp_files/19718.got.cif
#   From: 2010.05.17/outbox.cif.g08.bks.cpg/sg40_10_cif.got.tgz:19718.got - 2010.06.03 18:35:42.
