data_PCOD9362619
_publ_section_title
;
Structure prediction by ZEFSAII (Michael W. Deem and Ramdas Pophale) SiO2 
 PCOD9362619
Probable space group: A M A 2
;
_chemical_formula_sum "Si O2"
_cell_formula_units_Z 64
_cell_length_a 15.107424
_cell_length_b 11.528223
_cell_length_c 16.900389
_cell_angle_alpha 90.000000
_cell_angle_beta 90.000000
_cell_angle_gamma 90.000000
_cell_volume 2943.401372
_symmetry_space_group_name_H-M "A M A 2"
_symmetry_group_IT_number 40
_symmetry_cell_setting 'orthorhombic'
loop_
_space_group_symop_operation_xyz
x,y,z
-x,-y,z
1/2-x,y,z
1/2+x,-y,z
x,1/2+y,1/2+z
-x,1/2-y,1/2+z
1/2-x,1/2+y,1/2+z
1/2+x,1/2-y,1/2+z
loop_
_atom_site_type_symbol
_atom_site_label
_atom_site_fract_x
_atom_site_fract_y
_atom_site_fract_z
Si Si1 0.967966 0.875825 0.541270
Si Si2 0.646741 0.040877 0.150798
Si Si3 0.651866 0.860774 0.404004
Si Si4 0.350292 0.549867 0.191369
Si Si5 0.529056 0.306775 0.302772
Si Si6 0.847210 0.141163 0.806451
Si Si7 0.850482 0.110777 0.336419
Si Si8 0.973601 0.316723 0.639010
O O1 0.913096 0.818064 0.471339
O O2 0.906269 0.914139 0.615664
O O3 0.038947 0.787286 0.576967
O O4 0.000000 0.000000 0.511802
O O5 0.750000 0.047697 0.123151
O O6 0.648458 0.080033 0.242935
O O7 0.569031 0.124095 0.116337
O O8 0.603266 0.912850 0.142573
O O9 0.750000 0.863572 0.439226
O O10 0.656441 0.777458 0.327955
O O11 0.629379 0.989901 0.377922
O O12 0.250000 0.588509 0.180733
O O13 0.395032 0.612693 0.266188
O O14 0.350410 0.415273 0.218825
O O15 0.447100 0.378736 0.338170
O O16 0.577528 0.208979 0.353773
O O17 0.489593 0.239057 0.225642
O O18 0.750000 0.097483 0.837284
O O19 0.750000 0.147132 0.356434
#
# Coordination Sequence:
#
# PCOD9362619 Si02
#       8
#     8   8   8   8   8   8   8   8
#     4  11  23  37  57  84 123 161 201 243 303 371
#     4   9  17  33  59  86 115 147 188 251 302 340
#     4  10  22  38  55  80 115 156 197 238 295 362
#     4  10  20  37  60  87 116 151 197 250 301 354
#     4  10  18  31  56  82 114 145 184 241 297 344
#     4  10  21  35  55  82 112 151 199 242 289 350
#     4   9  18  31  52  85 114 144 189 235 290 350
#     4   9  19  33  52  87 114 145 196 238 284 363
#
# _framework density 21.743551
#
# number of rings (size 3 to 8) (size 9 to 14) (size 15 to 20)
#    0.000    2.250    0.000    3.375    1.750    6.000 
#    0.000    1.250    5.500    0.000    0.000    0.000 
#    0.000    0.000    0.000    0.000    0.000    0.000 
#
# Total GULP energy -178154.674434 kJ/mol
# GULP energy per Si atom -5567.333576 kJ/mol
# Density = 2.169406 g / cm^3
# Si number density = 21.743551 Si / 1000 Ang^3
#
#
#
# Elastic Constant Matrix: (Units=GPa)
#
#
# Indices 1 2 3 4 5 6 
#
# 1 112.3038 30.3466 13.2843 0.0000 0.0000 0.0000
# 2 30.3466 61.9639 14.4819 0.0000 0.0000 0.0000
# 3 13.2843 14.4819 31.0412 0.0000 0.0000 0.0000
# 4 0.0000 0.0000 0.0000 8.8414 0.0000 0.0000
# 5 0.0000 0.0000 0.0000 0.0000 24.0194 0.0000
# 6 0.0000 0.0000 0.0000 0.0000 0.0000 30.6617
#
#
#
# Elastic Compliance Matrix: (Units=1/GPa)
#
#
# Indices 1 2 3 4 5 6 
#
# 1 0.010411 -0.004554 -0.002331 0.000000 0.000000 0.000000
# 2 -0.004554 0.020105 -0.007431 0.000000 0.000000 0.000000
# 3 -0.002331 -0.007431 0.036680 0.000000 0.000000 0.000000
# 4 0.000000 0.000000 0.000000 0.113104 0.000000 0.000000
# 5 0.000000 0.000000 0.000000 0.000000 0.041633 0.000000
# 6 0.000000 0.000000 0.000000 0.000000 0.000000 0.032614
#
#
# Mechanical properties :
#
#
# Convention : Reuss Voigt Hill
#
# Bulk Modulus (GPa) = 25.93074 35.72607 30.82840
# Shear Modulus (GPa) = 16.89001 22.51758 19.70379
#
# Velocity S-wave (km/s) = 2.79011 3.22156 3.01356
# Velocity P-wave (km/s) = 4.72559 5.50493 5.13008
#
# Compressibility (1/GPa) = 0.03856427
#
# Stress axis : x y z
#
# Youngs Moduli (GPa) = 96.05540 49.73781 27.26306
#
# Poissons Ratio (x) = 0.22650 0.06354
# Poissons Ratio (y) = 0.43742 0.20260
# Poissons Ratio (z) = 0.22388 0.36961
#
# Static dielectric constant tensor:
#      x y z
#    x 1.870010 0.000000 0.000000 
#    y 0.000000 1.859580 0.000000 
#    z 0.000000 0.000000 1.755460 
# 
# From -- ./inp_files/20783.got.cif
#   From: 2010.05.17/outbox.cif.g08.bks.cpg/sg40_11_cif.got.tgz:20783.got - 2010.06.03 18:35:42.
