data_PCOD9362322
_publ_section_title
;
Structure prediction by ZEFSAII (Michael W. Deem and Ramdas Pophale) SiO2 
 PCOD9362322
Probable space group: A M A 2
;
_chemical_formula_sum "Si O2"
_cell_formula_units_Z 40
_cell_length_a 20.252615
_cell_length_b 18.545896
_cell_length_c 5.328227
_cell_angle_alpha 90.000000
_cell_angle_beta 90.000000
_cell_angle_gamma 90.000000
_cell_volume 2001.297468
_symmetry_space_group_name_H-M "A M A 2"
_symmetry_group_IT_number 40
_symmetry_cell_setting 'orthorhombic'
loop_
_space_group_symop_operation_xyz
x,y,z
-x,-y,z
1/2-x,y,z
1/2+x,-y,z
x,1/2+y,1/2+z
-x,1/2-y,1/2+z
1/2-x,1/2+y,1/2+z
1/2+x,1/2-y,1/2+z
loop_
_atom_site_type_symbol
_atom_site_label
_atom_site_fract_x
_atom_site_fract_y
_atom_site_fract_z
Si Si1 0.175200 0.414340 0.591410
Si Si2 0.534805 0.223107 0.631834
Si Si3 0.928974 0.960594 0.010622
Si Si4 0.674732 0.682651 0.089861
Si Si5 0.531749 0.420893 0.011288
O O1 0.250000 0.442856 0.600370
O O2 0.123451 0.478805 0.580478
O O3 0.169096 0.366780 0.339219
O O4 0.166206 0.364962 0.837592
O O5 0.493415 0.259698 0.407164
O O6 0.612759 0.236206 0.604628
O O7 0.522250 0.137871 0.583975
O O8 0.936959 0.905615 0.240617
O O9 0.917098 0.924997 0.740746
O O10 0.000000 0.000000 0.978124
O O11 0.750000 0.211964 0.585259
O O12 0.500000 0.500000 0.980632
#
# Coordination Sequence:
#
# PCOD9362322 Si02
#       5
#     8   8   8   8   8
#     4  10  19  32  55  87 117 146 192 246 289 338
#     4  12  24  39  60  89 119 151 199 250 293 348
#     4  10  17  29  51  77 108 140 175 220 280 335
#     4  10  20  36  57  82 114 153 195 242 292 343
#     4  10  20  34  56  81 110 146 182 226 281 336
#
# _framework density 19.987033
#
# number of rings (size 3 to 8) (size 9 to 14) (size 15 to 20)
#    0.000    1.600    0.000    8.400    0.000    0.000 
#    0.000    0.000    0.000    7.200    0.000    0.000 
#    0.000    0.000    0.000    0.000    0.000    0.000 
#
# Total GULP energy -111607.776570 kJ/mol
# GULP energy per Si atom -5580.388829 kJ/mol
# Density = 1.994154 g / cm^3
# Si number density = 19.987033 Si / 1000 Ang^3
#
#
#
# Elastic Constant Matrix: (Units=GPa)
#
#
# Indices 1 2 3 4 5 6 
#
# 1 134.6380 9.0441 14.7689 0.0000 0.0000 0.0000
# 2 9.0441 34.1915 -9.5711 0.0000 0.0000 0.0000
# 3 14.7689 -9.5711 147.7870 0.0000 0.0000 0.0000
# 4 0.0000 0.0000 0.0000 25.6608 0.0000 0.0000
# 5 0.0000 0.0000 0.0000 0.0000 25.4647 0.0000
# 6 0.0000 0.0000 0.0000 0.0000 0.0000 21.1999
#
#
#
# Elastic Compliance Matrix: (Units=1/GPa)
#
#
# Indices 1 2 3 4 5 6 
#
# 1 0.007681 -0.002288 -0.000916 0.000000 0.000000 0.000000
# 2 -0.002288 0.030469 0.002202 0.000000 0.000000 0.000000
# 3 -0.000916 0.002202 0.007001 0.000000 0.000000 0.000000
# 4 0.000000 0.000000 0.000000 0.038970 0.000000 0.000000
# 5 0.000000 0.000000 0.000000 0.000000 0.039270 0.000000
# 6 0.000000 0.000000 0.000000 0.000000 0.000000 0.047170
#
#
# Mechanical properties :
#
#
# Convention : Reuss Voigt Hill
#
# Bulk Modulus (GPa) = 23.17682 38.34446 30.76064
# Shear Modulus (GPa) = 26.74551 34.62340 30.68445
#
# Velocity S-wave (km/s) = 3.66203 4.16660 3.92244
# Velocity P-wave (km/s) = 5.43155 6.50951 5.99481
#
# Compressibility (1/GPa) = 0.04314655
#
# Stress axis : x y z
#
# Youngs Moduli (GPa) = 130.18310 32.82055 142.84449
#
# Poissons Ratio (x) = 0.07510 0.13082
# Poissons Ratio (y) = 0.29789 -0.31453
# Poissons Ratio (z) = 0.11923 -0.07227
#
# Static dielectric constant tensor:
#      x y z
#    x 1.683330 0.000000 0.000000 
#    y 0.000000 1.565800 0.000000 
#    z 0.000000 0.000000 1.795500 
# 
# From -- ./inp_files/1724.got.cif
#   From: 2010.05.17/outbox.cif.g08.bks.cpg/sg40_1_cif.got.tgz:1724.got - 2010.06.03 18:35:42.
