data_PCOD9362132
_publ_section_title
;
Structure prediction by ZEFSAII (Michael W. Deem and Ramdas Pophale) SiO2 
 PCOD9362132
Probable space group: A B M 2
;
_chemical_formula_sum "Si O2"
_cell_formula_units_Z 32
_cell_length_a 13.654219
_cell_length_b 18.776714
_cell_length_c 4.873579
_cell_angle_alpha 90.000000
_cell_angle_beta 90.000000
_cell_angle_gamma 90.000000
_cell_volume 1249.494837
_symmetry_space_group_name_H-M "A B M 2"
_symmetry_group_IT_number 39
_symmetry_cell_setting 'orthorhombic'
loop_
_space_group_symop_operation_xyz
x,y,z
-x,-y,z
-x,1/2+y,z
x,1/2-y,z
x,1/2+y,1/2+z
-x,1/2-y,1/2+z
-x,y,1/2+z
x,-y,1/2+z
loop_
_atom_site_type_symbol
_atom_site_label
_atom_site_fract_x
_atom_site_fract_y
_atom_site_fract_z
Si Si1 0.797193 0.545906 0.329890
Si Si2 0.061017 0.645957 0.986327
Si Si3 0.444226 0.835981 0.079254
Si Si4 0.755776 0.668359 0.891986
O O1 0.766084 0.517363 0.626417
O O2 0.910872 0.564175 0.407495
O O3 0.769503 0.615780 0.150531
O O4 0.155876 0.666282 0.168307
O O5 0.972893 0.669271 0.185454
O O6 0.448956 0.750000 0.061039
O O7 0.531578 0.862312 0.277021
O O8 0.341783 0.850451 0.221646
O O9 0.745772 0.750000 0.993091
#
# Coordination Sequence:
#
# PCOD9362132 Si02
#       4
#     8   8   8   8
#     4  12  25  47  70 101 138 187 240 293 348 418
#     4  12  25  45  65 100 140 189 235 282 346 422
#     4   9  20  38  66 103 139 178 232 291 351 423
#     4  11  26  46  75 109 146 187 235 301 368 423
#
# _framework density 25.610346
#
# number of rings (size 3 to 8) (size 9 to 14) (size 15 to 20)
#    0.000    1.000    5.000    0.000    3.500    5.000 
#    0.000    0.000    0.000    4.500    0.000    0.000 
#    0.000    0.000    0.000    0.000    0.000    0.000 
#
# Total GULP energy -89093.866124 kJ/mol
# GULP energy per Si atom -5568.366633 kJ/mol
# Density = 2.555206 g / cm^3
# Si number density = 25.610346 Si / 1000 Ang^3
#
#
#
# Elastic Constant Matrix: (Units=GPa)
#
#
# Indices 1 2 3 4 5 6 
#
# 1 100.1377 20.7739 29.4712 0.0000 0.0000 0.0000
# 2 20.7739 100.6357 28.4932 0.0000 0.0000 0.0000
# 3 29.4712 28.4932 184.1971 0.0000 0.0000 0.0000
# 4 0.0000 0.0000 0.0000 20.4409 0.0000 0.0000
# 5 0.0000 0.0000 0.0000 0.0000 37.3203 0.0000
# 6 0.0000 0.0000 0.0000 0.0000 0.0000 12.5513
#
#
#
# Elastic Compliance Matrix: (Units=1/GPa)
#
#
# Indices 1 2 3 4 5 6 
#
# 1 0.010789 -0.001818 -0.001445 0.000000 0.000000 0.000000
# 2 -0.001818 0.010698 -0.001364 0.000000 0.000000 0.000000
# 3 -0.001445 -0.001364 0.005871 0.000000 0.000000 0.000000
# 4 0.000000 0.000000 0.000000 0.048921 0.000000 0.000000
# 5 0.000000 0.000000 0.000000 0.000000 0.026795 0.000000
# 6 0.000000 0.000000 0.000000 0.000000 0.000000 0.079673
#
#
# Mechanical properties :
#
#
# Convention : Reuss Voigt Hill
#
# Bulk Modulus (GPa) = 55.23571 60.27191 57.75381
# Shear Modulus (GPa) = 25.24792 34.47800 29.86296
#
# Velocity S-wave (km/s) = 3.14323 3.67311 3.41845
# Velocity P-wave (km/s) = 5.89811 6.44781 6.17908
#
# Compressibility (1/GPa) = 0.01810423
#
# Stress axis : x y z
#
# Youngs Moduli (GPa) = 92.69004 93.47273 170.32415
#
# Poissons Ratio (x) = 0.16993 0.24611
# Poissons Ratio (y) = 0.16851 0.23233
# Poissons Ratio (z) = 0.13393 0.12750
#
# Static dielectric constant tensor:
#      x y z
#    x 2.091580 0.000000 0.000000 
#    y 0.000000 2.149770 0.000000 
#    z 0.000000 0.000000 1.995880 
# 
# From -- ./inp_files/467.got.cif
#   From: 2010.05.17/outbox.cif.g08.bks.cpg/sg39_1_cif.got.tgz:467.got - 2010.06.03 18:22:40.
