data_PCOD9362173
_publ_section_title
;
Structure prediction by ZEFSAII (Michael W. Deem and Ramdas Pophale) SiO2 
 PCOD9362173
Probable space group: A B M 2
;
_chemical_formula_sum "Si O2"
_cell_formula_units_Z 32
_cell_length_a 9.000000
_cell_length_b 24.000000
_cell_length_c 15.000000
_cell_angle_alpha 90.000000
_cell_angle_beta 90.000000
_cell_angle_gamma 90.000000
_cell_volume 3240.000000
_symmetry_space_group_name_H-M "A B M 2"
_symmetry_group_IT_number 39
_symmetry_cell_setting 'orthorhombic'
loop_
_space_group_symop_operation_xyz
x,y,z
-x,-y,z
-x,1/2+y,z
x,1/2-y,z
x,1/2+y,1/2+z
-x,1/2-y,1/2+z
-x,y,1/2+z
x,-y,1/2+z
loop_
_atom_site_type_symbol
_atom_site_label
_atom_site_fract_x
_atom_site_fract_y
_atom_site_fract_z
Si Si1 0.650524 0.519431 0.919010
Si Si2 0.533443 0.633322 0.696464
Si Si3 0.707646 0.472033 0.114694
Si Si4 0.841625 0.434433 0.855556
Si Si5 0.480242 0.375893 0.397942
Si Si6 0.784843 0.092893 0.667964
Si Si7 0.956449 0.098626 0.037629
Si Si8 0.695325 0.812486 0.543479
O O1 0.500000 0.500000 0.868547
O O2 0.793670 0.499491 0.864222
O O3 0.608520 0.583194 0.935226
O O4 0.656088 0.487354 0.013887
O O5 0.607661 0.574468 0.662966
O O6 0.540978 0.642172 0.802029
O O7 0.358752 0.631631 0.674140
O O8 0.621174 0.678376 0.639422
O O9 0.719137 0.530436 0.162924
O O10 0.870866 0.447443 0.097113
O O11 0.679980 0.405919 0.877509
O O12 0.879796 0.410130 0.759432
O O13 0.953641 0.420836 0.935187
O O14 0.427916 0.332885 0.472361
O O15 0.886349 0.106172 0.583582
O O16 0.843073 0.150169 0.039813
O O17 0.735991 0.750000 0.524749
#
# Coordination Sequence:
#
# PCOD9362173 Si02
#       8
#     8   8   8   8   8   8   8   8
#     4   9  14  26  48  76 110 142 171 201 243 312
#     4  10  20  33  55  85 110 135 175 227 275 327
#     4  10  18  30  49  79 117 149 171 201 257 325
#     4   8  17  30  48  73 106 142 173 204 253 318
#     4   9  17  31  53  80 104 135 178 222 267 322
#     4  11  18  31  53  78 108 140 173 213 261 320
#     4   9  20  36  50  71 105 143 182 215 257 323
#     4  10  21  39  58  74 100 140 183 233 289 333
#
# _framework density 9.8765429999999999
#
# number of rings (size 3 to 8) (size 9 to 14) (size 15 to 20)
#    0.000    2.500    0.000    5.250    0.000    2.500 
#    0.000   10.625    0.000    3.000    0.000    0.000 
#    0.000    0.000    0.000    0.000    0.000    0.000 
#
# Total GULP energy -178284.340749 kJ/mol
# GULP energy per Si atom -5571.385648 kJ/mol
# Density = 0.985406 g / cm^3
# Si number density = 9.876543 Si / 1000 Ang^3
#
#
#
# Elastic Constant Matrix: (Units=GPa)
#
#
# Indices 1 2 3 4 5 6 
#
# 1 49.5799 8.2227 24.0013 0.0000 0.0000 0.0000
# 2 8.2227 45.4013 -4.8694 0.0000 0.0000 0.0000
# 3 24.0013 -4.8694 90.6310 0.0000 0.0000 0.0000
# 4 0.0000 0.0000 0.0000 4.8039 0.0000 0.0000
# 5 0.0000 0.0000 0.0000 0.0000 24.8526 0.0000
# 6 0.0000 0.0000 0.0000 0.0000 0.0000 3.3835
#
#
#
# Elastic Compliance Matrix: (Units=1/GPa)
#
#
# Indices 1 2 3 4 5 6 
#
# 1 0.024260 -0.005112 -0.006699 0.000000 0.000000 0.000000
# 2 -0.005112 0.023231 0.002602 0.000000 0.000000 0.000000
# 3 -0.006699 0.002602 0.012948 0.000000 0.000000 0.000000
# 4 0.000000 0.000000 0.000000 0.208165 0.000000 0.000000
# 5 0.000000 0.000000 0.000000 0.000000 0.040237 0.000000
# 6 0.000000 0.000000 0.000000 0.000000 0.000000 0.295548
#
#
# Mechanical properties :
#
#
# Convention : Reuss Voigt Hill
#
# Bulk Modulus (GPa) = 23.79853 26.70236 25.25044
# Shear Modulus (GPa) = 7.85157 17.15851 12.50504
#
# Velocity S-wave (km/s) = 1.99587 2.95048 2.51881
# Velocity P-wave (km/s) = 4.16959 5.01543 4.61194
#
# Compressibility (1/GPa) = 0.04201941
#
# Stress axis : x y z
#
# Youngs Moduli (GPa) = 41.21928 43.04631 77.23358
#
# Poissons Ratio (x) = 0.22007 0.51742
# Poissons Ratio (y) = 0.21073 -0.20096
# Poissons Ratio (z) = 0.27615 -0.11201
#
# Static dielectric constant tensor:
#      x y z
#    x 1.712630 0.000000 0.000000 
#    y 0.000000 1.739690 0.000000 
#    z 0.000000 0.000000 1.762000 
# 
# From -- ./inp_files/8772.got.cif
#   From: 2010.05.17/outbox.ucp.g08.bks.cvg/sg39_5_cif.got.tgz:8772.got - 2010.06.11 10:41:16.
