data_PCOD9362823
_publ_section_title
;
Structure prediction by ZEFSAII (Michael W. Deem and Ramdas Pophale) SiO2 
 PCOD9362823
Probable space group: A M A 2
;
_chemical_formula_sum "Si O2"
_cell_formula_units_Z 48
_cell_length_a 14.792384
_cell_length_b 9.202162
_cell_length_c 18.795229
_cell_angle_alpha 90.000000
_cell_angle_beta 90.000000
_cell_angle_gamma 90.000000
_cell_volume 2558.442544
_symmetry_space_group_name_H-M "A M A 2"
_symmetry_group_IT_number 40
_symmetry_cell_setting 'orthorhombic'
loop_
_space_group_symop_operation_xyz
x,y,z
-x,-y,z
1/2-x,y,z
1/2+x,-y,z
x,1/2+y,1/2+z
-x,1/2-y,1/2+z
1/2-x,1/2+y,1/2+z
1/2+x,1/2-y,1/2+z
loop_
_atom_site_type_symbol
_atom_site_label
_atom_site_fract_x
_atom_site_fract_y
_atom_site_fract_z
Si Si1 0.063248 0.628960 0.587100
Si Si2 0.750000 0.540542 0.589323
Si Si3 0.055878 0.851512 0.463450
Si Si4 0.440033 0.358721 0.362177
Si Si5 0.750000 0.575200 0.745106
Si Si6 0.250000 0.796239 0.399656
Si Si7 0.569810 0.884434 0.249391
Si Si8 0.250000 0.450530 0.430312
O O1 0.162657 0.561613 0.589301
O O2 0.061478 0.771564 0.539680
O O3 0.036845 0.650734 0.669353
O O4 0.000000 0.500000 0.556576
O O5 0.750000 0.632817 0.662851
O O6 0.750000 0.610095 0.511236
O O7 0.157214 0.864955 0.430857
O O8 0.998840 0.740423 0.415072
O O9 0.000000 0.000000 0.467311
O O10 0.500000 0.500000 0.347273
O O11 0.424626 0.261685 0.292998
O O12 0.342781 0.399456 0.394268
O O13 0.750000 0.681864 0.813430
O O14 0.663433 0.470850 0.749563
O O15 0.250000 0.627085 0.424220
O O16 0.500000 0.000000 0.282340
#
# Coordination Sequence:
#
# PCOD9362823 Si02
#       8
#     8   4   8   8   4   4   8   4
#     4  10  20  39  63  88 118 163 207 249 313 376
#     4  10  18  38  61  85 115 158 200 250 303 373
#     4  12  24  39  64  91 130 161 208 263 312 372
#     4  12  23  38  60  90 123 163 209 253 308 372
#     4  10  21  36  62  86 118 155 206 250 307 383
#     4  12  22  40  61  95 126 164 208 257 330 355
#     4  10  22  39  62  89 121 159 206 257 307 371
#     4  12  23  38  66  90 125 165 212 263 304 379
#
# _framework density 18.761416000000001
#
# number of rings (size 3 to 8) (size 9 to 14) (size 15 to 20)
#    0.000    1.000    3.333    4.500    0.000    1.333 
#    0.000    0.833    3.667    0.000    0.000    0.000 
#    0.000    0.000    0.000    0.000    0.000    0.000 
#
# Total GULP energy -133996.197860 kJ/mol
# GULP energy per Si atom -5583.174911 kJ/mol
# Density = 1.871871 g / cm^3
# Si number density = 18.761416 Si / 1000 Ang^3
#
#
#
# Elastic Constant Matrix: (Units=GPa)
#
#
# Indices 1 2 3 4 5 6 
#
# 1 148.4822 44.9026 24.1650 0.0000 0.0000 0.0000
# 2 44.9026 66.5117 36.6151 0.0000 0.0000 0.0000
# 3 24.1650 36.6151 113.3806 0.0000 0.0000 0.0000
# 4 0.0000 0.0000 0.0000 39.6776 0.0000 0.0000
# 5 0.0000 0.0000 0.0000 0.0000 30.8896 0.0000
# 6 0.0000 0.0000 0.0000 0.0000 0.0000 24.4137
#
#
#
# Elastic Compliance Matrix: (Units=1/GPa)
#
#
# Indices 1 2 3 4 5 6 
#
# 1 0.008463 -0.005741 0.000050 0.000000 0.000000 0.000000
# 2 -0.005741 0.022180 -0.005939 0.000000 0.000000 0.000000
# 3 0.000050 -0.005939 0.010727 0.000000 0.000000 0.000000
# 4 0.000000 0.000000 0.000000 0.025203 0.000000 0.000000
# 5 0.000000 0.000000 0.000000 0.000000 0.032373 0.000000
# 6 0.000000 0.000000 0.000000 0.000000 0.000000 0.040961
#
#
# Mechanical properties :
#
#
# Convention : Reuss Voigt Hill
#
# Bulk Modulus (GPa) = 55.21720 59.97109 57.59415
# Shear Modulus (GPa) = 29.55010 33.84231 31.69621
#
# Velocity S-wave (km/s) = 3.97299 4.25175 4.11473
# Velocity P-wave (km/s) = 7.10924 7.49251 7.30339
#
# Compressibility (1/GPa) = 0.01811030
#
# Stress axis : x y z
#
# Youngs Moduli (GPa) = 118.16486 45.08495 93.22121
#
# Poissons Ratio (x) = 0.25883 -0.00469
# Poissons Ratio (y) = 0.67838 0.55367
# Poissons Ratio (z) = -0.00594 0.26777
#
# Static dielectric constant tensor:
#      x y z
#    x 1.621590 0.000000 0.000000 
#    y 0.000000 1.605310 0.000000 
#    z 0.000000 0.000000 1.717330 
# 
# From -- ./inp_files/20603.got.cif
#   From: 2010.05.17/outbox.cif.g08.bks.cpg/sg40_11_cif.got.tgz:20603.got - 2010.06.03 18:35:42.
