data_PCOD9362002
_publ_section_title
;
Structure prediction by ZEFSAII (Michael W. Deem and Ramdas Pophale) SiO2 
 PCOD9362002
Probable space group: A B M 2
;
_chemical_formula_sum "Si O2"
_cell_formula_units_Z 32
_cell_length_a 11.069132
_cell_length_b 14.482857
_cell_length_c 7.827871
_cell_angle_alpha 90.000000
_cell_angle_beta 90.000000
_cell_angle_gamma 90.000000
_cell_volume 1254.906790
_symmetry_space_group_name_H-M "A B M 2"
_symmetry_group_IT_number 39
_symmetry_cell_setting 'orthorhombic'
loop_
_space_group_symop_operation_xyz
x,y,z
-x,-y,z
-x,1/2+y,z
x,1/2-y,z
x,1/2+y,1/2+z
-x,1/2-y,1/2+z
-x,y,1/2+z
x,-y,1/2+z
loop_
_atom_site_type_symbol
_atom_site_label
_atom_site_fract_x
_atom_site_fract_y
_atom_site_fract_z
Si Si1 0.243112 0.360454 0.016230
Si Si2 0.297241 0.348198 0.540703
Si Si3 0.859257 0.520724 0.330508
Si Si4 0.527888 0.607330 0.227937
O O1 0.223575 0.250000 0.007172
O O2 0.169986 0.409695 0.173747
O O3 0.382310 0.380911 0.065780
O O4 0.202361 0.419597 0.851569
O O5 0.233564 0.250000 0.545571
O O6 0.200416 0.425767 0.492217
O O7 0.389431 0.353973 0.377950
O O8 0.398367 0.350813 0.687770
O O9 0.000000 0.500000 0.341578
O O10 0.500000 0.500000 0.255485
#
# Coordination Sequence:
#
# PCOD9362002 Si02
#       4
#     8   8   8   8
#     4  11  25  45  69  99 136 179 226 283 341 401
#     4  11  23  40  66 100 135 174 220 277 339 404
#     4  11  24  45  69  97 137 183 230 281 333 398
#     4  11  21  39  63  96 136 171 212 277 343 400
#
# _framework density 25.499901000000001
#
# number of rings (size 3 to 8) (size 9 to 14) (size 15 to 20)
#    0.000    1.000    2.500    6.000    3.500    2.000 
#    0.000    2.500    0.000    0.000    0.000    0.000 
#    0.000    0.000    0.000    0.000    0.000    0.000 
#
# Total GULP energy -89499.117907 kJ/mol
# GULP energy per Si atom -5593.694869 kJ/mol
# Density = 2.544186 g / cm^3
# Si number density = 25.499901 Si / 1000 Ang^3
#
#
#
# Elastic Constant Matrix: (Units=GPa)
#
#
# Indices 1 2 3 4 5 6 
#
# 1 199.2778 51.4593 11.2916 0.0000 0.0000 0.0000
# 2 51.4593 242.6046 4.5649 0.0000 0.0000 0.0000
# 3 11.2916 4.5649 95.1425 0.0000 0.0000 0.0000
# 4 0.0000 0.0000 0.0000 47.3593 0.0000 0.0000
# 5 0.0000 0.0000 0.0000 0.0000 25.0321 0.0000
# 6 0.0000 0.0000 0.0000 0.0000 0.0000 -38.3083
#
#
#
# Elastic Compliance Matrix: (Units=1/GPa)
#
#
# Indices 1 2 3 4 5 6 
#
# 1 0.005341 -0.001122 -0.000580 0.000000 0.000000 0.000000
# 2 -0.001122 0.004361 -0.000076 0.000000 0.000000 0.000000
# 3 -0.000580 -0.000076 0.010583 0.000000 0.000000 0.000000
# 4 0.000000 0.000000 0.000000 0.021115 0.000000 0.000000
# 5 0.000000 0.000000 0.000000 0.000000 0.039949 0.000000
# 6 0.000000 0.000000 0.000000 0.000000 0.000000 -0.026104
#
#
# Mechanical properties :
#
#
# Convention : Reuss Voigt Hill
#
# Bulk Modulus (GPa) = 59.77637 74.62850 67.20243
# Shear Modulus (GPa) = 77.66708 38.13056 57.89882
#
# Velocity S-wave (km/s) = 5.52485 3.87113 4.77020
# Velocity P-wave (km/s) = 8.01194 7.02215 7.53332
#
# Compressibility (1/GPa) = 0.01672902
#
# Stress axis : x y z
#
# Youngs Moduli (GPa) = 187.24155 229.28758 94.49080
#
# Poissons Ratio (x) = 0.25724 0.05481
# Poissons Ratio (y) = 0.21007 0.00719
# Poissons Ratio (z) = 0.10860 0.01745
#
# Static dielectric constant tensor:
#      x y z
#    x 1.891230 0.000000 0.000000 
#    y 0.000000 1.757670 0.000000 
#    z 0.000000 0.000000 2.241390 
# 
# From -- ./inp_files/2421.got.cif
#   From: 2010.05.17/outbox.cif.g08.bks.cpg/sg39_2_cif.got.tgz:2421.got - 2010.06.03 18:22:40.
