data_PCOD9362763
_publ_section_title
;
Structure prediction by ZEFSAII (Michael W. Deem and Ramdas Pophale) SiO2 
 PCOD9362763
Probable space group: A M A 2
;
_chemical_formula_sum "Si O2"
_cell_formula_units_Z 64
_cell_length_a 19.882096
_cell_length_b 8.602117
_cell_length_c 18.573596
_cell_angle_alpha 90.000000
_cell_angle_beta 90.000000
_cell_angle_gamma 90.000000
_cell_volume 3176.607131
_symmetry_space_group_name_H-M "A M A 2"
_symmetry_group_IT_number 40
_symmetry_cell_setting 'orthorhombic'
loop_
_space_group_symop_operation_xyz
x,y,z
-x,-y,z
1/2-x,y,z
1/2+x,-y,z
x,1/2+y,1/2+z
-x,1/2-y,1/2+z
1/2-x,1/2+y,1/2+z
1/2+x,1/2-y,1/2+z
loop_
_atom_site_type_symbol
_atom_site_label
_atom_site_fract_x
_atom_site_fract_y
_atom_site_fract_z
Si Si1 0.458217 0.648108 0.080230
Si Si2 0.439734 0.099847 0.813129
Si Si3 0.558130 0.620801 0.708886
Si Si4 0.674366 0.385012 0.543293
Si Si5 0.964730 0.337481 0.471375
Si Si6 0.672422 0.751609 0.510069
Si Si7 0.169782 0.341295 0.344883
Si Si8 0.827628 0.373187 0.705471
O O1 0.500000 0.500000 0.107742
O O2 0.463769 0.790057 0.136510
O O3 0.380225 0.643205 0.054687
O O4 0.496729 0.699939 0.008823
O O5 0.424113 0.242109 0.762903
O O6 0.470272 0.166694 0.886442
O O7 0.500000 0.000000 0.779044
O O8 0.377179 0.991169 0.834131
O O9 0.500000 0.500000 0.731163
O O10 0.623916 0.518339 0.702651
O O11 0.750000 0.348907 0.517171
O O12 0.612661 0.332720 0.494793
O O13 0.669471 0.574642 0.541773
O O14 0.666467 0.311569 0.623172
O O15 0.000000 0.500000 0.494480
O O16 0.750000 0.804223 0.515850
O O17 0.655727 0.733447 0.424117
O O18 0.250000 0.377099 0.344997
O O19 0.156091 0.234854 0.274219
O O20 0.750000 0.418801 0.713958
#
# Coordination Sequence:
#
# PCOD9362763 Si02
#       8
#     8   8   8   8   8   8   8   8
#     4  12  25  40  62  93 125 162 212 270 321 371
#     4  11  23  38  59  89 123 160 204 253 310 371
#     4  12  25  41  61  84 121 169 210 255 312 379
#     4  10  18  34  63  90 114 156 206 248 299 374
#     4  11  20  38  62  88 119 156 204 252 307 376
#     4  10  19  38  67  93 122 162 207 254 315 382
#     4  10  21  39  65  96 128 162 205 262 318 376
#     4  10  21  37  61  90 120 158 208 254 307 376
#
# _framework density 20.147281
#
# number of rings (size 3 to 8) (size 9 to 14) (size 15 to 20)
#    0.000    1.250    3.750    3.000    0.000    3.000 
#    0.000    0.625    0.000    0.750    0.000    0.000 
#    0.000    0.000    0.000    0.000    0.000    0.000 
#
# Total GULP energy -178549.559690 kJ/mol
# GULP energy per Si atom -5579.673740 kJ/mol
# Density = 2.010143 g / cm^3
# Si number density = 20.147281 Si / 1000 Ang^3
#
#
#
# Elastic Constant Matrix: (Units=GPa)
#
#
# Indices 1 2 3 4 5 6 
#
# 1 67.7437 14.2222 4.4291 0.0000 0.0000 0.0000
# 2 14.2222 22.9574 4.4020 0.0000 0.0000 0.0000
# 3 4.4291 4.4020 61.3024 0.0000 0.0000 0.0000
# 4 0.0000 0.0000 0.0000 27.7126 0.0000 0.0000
# 5 0.0000 0.0000 0.0000 0.0000 29.4005 0.0000
# 6 0.0000 0.0000 0.0000 0.0000 0.0000 21.0987
#
#
#
# Elastic Compliance Matrix: (Units=1/GPa)
#
#
# Indices 1 2 3 4 5 6 
#
# 1 0.016982 -0.010429 -0.000478 0.000000 0.000000 0.000000
# 2 -0.010429 0.050572 -0.002878 0.000000 0.000000 0.000000
# 3 -0.000478 -0.002878 0.016554 0.000000 0.000000 0.000000
# 4 0.000000 0.000000 0.000000 0.036085 0.000000 0.000000
# 5 0.000000 0.000000 0.000000 0.000000 0.034013 0.000000
# 6 0.000000 0.000000 0.000000 0.000000 0.000000 0.047396
#
#
# Mechanical properties :
#
#
# Convention : Reuss Voigt Hill
#
# Bulk Modulus (GPa) = 17.68732 22.01223 19.84977
# Shear Modulus (GPa) = 20.15988 24.23902 22.19945
#
# Velocity S-wave (km/s) = 3.16670 3.47232 3.32303
# Velocity P-wave (km/s) = 4.70836 5.19860 4.95954
#
# Compressibility (1/GPa) = 0.05653769
#
# Stress axis : x y z
#
# Youngs Moduli (GPa) = 58.88505 19.77397 60.40913
#
# Poissons Ratio (x) = 0.20622 0.02888
# Poissons Ratio (y) = 0.61411 0.17385
# Poissons Ratio (z) = 0.02815 0.05691
#
# Static dielectric constant tensor:
#      x y z
#    x 1.726560 0.000000 0.000000 
#    y 0.000000 1.734400 0.000000 
#    z 0.000000 0.000000 1.740850 
# 
# From -- ./inp_files/21365.got.cif
#   From: 2010.05.17/outbox.cif.g08.bks.cpg/sg40_11_cif.got.tgz:21365.got - 2010.06.03 18:35:42.
