data_PCOD9362388
_publ_section_title
;
Structure prediction by ZEFSAII (Michael W. Deem and Ramdas Pophale) SiO2 
 PCOD9362388
Probable space group: A M A 2
;
_chemical_formula_sum "Si O2"
_cell_formula_units_Z 64
_cell_length_a 9.006115
_cell_length_b 18.859512
_cell_length_c 26.977067
_cell_angle_alpha 90.000000
_cell_angle_beta 90.000000
_cell_angle_gamma 90.000000
_cell_volume 4582.080024
_symmetry_space_group_name_H-M "A M A 2"
_symmetry_group_IT_number 40
_symmetry_cell_setting 'orthorhombic'
loop_
_space_group_symop_operation_xyz
x,y,z
-x,-y,z
1/2-x,y,z
1/2+x,-y,z
x,1/2+y,1/2+z
-x,1/2-y,1/2+z
1/2-x,1/2+y,1/2+z
1/2+x,1/2-y,1/2+z
loop_
_atom_site_type_symbol
_atom_site_label
_atom_site_fract_x
_atom_site_fract_y
_atom_site_fract_z
Si Si1 0.928921 0.175081 0.637040
Si Si2 0.072656 0.787252 0.783112
Si Si3 0.926125 0.075972 0.731059
Si Si4 0.074857 0.662290 0.849086
Si Si5 0.073097 0.424676 0.933286
Si Si6 0.428400 0.924600 0.547763
Si Si7 0.572344 0.922731 0.246500
Si Si8 0.073384 0.296855 0.693109
O O1 0.750000 0.184869 0.638715
O O2 0.967818 0.119659 0.681281
O O3 0.971083 0.137181 0.585796
O O4 0.007242 0.249648 0.648526
O O5 0.250000 0.776823 0.771360
O O6 0.042200 0.870357 0.776716
O O7 0.045485 0.743680 0.833131
O O8 0.976229 0.748676 0.741236
O O9 0.750000 0.065591 0.728774
O O10 0.000000 0.000000 0.734156
O O11 0.250000 0.654752 0.859580
O O12 0.043102 0.615036 0.799865
O O13 0.983322 0.633753 0.895092
O O14 0.250000 0.431348 0.930550
O O15 0.000000 0.500000 0.919706
O O16 0.031570 0.409434 0.990550
O O17 0.250000 0.932038 0.550566
O O18 0.500000 0.000000 0.561722
O O19 0.750000 0.926324 0.240733
O O20 0.502117 0.872495 0.204158
O O21 0.500000 0.000000 0.246130
O O22 0.250000 0.303117 0.689838
#
# Coordination Sequence:
#
# PCOD9362388 Si02
#       8
#     8   8   8   8   8   8   8   8
#     4   9  17  30  43  55  78 111 140 165 199 239
#     4   8  16  30  42  54  77 108 137 165 200 241
#     4   9  16  25  39  58  79 103 131 163 196 234
#     4   9  17  29  44  58  76 107 141 169 201 240
#     4  10  19  29  41  59  82 107 137 172 207 241
#     4   9  18  30  43  59  81 109 139 172 207 241
#     4  10  19  30  43  60  83 110 139 169 202 241
#     4  10  18  27  41  61  81 103 134 169 203 239
#
# _framework density 13.967456
#
# number of rings (size 3 to 8) (size 9 to 14) (size 15 to 20)
#    0.000    2.750    0.000    4.125    0.000    6.500 
#    0.000    0.000    0.000    0.000    0.000    0.000 
#    0.000    1.000    0.000    6.750    0.000    3.500 
#
# Total GULP energy -178190.198068 kJ/mol
# GULP energy per Si atom -5568.443690 kJ/mol
# Density = 1.393567 g / cm^3
# Si number density = 13.967456 Si / 1000 Ang^3
#
#
#
# Elastic Constant Matrix: (Units=GPa)
#
#
# Indices 1 2 3 4 5 6 
#
# 1 38.9752 35.8279 26.5048 0.0000 0.0000 0.0000
# 2 35.8279 90.5929 33.2061 0.0000 0.0000 0.0000
# 3 26.5048 33.2061 55.3546 0.0000 0.0000 0.0000
# 4 0.0000 0.0000 0.0000 24.7694 0.0000 0.0000
# 5 0.0000 0.0000 0.0000 0.0000 11.9070 0.0000
# 6 0.0000 0.0000 0.0000 0.0000 0.0000 25.5326
#
#
#
# Elastic Compliance Matrix: (Units=1/GPa)
#
#
# Indices 1 2 3 4 5 6 
#
# 1 0.048391 -0.013645 -0.014985 0.000000 0.000000 0.000000
# 2 -0.013645 0.017997 -0.004263 0.000000 0.000000 0.000000
# 3 -0.014985 -0.004263 0.027798 0.000000 0.000000 0.000000
# 4 0.000000 0.000000 0.000000 0.040372 0.000000 0.000000
# 5 0.000000 0.000000 0.000000 0.000000 0.083984 0.000000
# 6 0.000000 0.000000 0.000000 0.000000 0.000000 0.039166
#
#
# Mechanical properties :
#
#
# Convention : Reuss Voigt Hill
#
# Bulk Modulus (GPa) = 35.21111 41.77782 38.49446
# Shear Modulus (GPa) = 15.01678 18.40073 16.70876
#
# Velocity S-wave (km/s) = 3.28247 3.63354 3.46246
# Velocity P-wave (km/s) = 6.29526 6.89777 6.60339
#
# Compressibility (1/GPa) = 0.02840013
#
# Stress axis : x y z
#
# Youngs Moduli (GPa) = 20.66493 55.56409 35.97436
#
# Poissons Ratio (x) = 0.75818 0.53908
# Poissons Ratio (y) = 0.28198 0.15335
# Poissons Ratio (z) = 0.30967 0.23685
#
# Static dielectric constant tensor:
#      x y z
#    x 1.465250 0.000000 0.000000 
#    y 0.000000 1.463910 0.000000 
#    z 0.000000 0.000000 1.461060 
# 
# From -- ./inp_files/24412.got.cif
#   From: 2010.05.17/outbox.cif.g08.bks.cpg/sg40_13_cif.got.tgz:24412.got - 2010.06.03 18:35:42.
