data_PCOD9362764
_publ_section_title
;
Structure prediction by ZEFSAII (Michael W. Deem and Ramdas Pophale) SiO2 
 PCOD9362764
Probable space group: A M A 2
;
_chemical_formula_sum "Si O2"
_cell_formula_units_Z 64
_cell_length_a 15.531333
_cell_length_b 11.673585
_cell_length_c 17.695920
_cell_angle_alpha 90.000000
_cell_angle_beta 90.000000
_cell_angle_gamma 90.000000
_cell_volume 3208.382416
_symmetry_space_group_name_H-M "A M A 2"
_symmetry_group_IT_number 40
_symmetry_cell_setting 'orthorhombic'
loop_
_space_group_symop_operation_xyz
x,y,z
-x,-y,z
1/2-x,y,z
1/2+x,-y,z
x,1/2+y,1/2+z
-x,1/2-y,1/2+z
1/2-x,1/2+y,1/2+z
1/2+x,1/2-y,1/2+z
loop_
_atom_site_type_symbol
_atom_site_label
_atom_site_fract_x
_atom_site_fract_y
_atom_site_fract_z
Si Si1 0.155310 0.818954 0.748580
Si Si2 0.648986 0.962667 0.518619
Si Si3 0.648637 0.703207 0.966873
Si Si4 0.900604 0.255557 0.906459
Si Si5 0.979220 0.723510 0.691995
Si Si6 0.501602 0.134500 0.026087
Si Si7 0.150174 0.577876 0.196393
Si Si8 0.447577 0.384906 0.834814
O O1 0.250000 0.795869 0.715124
O O2 0.157523 0.784965 0.837112
O O3 0.079236 0.748383 0.709529
O O4 0.137615 0.953606 0.734258
O O5 0.750000 0.979093 0.504575
O O6 0.622214 0.865995 0.458241
O O7 0.638960 0.930097 0.605705
O O8 0.611239 0.090411 0.510248
O O9 0.750000 0.726524 0.981098
O O10 0.636474 0.651885 0.881470
O O11 0.586376 0.807489 0.992393
O O12 0.987523 0.287158 0.862545
O O13 0.923618 0.157609 0.965233
O O14 0.973909 0.696929 0.603974
O O15 0.921494 0.830845 0.718680
O O16 0.943048 0.621814 0.744817
O O17 0.500000 0.000000 0.040092
O O18 0.250000 0.612221 0.211262
O O19 0.500000 0.500000 0.855217
#
# Coordination Sequence:
#
# PCOD9362764 Si02
#       8
#     8   8   8   8   8   8   8   8
#     4  10  22  38  61  94 128 165 211 270 334 397
#     4  10  18  34  63  94 122 156 208 269 324 379
#     4  10  22  39  65  94 121 156 211 274 328 383
#     4  10  20  37  62  88 123 165 205 262 324 389
#     4  11  22  38  61  85 125 171 211 262 317 384
#     4  11  24  41  61  89 127 172 221 260 327 401
#     4  10  21  37  59  91 125 162 214 267 322 385
#     4  10  20  36  58  87 119 155 203 248 313 375
#
# _framework density 19.947747
#
# number of rings (size 3 to 8) (size 9 to 14) (size 15 to 20)
#    0.000    1.750    2.500    1.875    0.000    5.000 
#    0.000    3.125    0.000    3.000    0.000    0.000 
#    0.000    0.000    0.000    0.000    0.000    0.000 
#
# Total GULP energy -178169.030223 kJ/mol
# GULP energy per Si atom -5567.782194 kJ/mol
# Density = 1.990235 g / cm^3
# Si number density = 19.947747 Si / 1000 Ang^3
#
#
#
# Elastic Constant Matrix: (Units=GPa)
#
#
# Indices 1 2 3 4 5 6 
#
# 1 48.6840 20.2552 12.0689 0.0000 0.0000 0.0000
# 2 20.2552 61.6676 2.3237 0.0000 0.0000 0.0000
# 3 12.0689 2.3237 65.1268 0.0000 0.0000 0.0000
# 4 0.0000 0.0000 0.0000 29.4254 0.0000 0.0000
# 5 0.0000 0.0000 0.0000 0.0000 28.3160 0.0000
# 6 0.0000 0.0000 0.0000 0.0000 0.0000 10.5702
#
#
#
# Elastic Compliance Matrix: (Units=1/GPa)
#
#
# Indices 1 2 3 4 5 6 
#
# 1 0.024959 -0.008034 -0.004339 0.000000 0.000000 0.000000
# 2 -0.008034 0.018824 0.000817 0.000000 0.000000 0.000000
# 3 -0.004339 0.000817 0.016130 0.000000 0.000000 0.000000
# 4 0.000000 0.000000 0.000000 0.033984 0.000000 0.000000
# 5 0.000000 0.000000 0.000000 0.000000 0.035316 0.000000
# 6 0.000000 0.000000 0.000000 0.000000 0.000000 0.094606
#
#
# Mechanical properties :
#
#
# Convention : Reuss Voigt Hill
#
# Bulk Modulus (GPa) = 27.17315 27.19711 27.18513
# Shear Modulus (GPa) = 19.29036 23.05101 21.17068
#
# Velocity S-wave (km/s) = 3.11311 3.40305 3.26130
# Velocity P-wave (km/s) = 5.15496 5.39489 5.27629
#
# Compressibility (1/GPa) = 0.03680104
#
# Stress axis : x y z
#
# Youngs Moduli (GPa) = 40.06573 53.12323 61.99812
#
# Poissons Ratio (x) = 0.42682 0.26899
# Poissons Ratio (y) = 0.32191 -0.05067
# Poissons Ratio (z) = 0.17383 -0.04342
#
# Static dielectric constant tensor:
#      x y z
#    x 1.711500 0.000000 0.000000 
#    y 0.000000 1.744600 0.000000 
#    z 0.000000 0.000000 1.777200 
# 
# From -- ./inp_files/20764.got.cif
#   From: 2010.05.17/outbox.cif.g08.bks.cpg/sg40_11_cif.got.tgz:20764.got - 2010.06.03 18:35:42.
