data_PCOD9362715
_publ_section_title
;
Structure prediction by ZEFSAII (Michael W. Deem and Ramdas Pophale) SiO2 
 PCOD9362715
Probable space group: A M A 2
;
_chemical_formula_sum "Si O2"
_cell_formula_units_Z 56
_cell_length_a 14.360386
_cell_length_b 31.827245
_cell_length_c 5.782243
_cell_angle_alpha 90.000000
_cell_angle_beta 90.000000
_cell_angle_gamma 90.000000
_cell_volume 2642.782972
_symmetry_space_group_name_H-M "A M A 2"
_symmetry_group_IT_number 40
_symmetry_cell_setting 'orthorhombic'
loop_
_space_group_symop_operation_xyz
x,y,z
-x,-y,z
1/2-x,y,z
1/2+x,-y,z
x,1/2+y,1/2+z
-x,1/2-y,1/2+z
1/2-x,1/2+y,1/2+z
1/2+x,1/2-y,1/2+z
loop_
_atom_site_type_symbol
_atom_site_label
_atom_site_fract_x
_atom_site_fract_y
_atom_site_fract_z
Si Si1 0.644815 0.728557 0.095900
Si Si2 0.579171 0.658501 0.772636
Si Si3 0.469506 0.201267 0.892005
Si Si4 0.150623 0.407009 0.452366
Si Si5 0.898169 0.476506 0.171734
Si Si6 0.388380 0.492824 0.674138
Si Si7 0.975763 0.887615 0.644133
O O1 0.750000 0.734034 0.185726
O O2 0.559216 0.723453 0.274552
O O3 0.636955 0.685025 0.955446
O O4 0.615268 0.766776 0.926394
O O5 0.506381 0.688033 0.642783
O O6 0.644241 0.636804 0.586126
O O7 0.515757 0.623411 0.893906
O O8 0.448374 0.157455 0.757260
O O9 0.250000 0.411865 0.333054
O O10 0.137131 0.444460 0.633554
O O11 0.064048 0.405829 0.283129
O O12 0.857789 0.486445 0.427711
O O13 0.000000 0.500000 0.177293
O O14 0.905375 0.426095 0.148340
O O15 0.855483 0.492295 0.927703
O O16 0.500000 0.500000 0.680180
#
# Coordination Sequence:
#
# PCOD9362715 Si02
#       7
#     8   8   8   8   8   8   8
#     4  11  22  40  64  90 126 167 208 261 322 393
#     4  10  21  37  60  85 126 159 196 256 320 383
#     4  10  22  39  59  93 125 160 215 260 320 391
#     4  11  22  35  54  91 127 155 194 248 316 384
#     4  10  18  33  58  83 113 153 215 245 299 370
#     4  10  19  34  56  82 114 158 202 242 292 370
#     4  10  21  36  58  88 116 162 202 262 304 378
#
# _framework density 21.189782000000001
#
# number of rings (size 3 to 8) (size 9 to 14) (size 15 to 20)
#    0.000    1.714    4.286    2.143    2.000    6.286 
#    0.000    0.000    0.000    1.714    0.000    0.000 
#    0.000    0.000    0.000    0.000    0.000    0.000 
#
# Total GULP energy -156115.800019 kJ/mol
# GULP energy per Si atom -5575.564286 kJ/mol
# Density = 2.114155 g / cm^3
# Si number density = 21.189782 Si / 1000 Ang^3
#
#
#
# Elastic Constant Matrix: (Units=GPa)
#
#
# Indices 1 2 3 4 5 6 
#
# 1 54.0616 15.3756 4.1501 0.0000 0.0000 0.0000
# 2 15.3756 98.4640 8.6091 0.0000 0.0000 0.0000
# 3 4.1501 8.6091 101.2315 0.0000 0.0000 0.0000
# 4 0.0000 0.0000 0.0000 35.2156 0.0000 0.0000
# 5 0.0000 0.0000 0.0000 0.0000 -3.1338 0.0000
# 6 0.0000 0.0000 0.0000 0.0000 0.0000 -2.6842
#
#
#
# Elastic Compliance Matrix: (Units=1/GPa)
#
#
# Indices 1 2 3 4 5 6 
#
# 1 0.019386 -0.002980 -0.000541 0.000000 0.000000 0.000000
# 2 -0.002980 0.010690 -0.000787 0.000000 0.000000 0.000000
# 3 -0.000541 -0.000787 0.009967 0.000000 0.000000 0.000000
# 4 0.000000 0.000000 0.000000 0.028397 0.000000 0.000000
# 5 0.000000 0.000000 0.000000 0.000000 -0.319100 0.000000
# 6 0.000000 0.000000 0.000000 0.000000 0.000000 -0.372546
#
#
# Mechanical properties :
#
#
# Convention : Reuss Voigt Hill
#
# Bulk Modulus (GPa) = 31.81919 34.44741 33.13330
# Shear Modulus (GPa) = -8.27661 20.92100 6.32220
#
# Velocity S-wave (km/s) = -1.97849 3.14557 1.72919
# Velocity P-wave (km/s) = 3.13523 5.42998 4.43364
#
# Compressibility (1/GPa) = 0.03142757
#
# Stress axis : x y z
#
# Youngs Moduli (GPa) = 51.58234 93.54424 100.32642
#
# Poissons Ratio (x) = 0.27876 0.05431
# Poissons Ratio (y) = 0.15371 0.07895
# Poissons Ratio (z) = 0.02792 0.07362
#
# Static dielectric constant tensor:
#      x y z
#    x 1.733440 0.000000 0.000000 
#    y 0.000000 1.798280 0.000000 
#    z 0.000000 0.000000 1.805630 
# 
# From -- ./inp_files/1453.got.cif
#   From: 2010.05.17/outbox.cif.g08.bks.cpg/sg40_1_cif.got.tgz:1453.got - 2010.06.03 18:35:42.
