data_PCOD9362475
_publ_section_title
;
Structure prediction by ZEFSAII (Michael W. Deem and Ramdas Pophale) SiO2 
 PCOD9362475
Probable space group: A M A 2
;
_chemical_formula_sum "Si O2"
_cell_formula_units_Z 64
_cell_length_a 8.638029
_cell_length_b 18.885577
_cell_length_c 26.849301
_cell_angle_alpha 90.000000
_cell_angle_beta 90.000000
_cell_angle_gamma 90.000000
_cell_volume 4380.038214
_symmetry_space_group_name_H-M "A M A 2"
_symmetry_group_IT_number 40
_symmetry_cell_setting 'orthorhombic'
loop_
_space_group_symop_operation_xyz
x,y,z
-x,-y,z
1/2-x,y,z
1/2+x,-y,z
x,1/2+y,1/2+z
-x,1/2-y,1/2+z
1/2-x,1/2+y,1/2+z
1/2+x,1/2-y,1/2+z
loop_
_atom_site_type_symbol
_atom_site_label
_atom_site_fract_x
_atom_site_fract_y
_atom_site_fract_z
Si Si1 0.435647 0.327717 0.942430
Si Si2 0.564831 0.709698 0.787549
Si Si3 0.436124 0.921407 0.346444
Si Si4 0.435235 0.577912 0.028763
Si Si5 0.566236 0.664393 0.234517
Si Si6 0.064893 0.577734 0.145235
Si Si7 0.065009 0.793606 0.883180
Si Si8 0.935343 0.420779 0.329741
O O1 0.250000 0.321036 0.940902
O O2 0.483752 0.381295 0.897460
O O3 0.511383 0.251581 0.930774
O O4 0.490608 0.363734 0.993140
O O5 0.750000 0.713155 0.782289
O O6 0.518069 0.629235 0.800126
O O7 0.486278 0.754778 0.744138
O O8 0.514805 0.751458 0.837483
O O9 0.250000 0.924070 0.347051
O O10 0.500000 0.000000 0.343992
O O11 0.500000 0.500000 0.015637
O O12 0.250000 0.577552 0.022851
O O13 0.471586 0.590469 0.087048
O O14 0.750000 0.658941 0.239364
O O15 0.509671 0.634171 0.182132
O O16 0.490152 0.616580 0.278266
O O17 0.250000 0.577715 0.151127
O O18 0.000000 0.500000 0.158199
O O19 0.250000 0.791921 0.878263
O O20 0.003848 0.872901 0.874597
O O21 0.750000 0.420308 0.331388
O O22 0.000000 0.500000 0.331273
#
# Coordination Sequence:
#
# PCOD9362475 Si02
#       8
#     8   8   8   8   8   8   8   8
#     4  10  19  31  45  62  86 117 149 180 216 255
#     4   9  17  30  43  59  84 113 143 176 215 255
#     4   9  18  28  41  61  85 113 143 174 209 250
#     4  10  20  32  46  64  86 114 147 183 220 256
#     4  11  20  30  45  64  84 112 148 181 217 258
#     4  10  20  33  46  62  86 114 145 182 220 256
#     4  10  18  29  44  63  85 111 144 179 215 255
#     4  11  20  31  45  63  88 116 146 179 216 257
#
# _framework density 14.611744
#
# number of rings (size 3 to 8) (size 9 to 14) (size 15 to 20)
#    0.000    2.000    0.000    7.875    0.000    5.500 
#    0.000    0.000    0.000    0.000    0.000    0.000 
#    0.000    1.000    0.000    5.250    0.000    5.000 
#
# Total GULP energy -178449.334259 kJ/mol
# GULP energy per Si atom -5576.541696 kJ/mol
# Density = 1.457849 g / cm^3
# Si number density = 14.611744 Si / 1000 Ang^3
#
#
#
# Elastic Constant Matrix: (Units=GPa)
#
#
# Indices 1 2 3 4 5 6 
#
# 1 48.1324 24.2296 25.3362 0.0000 0.0000 0.0000
# 2 24.2296 89.0702 33.2520 0.0000 0.0000 0.0000
# 3 25.3362 33.2520 52.5781 0.0000 0.0000 0.0000
# 4 0.0000 0.0000 0.0000 28.7980 0.0000 0.0000
# 5 0.0000 0.0000 0.0000 0.0000 20.7970 0.0000
# 6 0.0000 0.0000 0.0000 0.0000 0.0000 25.2672
#
#
#
# Elastic Compliance Matrix: (Units=1/GPa)
#
#
# Indices 1 2 3 4 5 6 
#
# 1 0.028626 -0.003452 -0.011611 0.000000 0.000000 0.000000
# 2 -0.003452 0.015113 -0.007895 0.000000 0.000000 0.000000
# 3 -0.011611 -0.007895 0.029607 0.000000 0.000000 0.000000
# 4 0.000000 0.000000 0.000000 0.034725 0.000000 0.000000
# 5 0.000000 0.000000 0.000000 0.000000 0.048084 0.000000
# 6 0.000000 0.000000 0.000000 0.000000 0.000000 0.039577
#
#
# Mechanical properties :
#
#
# Convention : Reuss Voigt Hill
#
# Bulk Modulus (GPa) = 36.45534 39.49069 37.97301
# Shear Modulus (GPa) = 19.93695 22.10329 21.02012
#
# Velocity S-wave (km/s) = 3.69785 3.89357 3.79697
# Velocity P-wave (km/s) = 6.57538 6.87740 6.72808
#
# Compressibility (1/GPa) = 0.02743082
#
# Stress axis : x y z
#
# Youngs Moduli (GPa) = 34.93372 66.16606 33.77581
#
# Poissons Ratio (x) = 0.22844 0.39216
# Poissons Ratio (y) = 0.12061 0.26665
# Poissons Ratio (z) = 0.40560 0.52235
#
# Static dielectric constant tensor:
#      x y z
#    x 1.485520 0.000000 0.000000 
#    y 0.000000 1.496540 0.000000 
#    z 0.000000 0.000000 1.485470 
# 
# From -- ./inp_files/25527.got.cif
#   From: 2010.05.17/outbox.cif.g08.bks.cpg/sg40_13_cif.got.tgz:25527.got - 2010.06.03 18:35:42.
