data_PCOD9362851
_publ_section_title
;
Structure prediction by ZEFSAII (Michael W. Deem and Ramdas Pophale) SiO2 
 PCOD9362851
Probable space group: A M A 2
;
_chemical_formula_sum "Si O2"
_cell_formula_units_Z 64
_cell_length_a 9.253467
_cell_length_b 18.736734
_cell_length_c 21.666452
_cell_angle_alpha 90.000000
_cell_angle_beta 90.000000
_cell_angle_gamma 90.000000
_cell_volume 3756.524026
_symmetry_space_group_name_H-M "A M A 2"
_symmetry_group_IT_number 40
_symmetry_cell_setting 'orthorhombic'
loop_
_space_group_symop_operation_xyz
x,y,z
-x,-y,z
1/2-x,y,z
1/2+x,-y,z
x,1/2+y,1/2+z
-x,1/2-y,1/2+z
1/2-x,1/2+y,1/2+z
1/2+x,1/2-y,1/2+z
loop_
_atom_site_type_symbol
_atom_site_label
_atom_site_fract_x
_atom_site_fract_y
_atom_site_fract_z
Si Si1 0.915455 0.571741 0.247400
Si Si2 0.418896 0.216757 0.736571
Si Si3 0.419269 0.296980 0.607758
Si Si4 0.423087 0.374152 0.784310
Si Si5 0.589780 0.566872 0.098667
Si Si6 0.423342 0.072393 0.159678
Si Si7 0.583475 0.325194 0.023473
Si Si8 0.076709 0.073892 0.408690
O O1 0.750000 0.570821 0.269521
O O2 0.911773 0.567941 0.172588
O O3 0.000000 0.500000 0.268068
O O4 0.990998 0.648208 0.258434
O O5 0.250000 0.196800 0.738258
O O6 0.448422 0.243487 0.666075
O O7 0.440929 0.288443 0.776761
O O8 0.250000 0.318746 0.615787
O O9 0.526210 0.362617 0.616349
O O10 0.433275 0.257379 0.542029
O O11 0.250000 0.389155 0.782738
O O12 0.504098 0.408933 0.725896
O O13 0.498578 0.403497 0.845434
O O14 0.500000 0.500000 0.077035
O O15 0.750000 0.558408 0.075722
O O16 0.520631 0.635965 0.070582
O O17 0.250000 0.066497 0.164098
O O18 0.500000 0.000000 0.138298
O O19 0.750000 0.342651 0.039426
O O20 0.556677 0.361090 0.957378
O O21 0.250000 0.063213 0.401004
O O22 0.000000 0.000000 0.429189
#
# Coordination Sequence:
#
# PCOD9362851 Si02
#       8
#     8   8   8   8   8   8   8   8
#     4  10  19  28  42  66  97 130 164 202 244 295
#     4   9  17  31  51  71  96 129 166 208 258 308
#     4   9  18  33  51  73 102 134 167 207 255 310
#     4  10  21  37  55  75 101 136 174 217 264 309
#     4  10  19  28  41  63  92 129 169 204 241 287
#     4  11  21  34  54  79 106 134 167 210 259 313
#     4  10  20  34  51  70  99 136 172 210 253 298
#     4  11  23  37  53  75 103 140 181 220 256 298
#
# _framework density 17.037026000000001
#
# number of rings (size 3 to 8) (size 9 to 14) (size 15 to 20)
#    0.000    2.000    1.250    4.125    0.000    6.000 
#    0.000    0.000    0.000    0.000    0.000    0.875 
#    0.000    6.000    0.000    0.000    0.000    0.000 
#
# Total GULP energy -178331.295755 kJ/mol
# GULP energy per Si atom -5572.852992 kJ/mol
# Density = 1.699825 g / cm^3
# Si number density = 17.037026 Si / 1000 Ang^3
#
#
#
# Elastic Constant Matrix: (Units=GPa)
#
#
# Indices 1 2 3 4 5 6 
#
# 1 110.9599 70.0454 31.8754 0.0000 0.0000 0.0000
# 2 70.0454 88.6080 18.9600 0.0000 0.0000 0.0000
# 3 31.8754 18.9600 45.6885 0.0000 0.0000 0.0000
# 4 0.0000 0.0000 0.0000 19.7928 0.0000 0.0000
# 5 0.0000 0.0000 0.0000 0.0000 22.4540 0.0000
# 6 0.0000 0.0000 0.0000 0.0000 0.0000 33.7232
#
#
#
# Elastic Compliance Matrix: (Units=1/GPa)
#
#
# Indices 1 2 3 4 5 6 
#
# 1 0.020518 -0.014439 -0.008323 0.000000 0.000000 0.000000
# 2 -0.014439 0.022546 0.000717 0.000000 0.000000 0.000000
# 3 -0.008323 0.000717 0.027396 0.000000 0.000000 0.000000
# 4 0.000000 0.000000 0.000000 0.050523 0.000000 0.000000
# 5 0.000000 0.000000 0.000000 0.000000 0.044536 0.000000
# 6 0.000000 0.000000 0.000000 0.000000 0.000000 0.029653
#
#
# Mechanical properties :
#
#
# Convention : Reuss Voigt Hill
#
# Bulk Modulus (GPa) = 37.91968 54.11310 46.01639
# Shear Modulus (GPa) = 20.15711 23.48570 21.82141
#
# Velocity S-wave (km/s) = 3.44341 3.71686 3.58274
# Velocity P-wave (km/s) = 6.17373 7.08880 6.64703
#
# Compressibility (1/GPa) = 0.02637153
#
# Stress axis : x y z
#
# Youngs Moduli (GPa) = 48.73828 44.35364 36.50128
#
# Poissons Ratio (x) = 0.64040 0.30379
# Poissons Ratio (y) = 0.70371 -0.02617
# Poissons Ratio (z) = 0.40564 -0.03181
#
# Static dielectric constant tensor:
#      x y z
#    x 1.575180 0.000000 0.000000 
#    y 0.000000 1.616920 0.000000 
#    z 0.000000 0.000000 1.573120 
# 
# From -- ./inp_files/22416.got.cif
#   From: 2010.05.17/outbox.cif.g08.bks.cpg/sg40_12_cif.got.tgz:22416.got - 2010.06.03 18:35:42.
