data_PCOD9362047
_publ_section_title
;
Structure prediction by ZEFSAII (Michael W. Deem and Ramdas Pophale) SiO2 
 PCOD9362047
Probable space group: A B M 2
;
_chemical_formula_sum "Si O2"
_cell_formula_units_Z 40
_cell_length_a 9.588883
_cell_length_b 19.600479
_cell_length_c 9.533380
_cell_angle_alpha 90.000000
_cell_angle_beta 90.000000
_cell_angle_gamma 90.000000
_cell_volume 1791.767310
_symmetry_space_group_name_H-M "A B M 2"
_symmetry_group_IT_number 39
_symmetry_cell_setting 'orthorhombic'
loop_
_space_group_symop_operation_xyz
x,y,z
-x,-y,z
-x,1/2+y,z
x,1/2-y,z
x,1/2+y,1/2+z
-x,1/2-y,1/2+z
-x,y,1/2+z
x,-y,1/2+z
loop_
_atom_site_type_symbol
_atom_site_label
_atom_site_fract_x
_atom_site_fract_y
_atom_site_fract_z
Si Si1 0.698693 0.826051 0.488090
Si Si2 0.447938 0.073696 0.032131
Si Si3 0.081042 0.090076 0.633832
Si Si4 0.186629 0.489211 0.885752
Si Si5 0.783611 0.377589 0.709071
O O1 0.646392 0.750000 0.513710
O O2 0.578077 0.883121 0.477350
O O3 0.804593 0.852061 0.607033
O O4 0.783895 0.828363 0.341752
O O5 0.361671 0.126022 0.128676
O O6 0.500000 0.000000 0.092484
O O7 0.327956 0.049792 0.924940
O O8 0.090883 0.061198 0.792651
O O9 0.924899 0.119884 0.617609
O O10 0.126161 0.030753 0.521230
O O11 0.223056 0.547346 0.775550
#
# Coordination Sequence:
#
# PCOD9362047 Si02
#       5
#     8   8   8   8   8
#     4  11  28  49  69  98 146 200 251 294 358 446
#     4  12  24  41  69 106 139 186 237 306 365 427
#     4  11  25  42  73 104 145 182 239 302 367 425
#     4  11  23  38  69 110 143 176 228 300 369 427
#     4  11  25  40  71 104 142 183 234 307 361 429
#
# _framework density 22.324328999999999
#
# number of rings (size 3 to 8) (size 9 to 14) (size 15 to 20)
#    0.000    0.800    6.000    0.600   14.000    1.600 
#    0.000    0.000    0.000    0.000    0.000    0.000 
#    0.000    0.000    0.000    0.000    0.000    0.000 
#
# Total GULP energy -111592.254437 kJ/mol
# GULP energy per Si atom -5579.612722 kJ/mol
# Density = 2.227352 g / cm^3
# Si number density = 22.324329 Si / 1000 Ang^3
#
#
#
# Elastic Constant Matrix: (Units=GPa)
#
#
# Indices 1 2 3 4 5 6 
#
# 1 144.2408 26.9522 26.6746 0.0000 0.0000 0.0000
# 2 26.9522 95.9443 3.1354 0.0000 0.0000 0.0000
# 3 26.6746 3.1354 74.8581 0.0000 0.0000 0.0000
# 4 0.0000 0.0000 0.0000 6.9327 0.0000 0.0000
# 5 0.0000 0.0000 0.0000 0.0000 39.4846 0.0000
# 6 0.0000 0.0000 0.0000 0.0000 0.0000 19.4664
#
#
#
# Elastic Compliance Matrix: (Units=1/GPa)
#
#
# Indices 1 2 3 4 5 6 
#
# 1 0.007827 -0.002110 -0.002701 0.000000 0.000000 0.000000
# 2 -0.002110 0.011006 0.000291 0.000000 0.000000 0.000000
# 3 -0.002701 0.000291 0.014309 0.000000 0.000000 0.000000
# 4 0.000000 0.000000 0.000000 0.144244 0.000000 0.000000
# 5 0.000000 0.000000 0.000000 0.000000 0.025326 0.000000
# 6 0.000000 0.000000 0.000000 0.000000 0.000000 0.051371
#
#
# Mechanical properties :
#
#
# Convention : Reuss Voigt Hill
#
# Bulk Modulus (GPa) = 41.49096 47.61864 44.55480
# Shear Modulus (GPa) = 18.43961 30.39548 24.41754
#
# Velocity S-wave (km/s) = 2.87712 3.69391 3.31080
# Velocity P-wave (km/s) = 5.44637 6.29047 5.88358
#
# Compressibility (1/GPa) = 0.02410163
#
# Stress axis : x y z
#
# Youngs Moduli (GPa) = 127.76952 90.85920 69.88753
#
# Poissons Ratio (x) = 0.19175 0.18873
# Poissons Ratio (y) = 0.26964 -0.02034
# Poissons Ratio (z) = 0.34504 -0.02644
#
# Static dielectric constant tensor:
#      x y z
#    x 1.890210 0.000000 0.000000 
#    y 0.000000 1.819550 0.000000 
#    z 0.000000 0.000000 1.879450 
# 
# From -- ./inp_files/5066.got.cif
#   From: 2010.05.17/outbox.cif.g08.bks.cpg/sg39_3_cif.got.tgz:5066.got - 2010.06.03 18:22:40.
