data_PCOD9362982
_publ_section_title
;
Structure prediction by ZEFSAII (Michael W. Deem and Ramdas Pophale) SiO2 
 PCOD9362982
Probable space group: A M A 2
;
_chemical_formula_sum "Si O2"
_cell_formula_units_Z 64
_cell_length_a 8.058212
_cell_length_b 25.697473
_cell_length_c 15.635214
_cell_angle_alpha 90.000000
_cell_angle_beta 90.000000
_cell_angle_gamma 90.000000
_cell_volume 3237.672654
_symmetry_space_group_name_H-M "A M A 2"
_symmetry_group_IT_number 40
_symmetry_cell_setting 'orthorhombic'
loop_
_space_group_symop_operation_xyz
x,y,z
-x,-y,z
1/2-x,y,z
1/2+x,-y,z
x,1/2+y,1/2+z
-x,1/2-y,1/2+z
1/2-x,1/2+y,1/2+z
1/2+x,1/2-y,1/2+z
loop_
_atom_site_type_symbol
_atom_site_label
_atom_site_fract_x
_atom_site_fract_y
_atom_site_fract_z
Si Si1 0.055242 0.237119 0.255520
Si Si2 0.050274 0.161440 0.977545
Si Si3 0.551585 0.558579 0.158917
Si Si4 0.953850 0.364436 0.660219
Si Si5 0.950268 0.939974 0.310601
Si Si6 0.053947 0.777852 0.444667
Si Si7 0.050290 0.852040 0.785356
Si Si8 0.552610 0.387348 0.986723
O O1 0.250000 0.241519 0.234563
O O2 0.987873 0.191633 0.195773
O O3 0.984115 0.295552 0.254306
O O4 0.037068 0.218038 0.353436
O O5 0.250000 0.159274 0.975982
O O6 0.003442 0.222678 0.985173
O O7 0.989064 0.142574 0.885564
O O8 0.993143 0.131036 0.061820
O O9 0.500000 0.500000 0.178803
O O10 0.750000 0.560939 0.158412
O O11 0.488087 0.600622 0.227810
O O12 0.490706 0.575923 0.065625
O O13 0.750000 0.364218 0.661689
O O14 0.008063 0.408511 0.726822
O O15 0.750000 0.937404 0.311934
O O16 0.010454 0.911839 0.397435
O O17 0.000000 0.000000 0.309322
O O18 0.250000 0.774970 0.427475
O O19 0.018891 0.829421 0.498311
O O20 0.250000 0.850244 0.777829
O O21 0.750000 0.382473 0.980650
#
# Coordination Sequence:
#
# PCOD9362982 Si02
#       8
#     8   8   8   8   8   8   8   8
#     4   9  16  32  56  78 108 148 185 223 274 337
#     4   9  19  34  57  83 114 151 187 230 279 335
#     4  11  24  41  60  84 111 147 191 238 288 341
#     4   9  17  33  56  80 108 147 189 223 271 334
#     4  10  21  37  56  78 107 145 186 224 270 326
#     4  10  19  31  51  83 118 147 183 227 275 331
#     4   9  20  37  59  82 110 146 186 233 286 335
#     4  11  22  37  57  82 113 152 189 229 279 339
#
# _framework density 19.767287
#
# number of rings (size 3 to 8) (size 9 to 14) (size 15 to 20)
#    0.000    2.250    1.250    1.500    1.750    3.500 
#    0.000    1.875    0.000    3.000    0.000    0.000 
#    0.000    0.000    0.000    0.000    0.000    0.000 
#
# Total GULP energy -178607.781946 kJ/mol
# GULP energy per Si atom -5581.493186 kJ/mol
# Density = 1.972230 g / cm^3
# Si number density = 19.767287 Si / 1000 Ang^3
#
#
#
# Elastic Constant Matrix: (Units=GPa)
#
#
# Indices 1 2 3 4 5 6 
#
# 1 16.0743 6.6969 7.5680 0.0000 0.0000 0.0000
# 2 6.6969 112.1156 62.3931 0.0000 0.0000 0.0000
# 3 7.5680 62.3931 95.0155 0.0000 0.0000 0.0000
# 4 0.0000 0.0000 0.0000 31.5943 0.0000 0.0000
# 5 0.0000 0.0000 0.0000 0.0000 19.5963 0.0000
# 6 0.0000 0.0000 0.0000 0.0000 0.0000 25.6229
#
#
#
# Elastic Compliance Matrix: (Units=1/GPa)
#
#
# Indices 1 2 3 4 5 6 
#
# 1 0.064811 -0.001574 -0.004129 0.000000 0.000000 0.000000
# 2 -0.001574 0.014094 -0.009130 0.000000 0.000000 0.000000
# 3 -0.004129 -0.009130 0.016849 0.000000 0.000000 0.000000
# 4 0.000000 0.000000 0.000000 0.031651 0.000000 0.000000
# 5 0.000000 0.000000 0.000000 0.000000 0.051030 0.000000
# 6 0.000000 0.000000 0.000000 0.000000 0.000000 0.039028
#
#
# Mechanical properties :
#
#
# Convention : Reuss Voigt Hill
#
# Bulk Modulus (GPa) = 15.13112 41.83571 28.48341
# Shear Modulus (GPa) = 18.57659 25.13255 21.85457
#
# Velocity S-wave (km/s) = 3.06888 3.56957 3.32865
# Velocity P-wave (km/s) = 4.49763 6.18055 5.40499
#
# Compressibility (1/GPa) = 0.06608898
#
# Stress axis : x y z
#
# Youngs Moduli (GPa) = 15.42959 70.95160 59.35204
#
# Poissons Ratio (x) = 0.11165 0.24506
# Poissons Ratio (y) = 0.02428 0.54187
# Poissons Ratio (z) = 0.06371 0.64777
#
# Static dielectric constant tensor:
#      x y z
#    x 1.711950 0.000000 0.000000 
#    y 0.000000 1.680340 0.000000 
#    z 0.000000 0.000000 1.692490 
# 
# From -- ./inp_files/15702.got.cif
#   From: 2010.05.17/outbox.cif.g08.bks.cpg/sg40_8_cif.got.tgz:15702.got - 2010.06.03 18:35:42.
