data_PCOD9362504
_publ_section_title
;
Structure prediction by ZEFSAII (Michael W. Deem and Ramdas Pophale) SiO2 
 PCOD9362504
Probable space group: A M A 2
;
_chemical_formula_sum "Si O2"
_cell_formula_units_Z 64
_cell_length_a 19.472339
_cell_length_b 21.697967
_cell_length_c 8.802693
_cell_angle_alpha 90.000000
_cell_angle_beta 90.000000
_cell_angle_gamma 90.000000
_cell_volume 3719.227307
_symmetry_space_group_name_H-M "A M A 2"
_symmetry_group_IT_number 40
_symmetry_cell_setting 'orthorhombic'
loop_
_space_group_symop_operation_xyz
x,y,z
-x,-y,z
1/2-x,y,z
1/2+x,-y,z
x,1/2+y,1/2+z
-x,1/2-y,1/2+z
1/2-x,1/2+y,1/2+z
1/2+x,1/2-y,1/2+z
loop_
_atom_site_type_symbol
_atom_site_label
_atom_site_fract_x
_atom_site_fract_y
_atom_site_fract_z
Si Si1 0.542217 0.936029 0.555760
Si Si2 0.969738 0.907045 0.902055
Si Si3 0.973902 0.679859 0.923736
Si Si4 0.386809 0.480913 0.430229
Si Si5 0.036566 0.797245 0.065693
Si Si6 0.671504 0.505851 0.090683
Si Si7 0.673595 0.641965 0.950561
Si Si8 0.326073 0.867298 0.085766
O O1 0.544411 0.904519 0.722177
O O2 0.504964 0.888441 0.445459
O O3 0.500000 0.000000 0.568934
O O4 0.618604 0.958130 0.515770
O O5 0.041910 0.943473 0.913985
O O6 0.911096 0.950515 0.975412
O O7 0.982495 0.842407 0.982027
O O8 0.971411 0.696554 0.746463
O O9 0.895812 0.678952 0.989268
O O10 0.020822 0.728890 0.010369
O O11 0.351139 0.486538 0.266301
O O12 0.342046 0.437758 0.538411
O O13 0.112691 0.823383 0.027417
O O14 0.750000 0.485632 0.080655
O O15 0.665705 0.573375 0.017067
O O16 0.750000 0.665062 0.996861
O O17 0.673352 0.637208 0.767872
O O18 0.250000 0.850383 0.029934
#
# Coordination Sequence:
#
# PCOD9362504 Si02
#       8
#     8   8   8   8   8   8   8   8
#     4  11  18  33  53  77 106 137 167 216 259 305
#     4   9  16  31  49  75 104 133 170 210 255 299
#     4  11  21  36  54  76 104 137 179 217 257 311
#     4   9  15  27  48  74 103 132 164 209 251 299
#     4  10  22  35  54  78 102 141 179 215 256 309
#     4  10  18  29  48  77 106 135 169 206 259 311
#     4   9  18  32  51  74 100 128 165 216 262 305
#     4   9  18  32  50  76 105 133 169 212 261 308
#
# _framework density 17.207875999999999
#
# number of rings (size 3 to 8) (size 9 to 14) (size 15 to 20)
#    0.000    2.250    3.750    1.125    0.000    2.000 
#    2.250    0.625    0.000    9.000    0.000    0.000 
#    0.000    0.000    0.000    0.000    0.000    0.000 
#
# Total GULP energy -178248.809079 kJ/mol
# GULP energy per Si atom -5570.275284 kJ/mol
# Density = 1.716871 g / cm^3
# Si number density = 17.207876 Si / 1000 Ang^3
#
#
#
# Elastic Constant Matrix: (Units=GPa)
#
#
# Indices 1 2 3 4 5 6 
#
# 1 116.9817 41.3323 19.5556 0.0000 0.0000 0.0000
# 2 41.3323 69.3026 19.0352 0.0000 0.0000 0.0000
# 3 19.5556 19.0352 20.1680 0.0000 0.0000 0.0000
# 4 0.0000 0.0000 0.0000 28.3139 0.0000 0.0000
# 5 0.0000 0.0000 0.0000 0.0000 19.4272 0.0000
# 6 0.0000 0.0000 0.0000 0.0000 0.0000 22.0880
#
#
#
# Elastic Compliance Matrix: (Units=1/GPa)
#
#
# Indices 1 2 3 4 5 6 
#
# 1 0.011386 -0.005074 -0.006252 0.000000 0.000000 0.000000
# 2 -0.005074 0.021740 -0.015599 0.000000 0.000000 0.000000
# 3 -0.006252 -0.015599 0.070368 0.000000 0.000000 0.000000
# 4 0.000000 0.000000 0.000000 0.035318 0.000000 0.000000
# 5 0.000000 0.000000 0.000000 0.000000 0.051474 0.000000
# 6 0.000000 0.000000 0.000000 0.000000 0.000000 0.045273
#
#
# Mechanical properties :
#
#
# Convention : Reuss Voigt Hill
#
# Bulk Modulus (GPa) = 20.14293 40.69985 30.42139
# Shear Modulus (GPa) = 16.34210 22.40111 19.37161
#
# Velocity S-wave (km/s) = 3.08504 3.61195 3.35885
# Velocity P-wave (km/s) = 4.94177 6.41078 5.72360
#
# Compressibility (1/GPa) = 0.04964520
#
# Stress axis : x y z
#
# Youngs Moduli (GPa) = 87.82697 45.99824 14.21091
#
# Poissons Ratio (x) = 0.23337 0.08884
# Poissons Ratio (y) = 0.44559 0.22168
# Poissons Ratio (z) = 0.54907 0.71754
#
# Static dielectric constant tensor:
#      x y z
#    x 1.627310 0.000000 0.000000 
#    y 0.000000 1.577640 0.000000 
#    z 0.000000 0.000000 1.587320 
# 
# From -- ./inp_files/7780.got.cif
#   From: 2010.05.17/outbox.cif.g08.bks.cpg/sg40_4_cif.got.tgz:7780.got - 2010.06.03 18:35:42.
