data_PCOD9362824
_publ_section_title
;
Structure prediction by ZEFSAII (Michael W. Deem and Ramdas Pophale) SiO2 
 PCOD9362824
Probable space group: A M A 2
;
_chemical_formula_sum "Si O2"
_cell_formula_units_Z 52
_cell_length_a 12.742789
_cell_length_b 25.038629
_cell_length_c 7.371464
_cell_angle_alpha 90.000000
_cell_angle_beta 90.000000
_cell_angle_gamma 90.000000
_cell_volume 2351.953798
_symmetry_space_group_name_H-M "A M A 2"
_symmetry_group_IT_number 40
_symmetry_cell_setting 'orthorhombic'
loop_
_space_group_symop_operation_xyz
x,y,z
-x,-y,z
1/2-x,y,z
1/2+x,-y,z
x,1/2+y,1/2+z
-x,1/2-y,1/2+z
1/2-x,1/2+y,1/2+z
1/2+x,1/2-y,1/2+z
loop_
_atom_site_type_symbol
_atom_site_label
_atom_site_fract_x
_atom_site_fract_y
_atom_site_fract_z
Si Si1 0.129466 0.105978 0.365720
Si Si2 0.250000 0.815986 0.373049
Si Si3 0.362994 0.229496 0.486367
Si Si4 0.475046 0.418956 0.168910
Si Si5 0.925129 0.207495 0.638924
Si Si6 0.979123 0.559992 0.583498
Si Si7 0.250000 0.917959 0.634563
Si Si8 0.750000 0.606760 0.559555
O O1 0.250000 0.088731 0.343643
O O2 0.129445 0.168688 0.414432
O O3 0.067458 0.075262 0.525184
O O4 0.058339 0.097873 0.189861
O O5 0.147599 0.788233 0.459843
O O6 0.250000 0.872509 0.483069
O O7 0.250000 0.837362 0.167513
O O8 0.250000 0.232563 0.581791
O O9 0.465552 0.237780 0.606630
O O10 0.369195 0.268286 0.314031
O O11 0.450396 0.355023 0.171102
O O12 0.503160 0.436342 0.370085
O O13 0.363133 0.445886 0.118238
O O14 0.858352 0.577238 0.611270
O O15 0.000000 0.500000 0.646596
O O16 0.250000 0.893154 0.839702
#
# Coordination Sequence:
#
# PCOD9362824 Si02
#       8
#     8   4   8   8   8   8   4   4
#     4  10  23  42  64  89 130 172 206 252 314 383
#     4  10  18  38  62  87 124 164 204 263 310 362
#     4  10  21  39  58  89 127 163 207 253 305 377
#     4   9  20  39  61  91 123 166 206 260 314 363
#     4  10  20  37  60  89 126 166 210 254 310 367
#     4  11  24  40  67  94 125 163 214 265 320 374
#     4   8  16  32  60  88 114 148 200 258 310 350
#     4  10  20  38  62  95 120 152 208 267 318 364
#
# _framework density 22.109276999999999
#
# number of rings (size 3 to 8) (size 9 to 14) (size 15 to 20)
#    0.000    2.154    0.769    2.769    3.231    1.231 
#    4.154    0.000    3.385    0.000    0.000    0.000 
#    0.000    0.000    0.000    0.000    0.000    0.000 
#
# Total GULP energy -145230.831346 kJ/mol
# GULP energy per Si atom -5585.801206 kJ/mol
# Density = 2.205896 g / cm^3
# Si number density = 22.109277 Si / 1000 Ang^3
#
#
#
# Elastic Constant Matrix: (Units=GPa)
#
#
# Indices 1 2 3 4 5 6 
#
# 1 164.3009 16.0453 42.9480 0.0000 0.0000 0.0000
# 2 16.0453 55.3725 6.1434 0.0000 0.0000 0.0000
# 3 42.9480 6.1434 51.5388 0.0000 0.0000 0.0000
# 4 0.0000 0.0000 0.0000 16.1494 0.0000 0.0000
# 5 0.0000 0.0000 0.0000 0.0000 24.5696 0.0000
# 6 0.0000 0.0000 0.0000 0.0000 0.0000 2.6723
#
#
#
# Elastic Compliance Matrix: (Units=1/GPa)
#
#
# Indices 1 2 3 4 5 6 
#
# 1 0.007916 -0.001583 -0.006408 0.000000 0.000000 0.000000
# 2 -0.001583 0.018618 -0.000900 0.000000 0.000000 0.000000
# 3 -0.006408 -0.000900 0.024850 0.000000 0.000000 0.000000
# 4 0.000000 0.000000 0.000000 0.061922 0.000000 0.000000
# 5 0.000000 0.000000 0.000000 0.000000 0.040701 0.000000
# 6 0.000000 0.000000 0.000000 0.000000 0.000000 0.374212
#
#
# Mechanical properties :
#
#
# Convention : Reuss Voigt Hill
#
# Bulk Modulus (GPa) = 29.76009 44.60952 37.18480
# Shear Modulus (GPa) = 8.97343 22.41662 15.69502
#
# Velocity S-wave (km/s) = 2.01680 3.18764 2.66726
# Velocity P-wave (km/s) = 4.34891 5.81108 5.13233
#
# Compressibility (1/GPa) = 0.03360205
#
# Stress axis : x y z
#
# Youngs Moduli (GPa) = 126.32694 53.71130 40.24167
#
# Poissons Ratio (x) = 0.08502 0.25786
# Poissons Ratio (y) = 0.19996 0.03623
# Poissons Ratio (z) = 0.80948 0.04835
#
# Static dielectric constant tensor:
#      x y z
#    x 1.849610 0.000000 0.000000 
#    y 0.000000 1.808010 0.000000 
#    z 0.000000 0.000000 1.798440 
# 
# From -- ./inp_files/5563.got.cif
#   From: 2010.05.17/outbox.cif.g08.bks.cpg/sg40_3_cif.got.tgz:5563.got - 2010.06.03 18:35:42.
