data_PCOD9362837
_publ_section_title
;
Structure prediction by ZEFSAII (Michael W. Deem and Ramdas Pophale) SiO2 
 PCOD9362837
Probable space group: A M A 2
;
_chemical_formula_sum "Si O2"
_cell_formula_units_Z 40
_cell_length_a 8.315969
_cell_length_b 24.734691
_cell_length_c 9.689122
_cell_angle_alpha 90.000000
_cell_angle_beta 90.000000
_cell_angle_gamma 90.000000
_cell_volume 1992.983831
_symmetry_space_group_name_H-M "A M A 2"
_symmetry_group_IT_number 40
_symmetry_cell_setting 'orthorhombic'
loop_
_space_group_symop_operation_xyz
x,y,z
-x,-y,z
1/2-x,y,z
1/2+x,-y,z
x,1/2+y,1/2+z
-x,1/2-y,1/2+z
1/2-x,1/2+y,1/2+z
1/2+x,1/2-y,1/2+z
loop_
_atom_site_type_symbol
_atom_site_label
_atom_site_fract_x
_atom_site_fract_y
_atom_site_fract_z
Si Si1 0.443745 0.718457 0.579290
Si Si2 0.750000 0.412866 0.225471
Si Si3 0.750000 0.893971 0.410372
Si Si4 0.750000 0.523530 0.403046
Si Si5 0.250000 0.058701 0.127952
Si Si6 0.496381 0.115054 0.930048
Si Si7 0.560405 0.183529 0.374298
O O1 0.250000 0.705041 0.583279
O O2 0.538132 0.673915 0.486101
O O3 0.454854 0.775463 0.502623
O O4 0.517871 0.714551 0.731500
O O5 0.750000 0.471823 0.301795
O O6 0.604341 0.379149 0.290537
O O7 0.750000 0.417146 0.063803
O O8 0.750000 0.938463 0.290194
O O9 0.584422 0.859877 0.389884
O O10 0.750000 0.499370 0.557123
O O11 0.606303 0.564983 0.389630
O O12 0.398306 0.090694 0.060102
O O13 0.750000 0.165134 0.368478
#
# Coordination Sequence:
#
# PCOD9362837 Si02
#       7
#     8   4   4   4   4   8   8
#     4  11  22  42  64  92 134 174 212 267 327 379
#     4  10  22  40  64  83 127 175 202 264 338 372
#     4  12  24  45  66  89 140 176 210 269 343 372
#     4  10  22  39  66 101 120 158 231 274 310 405
#     4  10  18  40  64  85 121 169 205 263 331 379
#     4  10  19  39  65  88 121 165 215 258 320 391
#     4  11  26  40  65 100 132 170 225 260 313 401
#
# _framework density 20.070409000000001
#
# number of rings (size 3 to 8) (size 9 to 14) (size 15 to 20)
#    0.000    1.600    5.000    2.400    5.600    0.000 
#    1.800    4.000    0.000    0.000    0.000    0.000 
#    0.000    0.000    0.000    0.000    0.000    0.000 
#
# Total GULP energy -111361.576813 kJ/mol
# GULP energy per Si atom -5568.078841 kJ/mol
# Density = 2.002473 g / cm^3
# Si number density = 20.070409 Si / 1000 Ang^3
#
#
#
# Elastic Constant Matrix: (Units=GPa)
#
#
# Indices 1 2 3 4 5 6 
#
# 1 84.6164 26.1911 33.3811 0.0000 0.0000 0.0000
# 2 26.1911 35.2674 12.2369 0.0000 0.0000 0.0000
# 3 33.3811 12.2369 156.5417 0.0000 0.0000 0.0000
# 4 0.0000 0.0000 0.0000 17.2068 0.0000 0.0000
# 5 0.0000 0.0000 0.0000 0.0000 16.8031 0.0000
# 6 0.0000 0.0000 0.0000 0.0000 0.0000 28.4574
#
#
#
# Elastic Compliance Matrix: (Units=1/GPa)
#
#
# Indices 1 2 3 4 5 6 
#
# 1 0.016316 -0.011214 -0.002603 0.000000 0.000000 0.000000
# 2 -0.011214 0.036852 -0.000490 0.000000 0.000000 0.000000
# 3 -0.002603 -0.000490 0.006981 0.000000 0.000000 0.000000
# 4 0.000000 0.000000 0.000000 0.058117 0.000000 0.000000
# 5 0.000000 0.000000 0.000000 0.000000 0.059513 0.000000
# 6 0.000000 0.000000 0.000000 0.000000 0.000000 0.035140
#
#
# Mechanical properties :
#
#
# Convention : Reuss Voigt Hill
#
# Bulk Modulus (GPa) = 31.70802 46.67153 39.18977
# Shear Modulus (GPa) = 19.83785 26.13456 22.98621
#
# Velocity S-wave (km/s) = 3.14731 3.61244 3.38787
# Velocity P-wave (km/s) = 5.38889 6.37997 5.90526
#
# Compressibility (1/GPa) = 0.03153776
#
# Stress axis : x y z
#
# Youngs Moduli (GPa) = 61.29062 27.13524 143.23940
#
# Poissons Ratio (x) = 0.30429 0.37279
# Poissons Ratio (y) = 0.68730 0.07012
# Poissons Ratio (z) = 0.15951 0.01328
#
# Static dielectric constant tensor:
#      x y z
#    x 1.581170 0.000000 0.000000 
#    y 0.000000 1.696550 0.000000 
#    z 0.000000 0.000000 1.670980 
# 
# From -- ./inp_files/4305.got.cif
#   From: 2010.05.17/outbox.cif.g08.bks.cpg/sg40_3_cif.got.tgz:4305.got - 2010.06.03 18:35:42.
