data_PCOD9362995
_publ_section_title
;
Structure prediction by ZEFSAII (Michael W. Deem and Ramdas Pophale) SiO2 
 PCOD9362995
Probable space group: A M A 2
;
_chemical_formula_sum "Si O2"
_cell_formula_units_Z 52
_cell_length_a 9.539223
_cell_length_b 14.837055
_cell_length_c 19.513980
_cell_angle_alpha 90.000000
_cell_angle_beta 90.000000
_cell_angle_gamma 90.000000
_cell_volume 2761.891183
_symmetry_space_group_name_H-M "A M A 2"
_symmetry_group_IT_number 40
_symmetry_cell_setting 'orthorhombic'
loop_
_space_group_symop_operation_xyz
x,y,z
-x,-y,z
1/2-x,y,z
1/2+x,-y,z
x,1/2+y,1/2+z
-x,1/2-y,1/2+z
1/2-x,1/2+y,1/2+z
1/2+x,1/2-y,1/2+z
loop_
_atom_site_type_symbol
_atom_site_label
_atom_site_fract_x
_atom_site_fract_y
_atom_site_fract_z
Si Si1 0.000000 0.500000 0.271920
Si Si2 0.086940 0.413547 0.001469
Si Si3 0.101704 0.374635 0.158827
Si Si4 0.917636 0.228004 0.983900
Si Si5 0.917292 0.091192 0.109635
Si Si6 0.913206 0.827241 0.855089
Si Si7 0.917244 0.226268 0.220566
O O1 0.900590 0.552541 0.219096
O O2 0.927681 0.423629 0.317611
O O3 0.250000 0.411174 0.977929
O O4 0.091590 0.417769 0.084396
O O5 0.000000 0.500000 0.975869
O O6 0.002610 0.321825 0.986557
O O7 0.250000 0.323509 0.161579
O O8 0.976935 0.306974 0.174376
O O9 0.750000 0.242508 0.978372
O O10 0.982222 0.177118 0.918523
O O11 0.942953 0.166482 0.051060
O O12 0.750000 0.074176 0.110373
O O13 0.960474 0.134594 0.182907
O O14 0.000000 0.000000 0.095449
O O15 0.750000 0.813202 0.874610
O O16 0.955958 0.751593 0.798411
O O17 0.750000 0.229596 0.218210
#
# Coordination Sequence:
#
# PCOD9362995 Si02
#       7
#     4   8   8   8   8   8   8
#     4  10  20  36  56  90 124 156 196 240 300 368
#     4  11  22  37  61  92 122 156 199 248 303 364
#     4  10  19  31  54  87 118 148 186 239 294 351
#     4  11  24  42  61  86 125 165 203 251 303 364
#     4  10  22  39  61  88 117 157 204 252 301 354
#     4  10  22  38  60  85 119 162 199 246 304 365
#     4   9  19  38  59  81 113 152 194 244 300 353
#
# _framework density 18.827679
#
# number of rings (size 3 to 8) (size 9 to 14) (size 15 to 20)
#    0.000    1.846    2.308    1.385    1.077    6.154 
#    0.000    0.769    0.000    1.846    0.000    0.000 
#    0.000    0.000    0.000    0.000    0.000    0.000 
#
# Total GULP energy -144947.275342 kJ/mol
# GULP energy per Si atom -5574.895205 kJ/mol
# Density = 1.878483 g / cm^3
# Si number density = 18.827679 Si / 1000 Ang^3
#
#
#
# Elastic Constant Matrix: (Units=GPa)
#
#
# Indices 1 2 3 4 5 6 
#
# 1 56.8007 31.8414 24.3847 0.0000 0.0000 0.0000
# 2 31.8414 96.0525 17.6224 0.0000 0.0000 0.0000
# 3 24.3847 17.6224 60.9084 0.0000 0.0000 0.0000
# 4 0.0000 0.0000 0.0000 15.0184 0.0000 0.0000
# 5 0.0000 0.0000 0.0000 0.0000 59.3920 0.0000
# 6 0.0000 0.0000 0.0000 0.0000 0.0000 28.2527
#
#
#
# Elastic Compliance Matrix: (Units=1/GPa)
#
#
# Indices 1 2 3 4 5 6 
#
# 1 0.024824 -0.006765 -0.007981 0.000000 0.000000 0.000000
# 2 -0.006765 0.012838 -0.001006 0.000000 0.000000 0.000000
# 3 -0.007981 -0.001006 0.019904 0.000000 0.000000 0.000000
# 4 0.000000 0.000000 0.000000 0.066585 0.000000 0.000000
# 5 0.000000 0.000000 0.000000 0.000000 0.016837 0.000000
# 6 0.000000 0.000000 0.000000 0.000000 0.000000 0.035395
#
#
# Mechanical properties :
#
#
# Convention : Reuss Voigt Hill
#
# Bulk Modulus (GPa) = 38.36933 40.16207 39.26570
# Shear Modulus (GPa) = 23.08668 29.86016 26.47342
#
# Velocity S-wave (km/s) = 3.50553 3.98675 3.75386
# Velocity P-wave (km/s) = 6.06699 6.52456 6.29993
#
# Compressibility (1/GPa) = 0.02606249
#
# Stress axis : x y z
#
# Youngs Moduli (GPa) = 40.28360 77.89305 50.24013
#
# Poissons Ratio (x) = 0.52694 0.40097
# Poissons Ratio (y) = 0.27251 0.05055
# Poissons Ratio (z) = 0.32151 0.07837
#
# Static dielectric constant tensor:
#      x y z
#    x 1.620330 0.000000 0.000000 
#    y 0.000000 1.648820 0.000000 
#    z 0.000000 0.000000 1.667200 
# 
# From -- ./inp_files/22103.got.cif
#   From: 2010.05.17/outbox.cif.g08.bks.cpg/sg40_12_cif.got.tgz:22103.got - 2010.06.03 18:35:42.
