data_PCOD9362329
_publ_section_title
;
Structure prediction by ZEFSAII (Michael W. Deem and Ramdas Pophale) SiO2 
 PCOD9362329
Probable space group: A M A 2
;
_chemical_formula_sum "Si O2"
_cell_formula_units_Z 56
_cell_length_a 19.013670
_cell_length_b 17.854526
_cell_length_c 8.260250
_cell_angle_alpha 90.000000
_cell_angle_beta 90.000000
_cell_angle_gamma 90.000000
_cell_volume 2804.190210
_symmetry_space_group_name_H-M "A M A 2"
_symmetry_group_IT_number 40
_symmetry_cell_setting 'orthorhombic'
loop_
_space_group_symop_operation_xyz
x,y,z
-x,-y,z
1/2-x,y,z
1/2+x,-y,z
x,1/2+y,1/2+z
-x,1/2-y,1/2+z
1/2-x,1/2+y,1/2+z
1/2+x,1/2-y,1/2+z
loop_
_atom_site_type_symbol
_atom_site_label
_atom_site_fract_x
_atom_site_fract_y
_atom_site_fract_z
Si Si1 0.080102 0.413102 0.690600
Si Si2 0.078363 0.966020 0.827078
Si Si3 0.884301 0.874947 0.873654
Si Si4 0.974664 0.672930 0.191055
Si Si5 0.588268 0.919911 0.233475
Si Si6 0.329881 0.773142 0.222608
Si Si7 0.913288 0.787023 0.429525
O O1 0.095259 0.423645 0.496698
O O2 0.102309 0.493150 0.761196
O O3 0.118617 0.341837 0.766279
O O4 0.996186 0.408124 0.714732
O O5 0.070400 0.903634 0.687816
O O6 0.124210 0.040985 0.798047
O O7 0.000000 0.000000 0.854223
O O8 0.837734 0.804269 0.822150
O O9 0.961451 0.847093 0.814771
O O10 0.881107 0.891902 0.063453
O O11 0.930249 0.738527 0.272053
O O12 0.015059 0.700523 0.032454
O O13 0.612876 0.868160 0.377895
O O14 0.250000 0.798652 0.225430
O O15 0.357290 0.751817 0.044173
#
# Coordination Sequence:
#
# PCOD9362329 Si02
#       7
#     8   8   8   8   8   8   8
#     4  10  17  34  59  86 119 138 186 242 298 356
#     4   9  14  30  54  80 111 143 172 233 293 351
#     4   9  17  33  57  74 110 145 189 233 287 342
#     4  10  17  30  53  85 118 145 183 230 302 339
#     4  10  18  35  60  93 109 140 182 253 311 346
#     4  11  23  38  55  80 116 164 204 235 279 346
#     4  11  21  32  57  87 120 152 186 241 292 346
#
# _framework density 19.970115
#
# number of rings (size 3 to 8) (size 9 to 14) (size 15 to 20)
#    0.000    2.000    5.714    2.571    0.000    0.000 
#   12.857    4.286    0.000    0.000    0.000    0.000 
#    0.000    0.000    0.000    0.000    0.000    0.000 
#
# Total GULP energy -156079.497927 kJ/mol
# GULP energy per Si atom -5574.267783 kJ/mol
# Density = 1.992466 g / cm^3
# Si number density = 19.970115 Si / 1000 Ang^3
#
#
#
# Elastic Constant Matrix: (Units=GPa)
#
#
# Indices 1 2 3 4 5 6 
#
# 1 28.7628 22.0529 -3.1901 0.0000 0.0000 0.0000
# 2 22.0529 116.1007 16.9403 0.0000 0.0000 0.0000
# 3 -3.1901 16.9403 20.3048 0.0000 0.0000 0.0000
# 4 0.0000 0.0000 0.0000 34.6578 0.0000 0.0000
# 5 0.0000 0.0000 0.0000 0.0000 5.0433 0.0000
# 6 0.0000 0.0000 0.0000 0.0000 0.0000 3.8062
#
#
#
# Elastic Compliance Matrix: (Units=1/GPa)
#
#
# Indices 1 2 3 4 5 6 
#
# 1 0.044901 -0.010883 0.016134 0.000000 0.000000 0.000000
# 2 -0.010883 0.012445 -0.012092 0.000000 0.000000 0.000000
# 3 0.016134 -0.012092 0.061873 0.000000 0.000000 0.000000
# 4 0.000000 0.000000 0.000000 0.028854 0.000000 0.000000
# 5 0.000000 0.000000 0.000000 0.000000 0.198285 0.000000
# 6 0.000000 0.000000 0.000000 0.000000 0.000000 0.262726
#
#
# Mechanical properties :
#
#
# Convention : Reuss Voigt Hill
#
# Bulk Modulus (GPa) = 9.47547 26.30826 17.89187
# Shear Modulus (GPa) = 7.59944 17.32582 12.46263
#
# Velocity S-wave (km/s) = 1.95286 2.94868 2.50084
# Velocity P-wave (km/s) = 3.13688 4.97949 4.16145
#
# Compressibility (1/GPa) = 0.10553562
#
# Stress axis : x y z
#
# Youngs Moduli (GPa) = 22.27146 80.35507 16.16215
#
# Poissons Ratio (x) = 0.87449 -0.26076
# Poissons Ratio (y) = 0.24238 0.19544
# Poissons Ratio (z) = -0.35933 0.97169
#
# Static dielectric constant tensor:
#      x y z
#    x 1.690290 0.000000 0.000000 
#    y 0.000000 1.777150 0.000000 
#    z 0.000000 0.000000 1.732150 
# 
# From -- ./inp_files/8404.got.cif
#   From: 2010.05.17/outbox.cif.g08.bks.cpg/sg40_5_cif.got.tgz:8404.got - 2010.06.03 18:35:42.
