data_PCOD9362650
_publ_section_title
;
Structure prediction by ZEFSAII (Michael W. Deem and Ramdas Pophale) SiO2 
 PCOD9362650
Probable space group: A M A 2
;
_chemical_formula_sum "Si O2"
_cell_formula_units_Z 64
_cell_length_a 7.923077
_cell_length_b 20.391207
_cell_length_c 21.468665
_cell_angle_alpha 90.000000
_cell_angle_beta 90.000000
_cell_angle_gamma 90.000000
_cell_volume 3468.501201
_symmetry_space_group_name_H-M "A M A 2"
_symmetry_group_IT_number 40
_symmetry_cell_setting 'orthorhombic'
loop_
_space_group_symop_operation_xyz
x,y,z
-x,-y,z
1/2-x,y,z
1/2+x,-y,z
x,1/2+y,1/2+z
-x,1/2-y,1/2+z
1/2-x,1/2+y,1/2+z
1/2+x,1/2-y,1/2+z
loop_
_atom_site_type_symbol
_atom_site_label
_atom_site_fract_x
_atom_site_fract_y
_atom_site_fract_z
Si Si1 0.952968 0.428325 0.144240
Si Si2 0.952655 0.428568 0.287739
Si Si3 0.950966 0.928064 0.173898
Si Si4 0.451440 0.789346 0.218577
Si Si5 0.953194 0.928039 0.030646
Si Si6 0.953089 0.791475 0.976158
Si Si7 0.953860 0.289769 0.097071
Si Si8 0.043047 0.710348 0.338728
O O1 0.750000 0.425174 0.146633
O O2 0.015066 0.424109 0.216030
O O3 0.012480 0.364616 0.106832
O O4 0.000000 0.500000 0.119464
O O5 0.750000 0.425732 0.285654
O O6 0.009318 0.364633 0.324844
O O7 0.000000 0.500000 0.313027
O O8 0.750000 0.924114 0.171387
O O9 0.016216 0.922977 0.102335
O O10 0.014475 0.866266 0.212527
O O11 0.000000 0.000000 0.197628
O O12 0.250000 0.779438 0.218472
O O13 0.516436 0.753093 0.156142
O O14 0.515883 0.755722 0.281727
O O15 0.750000 0.925092 0.032270
O O16 0.014977 0.864863 0.993109
O O17 0.000000 0.000000 0.006306
O O18 0.750000 0.795135 0.973203
O O19 0.996320 0.743478 0.032588
O O20 0.013469 0.770439 0.907850
O O21 0.750000 0.289736 0.099403
O O22 0.250000 0.711869 0.338065
#
# Coordination Sequence:
#
# PCOD9362650 Si02
#       8
#     8   8   8   8   8   8   8   8
#     4   9  17  30  49  74 101 128 161 202 246 291
#     4   9  16  29  47  70  99 132 167 200 237 286
#     4  10  19  32  50  76 105 131 163 208 254 298
#     4  10  18  32  54  76  97 131 172 209 250 298
#     4   9  18  30  45  68  99 133 167 199 238 288
#     4  10  20  34  50  72 101 134 170 207 247 295
#     4  10  19  32  52  75 100 130 167 209 252 296
#     4   9  18  33  52  71  99 137 171 202 246 302
#
# _framework density 18.451775000000001
#
# number of rings (size 3 to 8) (size 9 to 14) (size 15 to 20)
#    0.000    2.500    2.500    0.375    0.000    2.000 
#    0.000    1.875    0.000    0.750    0.000    1.750 
#    0.000    0.000    0.000    0.000    0.000    0.000 
#
# Total GULP energy -178468.892363 kJ/mol
# GULP energy per Si atom -5577.152886 kJ/mol
# Density = 1.840978 g / cm^3
# Si number density = 18.451775 Si / 1000 Ang^3
#
#
#
# Elastic Constant Matrix: (Units=GPa)
#
#
# Indices 1 2 3 4 5 6 
#
# 1 11.7446 2.5978 10.4218 0.0000 0.0000 0.0000
# 2 2.5978 144.0726 87.8696 0.0000 0.0000 0.0000
# 3 10.4218 87.8696 131.7880 0.0000 0.0000 0.0000
# 4 0.0000 0.0000 0.0000 20.8063 0.0000 0.0000
# 5 0.0000 0.0000 0.0000 0.0000 13.2540 0.0000
# 6 0.0000 0.0000 0.0000 0.0000 0.0000 25.2127
#
#
#
# Elastic Compliance Matrix: (Units=1/GPa)
#
#
# Indices 1 2 3 4 5 6 
#
# 1 0.093467 0.004757 -0.010563 0.000000 0.000000 0.000000
# 2 0.004757 0.011940 -0.008337 0.000000 0.000000 0.000000
# 3 -0.010563 -0.008337 0.013982 0.000000 0.000000 0.000000
# 4 0.000000 0.000000 0.000000 0.048062 0.000000 0.000000
# 5 0.000000 0.000000 0.000000 0.000000 0.075449 0.000000
# 6 0.000000 0.000000 0.000000 0.000000 0.000000 0.039663
#
#
# Mechanical properties :
#
#
# Convention : Reuss Voigt Hill
#
# Bulk Modulus (GPa) = 10.97663 54.37596 32.67629
# Shear Modulus (GPa) = 14.65343 24.30232 19.47787
#
# Velocity S-wave (km/s) = 2.82112 3.63309 3.25254
# Velocity P-wave (km/s) = 4.07104 6.86530 5.64383
#
# Compressibility (1/GPa) = 0.09110266
#
# Stress axis : x y z
#
# Youngs Moduli (GPa) = 10.69895 83.75203 71.51994
#
# Poissons Ratio (x) = -0.39842 0.75548
# Poissons Ratio (y) = -0.05090 0.59628
# Poissons Ratio (z) = 0.11302 0.69826
#
# Static dielectric constant tensor:
#      x y z
#    x 1.671340 0.000000 0.000000 
#    y 0.000000 1.647780 0.000000 
#    z 0.000000 0.000000 1.635390 
# 
# From -- ./inp_files/19589.got.cif
#   From: 2010.05.17/outbox.cif.g08.bks.cpg/sg40_10_cif.got.tgz:19589.got - 2010.06.03 18:35:42.
