data_PCOD9362745
_publ_section_title
;
Structure prediction by ZEFSAII (Michael W. Deem and Ramdas Pophale) SiO2 
 PCOD9362745
Probable space group: A M A 2
;
_chemical_formula_sum "Si O2"
_cell_formula_units_Z 60
_cell_length_a 13.692366
_cell_length_b 17.897944
_cell_length_c 11.889919
_cell_angle_alpha 90.000000
_cell_angle_beta 90.000000
_cell_angle_gamma 90.000000
_cell_volume 2913.805376
_symmetry_space_group_name_H-M "A M A 2"
_symmetry_group_IT_number 40
_symmetry_cell_setting 'orthorhombic'
loop_
_space_group_symop_operation_xyz
x,y,z
-x,-y,z
1/2-x,y,z
1/2+x,-y,z
x,1/2+y,1/2+z
-x,1/2-y,1/2+z
1/2-x,1/2+y,1/2+z
1/2+x,1/2-y,1/2+z
loop_
_atom_site_type_symbol
_atom_site_label
_atom_site_fract_x
_atom_site_fract_y
_atom_site_fract_z
Si Si1 0.633941 0.237422 0.962530
Si Si2 0.438450 0.219765 0.094948
Si Si3 0.144010 0.387162 0.835955
Si Si4 0.559119 0.148269 0.757158
Si Si5 0.427102 0.122526 0.306570
Si Si6 0.857562 0.291888 0.350718
Si Si7 0.500000 0.000000 0.663342
Si Si8 0.354542 0.017670 0.484349
O O1 0.750000 0.245481 0.991517
O O2 0.620990 0.174538 0.865367
O O3 0.590923 0.311678 0.899759
O O4 0.554889 0.219731 0.061115
O O5 0.414523 0.300069 0.150413
O O6 0.404777 0.160958 0.189137
O O7 0.381539 0.200739 0.982124
O O8 0.250000 0.408671 0.785839
O O9 0.141835 0.297628 0.835538
O O10 0.141269 0.429398 0.956756
O O11 0.037775 0.405455 0.789653
O O12 0.446805 0.170796 0.785458
O O13 0.560204 0.060590 0.732547
O O14 0.369389 0.055123 0.362865
O O15 0.750000 0.320300 0.320895
O O16 0.431695 0.043293 0.575061
O O17 0.250000 0.038245 0.529016
#
# Coordination Sequence:
#
# PCOD9362745 Si02
#       8
#     8   8   8   8   8   8   4   8
#     4  10  21  37  57  84 120 155 196 244 284 341
#     4  10  19  34  59  85 114 149 197 233 287 339
#     4  10  18  34  58  82 116 152 183 231 286 335
#     4  10  22  37  58  87 114 149 194 240 293 341
#     4  11  19  36  57  86 125 152 190 239 293 340
#     4  10  20  37  58  84 116 149 193 241 280 338
#     4  12  22  38  66  82 116 154 188 244 292 348
#     4  11  23  36  58  91 122 152 185 232 292 352
#
# _framework density 20.591628
#
# number of rings (size 3 to 8) (size 9 to 14) (size 15 to 20)
#    0.000    1.600    5.333    2.000    0.000    4.800 
#    0.000    0.000   11.733    0.000    0.000    0.000 
#    0.000    0.000    0.000    0.000    0.000    0.000 
#
# Total GULP energy -167088.958675 kJ/mol
# GULP energy per Si atom -5569.631956 kJ/mol
# Density = 2.054476 g / cm^3
# Si number density = 20.591628 Si / 1000 Ang^3
#
#
#
# Elastic Constant Matrix: (Units=GPa)
#
#
# Indices 1 2 3 4 5 6 
#
# 1 65.9966 -7.9838 -16.6314 0.0000 0.0000 0.0000
# 2 -7.9838 58.1794 18.1798 0.0000 0.0000 0.0000
# 3 -16.6314 18.1798 52.4985 0.0000 0.0000 0.0000
# 4 0.0000 0.0000 0.0000 21.2176 0.0000 0.0000
# 5 0.0000 0.0000 0.0000 0.0000 -2.2498 0.0000
# 6 0.0000 0.0000 0.0000 0.0000 0.0000 17.0628
#
#
#
# Elastic Compliance Matrix: (Units=1/GPa)
#
#
# Indices 1 2 3 4 5 6 
#
# 1 0.016493 0.000707 0.004980 0.000000 0.000000 0.000000
# 2 0.000707 0.019304 -0.006461 0.000000 0.000000 0.000000
# 3 0.004980 -0.006461 0.022863 0.000000 0.000000 0.000000
# 4 0.000000 0.000000 0.000000 0.047131 0.000000 0.000000
# 5 0.000000 0.000000 0.000000 0.000000 -0.444490 0.000000
# 6 0.000000 0.000000 0.000000 0.000000 0.000000 0.058607
#
#
# Mechanical properties :
#
#
# Convention : Reuss Voigt Hill
#
# Bulk Modulus (GPa) = 17.50925 18.20041 17.85483
# Shear Modulus (GPa) = -19.26727 19.41345 0.07309
#
# Velocity S-wave (km/s) = -3.06221 3.07381 0.18861
# Velocity P-wave (km/s) = 1.99533 4.63203 2.95587
#
# Compressibility (1/GPa) = 0.05711268
#
# Stress axis : x y z
#
# Youngs Moduli (GPa) = 60.63241 51.80243 43.73849
#
# Poissons Ratio (x) = -0.03663 -0.21782
# Poissons Ratio (y) = -0.04287 0.28259
# Poissons Ratio (z) = -0.30195 0.33469
#
# Static dielectric constant tensor:
#      x y z
#    x 1.787750 0.000000 0.000000 
#    y 0.000000 1.794370 0.000000 
#    z 0.000000 0.000000 1.740460 
# 
# From -- ./inp_files/12370.got.cif
#   From: 2010.05.17/outbox.cif.g08.bks.cpg/sg40_7_cif.got.tgz:12370.got - 2010.06.03 18:35:42.
