data_PCOD9362993
_publ_section_title
;
Structure prediction by ZEFSAII (Michael W. Deem and Ramdas Pophale) SiO2 
 PCOD9362993
Probable space group: A M A 2
;
_chemical_formula_sum "Si O2"
_cell_formula_units_Z 64
_cell_length_a 8.863574
_cell_length_b 21.117758
_cell_length_c 19.895542
_cell_angle_alpha 90.000000
_cell_angle_beta 90.000000
_cell_angle_gamma 90.000000
_cell_volume 3724.023891
_symmetry_space_group_name_H-M "A M A 2"
_symmetry_group_IT_number 40
_symmetry_cell_setting 'orthorhombic'
loop_
_space_group_symop_operation_xyz
x,y,z
-x,-y,z
1/2-x,y,z
1/2+x,-y,z
x,1/2+y,1/2+z
-x,1/2-y,1/2+z
1/2-x,1/2+y,1/2+z
1/2+x,1/2-y,1/2+z
loop_
_atom_site_type_symbol
_atom_site_label
_atom_site_fract_x
_atom_site_fract_y
_atom_site_fract_z
Si Si1 0.930601 0.617401 0.835820
Si Si2 0.929061 0.745807 0.489037
Si Si3 0.429204 0.565518 0.702441
Si Si4 0.568900 0.311880 0.208700
Si Si5 0.069539 0.816324 0.126262
Si Si6 0.569670 0.434611 0.122307
Si Si7 0.570348 0.115853 0.488736
Si Si8 0.428543 0.256913 0.336216
O O1 0.750000 0.614715 0.827842
O O2 0.969751 0.597412 0.912056
O O3 0.009719 0.577834 0.777779
O O4 0.985233 0.690081 0.827974
O O5 0.750000 0.761262 0.496410
O O6 0.966681 0.697511 0.548413
O O7 0.953064 0.721869 0.413240
O O8 0.020142 0.810960 0.496736
O O9 0.500000 0.500000 0.677325
O O10 0.250000 0.561757 0.703066
O O11 0.484206 0.624866 0.658357
O O12 0.750000 0.313364 0.217385
O O13 0.533251 0.248495 0.166180
O O14 0.524041 0.374016 0.167074
O O15 0.489577 0.304386 0.280298
O O16 0.250000 0.826737 0.132772
O O17 0.500000 0.500000 0.147767
O O18 0.750000 0.438130 0.122117
O O19 0.511840 0.422706 0.046718
O O20 0.750000 0.110258 0.496330
O O21 0.250000 0.245935 0.327039
#
# Coordination Sequence:
#
# PCOD9362993 Si02
#       8
#     8   8   8   8   8   8   8   8
#     4  10  20  35  53  77 111 148 184 221 267 319
#     4   9  18  34  55  81 112 145 178 222 275 320
#     4  12  25  39  56  80 109 145 185 227 273 324
#     4  10  20  35  57  80 110 148 181 221 277 325
#     4  10  19  36  59  81 110 145 181 224 273 325
#     4  11  23  39  56  78 109 148 186 226 274 325
#     4  10  20  33  53  80 110 146 185 224 264 318
#     4  10  19  31  54  85 112 140 181 227 270 319
#
# _framework density 17.185711000000001
#
# number of rings (size 3 to 8) (size 9 to 14) (size 15 to 20)
#    0.000    1.750    2.500    2.625    0.000    4.000 
#    0.000    0.000    0.000    0.750    0.000    1.750 
#    0.000    0.000    0.000    0.000    0.000    0.000 
#
# Total GULP energy -178708.305133 kJ/mol
# GULP energy per Si atom -5584.634535 kJ/mol
# Density = 1.714660 g / cm^3
# Si number density = 17.185711 Si / 1000 Ang^3
#
#
#
# Elastic Constant Matrix: (Units=GPa)
#
#
# Indices 1 2 3 4 5 6 
#
# 1 61.0559 47.2822 43.4773 0.0000 0.0000 0.0000
# 2 47.2822 107.1224 52.3258 0.0000 0.0000 0.0000
# 3 43.4773 52.3258 92.5163 0.0000 0.0000 0.0000
# 4 0.0000 0.0000 0.0000 20.4921 0.0000 0.0000
# 5 0.0000 0.0000 0.0000 0.0000 -9.8657 0.0000
# 6 0.0000 0.0000 0.0000 0.0000 0.0000 25.6827
#
#
#
# Elastic Compliance Matrix: (Units=1/GPa)
#
#
# Indices 1 2 3 4 5 6 
#
# 1 0.029427 -0.008613 -0.008958 0.000000 0.000000 0.000000
# 2 -0.008613 0.015420 -0.004673 0.000000 0.000000 0.000000
# 3 -0.008958 -0.004673 0.017662 0.000000 0.000000 0.000000
# 4 0.000000 0.000000 0.000000 0.048799 0.000000 0.000000
# 5 0.000000 0.000000 0.000000 0.000000 -0.101361 0.000000
# 6 0.000000 0.000000 0.000000 0.000000 0.000000 0.038937
#
#
# Mechanical properties :
#
#
# Convention : Reuss Voigt Hill
#
# Bulk Modulus (GPa) = 55.49356 60.76278 58.12817
# Shear Modulus (GPa) = 50.31272 15.10244 32.70758
#
# Velocity S-wave (km/s) = 5.41659 2.96764 4.36728
# Velocity P-wave (km/s) = 8.45458 6.86847 7.70246
#
# Compressibility (1/GPa) = 0.01802011
#
# Stress axis : x y z
#
# Youngs Moduli (GPa) = 33.98217 64.85224 56.61987
#
# Poissons Ratio (x) = 0.55859 0.50718
# Poissons Ratio (y) = 0.29270 0.26461
# Poissons Ratio (z) = 0.30440 0.30308
#
# Static dielectric constant tensor:
#      x y z
#    x 1.575060 0.000000 0.000000 
#    y 0.000000 1.566840 0.000000 
#    z 0.000000 0.000000 1.595330 
# 
# From -- ./inp_files/22363.got.cif
#   From: 2010.05.17/outbox.cif.g08.bks.cpg/sg40_12_cif.got.tgz:22363.got - 2010.06.03 18:35:42.
