data_PCOD9362953
_publ_section_title
;
Structure prediction by ZEFSAII (Michael W. Deem and Ramdas Pophale) SiO2 
 PCOD9362953
Probable space group: A M A 2
;
_chemical_formula_sum "Si O2"
_cell_formula_units_Z 48
_cell_length_a 15.247575
_cell_length_b 9.604051
_cell_length_c 16.330772
_cell_angle_alpha 90.000000
_cell_angle_beta 90.000000
_cell_angle_gamma 90.000000
_cell_volume 2391.453558
_symmetry_space_group_name_H-M "A M A 2"
_symmetry_group_IT_number 40
_symmetry_cell_setting 'orthorhombic'
loop_
_space_group_symop_operation_xyz
x,y,z
-x,-y,z
1/2-x,y,z
1/2+x,-y,z
x,1/2+y,1/2+z
-x,1/2-y,1/2+z
1/2-x,1/2+y,1/2+z
1/2+x,1/2-y,1/2+z
loop_
_atom_site_type_symbol
_atom_site_label
_atom_site_fract_x
_atom_site_fract_y
_atom_site_fract_z
Si Si1 0.908401 0.365875 0.272160
Si Si2 0.855128 0.548239 0.773280
Si Si3 0.144197 0.108332 0.436031
Si Si4 0.108312 0.856261 0.833097
Si Si5 0.152084 0.694937 0.672562
Si Si6 0.857814 0.022336 0.607351
O O1 0.872201 0.211008 0.268935
O O2 0.864991 0.481925 0.331992
O O3 0.896387 0.435960 0.183250
O O4 0.008010 0.352831 0.302494
O O5 0.750000 0.528443 0.771339
O O6 0.887522 0.485395 0.859546
O O7 0.890487 0.451505 0.698851
O O8 0.250000 0.102424 0.436646
O O9 0.118851 0.266727 0.414606
O O10 0.115223 0.046908 0.522332
O O11 0.157657 0.773919 0.760674
O O12 0.250000 0.667258 0.640434
O O13 0.112790 0.815982 0.615751
O O14 0.750000 0.020627 0.613899
#
# Coordination Sequence:
#
# PCOD9362953 Si02
#       6
#     8   8   8   8   8   8
#     4  10  19  31  49  74 102 134 173 212 251 303
#     4   9  17  30  49  73  98 128 168 211 257 312
#     4   9  18  33  53  75  99 131 172 215 260 308
#     4   9  18  32  48  70 102 138 174 206 246 304
#     4   8  15  29  48  68  94 128 164 204 251 305
#     4   9  17  32  53  74  97 128 169 216 261 306
#
# _framework density 20.071475
#
# number of rings (size 3 to 8) (size 9 to 14) (size 15 to 20)
#    0.000    3.000    0.000    2.000    0.000    4.667 
#    0.000    8.333    0.000   10.000    0.000    0.000 
#    0.000    0.000    0.000    0.000    0.000    0.000 
#
# Total GULP energy -133638.729808 kJ/mol
# GULP energy per Si atom -5568.280409 kJ/mol
# Density = 2.002579 g / cm^3
# Si number density = 20.071475 Si / 1000 Ang^3
#
#
#
# Elastic Constant Matrix: (Units=GPa)
#
#
# Indices 1 2 3 4 5 6 
#
# 1 36.5731 7.7331 3.5603 0.0000 0.0000 0.0000
# 2 7.7331 200.3978 69.3721 0.0000 0.0000 0.0000
# 3 3.5603 69.3721 101.0126 0.0000 0.0000 0.0000
# 4 0.0000 0.0000 0.0000 37.0636 0.0000 0.0000
# 5 0.0000 0.0000 0.0000 0.0000 10.4301 0.0000
# 6 0.0000 0.0000 0.0000 0.0000 0.0000 57.5559
#
#
#
# Elastic Compliance Matrix: (Units=1/GPa)
#
#
# Indices 1 2 3 4 5 6 
#
# 1 0.027575 -0.000955 -0.000316 0.000000 0.000000 0.000000
# 2 -0.000955 0.006579 -0.004485 0.000000 0.000000 0.000000
# 3 -0.000316 -0.004485 0.012991 0.000000 0.000000 0.000000
# 4 0.000000 0.000000 0.000000 0.026981 0.000000 0.000000
# 5 0.000000 0.000000 0.000000 0.000000 0.095877 0.000000
# 6 0.000000 0.000000 0.000000 0.000000 0.000000 0.017374
#
#
# Mechanical properties :
#
#
# Convention : Reuss Voigt Hill
#
# Bulk Modulus (GPa) = 28.06315 55.47939 41.77127
# Shear Modulus (GPa) = 23.72287 38.16444 30.94365
#
# Velocity S-wave (km/s) = 3.44164 4.36527 3.93067
# Velocity P-wave (km/s) = 5.45940 7.28755 6.43869
#
# Compressibility (1/GPa) = 0.03563391
#
# Stress axis : x y z
#
# Youngs Moduli (GPa) = 36.26456 151.98806 76.97637
#
# Poissons Ratio (x) = 0.14508 0.02435
# Poissons Ratio (y) = 0.03462 0.34523
# Poissons Ratio (z) = 0.01147 0.68165
#
# Static dielectric constant tensor:
#      x y z
#    x 1.780330 0.000000 0.000000 
#    y 0.000000 1.770630 0.000000 
#    z 0.000000 0.000000 1.699090 
# 
# From -- ./inp_files/17654.got.cif
#   From: 2010.05.17/outbox.cif.g08.bks.cpg/sg40_9_cif.got.tgz:17654.got - 2010.06.03 18:35:42.
