data_PCOD9362284
_publ_section_title
;
Structure prediction by ZEFSAII (Michael W. Deem and Ramdas Pophale) SiO2 
 PCOD9362284
Probable space group: A M A 2
;
_chemical_formula_sum "Si O2"
_cell_formula_units_Z 64
_cell_length_a 24.200908
_cell_length_b 30.857769
_cell_length_c 5.135623
_cell_angle_alpha 90.000000
_cell_angle_beta 90.000000
_cell_angle_gamma 90.000000
_cell_volume 3835.211505
_symmetry_space_group_name_H-M "A M A 2"
_symmetry_group_IT_number 40
_symmetry_cell_setting 'orthorhombic'
loop_
_space_group_symop_operation_xyz
x,y,z
-x,-y,z
1/2-x,y,z
1/2+x,-y,z
x,1/2+y,1/2+z
-x,1/2-y,1/2+z
1/2-x,1/2+y,1/2+z
1/2+x,1/2-y,1/2+z
loop_
_atom_site_type_symbol
_atom_site_label
_atom_site_fract_x
_atom_site_fract_y
_atom_site_fract_z
Si Si1 0.316802 0.671828 0.477400
Si Si2 0.064537 0.991501 0.078540
Si Si3 0.683149 0.382464 0.978070
Si Si4 0.316448 0.266956 0.125600
Si Si5 0.628352 0.474196 0.080138
Si Si6 0.189185 0.443300 0.984475
Si Si7 0.634112 0.587643 0.483822
Si Si8 0.317014 0.821596 0.125465
O O1 0.250000 0.674571 0.483029
O O2 0.331549 0.636800 0.696802
O O3 0.338443 0.719498 0.550754
O O4 0.330884 0.653799 0.194006
O O5 0.087167 0.009285 0.353182
O O6 0.079203 0.940222 0.045046
O O7 0.098754 0.016253 0.853437
O O8 0.000000 0.000000 0.052639
O O9 0.750000 0.389917 0.988061
O O10 0.649959 0.425969 0.039971
O O11 0.250000 0.263509 0.115703
O O12 0.328947 0.284604 0.411656
O O13 0.330322 0.302607 0.908380
O O14 0.680339 0.506689 0.054388
O O15 0.250000 0.427250 0.043903
O O16 0.148169 0.418596 0.180247
O O17 0.176594 0.436610 0.681002
O O18 0.645412 0.637081 0.559265
O O19 0.250000 0.831640 0.112349
#
# Coordination Sequence:
#
# PCOD9362284 Si02
#       8
#     8   8   8   8   8   8   8   8
#     4   9  17  28  42  62  93 131 158 179 215 260
#     4  10  21  37  52  66  91 120 152 199 241 274
#     4  10  18  29  46  69  99 126 153 188 221 266
#     4   9  17  27  40  60  90 128 158 180 212 256
#     4  10  20  32  49  71  90 118 155 187 227 276
#     4  10  18  29  43  63  95 124 147 176 219 272
#     4  10  20  30  45  67  89 121 158 189 226 271
#     4  10  17  26  41  62  91 120 151 186 215 257
#
# _framework density 16.687476
#
# number of rings (size 3 to 8) (size 9 to 14) (size 15 to 20)
#    0.000    2.250    0.000    4.125    0.000    4.000 
#    0.000    3.750    0.000    0.000    0.000    0.000 
#    0.000   20.000    0.000    0.000    0.000    0.000 
#
# Total GULP energy -178265.042612 kJ/mol
# GULP energy per Si atom -5570.782582 kJ/mol
# Density = 1.664949 g / cm^3
# Si number density = 16.687476 Si / 1000 Ang^3
#
#
#
# Elastic Constant Matrix: (Units=GPa)
#
#
# Indices 1 2 3 4 5 6 
#
# 1 24.1414 3.5554 -1.8320 0.0000 0.0000 0.0000
# 2 3.5554 52.1066 -21.8729 0.0000 0.0000 0.0000
# 3 -1.8320 -21.8729 54.8104 0.0000 0.0000 0.0000
# 4 0.0000 0.0000 0.0000 14.4660 0.0000 0.0000
# 5 0.0000 0.0000 0.0000 0.0000 8.8125 0.0000
# 6 0.0000 0.0000 0.0000 0.0000 0.0000 9.2291
#
#
#
# Elastic Compliance Matrix: (Units=1/GPa)
#
#
# Indices 1 2 3 4 5 6 
#
# 1 0.041848 -0.002725 0.000311 0.000000 0.000000 0.000000
# 2 -0.002725 0.023231 0.009179 0.000000 0.000000 0.000000
# 3 0.000311 0.009179 0.021918 0.000000 0.000000 0.000000
# 4 0.000000 0.000000 0.000000 0.069128 0.000000 0.000000
# 5 0.000000 0.000000 0.000000 0.000000 0.113475 0.000000
# 6 0.000000 0.000000 0.000000 0.000000 0.000000 0.108353
#
#
# Mechanical properties :
#
#
# Convention : Reuss Voigt Hill
#
# Bulk Modulus (GPa) = 9.94737 10.08436 10.01586
# Shear Modulus (GPa) = 12.56503 16.58204 14.57354
#
# Velocity S-wave (km/s) = 2.74699 3.15569 2.95841
# Velocity P-wave (km/s) = 4.00440 4.39705 4.20531
#
# Compressibility (1/GPa) = 0.10052907
#
# Stress axis : x y z
#
# Youngs Moduli (GPa) = 23.89623 43.04666 45.62393
#
# Poissons Ratio (x) = 0.11729 -0.01421
# Poissons Ratio (y) = 0.06511 -0.41880
# Poissons Ratio (z) = -0.00744 -0.39514
#
# Static dielectric constant tensor:
#      x y z
#    x 1.536220 0.000000 0.000000 
#    y 0.000000 1.588730 0.000000 
#    z 0.000000 0.000000 1.573320 
# 
# From -- ./inp_files/2866.got.cif
#   From: 2010.05.17/outbox.cif.g08.bks.cpg/sg40_2_cif.got.tgz:2866.got - 2010.06.03 18:35:42.
