data_PCOD9362553
_publ_section_title
;
Structure prediction by ZEFSAII (Michael W. Deem and Ramdas Pophale) SiO2 
 PCOD9362553
Probable space group: A M A 2
;
_chemical_formula_sum "Si O2"
_cell_formula_units_Z 64
_cell_length_a 8.639113
_cell_length_b 34.625598
_cell_length_c 12.185299
_cell_angle_alpha 90.000000
_cell_angle_beta 90.000000
_cell_angle_gamma 90.000000
_cell_volume 3645.042761
_symmetry_space_group_name_H-M "A M A 2"
_symmetry_group_IT_number 40
_symmetry_cell_setting 'orthorhombic'
loop_
_space_group_symop_operation_xyz
x,y,z
-x,-y,z
1/2-x,y,z
1/2+x,-y,z
x,1/2+y,1/2+z
-x,1/2-y,1/2+z
1/2-x,1/2+y,1/2+z
1/2+x,1/2-y,1/2+z
loop_
_atom_site_type_symbol
_atom_site_label
_atom_site_fract_x
_atom_site_fract_y
_atom_site_fract_z
Si Si1 0.063823 0.765231 0.643640
Si Si2 0.931866 0.815850 0.837178
Si Si3 0.060892 0.179905 0.086183
Si Si4 0.065087 0.957978 0.352785
Si Si5 0.070503 0.118430 0.665939
Si Si6 0.434639 0.958883 0.612000
Si Si7 0.067382 0.830514 0.478641
Si Si8 0.935342 0.376547 0.774074
O O1 0.250000 0.766323 0.640481
O O2 0.012963 0.721025 0.636976
O O3 0.011643 0.790827 0.537705
O O4 0.009773 0.785411 0.755335
O O5 0.750000 0.805555 0.843192
O O6 0.945223 0.856656 0.775400
O O7 0.992369 0.819411 0.960283
O O8 0.250000 0.179054 0.085152
O O9 0.011995 0.144051 0.161334
O O10 0.250000 0.958963 0.343352
O O11 0.025405 0.953849 0.482491
O O12 0.002850 0.919293 0.294695
O O13 0.000000 0.000000 0.316910
O O14 0.250000 0.120807 0.630097
O O15 0.016935 0.074955 0.677587
O O16 0.963821 0.137961 0.573533
O O17 0.250000 0.957147 0.622269
O O18 0.500000 0.000000 0.646197
O O19 0.250000 0.827354 0.455872
O O20 0.984093 0.847098 0.371543
O O21 0.750000 0.379715 0.774271
#
# Coordination Sequence:
#
# PCOD9362553 Si02
#       8
#     8   8   8   8   8   8   8   8
#     4   9  19  35  54  75 103 138 176 221 269 311
#     4   9  19  36  55  74 100 137 179 217 260 312
#     4   9  20  37  54  75 105 142 179 220 268 314
#     4  10  20  34  53  78 110 143 174 215 268 323
#     4  10  18  30  51  75 100 134 172 212 254 309
#     4  10  19  30  48  75 108 139 165 207 259 314
#     4  10  19  31  49  74 104 138 173 214 263 313
#     4  11  21  33  53  78 108 143 179 220 265 320
#
# _framework density 17.558093
#
# number of rings (size 3 to 8) (size 9 to 14) (size 15 to 20)
#    0.000    2.250    1.250    1.875    1.750    2.000 
#    0.000    2.500    0.000    0.750    0.000    0.000 
#    0.000    0.000    0.000    0.000    0.000    0.000 
#
# Total GULP energy -178456.993353 kJ/mol
# GULP energy per Si atom -5576.781042 kJ/mol
# Density = 1.751813 g / cm^3
# Si number density = 17.558093 Si / 1000 Ang^3
#
#
#
# Elastic Constant Matrix: (Units=GPa)
#
#
# Indices 1 2 3 4 5 6 
#
# 1 25.5155 30.2344 21.0490 0.0000 0.0000 0.0000
# 2 30.2344 98.8411 31.1489 0.0000 0.0000 0.0000
# 3 21.0490 31.1489 81.3186 0.0000 0.0000 0.0000
# 4 0.0000 0.0000 0.0000 15.5998 0.0000 0.0000
# 5 0.0000 0.0000 0.0000 0.0000 12.9009 0.0000
# 6 0.0000 0.0000 0.0000 0.0000 0.0000 20.3094
#
#
#
# Elastic Compliance Matrix: (Units=1/GPa)
#
#
# Indices 1 2 3 4 5 6 
#
# 1 0.069392 -0.017703 -0.011181 0.000000 0.000000 0.000000
# 2 -0.017703 0.016022 -0.001555 0.000000 0.000000 0.000000
# 3 -0.011181 -0.001555 0.015787 0.000000 0.000000 0.000000
# 4 0.000000 0.000000 0.000000 0.064103 0.000000 0.000000
# 5 0.000000 0.000000 0.000000 0.000000 0.077514 0.000000
# 6 0.000000 0.000000 0.000000 0.000000 0.000000 0.049238
#
#
# Mechanical properties :
#
#
# Convention : Reuss Voigt Hill
#
# Bulk Modulus (GPa) = 24.79896 41.17110 32.98503
# Shear Modulus (GPa) = 13.64717 17.97821 15.81269
#
# Velocity S-wave (km/s) = 2.79096 3.20336 3.00424
# Velocity P-wave (km/s) = 4.95384 6.09766 5.55527
#
# Compressibility (1/GPa) = 0.04032427
#
# Stress axis : x y z
#
# Youngs Moduli (GPa) = 14.41085 62.41273 63.34282
#
# Poissons Ratio (x) = 1.10487 0.70823
# Poissons Ratio (y) = 0.25511 0.09850
# Poissons Ratio (z) = 0.16113 0.09706
#
# Static dielectric constant tensor:
#      x y z
#    x 1.605210 0.000000 0.000000 
#    y 0.000000 1.656400 0.000000 
#    z 0.000000 0.000000 1.587670 
# 
# From -- ./inp_files/10626.got.cif
#   From: 2010.05.17/outbox.cif.g08.bks.cpg/sg40_6_cif.got.tgz:10626.got - 2010.06.03 18:35:42.
