data_PCOD9362240
_publ_section_title
;
Structure prediction by ZEFSAII (Michael W. Deem and Ramdas Pophale) SiO2 
 PCOD9362240
Probable space group: A M A 2
;
_chemical_formula_sum "Si O2"
_cell_formula_units_Z 40
_cell_length_a 13.941012
_cell_length_b 8.159190
_cell_length_c 17.632042
_cell_angle_alpha 90.000000
_cell_angle_beta 90.000000
_cell_angle_gamma 90.000000
_cell_volume 2005.598329
_symmetry_space_group_name_H-M "A M A 2"
_symmetry_group_IT_number 40
_symmetry_cell_setting 'orthorhombic'
loop_
_space_group_symop_operation_xyz
x,y,z
-x,-y,z
1/2-x,y,z
1/2+x,-y,z
x,1/2+y,1/2+z
-x,1/2-y,1/2+z
1/2-x,1/2+y,1/2+z
1/2+x,1/2-y,1/2+z
loop_
_atom_site_type_symbol
_atom_site_label
_atom_site_fract_x
_atom_site_fract_y
_atom_site_fract_z
Si Si1 0.500000 0.500000 0.811560
Si Si2 0.642100 0.161537 0.429351
Si Si3 0.857898 0.056492 0.918354
Si Si4 0.863513 0.721514 0.259165
Si Si5 0.363616 0.277914 0.093414
Si Si6 0.500000 0.500000 0.539443
O O1 0.570649 0.596354 0.867369
O O2 0.566442 0.376192 0.765052
O O3 0.750000 0.101161 0.414218
O O4 0.643160 0.359319 0.423616
O O5 0.616897 0.120679 0.516736
O O6 0.750000 0.115810 0.934738
O O7 0.883465 0.112325 0.833517
O O8 0.933582 0.107590 0.982254
O O9 0.750000 0.766103 0.263219
O O10 0.877989 0.643019 0.175941
O O11 0.250000 0.232811 0.087818
O O12 0.430127 0.117311 0.086250
#
# Coordination Sequence:
#
# PCOD9362240 Si02
#       6
#     4   8   8   8   8   4
#     4  12  21  32  51  78 106 132 162 210 255 298
#     4   9  19  36  55  74  99 133 169 205 248 297
#     4   9  18  33  54  75  97 131 174 210 241 292
#     4  10  20  33  51  76 103 133 169 208 251 296
#     4   9  18  32  50  72 101 134 165 203 251 296
#     4  10  15  28  51  76  98 128 168 204 245 300
#
# _framework density 19.944171000000001
#
# number of rings (size 3 to 8) (size 9 to 14) (size 15 to 20)
#    0.000    2.400    0.000    5.400    0.000    0.000 
#    0.000    3.000    0.000    0.000    0.000   25.200 
#    0.000    0.000    0.000    0.000    0.000    0.000 
#
# Total GULP energy -111489.525126 kJ/mol
# GULP energy per Si atom -5574.476256 kJ/mol
# Density = 1.989878 g / cm^3
# Si number density = 19.944171 Si / 1000 Ang^3
#
#
#
# Elastic Constant Matrix: (Units=GPa)
#
#
# Indices 1 2 3 4 5 6 
#
# 1 71.4863 1.8368 29.1403 0.0000 0.0000 0.0000
# 2 1.8368 7.0724 11.3108 0.0000 0.0000 0.0000
# 3 29.1403 11.3108 132.4160 0.0000 0.0000 0.0000
# 4 0.0000 0.0000 0.0000 20.3564 0.0000 0.0000
# 5 0.0000 0.0000 0.0000 0.0000 15.4066 0.0000
# 6 0.0000 0.0000 0.0000 0.0000 0.0000 22.1203
#
#
#
# Elastic Compliance Matrix: (Units=1/GPa)
#
#
# Indices 1 2 3 4 5 6 
#
# 1 0.015384 0.001643 -0.003526 0.000000 0.000000 0.000000
# 2 0.001643 0.163943 -0.014365 0.000000 0.000000 0.000000
# 3 -0.003526 -0.014365 0.009555 0.000000 0.000000 0.000000
# 4 0.000000 0.000000 0.000000 0.049125 0.000000 0.000000
# 5 0.000000 0.000000 0.000000 0.000000 0.064907 0.000000
# 6 0.000000 0.000000 0.000000 0.000000 0.000000 0.045207
#
#
# Mechanical properties :
#
#
# Convention : Reuss Voigt Hill
#
# Bulk Modulus (GPa) = 6.39442 32.83896 19.61669
# Shear Modulus (GPa) = 11.55413 22.82245 17.18829
#
# Velocity S-wave (km/s) = 2.40953 3.38645 2.93886
# Velocity P-wave (km/s) = 3.30971 5.63843 4.62310
#
# Compressibility (1/GPa) = 0.15638623
#
# Stress axis : x y z
#
# Youngs Moduli (GPa) = 65.00385 6.09966 104.65780
#
# Poissons Ratio (x) = -0.01002 0.36900
# Poissons Ratio (y) = -0.10682 1.50346
# Poissons Ratio (z) = 0.22919 0.08762
#
# Static dielectric constant tensor:
#      x y z
#    x 1.764260 0.000000 0.000000 
#    y 0.000000 1.695790 0.000000 
#    z 0.000000 0.000000 1.730230 
# 
# From -- ./inp_files/20434.got.cif
#   From: 2010.05.17/outbox.cif.g08.bks.cpg/sg40_11_cif.got.tgz:20434.got - 2010.06.03 18:35:42.
