data_PCOD9362944
_publ_section_title
;
Structure prediction by ZEFSAII (Michael W. Deem and Ramdas Pophale) SiO2 
 PCOD9362944
Probable space group: A M A 2
;
_chemical_formula_sum "Si O2"
_cell_formula_units_Z 48
_cell_length_a 8.670917
_cell_length_b 14.147344
_cell_length_c 24.435921
_cell_angle_alpha 90.000000
_cell_angle_beta 90.000000
_cell_angle_gamma 90.000000
_cell_volume 2997.565318
_symmetry_space_group_name_H-M "A M A 2"
_symmetry_group_IT_number 40
_symmetry_cell_setting 'orthorhombic'
loop_
_space_group_symop_operation_xyz
x,y,z
-x,-y,z
1/2-x,y,z
1/2+x,-y,z
x,1/2+y,1/2+z
-x,1/2-y,1/2+z
1/2-x,1/2+y,1/2+z
1/2+x,1/2-y,1/2+z
loop_
_atom_site_type_symbol
_atom_site_label
_atom_site_fract_x
_atom_site_fract_y
_atom_site_fract_z
Si Si1 0.936970 0.790492 0.557230
Si Si2 0.435439 0.605081 0.824563
Si Si3 0.935275 0.718904 0.724465
Si Si4 0.434878 0.396604 0.616665
Si Si5 0.064326 0.104022 0.449465
Si Si6 0.565778 0.104085 0.662635
O O1 0.750000 0.795934 0.561284
O O2 0.982721 0.683833 0.573227
O O3 0.984352 0.824511 0.497132
O O4 0.005760 0.858579 0.603755
O O5 0.500000 0.500000 0.812832
O O6 0.250000 0.602990 0.820937
O O7 0.502335 0.678376 0.781125
O O8 0.481103 0.628698 0.887272
O O9 0.750000 0.725306 0.725192
O O10 0.979906 0.645206 0.676087
O O11 0.004258 0.819306 0.706290
O O12 0.500000 0.500000 0.607195
O O13 0.250000 0.402112 0.615761
O O14 0.250000 0.099281 0.450314
O O15 0.000000 0.000000 0.461774
O O16 0.750000 0.102423 0.662842
O O17 0.500000 0.000000 0.672834
#
# Coordination Sequence:
#
# PCOD9362944 Si02
#       6
#     8   8   8   8   8   8
#     4   9  18  33  49  69  97 129 162 199 240 284
#     4  10  19  31  48  72  98 128 162 199 243 290
#     4  10  20  34  50  70  96 127 160 198 241 288
#     4   9  18  30  46  67  93 122 154 191 234 280
#     4   9  18  31  48  69  96 127 160 197 240 286
#     4  11  21  33  50  73  99 127 158 196 240 290
#
# _framework density 16.012996000000001
#
# number of rings (size 3 to 8) (size 9 to 14) (size 15 to 20)
#    0.000    2.333    0.000    4.500    0.000    7.333 
#    0.000    0.000    0.000    1.000    0.000    2.333 
#    0.000    0.000    0.000    0.000    0.000    0.000 
#
# Total GULP energy -133879.622242 kJ/mol
# GULP energy per Si atom -5578.317593 kJ/mol
# Density = 1.597655 g / cm^3
# Si number density = 16.012996 Si / 1000 Ang^3
#
#
#
# Elastic Constant Matrix: (Units=GPa)
#
#
# Indices 1 2 3 4 5 6 
#
# 1 47.5794 42.2711 36.4735 0.0000 0.0000 0.0000
# 2 42.2711 150.5721 94.2357 0.0000 0.0000 0.0000
# 3 36.4735 94.2357 122.4432 0.0000 0.0000 0.0000
# 4 0.0000 0.0000 0.0000 23.5847 0.0000 0.0000
# 5 0.0000 0.0000 0.0000 0.0000 26.4691 0.0000
# 6 0.0000 0.0000 0.0000 0.0000 0.0000 29.5128
#
#
#
# Elastic Compliance Matrix: (Units=1/GPa)
#
#
# Indices 1 2 3 4 5 6 
#
# 1 0.029299 -0.005331 -0.004625 0.000000 0.000000 0.000000
# 2 -0.005331 0.013783 -0.009020 0.000000 0.000000 0.000000
# 3 -0.004625 -0.009020 0.016487 0.000000 0.000000 0.000000
# 4 0.000000 0.000000 0.000000 0.042400 0.000000 0.000000
# 5 0.000000 0.000000 0.000000 0.000000 0.037780 0.000000
# 6 0.000000 0.000000 0.000000 0.000000 0.000000 0.033884
#
#
# Mechanical properties :
#
#
# Convention : Reuss Voigt Hill
#
# Bulk Modulus (GPa) = 46.25878 74.06170 60.16024
# Shear Modulus (GPa) = 22.85309 25.75430 24.30369
#
# Velocity S-wave (km/s) = 3.78187 4.01476 3.90005
# Velocity P-wave (km/s) = 6.92972 8.23665 7.61129
#
# Compressibility (1/GPa) = 0.02161752
#
# Stress axis : x y z
#
# Youngs Moduli (GPa) = 34.13101 72.55353 60.65539
#
# Poissons Ratio (x) = 0.38677 0.28052
# Poissons Ratio (y) = 0.18195 0.54710
# Poissons Ratio (z) = 0.15785 0.65442
#
# Static dielectric constant tensor:
#      x y z
#    x 1.539540 0.000000 0.000000 
#    y 0.000000 1.512980 0.000000 
#    z 0.000000 0.000000 1.538180 
# 
# From -- ./inp_files/21995.got.cif
#   From: 2010.05.17/outbox.cif.g08.bks.cpg/sg40_11_cif.got.tgz:21995.got - 2010.06.03 18:35:42.
