data_PCOD9362088
_publ_section_title
;
Structure prediction by ZEFSAII (Michael W. Deem and Ramdas Pophale) SiO2 
 PCOD9362088
Probable space group: A B M 2
;
_chemical_formula_sum "Si O2"
_cell_formula_units_Z 64
_cell_length_a 11.216881
_cell_length_b 18.250973
_cell_length_c 14.786438
_cell_angle_alpha 90.000000
_cell_angle_beta 90.000000
_cell_angle_gamma 90.000000
_cell_volume 3027.064687
_symmetry_space_group_name_H-M "A B M 2"
_symmetry_group_IT_number 39
_symmetry_cell_setting 'orthorhombic'
loop_
_space_group_symop_operation_xyz
x,y,z
-x,-y,z
-x,1/2+y,z
x,1/2-y,z
x,1/2+y,1/2+z
-x,1/2-y,1/2+z
-x,y,1/2+z
x,-y,1/2+z
loop_
_atom_site_type_symbol
_atom_site_label
_atom_site_fract_x
_atom_site_fract_y
_atom_site_fract_z
Si Si1 0.481513 0.337022 0.700840
Si Si2 0.309497 0.422663 0.285280
Si Si3 0.931957 0.383205 0.100723
Si Si4 0.176321 0.954829 0.599582
Si Si5 0.703037 0.564783 0.907206
Si Si6 0.788796 0.667282 0.767638
Si Si7 0.484153 0.088849 0.508228
Si Si8 0.238948 0.663627 0.943377
O O1 0.504073 0.250000 0.699466
O O2 0.569785 0.377765 0.769091
O O3 0.342046 0.347754 0.723926
O O4 0.507020 0.373314 0.603977
O O5 0.256814 0.441432 0.187338
O O6 0.329407 0.496170 0.343517
O O7 0.220928 0.372243 0.344922
O O8 0.880571 0.465283 0.110569
O O9 0.885942 0.342110 0.189678
O O10 0.073121 0.393582 0.095113
O O11 0.869550 0.349455 0.012262
O O12 0.242890 0.956596 0.503856
O O13 0.797157 0.611495 0.850092
O O14 0.585000 0.609523 0.935130
O O15 0.789026 0.750000 0.801276
O O16 0.354915 0.119569 0.480368
O O17 0.500000 0.000000 0.516025
O O18 0.264697 0.750000 0.938455
#
# Coordination Sequence:
#
# PCOD9362088 Si02
#       8
#     8   8   8   8   8   8   8   8
#     4  11  25  42  67 101 145 187 219 275 353 424
#     4  12  24  45  71 102 140 182 229 290 346 422
#     4  11  23  46  72  97 134 180 237 289 337 411
#     4  11  25  47  70 100 130 177 238 296 346 394
#     4  12  25  44  69 105 139 179 232 293 345 415
#     4  11  25  45  69 101 142 187 228 279 352 420
#     4  12  23  40  70 105 140 184 230 284 345 424
#     4  12  25  45  71 104 145 187 228 282 357 423
#
# _framework density 21.142593000000002
#
# number of rings (size 3 to 8) (size 9 to 14) (size 15 to 20)
#    0.000    0.500    6.250    1.875    1.750    3.000 
#    0.000    5.000    0.000    0.000    0.000    0.000 
#    0.000    0.000    0.000    0.000    0.000    0.000 
#
# Total GULP energy -178943.922370 kJ/mol
# GULP energy per Si atom -5591.997574 kJ/mol
# Density = 2.109447 g / cm^3
# Si number density = 21.142593 Si / 1000 Ang^3
#
#
#
# Elastic Constant Matrix: (Units=GPa)
#
#
# Indices 1 2 3 4 5 6 
#
# 1 52.4731 7.4247 14.4749 0.0000 0.0000 0.0000
# 2 7.4247 98.3089 31.6317 0.0000 0.0000 0.0000
# 3 14.4749 31.6317 123.5161 0.0000 0.0000 0.0000
# 4 0.0000 0.0000 0.0000 7.4936 0.0000 0.0000
# 5 0.0000 0.0000 0.0000 0.0000 11.5956 0.0000
# 6 0.0000 0.0000 0.0000 0.0000 0.0000 28.5202
#
#
#
# Elastic Compliance Matrix: (Units=1/GPa)
#
#
# Indices 1 2 3 4 5 6 
#
# 1 0.019754 -0.000814 -0.002106 0.000000 0.000000 0.000000
# 2 -0.000814 0.011119 -0.002752 0.000000 0.000000 0.000000
# 3 -0.002106 -0.002752 0.009048 0.000000 0.000000 0.000000
# 4 0.000000 0.000000 0.000000 0.133448 0.000000 0.000000
# 5 0.000000 0.000000 0.000000 0.000000 0.086239 0.000000
# 6 0.000000 0.000000 0.000000 0.000000 0.000000 0.035063
#
#
# Mechanical properties :
#
#
# Convention : Reuss Voigt Hill
#
# Bulk Modulus (GPa) = 34.99551 42.37340 38.68445
# Shear Modulus (GPa) = 15.84581 24.23967 20.04274
#
# Velocity S-wave (km/s) = 2.74062 3.38965 3.08227
# Velocity P-wave (km/s) = 5.15778 5.95020 5.56811
#
# Compressibility (1/GPa) = 0.02857510
#
# Stress axis : x y z
#
# Youngs Moduli (GPa) = 50.62359 89.93607 110.52458
#
# Poissons Ratio (x) = 0.07322 0.23281
# Poissons Ratio (y) = 0.04121 0.30417
# Poissons Ratio (z) = 0.10664 0.24751
#
# Static dielectric constant tensor:
#      x y z
#    x 1.777780 0.000000 0.000000 
#    y 0.000000 1.754110 0.000000 
#    z 0.000000 0.000000 1.773660 
# 
# From -- ./inp_files/9476.got.cif
#   From: 2010.05.17/outbox.cif.g08.bks.cpg/sg39_5_cif.got.tgz:9476.got - 2010.06.03 18:22:40.
