data_PCOD9362281
_publ_section_title
;
Structure prediction by ZEFSAII (Michael W. Deem and Ramdas Pophale) SiO2 
 PCOD9362281
Probable space group: A M A 2
;
_chemical_formula_sum "Si O2"
_cell_formula_units_Z 48
_cell_length_a 17.470078
_cell_length_b 7.952072
_cell_length_c 14.530145
_cell_angle_alpha 90.000000
_cell_angle_beta 90.000000
_cell_angle_gamma 90.000000
_cell_volume 2018.575956
_symmetry_space_group_name_H-M "A M A 2"
_symmetry_group_IT_number 40
_symmetry_cell_setting 'orthorhombic'
loop_
_space_group_symop_operation_xyz
x,y,z
-x,-y,z
1/2-x,y,z
1/2+x,-y,z
x,1/2+y,1/2+z
-x,1/2-y,1/2+z
1/2-x,1/2+y,1/2+z
1/2+x,1/2-y,1/2+z
loop_
_atom_site_type_symbol
_atom_site_label
_atom_site_fract_x
_atom_site_fract_y
_atom_site_fract_z
Si Si1 0.661391 0.328591 0.830610
Si Si2 0.838610 0.671408 0.704556
Si Si3 0.910369 0.998778 0.042904
Si Si4 0.589631 0.501220 0.992262
Si Si5 0.158435 0.176243 0.886189
Si Si6 0.341565 0.823758 0.648977
O O1 0.750000 0.307509 0.857700
O O2 0.658133 0.499999 0.767583
O O3 0.639209 0.187470 0.756573
O O4 0.611533 0.355224 0.921029
O O5 0.750000 0.692492 0.677467
O O6 0.888466 0.644774 0.614137
O O7 0.860792 0.812529 0.778592
O O8 0.884606 0.832202 0.100054
O O9 0.864714 0.982693 0.947433
O O10 0.000000 0.000000 0.024768
O O11 0.500000 0.500000 0.010397
O O12 0.635285 0.517305 0.087733
O O13 0.615395 0.667796 0.935112
O O14 0.250000 0.202338 0.893324
O O15 0.250000 0.797662 0.641840
#
# Coordination Sequence:
#
# PCOD9362281 Si02
#       6
#     8   8   8   8   8   8
#     4   8  14  25  42  65  97 138 178 215 259 317
#     4   8  14  25  42  65  97 138 178 215 259 317
#     4  10  17  25  43  74 108 135 171 225 272 314
#     4  10  17  25  43  74 108 135 171 225 272 314
#     4   9  17  30  46  69 106 145 180 218 263 325
#     4   9  17  30  46  69 106 145 180 218 263 325
#
# _framework density 23.779140999999999
#
# number of rings (size 3 to 8) (size 9 to 14) (size 15 to 20)
#    0.000    3.000    0.000    6.000    0.000    6.000 
#    0.000    0.000    0.000    0.000    0.000   60.667 
#    0.000   77.333    0.000    0.000    0.000    0.000 
#
# Total GULP energy -134100.875118 kJ/mol
# GULP energy per Si atom -5587.536463 kJ/mol
# Density = 2.372502 g / cm^3
# Si number density = 23.779141 Si / 1000 Ang^3
#
#
#
# Elastic Constant Matrix: (Units=GPa)
#
#
# Indices 1 2 3 4 5 6 
#
# 1 93.0964 7.8823 53.0744 0.0000 0.0000 0.0000
# 2 7.8823 100.3841 23.7747 0.0000 0.0000 0.0000
# 3 53.0744 23.7747 164.6812 0.0000 0.0000 0.0000
# 4 0.0000 0.0000 0.0000 31.1395 0.0000 0.0000
# 5 0.0000 0.0000 0.0000 0.0000 -18.0717 0.0000
# 6 0.0000 0.0000 0.0000 0.0000 0.0000 13.1225
#
#
#
# Elastic Compliance Matrix: (Units=1/GPa)
#
#
# Indices 1 2 3 4 5 6 
#
# 1 0.013159 -0.000030 -0.004237 0.000000 0.000000 0.000000
# 2 -0.000030 0.010314 -0.001479 0.000000 0.000000 0.000000
# 3 -0.004237 -0.001479 0.007651 0.000000 0.000000 0.000000
# 4 0.000000 0.000000 0.000000 0.032114 0.000000 0.000000
# 5 0.000000 0.000000 0.000000 0.000000 -0.055335 0.000000
# 6 0.000000 0.000000 0.000000 0.000000 0.000000 0.076205
#
#
# Mechanical properties :
#
#
# Convention : Reuss Voigt Hill
#
# Bulk Modulus (GPa) = 50.93443 58.62497 54.77970
# Shear Modulus (GPa) = 48.94980 23.46674 36.20827
#
# Velocity S-wave (km/s) = 4.54201 3.14484 3.90640
# Velocity P-wave (km/s) = 6.99806 6.15583 6.59041
#
# Compressibility (1/GPa) = 0.01963309
#
# Stress axis : x y z
#
# Youngs Moduli (GPa) = 75.99080 96.95113 130.69525
#
# Poissons Ratio (x) = 0.00290 0.55373
# Poissons Ratio (y) = 0.00227 0.19336
# Poissons Ratio (z) = 0.32196 0.14343
#
# Static dielectric constant tensor:
#      x y z
#    x 1.767260 0.000000 0.000000 
#    y 0.000000 2.132160 0.000000 
#    z 0.000000 0.000000 1.920470 
# 
# From -- ./inp_files/17004.got.cif
#   From: 2010.05.17/outbox.cif.g08.bks.cpg/sg40_9_cif.got.tgz:17004.got - 2010.06.03 18:35:42.
