data_PCOD9362068
_publ_section_title
;
Structure prediction by ZEFSAII (Michael W. Deem and Ramdas Pophale) SiO2 
 PCOD9362068
Probable space group: A B M 2
;
_chemical_formula_sum "Si O2"
_cell_formula_units_Z 48
_cell_length_a 14.934268
_cell_length_b 17.785329
_cell_length_c 8.683070
_cell_angle_alpha 90.000000
_cell_angle_beta 90.000000
_cell_angle_gamma 90.000000
_cell_volume 2306.317775
_symmetry_space_group_name_H-M "A B M 2"
_symmetry_group_IT_number 39
_symmetry_cell_setting 'orthorhombic'
loop_
_space_group_symop_operation_xyz
x,y,z
-x,-y,z
-x,1/2+y,z
x,1/2-y,z
x,1/2+y,1/2+z
-x,1/2-y,1/2+z
-x,y,1/2+z
x,-y,1/2+z
loop_
_atom_site_type_symbol
_atom_site_label
_atom_site_fract_x
_atom_site_fract_y
_atom_site_fract_z
Si Si1 0.564991 0.426628 0.836600
Si Si2 0.252555 0.889094 0.363346
Si Si3 0.058026 0.075765 0.482359
Si Si4 0.254404 0.537786 0.022842
Si Si5 0.064265 0.666497 0.280023
Si Si6 0.574886 0.163810 0.524902
O O1 0.500000 0.500000 0.825491
O O2 0.584536 0.392557 0.669133
O O3 0.655628 0.445000 0.928314
O O4 0.511616 0.364189 0.932867
O O5 0.263257 0.932036 0.197903
O O6 0.163517 0.840100 0.349895
O O7 0.341617 0.845087 0.408807
O O8 0.239415 0.949147 0.500531
O O9 0.163312 0.069730 0.446095
O O10 0.056616 0.098355 0.660329
O O11 0.011393 0.145603 0.400735
O O12 0.000000 0.000000 0.456944
O O13 0.052387 0.750000 0.216013
O O14 0.567458 0.250000 0.576061
#
# Coordination Sequence:
#
# PCOD9362068 Si02
#       6
#     8   8   8   8   8   8
#     4  12  25  44  70 100 130 176 222 274 325 392
#     4  11  23  42  67  97 134 171 222 273 331 383
#     4  11  23  42  68  95 130 175 222 271 320 390
#     4  11  24  41  70 101 129 170 230 278 319 390
#     4  11  24  42  65  98 135 174 217 270 331 386
#     4  12  26  45  68  99 137 176 217 270 335 395
#
# _framework density 20.812396
#
# number of rings (size 3 to 8) (size 9 to 14) (size 15 to 20)
#    0.000    0.667    3.333    4.500    2.333    1.333 
#    0.000   10.833    0.000    0.000    0.000    0.000 
#    0.000    0.000    0.000    0.000    0.000    0.000 
#
# Total GULP energy -134077.372894 kJ/mol
# GULP energy per Si atom -5586.557204 kJ/mol
# Density = 2.076503 g / cm^3
# Si number density = 20.812396 Si / 1000 Ang^3
#
#
#
# Elastic Constant Matrix: (Units=GPa)
#
#
# Indices 1 2 3 4 5 6 
#
# 1 133.0063 39.2563 33.4874 0.0000 0.0000 0.0000
# 2 39.2563 109.3441 26.0520 0.0000 0.0000 0.0000
# 3 33.4874 26.0520 63.1020 0.0000 0.0000 0.0000
# 4 0.0000 0.0000 0.0000 25.5045 0.0000 0.0000
# 5 0.0000 0.0000 0.0000 0.0000 25.9451 0.0000
# 6 0.0000 0.0000 0.0000 0.0000 0.0000 20.6971
#
#
#
# Elastic Compliance Matrix: (Units=1/GPa)
#
#
# Indices 1 2 3 4 5 6 
#
# 1 0.009202 -0.002374 -0.003903 0.000000 0.000000 0.000000
# 2 -0.002374 0.010755 -0.003181 0.000000 0.000000 0.000000
# 3 -0.003903 -0.003181 0.019232 0.000000 0.000000 0.000000
# 4 0.000000 0.000000 0.000000 0.039209 0.000000 0.000000
# 5 0.000000 0.000000 0.000000 0.000000 0.038543 0.000000
# 6 0.000000 0.000000 0.000000 0.000000 0.000000 0.048316
#
#
# Mechanical properties :
#
#
# Convention : Reuss Voigt Hill
#
# Bulk Modulus (GPa) = 49.32473 55.89375 52.60924
# Shear Modulus (GPa) = 26.18757 28.20644 27.19701
#
# Velocity S-wave (km/s) = 3.55106 3.68539 3.61885
# Velocity P-wave (km/s) = 6.36902 6.70998 6.54172
#
# Compressibility (1/GPa) = 0.02027380
#
# Stress axis : x y z
#
# Youngs Moduli (GPa) = 108.67510 92.97620 51.99669
#
# Poissons Ratio (x) = 0.22069 0.20296
# Poissons Ratio (y) = 0.25795 0.16539
# Poissons Ratio (z) = 0.42419 0.29574
#
# Static dielectric constant tensor:
#      x y z
#    x 1.777630 0.000000 0.000000 
#    y 0.000000 1.725600 0.000000 
#    z 0.000000 0.000000 1.748780 
# 
# From -- ./inp_files/3231.got.cif
#   From: 2010.05.17/outbox.cif.g08.bks.cpg/sg39_2_cif.got.tgz:3231.got - 2010.06.03 18:22:40.
