data_PCOD9362205
_publ_section_title
;
Structure prediction by ZEFSAII (Michael W. Deem and Ramdas Pophale) SiO2 
 PCOD9362205
Probable space group: A B M 2
;
_chemical_formula_sum "Si O2"
_cell_formula_units_Z 32
_cell_length_a 24.000000
_cell_length_b 9.000000
_cell_length_c 15.000000
_cell_angle_alpha 90.000000
_cell_angle_beta 90.000000
_cell_angle_gamma 90.000000
_cell_volume 3240.000000
_symmetry_space_group_name_H-M "A B M 2"
_symmetry_group_IT_number 39
_symmetry_cell_setting 'orthorhombic'
loop_
_space_group_symop_operation_xyz
x,y,z
-x,-y,z
-x,1/2+y,z
x,1/2-y,z
x,1/2+y,1/2+z
-x,1/2-y,1/2+z
-x,y,1/2+z
x,-y,1/2+z
loop_
_atom_site_type_symbol
_atom_site_label
_atom_site_fract_x
_atom_site_fract_y
_atom_site_fract_z
Si Si1 0.557486 0.927940 0.157850
Si Si2 0.232165 0.077287 0.002401
Si Si3 0.942062 0.422639 0.386210
Si Si4 0.942199 0.577386 0.102508
Si Si5 0.829552 0.574908 0.660785
Si Si6 0.557762 0.426699 0.862693
Si Si7 0.172821 0.926108 0.839484
Si Si8 0.364386 0.922874 0.499466
O O1 0.551346 0.750000 0.157336
O O2 0.566661 0.974243 0.260036
O O3 0.500000 0.000000 0.126060
O O4 0.607569 0.967908 0.092736
O O5 0.215296 0.250000 0.017643
O O6 0.206394 0.969855 0.075844
O O7 0.298409 0.067432 0.003112
O O8 0.208122 0.019160 0.909918
O O9 0.939305 0.250000 0.357669
O O10 0.938590 0.423973 0.494392
O O11 0.890625 0.517562 0.350462
O O12 0.000000 0.500000 0.360905
O O13 0.939036 0.750000 0.131147
O O14 0.891842 0.480656 0.139749
O O15 0.000000 0.500000 0.127689
O O16 0.828204 0.750000 0.679520
O O17 0.808151 0.476465 0.742364
O O18 0.500000 0.500000 0.893907
O O19 0.552163 0.250000 0.865908
O O20 0.608242 0.480092 0.922810
O O21 0.176691 0.750000 0.853285
O O22 0.379333 0.750000 0.483064
#
# Coordination Sequence:
#
# PCOD9362205 Si02
#       8
#     8   8   8   8   8   8   8   8
#     4   9  19  36  57  86 121 158 194 237 290 346
#     4  11  24  44  64  88 123 161 204 257 311 365
#     4  10  20  36  61  91 125 158 196 245 303 367
#     4  10  20  36  61  91 125 159 196 245 303 365
#     4  12  25  42  65  91 121 159 205 253 307 369
#     4  10  20  35  58  88 124 160 200 244 294 352
#     4  12  25  42  65  90 120 160 206 254 308 366
#     4  10  22  39  61  87 119 157 199 247 299 354
#
# _framework density 9.8765429999999999
#
# number of rings (size 3 to 8) (size 9 to 14) (size 15 to 20)
#    0.000    1.500    1.250    4.125    0.000    5.500 
#    0.000    3.750    0.000    0.000    0.000    0.000 
#    0.000    0.000    0.000    0.000    0.000    0.000 
#
# Total GULP energy -178888.239429 kJ/mol
# GULP energy per Si atom -5590.257482 kJ/mol
# Density = 0.985406 g / cm^3
# Si number density = 9.876543 Si / 1000 Ang^3
#
#
#
# Elastic Constant Matrix: (Units=GPa)
#
#
# Indices 1 2 3 4 5 6 
#
# 1 55.1265 19.0259 18.6693 0.0000 0.0000 0.0000
# 2 19.0259 72.9832 -3.2758 0.0000 0.0000 0.0000
# 3 18.6693 -3.2758 52.5227 0.0000 0.0000 0.0000
# 4 0.0000 0.0000 0.0000 26.9602 0.0000 0.0000
# 5 0.0000 0.0000 0.0000 0.0000 121.2444 0.0000
# 6 0.0000 0.0000 0.0000 0.0000 0.0000 27.8435
#
#
#
# Elastic Compliance Matrix: (Units=1/GPa)
#
#
# Indices 1 2 3 4 5 6 
#
# 1 0.023316 -0.006468 -0.008691 0.000000 0.000000 0.000000
# 2 -0.006468 0.015535 0.003268 0.000000 0.000000 0.000000
# 3 -0.008691 0.003268 0.022332 0.000000 0.000000 0.000000
# 4 0.000000 0.000000 0.000000 0.037092 0.000000 0.000000
# 5 0.000000 0.000000 0.000000 0.000000 0.008248 0.000000
# 6 0.000000 0.000000 0.000000 0.000000 0.000000 0.035915
#
#
# Mechanical properties :
#
#
# Convention : Reuss Voigt Hill
#
# Bulk Modulus (GPa) = 26.73770 27.71902 27.22836
# Shear Modulus (GPa) = 27.98190 44.95716 36.46953
#
# Velocity S-wave (km/s) = 3.76784 4.77587 4.30149
# Velocity P-wave (km/s) = 5.70036 6.66897 6.20360
#
# Compressibility (1/GPa) = 0.03740038
#
# Stress axis : x y z
#
# Youngs Moduli (GPa) = 42.88927 64.37214 44.77783
#
# Poissons Ratio (x) = 0.41638 0.38917
# Poissons Ratio (y) = 0.27742 -0.14634
# Poissons Ratio (z) = 0.37275 -0.21037
#
# Static dielectric constant tensor:
#      x y z
#    x 1.670860 0.000000 0.000000 
#    y 0.000000 1.650380 0.000000 
#    z 0.000000 0.000000 1.729260 
# 
# From -- ./inp_files/10684.got.cif
#   From: 2010.05.17/outbox.ucp.g08.bks.cvg/sg39_6_cif.got.tgz:10684.got - 2010.06.11 10:41:16.
