data_PCOD9362297
_publ_section_title
;
Structure prediction by ZEFSAII (Michael W. Deem and Ramdas Pophale) SiO2 
 PCOD9362297
Probable space group: A M A 2
;
_chemical_formula_sum "Si O2"
_cell_formula_units_Z 56
_cell_length_a 8.622242
_cell_length_b 13.997457
_cell_length_c 30.234885
_cell_angle_alpha 90.000000
_cell_angle_beta 90.000000
_cell_angle_gamma 90.000000
_cell_volume 3649.031993
_symmetry_space_group_name_H-M "A M A 2"
_symmetry_group_IT_number 40
_symmetry_cell_setting 'orthorhombic'
loop_
_space_group_symop_operation_xyz
x,y,z
-x,-y,z
1/2-x,y,z
1/2+x,-y,z
x,1/2+y,1/2+z
-x,1/2-y,1/2+z
1/2-x,1/2+y,1/2+z
1/2+x,1/2-y,1/2+z
loop_
_atom_site_type_symbol
_atom_site_label
_atom_site_fract_x
_atom_site_fract_y
_atom_site_fract_z
Si Si1 0.564931 0.208579 0.644670
Si Si2 0.938085 0.706485 0.510170
Si Si3 0.063768 0.608293 0.230633
Si Si4 0.936370 0.108193 0.920325
Si Si5 0.436410 0.395257 0.600438
Si Si6 0.936436 0.395860 0.058908
Si Si7 0.564532 0.891996 0.828822
O O1 0.750000 0.207719 0.642890
O O2 0.506544 0.171425 0.691776
O O3 0.501712 0.313518 0.632576
O O4 0.498935 0.138729 0.606504
O O5 0.750000 0.706038 0.509229
O O6 0.990899 0.668084 0.462870
O O7 0.984281 0.637309 0.550698
O O8 0.985437 0.813199 0.524348
O O9 0.250000 0.604928 0.226696
O O10 0.025162 0.646653 0.280036
O O11 0.000000 0.500000 0.226845
O O12 0.750000 0.103973 0.919978
O O13 0.993548 0.150653 0.873528
O O14 0.000000 0.000000 0.924295
O O15 0.500000 0.500000 0.610038
O O16 0.250000 0.394351 0.602420
O O17 0.750000 0.397670 0.060745
O O18 0.000000 0.500000 0.048129
O O19 0.750000 0.894313 0.833030
O O20 0.500000 0.000000 0.828016
#
# Coordination Sequence:
#
# PCOD9362297 Si02
#       7
#     8   8   8   8   8   8   8
#     4  11  21  32  47  68  91 119 154 186 224 269
#     4   8  17  30  45  65  90 120 151 183 219 262
#     4  10  19  31  46  65  91 121 151 185 225 269
#     4  10  17  27  43  64  90 119 148 180 219 261
#     4  10  19  33  49  67  93 122 153 188 224 262
#     4  10  19  33  48  65  91 120 152 188 226 266
#     4   9  17  28  42  62  88 117 147 180 220 265
#
# _framework density 15.346536
#
# number of rings (size 3 to 8) (size 9 to 14) (size 15 to 20)
#    0.000    2.286    0.000    6.000    0.000    1.714 
#    0.000    7.857    0.000    0.000    0.000    1.000 
#    0.000    4.571    0.000    0.000    0.000    0.000 
#
# Total GULP energy -156103.828577 kJ/mol
# GULP energy per Si atom -5575.136735 kJ/mol
# Density = 1.531161 g / cm^3
# Si number density = 15.346536 Si / 1000 Ang^3
#
#
#
# Elastic Constant Matrix: (Units=GPa)
#
#
# Indices 1 2 3 4 5 6 
#
# 1 74.3791 32.2350 45.9856 0.0000 0.0000 0.0000
# 2 32.2350 92.1239 64.0333 0.0000 0.0000 0.0000
# 3 45.9856 64.0333 154.4579 0.0000 0.0000 0.0000
# 4 0.0000 0.0000 0.0000 22.2367 0.0000 0.0000
# 5 0.0000 0.0000 0.0000 0.0000 104.9661 0.0000
# 6 0.0000 0.0000 0.0000 0.0000 0.0000 20.1151
#
#
#
# Elastic Compliance Matrix: (Units=1/GPa)
#
#
# Indices 1 2 3 4 5 6 
#
# 1 0.017229 -0.003460 -0.003695 0.000000 0.000000 0.000000
# 2 -0.003460 0.015944 -0.005580 0.000000 0.000000 0.000000
# 3 -0.003695 -0.005580 0.009887 0.000000 0.000000 0.000000
# 4 0.000000 0.000000 0.000000 0.044971 0.000000 0.000000
# 5 0.000000 0.000000 0.000000 0.000000 0.009527 0.000000
# 6 0.000000 0.000000 0.000000 0.000000 0.000000 0.049714
#
#
# Mechanical properties :
#
#
# Convention : Reuss Voigt Hill
#
# Bulk Modulus (GPa) = 56.84871 67.27430 62.06150
# Shear Modulus (GPa) = 27.99478 41.37737 34.68608
#
# Velocity S-wave (km/s) = 4.27567 5.19813 4.75930
# Velocity P-wave (km/s) = 7.84212 8.94200 8.41006
#
# Compressibility (1/GPa) = 0.01759055
#
# Stress axis : x y z
#
# Youngs Moduli (GPa) = 58.04290 62.71926 101.13822
#
# Poissons Ratio (x) = 0.21703 0.37369
# Poissons Ratio (y) = 0.20084 0.56432
# Poissons Ratio (z) = 0.21446 0.34995
#
# Static dielectric constant tensor:
#      x y z
#    x 1.495350 0.000000 0.000000 
#    y 0.000000 1.484260 0.000000 
#    z 0.000000 0.000000 1.534440 
# 
# From -- ./inp_files/26416.got.cif
#   From: 2010.05.17/outbox.cif.g08.bks.cpg/sg40_14_cif.got.tgz:26416.got - 2010.06.03 18:35:42.
