data_PCOD9362594
_publ_section_title
;
Structure prediction by ZEFSAII (Michael W. Deem and Ramdas Pophale) SiO2 
 PCOD9362594
Probable space group: A M A 2
;
_chemical_formula_sum "Si O2"
_cell_formula_units_Z 48
_cell_length_a 17.029446
_cell_length_b 16.386960
_cell_length_c 9.231146
_cell_angle_alpha 90.000000
_cell_angle_beta 90.000000
_cell_angle_gamma 90.000000
_cell_volume 2576.051453
_symmetry_space_group_name_H-M "A M A 2"
_symmetry_group_IT_number 40
_symmetry_cell_setting 'orthorhombic'
loop_
_space_group_symop_operation_xyz
x,y,z
-x,-y,z
1/2-x,y,z
1/2+x,-y,z
x,1/2+y,1/2+z
-x,1/2-y,1/2+z
1/2-x,1/2+y,1/2+z
1/2+x,1/2-y,1/2+z
loop_
_atom_site_type_symbol
_atom_site_label
_atom_site_fract_x
_atom_site_fract_y
_atom_site_fract_z
Si Si1 0.399787 0.158206 0.928390
Si Si2 0.589045 0.162617 0.423751
Si Si3 0.340593 0.005565 0.767085
Si Si4 0.067565 0.843333 0.769896
Si Si5 0.421903 0.164687 0.270075
Si Si6 0.904978 0.487804 0.950076
O O1 0.368247 0.250674 0.903527
O O2 0.349877 0.082448 0.872336
O O3 0.482561 0.152819 0.843338
O O4 0.414980 0.151561 0.099336
O O5 0.562157 0.158401 0.593692
O O6 0.512835 0.164878 0.321063
O O7 0.630001 0.075303 0.401239
O O8 0.250000 0.986293 0.743457
O O9 0.380008 0.028410 0.613990
O O10 0.384848 0.923316 0.815772
O O11 0.106470 0.756110 0.808400
O O12 0.383276 0.089419 0.353343
O O13 0.000000 0.500000 0.943945
#
# Coordination Sequence:
#
# PCOD9362594 Si02
#       6
#     8   8   8   8   8   8
#     4  10  18  31  52  78 103 128 162 210 257 290
#     4   8  16  30  50  77 103 128 161 198 244 301
#     4  11  22  35  49  69  99 140 177 204 240 295
#     4   9  18  34  54  75 102 134 166 202 246 304
#     4   9  17  30  55  84 102 122 160 212 259 296
#     4   9  17  34  56  77  99 126 164 206 248 304
#
# _framework density 18.633168000000001
#
# number of rings (size 3 to 8) (size 9 to 14) (size 15 to 20)
#    0.000    2.667    0.000    3.500    0.000    5.333 
#    0.000    9.167    0.000    0.000    0.000    0.000 
#    0.000    0.000    0.000    0.000    0.000    0.000 
#
# Total GULP energy -133653.482397 kJ/mol
# GULP energy per Si atom -5568.895100 kJ/mol
# Density = 1.859076 g / cm^3
# Si number density = 18.633168 Si / 1000 Ang^3
#
#
#
# Elastic Constant Matrix: (Units=GPa)
#
#
# Indices 1 2 3 4 5 6 
#
# 1 22.5267 15.1479 -0.2516 0.0000 0.0000 0.0000
# 2 15.1479 165.9104 43.4934 0.0000 0.0000 0.0000
# 3 -0.2516 43.4934 29.5263 0.0000 0.0000 0.0000
# 4 0.0000 0.0000 0.0000 35.2115 0.0000 0.0000
# 5 0.0000 0.0000 0.0000 0.0000 -0.6805 0.0000
# 6 0.0000 0.0000 0.0000 0.0000 0.0000 -0.7144
#
#
#
# Elastic Compliance Matrix: (Units=1/GPa)
#
#
# Indices 1 2 3 4 5 6 
#
# 1 0.049603 -0.007558 0.011557 0.000000 0.000000 0.000000
# 2 -0.007558 0.010971 -0.016225 0.000000 0.000000 0.000000
# 3 0.011557 -0.016225 0.057867 0.000000 0.000000 0.000000
# 4 0.000000 0.000000 0.000000 0.028400 0.000000 0.000000
# 5 0.000000 0.000000 0.000000 0.000000 -1.469467 0.000000
# 6 0.000000 0.000000 0.000000 0.000000 0.000000 -1.399770
#
#
# Mechanical properties :
#
#
# Convention : Reuss Voigt Hill
#
# Bulk Modulus (GPa) = 10.63973 37.19364 23.91669
# Shear Modulus (GPa) = -1.87504 17.40157 7.76327
#
# Velocity S-wave (km/s) = -1.00423 3.05930 2.04338
# Velocity P-wave (km/s) = 2.09234 5.69942 4.29309
#
# Compressibility (1/GPa) = 0.09398731
#
# Stress axis : x y z
#
# Youngs Moduli (GPa) = 20.15992 91.15122 17.28116
#
# Poissons Ratio (x) = 0.68896 -0.19971
# Poissons Ratio (y) = 0.15238 0.28038
# Poissons Ratio (z) = -0.23298 1.47891
#
# Static dielectric constant tensor:
#      x y z
#    x 1.613460 0.000000 0.000000 
#    y 0.000000 1.735570 0.000000 
#    z 0.000000 0.000000 1.622140 
# 
# From -- ./inp_files/7577.got.cif
#   From: 2010.05.17/outbox.cif.g08.bks.cpg/sg40_4_cif.got.tgz:7577.got - 2010.06.03 18:35:42.
