data_PCOD9362612
_publ_section_title
;
Structure prediction by ZEFSAII (Michael W. Deem and Ramdas Pophale) SiO2 
 PCOD9362612
Probable space group: A M A 2
;
_chemical_formula_sum "Si O2"
_cell_formula_units_Z 56
_cell_length_a 13.601191
_cell_length_b 14.949123
_cell_length_c 12.804732
_cell_angle_alpha 90.000000
_cell_angle_beta 90.000000
_cell_angle_gamma 90.000000
_cell_volume 2603.533366
_symmetry_space_group_name_H-M "A M A 2"
_symmetry_group_IT_number 40
_symmetry_cell_setting 'orthorhombic'
loop_
_space_group_symop_operation_xyz
x,y,z
-x,-y,z
1/2-x,y,z
1/2+x,-y,z
x,1/2+y,1/2+z
-x,1/2-y,1/2+z
1/2-x,1/2+y,1/2+z
1/2+x,1/2-y,1/2+z
loop_
_atom_site_type_symbol
_atom_site_label
_atom_site_fract_x
_atom_site_fract_y
_atom_site_fract_z
Si Si1 0.136145 0.960086 0.530620
Si Si2 0.543299 0.702039 0.137003
Si Si3 0.366647 0.797921 0.862274
Si Si4 0.868696 0.388009 0.617035
Si Si5 0.863829 0.397931 0.219331
Si Si6 0.131031 0.100191 0.357573
Si Si7 0.368445 0.990226 0.923247
O O1 0.250000 0.932701 0.517428
O O2 0.071905 0.874421 0.555859
O O3 0.131427 0.025924 0.630396
O O4 0.104911 0.019139 0.432292
O O5 0.613963 0.691415 0.238612
O O6 0.568743 0.799237 0.094139
O O7 0.435217 0.681274 0.182157
O O8 0.250000 0.794878 0.881172
O O9 0.406369 0.699231 0.890805
O O10 0.404796 0.888377 0.914898
O O11 0.750000 0.368602 0.612527
O O12 0.892672 0.414295 0.736213
O O13 0.889918 0.463542 0.532628
O O14 0.750000 0.369370 0.229463
O O15 0.897382 0.446386 0.325982
O O16 0.250000 0.105258 0.364367
O O17 0.250000 0.985451 0.913227
#
# Coordination Sequence:
#
# PCOD9362612 Si02
#       7
#     8   8   8   8   8   8   8
#     4  10  18  31  54  84 117 144 182 238 283 329
#     4  11  19  32  56  87 107 151 192 237 280 334
#     4   9  16  30  55  86 114 147 192 230 271 336
#     4   9  18  34  56  85 117 152 190 226 279 346
#     4  10  21  35  54  84 113 144 189 242 293 326
#     4   8  16  30  51  81 116 152 189 225 270 339
#     4   9  17  32  56  83 119 150 183 238 285 330
#
# _framework density 21.509232000000001
#
# number of rings (size 3 to 8) (size 9 to 14) (size 15 to 20)
#    0.000    2.571    1.429    2.571    0.000    0.000 
#    5.143    0.000    3.143    0.000    7.429    0.000 
#    0.000    0.000    0.000    0.000    0.000    0.000 
#
# Total GULP energy -156422.376356 kJ/mol
# GULP energy per Si atom -5586.513441 kJ/mol
# Density = 2.146028 g / cm^3
# Si number density = 21.509232 Si / 1000 Ang^3
#
#
#
# Elastic Constant Matrix: (Units=GPa)
#
#
# Indices 1 2 3 4 5 6 
#
# 1 72.6176 8.1127 25.7165 0.0000 0.0000 0.0000
# 2 8.1127 94.0259 74.9757 0.0000 0.0000 0.0000
# 3 25.7165 74.9757 100.8581 0.0000 0.0000 0.0000
# 4 0.0000 0.0000 0.0000 7.3673 0.0000 0.0000
# 5 0.0000 0.0000 0.0000 0.0000 9.1838 0.0000
# 6 0.0000 0.0000 0.0000 0.0000 0.0000 19.9076
#
#
#
# Elastic Compliance Matrix: (Units=1/GPa)
#
#
# Indices 1 2 3 4 5 6 
#
# 1 0.015899 0.004569 -0.007450 0.000000 0.000000 0.000000
# 2 0.004569 0.027429 -0.021555 0.000000 0.000000 0.000000
# 3 -0.007450 -0.021555 0.027838 0.000000 0.000000 0.000000
# 4 0.000000 0.000000 0.000000 0.135734 0.000000 0.000000
# 5 0.000000 0.000000 0.000000 0.000000 0.108887 0.000000
# 6 0.000000 0.000000 0.000000 0.000000 0.000000 0.050232
#
#
# Mechanical properties :
#
#
# Convention : Reuss Voigt Hill
#
# Bulk Modulus (GPa) = 44.85678 53.90127 49.37903
# Shear Modulus (GPa) = 11.83925 17.87152 14.85539
#
# Velocity S-wave (km/s) = 2.34866 2.88562 2.63088
# Velocity P-wave (km/s) = 5.31553 6.01801 5.67764
#
# Compressibility (1/GPa) = 0.02229317
#
# Stress axis : x y z
#
# Youngs Moduli (GPa) = 62.89794 36.45759 35.92178
#
# Poissons Ratio (x) = -0.16658 0.26763
# Poissons Ratio (y) = -0.28739 0.77430
# Poissons Ratio (z) = 0.46862 0.78585
#
# Static dielectric constant tensor:
#      x y z
#    x 1.822360 0.000000 0.000000 
#    y 0.000000 1.782530 0.000000 
#    z 0.000000 0.000000 1.762380 
# 
# From -- ./inp_files/12233.got.cif
#   From: 2010.05.17/outbox.cif.g08.bks.cpg/sg40_7_cif.got.tgz:12233.got - 2010.06.03 18:35:42.
