data_PCOD9362162
_publ_section_title
;
Structure prediction by ZEFSAII (Michael W. Deem and Ramdas Pophale) SiO2 
 PCOD9362162
Probable space group: A B M 2
;
_chemical_formula_sum "Si O2"
_cell_formula_units_Z 40
_cell_length_a 8.527150
_cell_length_b 24.841067
_cell_length_c 7.890887
_cell_angle_alpha 90.000000
_cell_angle_beta 90.000000
_cell_angle_gamma 90.000000
_cell_volume 1671.475338
_symmetry_space_group_name_H-M "A B M 2"
_symmetry_group_IT_number 39
_symmetry_cell_setting 'orthorhombic'
loop_
_space_group_symop_operation_xyz
x,y,z
-x,-y,z
-x,1/2+y,z
x,1/2-y,z
x,1/2+y,1/2+z
-x,1/2-y,1/2+z
-x,y,1/2+z
x,-y,1/2+z
loop_
_atom_site_type_symbol
_atom_site_label
_atom_site_fract_x
_atom_site_fract_y
_atom_site_fract_z
Si Si1 0.416549 0.250000 0.095990
Si Si2 0.925947 0.353046 0.088313
Si Si3 0.860603 0.536935 0.781351
Si Si4 0.354166 0.040275 0.079562
Si Si5 0.252072 0.750000 0.226943
Si Si6 0.746719 0.146889 0.727114
O O1 0.604174 0.250000 0.093717
O O2 0.361757 0.302028 0.200478
O O3 0.332056 0.250000 0.912593
O O4 0.911826 0.409935 0.183763
O O5 0.852122 0.302855 0.189869
O O6 0.114013 0.346649 0.087722
O O7 0.836178 0.355701 0.908002
O O8 0.783998 0.495080 0.655252
O O9 0.000000 0.500000 0.859865
O O10 0.716025 0.555127 0.898648
O O11 0.357779 0.093809 0.192660
O O12 0.500000 0.000000 0.068284
#
# Coordination Sequence:
#
# PCOD9362162 Si02
#       6
#     4   8   8   8   4   8
#     4  12  27  50  77 112 154 196 248 312 389 456
#     4  12  26  48  80 110 149 198 257 316 376 454
#     4  12  25  46  74 109 148 200 258 314 377 456
#     4  12  27  46  72 109 155 200 253 315 387 456
#     4  12  27  50  79 112 152 198 250 314 383 456
#     4  12  26  49  77 112 151 198 255 314 382 456
#
# _framework density 23.930952999999999
#
# number of rings (size 3 to 8) (size 9 to 14) (size 15 to 20)
#    0.000    0.000    2.000    8.400    2.800    0.000 
#    3.600    1.000    0.000    0.000    0.000    0.000 
#    0.000    0.000    0.000    0.000    0.000    0.000 
#
# Total GULP energy -111940.874189 kJ/mol
# GULP energy per Si atom -5597.043709 kJ/mol
# Density = 2.387649 g / cm^3
# Si number density = 23.930953 Si / 1000 Ang^3
#
#
#
# Elastic Constant Matrix: (Units=GPa)
#
#
# Indices 1 2 3 4 5 6 
#
# 1 119.2530 65.1156 16.8762 0.0000 0.0000 0.0000
# 2 65.1156 199.0998 24.6139 0.0000 0.0000 0.0000
# 3 16.8762 24.6139 85.8108 0.0000 0.0000 0.0000
# 4 0.0000 0.0000 0.0000 7.6769 0.0000 0.0000
# 5 0.0000 0.0000 0.0000 0.0000 26.9474 0.0000
# 6 0.0000 0.0000 0.0000 0.0000 0.0000 52.4727
#
#
#
# Elastic Compliance Matrix: (Units=1/GPa)
#
#
# Indices 1 2 3 4 5 6 
#
# 1 0.010308 -0.003235 -0.001099 0.000000 0.000000 0.000000
# 2 -0.003235 0.006223 -0.001149 0.000000 0.000000 0.000000
# 3 -0.001099 -0.001149 0.012199 0.000000 0.000000 0.000000
# 4 0.000000 0.000000 0.000000 0.130261 0.000000 0.000000
# 5 0.000000 0.000000 0.000000 0.000000 0.037109 0.000000
# 6 0.000000 0.000000 0.000000 0.000000 0.000000 0.019058
#
#
# Mechanical properties :
#
#
# Convention : Reuss Voigt Hill
#
# Bulk Modulus (GPa) = 56.29555 68.59720 62.44637
# Shear Modulus (GPa) = 21.54759 37.25660 29.40210
#
# Velocity S-wave (km/s) = 3.00393 3.94996 3.50897
# Velocity P-wave (km/s) = 5.96714 7.03774 6.52443
#
# Compressibility (1/GPa) = 0.01776339
#
# Stress axis : x y z
#
# Youngs Moduli (GPa) = 97.01571 160.70232 81.97261
#
# Poissons Ratio (x) = 0.51991 0.09010
# Poissons Ratio (y) = 0.31387 0.09416
# Poissons Ratio (z) = 0.10664 0.18459
#
# Static dielectric constant tensor:
#      x y z
#    x 1.975870 0.000000 0.000000 
#    y 0.000000 1.834010 0.000000 
#    z 0.000000 0.000000 2.005630 
# 
# From -- ./inp_files/2138.got.cif
#   From: 2010.05.17/outbox.cif.g08.bks.cpg/sg39_2_cif.got.tgz:2138.got - 2010.06.03 18:22:40.
