data_PCOD9362124
_publ_section_title
;
Structure prediction by ZEFSAII (Michael W. Deem and Ramdas Pophale) SiO2 
 PCOD9362124
Probable space group: A B M 2
;
_chemical_formula_sum "Si O2"
_cell_formula_units_Z 48
_cell_length_a 9.268402
_cell_length_b 26.382868
_cell_length_c 8.543800
_cell_angle_alpha 90.000000
_cell_angle_beta 90.000000
_cell_angle_gamma 90.000000
_cell_volume 2089.190009
_symmetry_space_group_name_H-M "A B M 2"
_symmetry_group_IT_number 39
_symmetry_cell_setting 'orthorhombic'
loop_
_space_group_symop_operation_xyz
x,y,z
-x,-y,z
-x,1/2+y,z
x,1/2-y,z
x,1/2+y,1/2+z
-x,1/2-y,1/2+z
-x,y,1/2+z
x,-y,1/2+z
loop_
_atom_site_type_symbol
_atom_site_label
_atom_site_fract_x
_atom_site_fract_y
_atom_site_fract_z
Si Si1 0.565095 0.355094 0.376350
Si Si2 0.823378 0.363108 0.600307
Si Si3 0.638786 0.034730 0.274926
Si Si4 0.666605 0.806581 0.567575
Si Si5 0.953574 0.191330 0.898781
Si Si6 0.160033 0.022554 0.057681
O O1 0.664228 0.354352 0.532116
O O2 0.580391 0.408736 0.290273
O O3 0.408585 0.343958 0.444391
O O4 0.620498 0.316539 0.244983
O O5 0.873560 0.327997 0.742947
O O6 0.839373 0.422528 0.641861
O O7 0.922884 0.346988 0.452740
O O8 0.779190 0.033431 0.386124
O O9 0.500000 0.000000 0.311453
O O10 0.713701 0.014536 0.118861
O O11 0.619955 0.750000 0.522220
O O12 0.836557 0.810115 0.539211
O O13 0.001407 0.250000 0.880921
O O14 0.000000 0.000000 0.060758
#
# Coordination Sequence:
#
# PCOD9362124 Si02
#       6
#     8   8   8   8   8   8
#     4  11  26  43  70 102 136 185 229 289 354 419
#     4  11  26  43  70 102 136 185 229 289 354 419
#     4  11  27  44  70 103 140 186 237 294 355 430
#     4  11  25  44  70 100 138 182 230 288 350 422
#     4  11  25  44  70 100 138 182 230 288 350 422
#     4  11  27  44  70 103 140 186 237 294 355 430
#
# _framework density 22.975411999999999
#
# number of rings (size 3 to 8) (size 9 to 14) (size 15 to 20)
#    0.000    1.000    0.000    4.000   18.667    5.333 
#    0.000    0.000    0.000    0.000    0.000    0.000 
#    0.000    0.000    0.000    0.000    0.000    0.000 
#
# Total GULP energy -134188.002955 kJ/mol
# GULP energy per Si atom -5591.166790 kJ/mol
# Density = 2.292312 g / cm^3
# Si number density = 22.975412 Si / 1000 Ang^3
#
#
#
# Elastic Constant Matrix: (Units=GPa)
#
#
# Indices 1 2 3 4 5 6 
#
# 1 100.2635 44.4087 1.6124 0.0000 0.0000 0.0000
# 2 44.4087 45.9206 -4.3424 0.0000 0.0000 0.0000
# 3 1.6124 -4.3424 38.5413 0.0000 0.0000 0.0000
# 4 0.0000 0.0000 0.0000 27.0029 0.0000 0.0000
# 5 0.0000 0.0000 0.0000 0.0000 27.1038 0.0000
# 6 0.0000 0.0000 0.0000 0.0000 0.0000 19.7215
#
#
#
# Elastic Compliance Matrix: (Units=1/GPa)
#
#
# Indices 1 2 3 4 5 6 
#
# 1 0.017721 -0.017393 -0.002701 0.000000 0.000000 0.000000
# 2 -0.017393 0.039082 0.005131 0.000000 0.000000 0.000000
# 3 -0.002701 0.005131 0.026637 0.000000 0.000000 0.000000
# 4 0.000000 0.000000 0.000000 0.037033 0.000000 0.000000
# 5 0.000000 0.000000 0.000000 0.000000 0.036895 0.000000
# 6 0.000000 0.000000 0.000000 0.000000 0.000000 0.050706
#
#
# Mechanical properties :
#
#
# Convention : Reuss Voigt Hill
#
# Bulk Modulus (GPa) = 18.68655 29.78701 24.23678
# Shear Modulus (GPa) = 19.54365 24.30210 21.92288
#
# Velocity S-wave (km/s) = 2.91973 3.25583 3.09235
# Velocity P-wave (km/s) = 4.41784 5.20833 4.82929
#
# Compressibility (1/GPa) = 0.05351443
#
# Stress axis : x y z
#
# Youngs Moduli (GPa) = 56.43118 25.58730 37.54142
#
# Poissons Ratio (x) = 0.44503 0.10140
# Poissons Ratio (y) = 0.98149 -0.19262
# Poissons Ratio (z) = 0.15242 -0.13129
#
# Static dielectric constant tensor:
#      x y z
#    x 1.827460 0.000000 0.000000 
#    y 0.000000 1.922720 0.000000 
#    z 0.000000 0.000000 1.883960 
# 
# From -- ./inp_files/2318.got.cif
#   From: 2010.05.17/outbox.cif.g08.bks.cpg/sg39_2_cif.got.tgz:2318.got - 2010.06.03 18:22:40.
