data_PCOD9362296
_publ_section_title
;
Structure prediction by ZEFSAII (Michael W. Deem and Ramdas Pophale) SiO2 
 PCOD9362296
Probable space group: A M A 2
;
_chemical_formula_sum "Si O2"
_cell_formula_units_Z 56
_cell_length_a 8.608242
_cell_length_b 14.074800
_cell_length_c 30.168941
_cell_angle_alpha 90.000000
_cell_angle_beta 90.000000
_cell_angle_gamma 90.000000
_cell_volume 3655.247306
_symmetry_space_group_name_H-M "A M A 2"
_symmetry_group_IT_number 40
_symmetry_cell_setting 'orthorhombic'
loop_
_space_group_symop_operation_xyz
x,y,z
-x,-y,z
1/2-x,y,z
1/2+x,-y,z
x,1/2+y,1/2+z
-x,1/2-y,1/2+z
1/2-x,1/2+y,1/2+z
1/2+x,1/2-y,1/2+z
loop_
_atom_site_type_symbol
_atom_site_label
_atom_site_fract_x
_atom_site_fract_y
_atom_site_fract_z
Si Si1 0.063054 0.396242 0.364510
Si Si2 0.564640 0.607916 0.093939
Si Si3 0.439192 0.705814 0.910905
Si Si4 0.062998 0.603415 0.821292
Si Si5 0.062927 0.607611 0.001468
Si Si6 0.937680 0.704958 0.273167
Si Si7 0.065244 0.607241 0.186363
O O1 0.250000 0.398663 0.365667
O O2 0.011194 0.312169 0.397613
O O3 0.019006 0.362190 0.314872
O O4 0.000000 0.500000 0.374454
O O5 0.500000 0.500000 0.094097
O O6 0.750000 0.606505 0.093433
O O7 0.503557 0.648322 0.140405
O O8 0.500353 0.648832 0.047875
O O9 0.250000 0.705687 0.910665
O O10 0.488377 0.637025 0.870522
O O11 0.487993 0.667325 0.958568
O O12 0.250000 0.600361 0.821770
O O13 0.018453 0.688215 0.787847
O O14 0.000000 0.500000 0.810409
O O15 0.250000 0.604116 0.003260
O O16 0.000000 0.500000 0.996747
O O17 0.750000 0.701176 0.268712
O O18 0.014634 0.668433 0.228507
O O19 0.250000 0.601463 0.182715
O O20 0.000000 0.500000 0.192195
#
# Coordination Sequence:
#
# PCOD9362296 Si02
#       7
#     8   8   8   8   8   8   8
#     4   9  17  30  45  62  86 116 148 180 215 253
#     4  10  18  29  43  61  87 115 143 175 215 259
#     4   8  16  29  44  62  87 119 148 175 213 258
#     4   9  17  30  46  64  89 119 149 182 217 254
#     4  10  17  27  43  63  88 116 145 176 212 253
#     4   9  18  31  45  63  89 119 149 180 217 258
#     4  11  20  30  45  65  89 116 147 180 217 261
#
# _framework density 15.320441000000001
#
# number of rings (size 3 to 8) (size 9 to 14) (size 15 to 20)
#    0.000    2.571    0.000    7.286    0.000    2.286 
#    0.000    4.286    0.000    0.000    0.000    1.000 
#    0.000    4.571    0.000    0.000    0.000    0.000 
#
# Total GULP energy -156047.201090 kJ/mol
# GULP energy per Si atom -5573.114325 kJ/mol
# Density = 1.528557 g / cm^3
# Si number density = 15.320441 Si / 1000 Ang^3
#
#
#
# Elastic Constant Matrix: (Units=GPa)
#
#
# Indices 1 2 3 4 5 6 
#
# 1 61.5561 24.4844 45.3949 0.0000 0.0000 0.0000
# 2 24.4844 90.7654 60.9613 0.0000 0.0000 0.0000
# 3 45.3949 60.9613 153.1085 0.0000 0.0000 0.0000
# 4 0.0000 0.0000 0.0000 21.5024 0.0000 0.0000
# 5 0.0000 0.0000 0.0000 0.0000 28.4625 0.0000
# 6 0.0000 0.0000 0.0000 0.0000 0.0000 21.4702
#
#
#
# Elastic Compliance Matrix: (Units=1/GPa)
#
#
# Indices 1 2 3 4 5 6 
#
# 1 0.021062 -0.002030 -0.005436 0.000000 0.000000 0.000000
# 2 -0.002030 0.015235 -0.005464 0.000000 0.000000 0.000000
# 3 -0.005436 -0.005464 0.010319 0.000000 0.000000 0.000000
# 4 0.000000 0.000000 0.000000 0.046506 0.000000 0.000000
# 5 0.000000 0.000000 0.000000 0.000000 0.035134 0.000000
# 6 0.000000 0.000000 0.000000 0.000000 0.000000 0.046576
#
#
# Mechanical properties :
#
#
# Convention : Reuss Voigt Hill
#
# Bulk Modulus (GPa) = 48.18259 63.01236 55.59747
# Shear Modulus (GPa) = 24.08350 25.92631 25.00490
#
# Velocity S-wave (km/s) = 3.96913 4.11818 4.04434
# Velocity P-wave (km/s) = 7.24731 7.98946 7.62741
#
# Compressibility (1/GPa) = 0.02075439
#
# Stress axis : x y z
#
# Youngs Moduli (GPa) = 47.47905 65.63892 96.91259
#
# Poissons Ratio (x) = 0.13327 0.52684
# Poissons Ratio (y) = 0.09640 0.52952
# Poissons Ratio (z) = 0.25811 0.35864
#
# Static dielectric constant tensor:
#      x y z
#    x 1.518250 0.000000 0.000000 
#    y 0.000000 1.500080 0.000000 
#    z 0.000000 0.000000 1.532120 
# 
# From -- ./inp_files/26405.got.cif
#   From: 2010.05.17/outbox.cif.g08.bks.cpg/sg40_14_cif.got.tgz:26405.got - 2010.06.03 18:35:42.
