data_PCOD9362596
_publ_section_title
;
Structure prediction by ZEFSAII (Michael W. Deem and Ramdas Pophale) SiO2 
 PCOD9362596
Probable space group: A M A 2
;
_chemical_formula_sum "Si O2"
_cell_formula_units_Z 56
_cell_length_a 15.672821
_cell_length_b 20.402697
_cell_length_c 8.971903
_cell_angle_alpha 90.000000
_cell_angle_beta 90.000000
_cell_angle_gamma 90.000000
_cell_volume 2868.925846
_symmetry_space_group_name_H-M "A M A 2"
_symmetry_group_IT_number 40
_symmetry_cell_setting 'orthorhombic'
loop_
_space_group_symop_operation_xyz
x,y,z
-x,-y,z
1/2-x,y,z
1/2+x,-y,z
x,1/2+y,1/2+z
-x,1/2-y,1/2+z
1/2-x,1/2+y,1/2+z
1/2+x,1/2-y,1/2+z
loop_
_atom_site_type_symbol
_atom_site_label
_atom_site_fract_x
_atom_site_fract_y
_atom_site_fract_z
Si Si1 0.968769 0.363112 0.550800
Si Si2 0.650515 0.281520 0.354856
Si Si3 0.013063 0.076587 0.371958
Si Si4 0.342717 0.373661 0.862247
Si Si5 0.655696 0.111939 0.018455
Si Si6 0.152624 0.612156 0.111561
Si Si7 0.845629 0.967178 0.906405
O O1 0.908825 0.305579 0.489437
O O2 0.973995 0.378296 0.725936
O O3 0.921746 0.427790 0.485082
O O4 0.065882 0.351775 0.495061
O O5 0.750000 0.298327 0.383648
O O6 0.646504 0.203932 0.336388
O O7 0.626844 0.322705 0.206241
O O8 0.090124 0.091412 0.481560
O O9 0.923677 0.098403 0.446222
O O10 0.000000 0.000000 0.332958
O O11 0.250000 0.385684 0.931316
O O12 0.342981 0.404155 0.695785
O O13 0.750000 0.141964 0.986750
O O14 0.647633 0.044065 0.931008
O O15 0.250000 0.621467 0.059429
O O16 0.151727 0.555218 0.235873
O O17 0.750000 0.948389 0.963960
#
# Coordination Sequence:
#
# PCOD9362596 Si02
#       7
#     8   8   8   8   8   8   8
#     4  10  18  31  52  79 108 139 183 229 266 318
#     4   9  19  37  60  82 103 139 188 231 280 336
#     4  11  23  34  51  83 115 148 186 224 279 335
#     4   9  19  37  58  80 110 144 182 231 281 331
#     4   9  17  29  50  79 107 138 178 223 272 328
#     4   9  20  36  54  78 111 147 181 227 280 330
#     4   9  17  32  54  79 106 141 183 221 267 324
#
# _framework density 19.519501000000002
#
# number of rings (size 3 to 8) (size 9 to 14) (size 15 to 20)
#    0.000    2.571    0.000    3.429    0.000    6.286 
#    0.000    0.000    0.000    5.143    0.000    4.000 
#    0.000    0.000    0.000    0.000    0.000    0.000 
#
# Total GULP energy -155976.873038 kJ/mol
# GULP energy per Si atom -5570.602609 kJ/mol
# Density = 1.947507 g / cm^3
# Si number density = 19.519501 Si / 1000 Ang^3
#
#
#
# Elastic Constant Matrix: (Units=GPa)
#
#
# Indices 1 2 3 4 5 6 
#
# 1 134.8374 11.5184 39.4882 0.0000 0.0000 0.0000
# 2 11.5184 38.6227 7.5054 0.0000 0.0000 0.0000
# 3 39.4882 7.5054 36.7510 0.0000 0.0000 0.0000
# 4 0.0000 0.0000 0.0000 5.1462 0.0000 0.0000
# 5 0.0000 0.0000 0.0000 0.0000 22.2480 0.0000
# 6 0.0000 0.0000 0.0000 0.0000 0.0000 25.9902
#
#
#
# Elastic Compliance Matrix: (Units=1/GPa)
#
#
# Indices 1 2 3 4 5 6 
#
# 1 0.010859 -0.001011 -0.011462 0.000000 0.000000 0.000000
# 2 -0.001011 0.027056 -0.004439 0.000000 0.000000 0.000000
# 3 -0.011462 -0.004439 0.040432 0.000000 0.000000 0.000000
# 4 0.000000 0.000000 0.000000 0.194317 0.000000 0.000000
# 5 0.000000 0.000000 0.000000 0.000000 0.044948 0.000000
# 6 0.000000 0.000000 0.000000 0.000000 0.000000 0.038476
#
#
# Mechanical properties :
#
#
# Convention : Reuss Voigt Hill
#
# Bulk Modulus (GPa) = 22.46004 36.35946 29.40975
# Shear Modulus (GPa) = 12.35321 20.79017 16.57169
#
# Velocity S-wave (km/s) = 2.51841 3.26712 2.91689
# Velocity P-wave (km/s) = 4.47079 5.73584 5.14236
#
# Compressibility (1/GPa) = 0.04452352
#
# Stress axis : x y z
#
# Youngs Moduli (GPa) = 92.08654 36.96082 24.73290
#
# Poissons Ratio (x) = 0.03738 0.28348
# Poissons Ratio (y) = 0.09312 0.10979
# Poissons Ratio (z) = 1.05546 0.16406
#
# Static dielectric constant tensor:
#      x y z
#    x 1.753820 0.000000 0.000000 
#    y 0.000000 1.690970 0.000000 
#    z 0.000000 0.000000 1.660540 
# 
# From -- ./inp_files/6738.got.cif
#   From: 2010.05.17/outbox.cif.g08.bks.cpg/sg40_4_cif.got.tgz:6738.got - 2010.06.03 18:35:42.
