data_PCOD9362045
_publ_section_title
;
Structure prediction by ZEFSAII (Michael W. Deem and Ramdas Pophale) SiO2 
 PCOD9362045
Probable space group: A B M 2
;
_chemical_formula_sum "Si O2"
_cell_formula_units_Z 40
_cell_length_a 14.197596
_cell_length_b 15.977431
_cell_length_c 8.524000
_cell_angle_alpha 90.000000
_cell_angle_beta 90.000000
_cell_angle_gamma 90.000000
_cell_volume 1933.593626
_symmetry_space_group_name_H-M "A B M 2"
_symmetry_group_IT_number 39
_symmetry_cell_setting 'orthorhombic'
loop_
_space_group_symop_operation_xyz
x,y,z
-x,-y,z
-x,1/2+y,z
x,1/2-y,z
x,1/2+y,1/2+z
-x,1/2-y,1/2+z
-x,y,1/2+z
x,-y,1/2+z
loop_
_atom_site_type_symbol
_atom_site_label
_atom_site_fract_x
_atom_site_fract_y
_atom_site_fract_z
Si Si1 0.419468 0.250000 0.755730
Si Si2 0.274542 0.085303 0.253335
Si Si3 0.373206 0.250000 0.123927
Si Si4 0.301440 0.405396 0.629820
Si Si5 0.058911 0.583838 0.800181
Si Si6 0.897274 0.156058 0.129234
O O1 0.530009 0.250000 0.721537
O O2 0.374014 0.333658 0.680276
O O3 0.397317 0.250000 0.940157
O O4 0.316254 0.166735 0.170005
O O5 0.291056 0.093023 0.440846
O O6 0.161767 0.082044 0.223033
O O7 0.319923 0.998994 0.191212
O O8 0.199588 0.378288 0.700623
O O9 0.000000 0.500000 0.775257
O O10 0.987472 0.654132 0.740041
O O11 0.077156 0.598689 0.982452
O O12 0.877407 0.250000 0.073098
#
# Coordination Sequence:
#
# PCOD9362045 Si02
#       6
#     4   8   4   8   8   8
#     4  12  26  50  77 102 137 174 233 300 362 428
#     4  11  25  43  68 103 141 185 235 287 349 415
#     4  12  28  48  75 106 133 180 233 294 366 426
#     4  11  23  44  69  99 141 181 231 292 349 414
#     4  11  23  39  61  93 137 182 231 277 332 405
#     4  11  23  38  60  95 133 183 229 279 336 399
#
# _framework density 20.686869000000002
#
# number of rings (size 3 to 8) (size 9 to 14) (size 15 to 20)
#    0.000    0.800    3.000    4.200    8.400    2.400 
#    0.000    4.000    0.000    0.000    0.000    0.000 
#    0.000    0.000    0.000    0.000    0.000    0.000 
#
# Total GULP energy -111824.795930 kJ/mol
# GULP energy per Si atom -5591.239796 kJ/mol
# Density = 2.063978 g / cm^3
# Si number density = 20.686869 Si / 1000 Ang^3
#
#
#
# Elastic Constant Matrix: (Units=GPa)
#
#
# Indices 1 2 3 4 5 6 
#
# 1 121.0016 72.5886 21.3728 0.0000 0.0000 0.0000
# 2 72.5886 184.7050 35.3412 0.0000 0.0000 0.0000
# 3 21.3728 35.3412 64.4173 0.0000 0.0000 0.0000
# 4 0.0000 0.0000 0.0000 34.4397 0.0000 0.0000
# 5 0.0000 0.0000 0.0000 0.0000 30.3187 0.0000
# 6 0.0000 0.0000 0.0000 0.0000 0.0000 29.7567
#
#
#
# Elastic Compliance Matrix: (Units=1/GPa)
#
#
# Indices 1 2 3 4 5 6 
#
# 1 0.010929 -0.004023 -0.001419 0.000000 0.000000 0.000000
# 2 -0.004023 0.007530 -0.002796 0.000000 0.000000 0.000000
# 3 -0.001419 -0.002796 0.017529 0.000000 0.000000 0.000000
# 4 0.000000 0.000000 0.000000 0.029036 0.000000 0.000000
# 5 0.000000 0.000000 0.000000 0.000000 0.032983 0.000000
# 6 0.000000 0.000000 0.000000 0.000000 0.000000 0.033606
#
#
# Mechanical properties :
#
#
# Convention : Reuss Voigt Hill
#
# Bulk Modulus (GPa) = 51.25412 69.85879 60.55645
# Shear Modulus (GPa) = 32.34297 34.95777 33.65037
#
# Velocity S-wave (km/s) = 3.95834 4.11524 4.03755
# Velocity P-wave (km/s) = 6.76175 7.51154 7.14648
#
# Compressibility (1/GPa) = 0.01951063
#
# Stress axis : x y z
#
# Youngs Moduli (GPa) = 91.50308 132.79643 57.04954
#
# Poissons Ratio (x) = 0.53430 0.08093
# Poissons Ratio (y) = 0.36816 0.15953
# Poissons Ratio (z) = 0.12980 0.37135
#
# Static dielectric constant tensor:
#      x y z
#    x 1.744520 0.000000 0.000000 
#    y 0.000000 1.768520 0.000000 
#    z 0.000000 0.000000 1.719620 
# 
# From -- ./inp_files/2572.got.cif
#   From: 2010.05.17/outbox.cif.g08.bks.cpg/sg39_2_cif.got.tgz:2572.got - 2010.06.03 18:22:40.
