data_PCOD9362757
_publ_section_title
;
Structure prediction by ZEFSAII (Michael W. Deem and Ramdas Pophale) SiO2 
 PCOD9362757
Probable space group: A M A 2
;
_chemical_formula_sum "Si O2"
_cell_formula_units_Z 48
_cell_length_a 14.704251
_cell_length_b 8.531631
_cell_length_c 18.417811
_cell_angle_alpha 90.000000
_cell_angle_beta 90.000000
_cell_angle_gamma 90.000000
_cell_volume 2310.537296
_symmetry_space_group_name_H-M "A M A 2"
_symmetry_group_IT_number 40
_symmetry_cell_setting 'orthorhombic'
loop_
_space_group_symop_operation_xyz
x,y,z
-x,-y,z
1/2-x,y,z
1/2+x,-y,z
x,1/2+y,1/2+z
-x,1/2-y,1/2+z
1/2-x,1/2+y,1/2+z
1/2+x,1/2-y,1/2+z
loop_
_atom_site_type_symbol
_atom_site_label
_atom_site_fract_x
_atom_site_fract_y
_atom_site_fract_z
Si Si1 0.351786 0.503671 0.345040
Si Si2 0.140500 0.845991 0.298717
Si Si3 0.899987 0.920637 0.004149
Si Si4 0.523617 0.832000 0.529487
Si Si5 0.647139 0.629310 0.630673
Si Si6 0.139078 0.162380 0.382424
O O1 0.250000 0.497012 0.313874
O O2 0.394127 0.668344 0.316175
O O3 0.348536 0.530316 0.432157
O O4 0.388110 0.324263 0.339939
O O5 0.250000 0.836454 0.310205
O O6 0.124879 0.889561 0.214771
O O7 0.111420 0.997523 0.345438
O O8 0.927288 0.741075 0.005366
O O9 0.857085 0.976062 0.079376
O O10 0.000000 0.000000 0.997659
O O11 0.573465 0.738197 0.592639
O O12 0.590527 0.831560 0.460400
O O13 0.500000 0.000000 0.557520
O O14 0.750000 0.693114 0.625811
O O15 0.250000 0.166745 0.388906
#
# Coordination Sequence:
#
# PCOD9362757 Si02
#       6
#     8   8   8   8   8   8
#     4  10  18  34  60  85 110 148 194 242 289 344
#     4   9  20  36  58  88 117 145 194 250 292 341
#     4  10  19  34  57  81 113 150 192 232 285 347
#     4  11  22  37  58  86 121 153 193 243 294 349
#     4  10  20  40  61  80 116 160 193 239 299 348
#     4  10  19  36  63  89 114 152 197 241 293 352
#
# _framework density 20.774388999999999
#
# number of rings (size 3 to 8) (size 9 to 14) (size 15 to 20)
#    0.000    2.000    3.333    2.000    0.000    0.000 
#    3.000   10.833    0.000    0.000    0.000    0.000 
#    0.000    0.000    0.000    0.000    0.000    0.000 
#
# Total GULP energy -133687.010303 kJ/mol
# GULP energy per Si atom -5570.292096 kJ/mol
# Density = 2.072711 g / cm^3
# Si number density = 20.774389 Si / 1000 Ang^3
#
#
#
# Elastic Constant Matrix: (Units=GPa)
#
#
# Indices 1 2 3 4 5 6 
#
# 1 58.6811 13.0347 1.0579 0.0000 0.0000 0.0000
# 2 13.0347 86.7660 17.3004 0.0000 0.0000 0.0000
# 3 1.0579 17.3004 68.5947 0.0000 0.0000 0.0000
# 4 0.0000 0.0000 0.0000 21.6415 0.0000 0.0000
# 5 0.0000 0.0000 0.0000 0.0000 164.1258 0.0000
# 6 0.0000 0.0000 0.0000 0.0000 0.0000 9.9048
#
#
#
# Elastic Compliance Matrix: (Units=1/GPa)
#
#
# Indices 1 2 3 4 5 6 
#
# 1 0.017641 -0.002733 0.000417 0.000000 0.000000 0.000000
# 2 -0.002733 0.012559 -0.003125 0.000000 0.000000 0.000000
# 3 0.000417 -0.003125 0.015360 0.000000 0.000000 0.000000
# 4 0.000000 0.000000 0.000000 0.046207 0.000000 0.000000
# 5 0.000000 0.000000 0.000000 0.000000 0.006093 0.000000
# 6 0.000000 0.000000 0.000000 0.000000 0.000000 0.100961
#
#
# Mechanical properties :
#
#
# Convention : Reuss Voigt Hill
#
# Bulk Modulus (GPa) = 28.83733 30.75865 29.79799
# Shear Modulus (GPa) = 22.59750 51.31101 36.95426
#
# Velocity S-wave (km/s) = 3.30169 4.97522 4.22220
# Velocity P-wave (km/s) = 5.33350 6.91678 6.17609
#
# Compressibility (1/GPa) = 0.03467727
#
# Stress axis : x y z
#
# Youngs Moduli (GPa) = 56.68648 79.62379 65.10332
#
# Poissons Ratio (x) = 0.21764 -0.02717
# Poissons Ratio (y) = 0.15495 0.20347
# Poissons Ratio (z) = -0.02366 0.24885
#
# Static dielectric constant tensor:
#      x y z
#    x 1.618840 0.000000 0.000000 
#    y 0.000000 1.894030 0.000000 
#    z 0.000000 0.000000 1.701670 
# 
# From -- ./inp_files/20564.got.cif
#   From: 2010.05.17/outbox.cif.g08.bks.cpg/sg40_11_cif.got.tgz:20564.got - 2010.06.03 18:35:42.
