data_PCOD9362604
_publ_section_title
;
Structure prediction by ZEFSAII (Michael W. Deem and Ramdas Pophale) SiO2 
 PCOD9362604
Probable space group: A M A 2
;
_chemical_formula_sum "Si O2"
_cell_formula_units_Z 64
_cell_length_a 8.466927
_cell_length_b 20.346912
_cell_length_c 21.273901
_cell_angle_alpha 90.000000
_cell_angle_beta 90.000000
_cell_angle_gamma 90.000000
_cell_volume 3664.978709
_symmetry_space_group_name_H-M "A M A 2"
_symmetry_group_IT_number 40
_symmetry_cell_setting 'orthorhombic'
loop_
_space_group_symop_operation_xyz
x,y,z
-x,-y,z
1/2-x,y,z
1/2+x,-y,z
x,1/2+y,1/2+z
-x,1/2-y,1/2+z
1/2-x,1/2+y,1/2+z
1/2+x,1/2-y,1/2+z
loop_
_atom_site_type_symbol
_atom_site_label
_atom_site_fract_x
_atom_site_fract_y
_atom_site_fract_z
Si Si1 0.557512 0.708615 0.628720
Si Si2 0.442827 0.210001 0.752279
Si Si3 0.438992 0.293857 0.872219
Si Si4 0.558691 0.290079 0.007333
Si Si5 0.437808 0.570493 0.822105
Si Si6 0.440158 0.070399 0.559876
Si Si7 0.940269 0.929615 0.706463
Si Si8 0.939466 0.070372 0.179142
O O1 0.750000 0.709799 0.628510
O O2 0.507995 0.750091 0.689995
O O3 0.506321 0.743630 0.564738
O O4 0.508635 0.633280 0.638864
O O5 0.250000 0.210278 0.752535
O O6 0.495001 0.247533 0.814911
O O7 0.493857 0.134514 0.744462
O O8 0.250000 0.296339 0.869825
O O9 0.494672 0.269554 0.939925
O O10 0.503782 0.367142 0.860928
O O11 0.750000 0.289646 0.005910
O O12 0.507388 0.364928 0.022802
O O13 0.500000 0.500000 0.845412
O O14 0.250000 0.568786 0.821227
O O15 0.500186 0.578657 0.750632
O O16 0.250000 0.069493 0.558903
O O17 0.489951 0.077374 0.633161
O O18 0.500000 0.000000 0.536332
O O19 0.750000 0.930238 0.706786
O O20 0.000000 0.000000 0.729599
O O21 0.750000 0.069318 0.181474
O O22 0.000000 0.000000 0.155935
#
# Coordination Sequence:
#
# PCOD9362604 Si02
#       8
#     8   8   8   8   8   8   8   8
#     4   9  16  31  56  77  97 135 179 214 253 310
#     4   9  16  31  55  76  97 134 177 210 252 311
#     4  11  22  36  53  75 105 139 176 218 265 314
#     4  10  20  35  53  74 101 137 179 214 253 306
#     4  11  21  34  52  76 106 141 177 214 258 311
#     4   9  17  29  48  71  99 131 163 200 240 292
#     4   9  16  29  51  77 101 128 165 207 252 299
#     4  10  18  31  53  80 107 135 171 216 267 316
#
# _framework density 17.462585000000001
#
# number of rings (size 3 to 8) (size 9 to 14) (size 15 to 20)
#    0.000    2.250    2.500    2.625    0.000    1.000 
#    0.000    3.750    0.000    0.750    0.000    5.250 
#    0.000    0.000    0.000    0.000    0.000    0.000 
#
# Total GULP energy -178531.834180 kJ/mol
# GULP energy per Si atom -5579.119818 kJ/mol
# Density = 1.742284 g / cm^3
# Si number density = 17.462585 Si / 1000 Ang^3
#
#
#
# Elastic Constant Matrix: (Units=GPa)
#
#
# Indices 1 2 3 4 5 6 
#
# 1 30.8319 21.3203 18.9611 0.0000 0.0000 0.0000
# 2 21.3203 139.0068 73.7764 0.0000 0.0000 0.0000
# 3 18.9611 73.7764 114.6067 0.0000 0.0000 0.0000
# 4 0.0000 0.0000 0.0000 23.6970 0.0000 0.0000
# 5 0.0000 0.0000 0.0000 0.0000 25.4766 0.0000
# 6 0.0000 0.0000 0.0000 0.0000 0.0000 -7.6031
#
#
#
# Elastic Compliance Matrix: (Units=1/GPa)
#
#
# Indices 1 2 3 4 5 6 
#
# 1 0.037331 -0.003718 -0.003783 0.000000 0.000000 0.000000
# 2 -0.003718 0.011298 -0.006658 0.000000 0.000000 0.000000
# 3 -0.003783 -0.006658 0.013637 0.000000 0.000000 0.000000
# 4 0.000000 0.000000 0.000000 0.042200 0.000000 0.000000
# 5 0.000000 0.000000 0.000000 0.000000 0.039252 0.000000
# 6 0.000000 0.000000 0.000000 0.000000 0.000000 -0.131525
#
#
# Mechanical properties :
#
#
# Convention : Reuss Voigt Hill
#
# Bulk Modulus (GPa) = 29.45584 56.95123 43.20354
# Shear Modulus (GPa) = 96.47779 19.67327 58.07553
#
# Velocity S-wave (km/s) = 7.44098 3.36012 5.77316
# Velocity P-wave (km/s) = 9.52517 6.90927 8.32066
#
# Compressibility (1/GPa) = 0.03394912
#
# Stress axis : x y z
#
# Youngs Moduli (GPa) = 26.78717 88.51481 73.32982
#
# Poissons Ratio (x) = 0.32910 0.27740
# Poissons Ratio (y) = 0.09960 0.48819
# Poissons Ratio (z) = 0.10133 0.58929
#
# Static dielectric constant tensor:
#      x y z
#    x 1.603120 0.000000 0.000000 
#    y 0.000000 1.604940 0.000000 
#    z 0.000000 0.000000 1.583760 
# 
# From -- ./inp_files/22535.got.cif
#   From: 2010.05.17/outbox.cif.g08.bks.cpg/sg40_12_cif.got.tgz:22535.got - 2010.06.03 18:35:42.
