data_PCOD9362566
_publ_section_title
;
Structure prediction by ZEFSAII (Michael W. Deem and Ramdas Pophale) SiO2 
 PCOD9362566
Probable space group: A M A 2
;
_chemical_formula_sum "Si O2"
_cell_formula_units_Z 64
_cell_length_a 14.200611
_cell_length_b 14.358994
_cell_length_c 14.014421
_cell_angle_alpha 90.000000
_cell_angle_beta 90.000000
_cell_angle_gamma 90.000000
_cell_volume 2857.631370
_symmetry_space_group_name_H-M "A M A 2"
_symmetry_group_IT_number 40
_symmetry_cell_setting 'orthorhombic'
loop_
_space_group_symop_operation_xyz
x,y,z
-x,-y,z
1/2-x,y,z
1/2+x,-y,z
x,1/2+y,1/2+z
-x,1/2-y,1/2+z
1/2-x,1/2+y,1/2+z
1/2+x,1/2-y,1/2+z
loop_
_atom_site_type_symbol
_atom_site_label
_atom_site_fract_x
_atom_site_fract_y
_atom_site_fract_z
Si Si1 0.639085 0.759649 0.399500
Si Si2 0.968893 0.399015 0.200018
Si Si3 0.363921 0.877931 0.054102
Si Si4 0.592296 0.437889 0.007264
Si Si5 0.360749 0.769642 0.247346
Si Si6 0.109323 0.970364 0.328843
Si Si7 0.856780 0.432107 0.630335
Si Si8 0.361704 0.269557 0.173012
O O1 0.750000 0.778285 0.422871
O O2 0.610543 0.665748 0.453456
O O3 0.581705 0.842526 0.448238
O O4 0.633347 0.750529 0.286745
O O5 0.923853 0.320558 0.268033
O O6 0.000000 0.500000 0.238510
O O7 0.063475 0.351277 0.155539
O O8 0.889037 0.412704 0.116972
O O9 0.250000 0.885348 0.057730
O O10 0.385922 0.807869 0.141051
O O11 0.400242 0.981050 0.074953
O O12 0.500000 0.500000 0.020777
O O13 0.649371 0.498873 0.930894
O O14 0.250000 0.748066 0.251187
O O15 0.378619 0.861230 0.310931
O O16 0.148024 0.029082 0.239247
O O17 0.000000 0.000000 0.327472
O O18 0.750000 0.419994 0.596489
O O19 0.895855 0.328010 0.626817
O O20 0.250000 0.288085 0.151301
#
# Coordination Sequence:
#
# PCOD9362566 Si02
#       8
#     8   8   8   8   8   8   8   8
#     4  10  18  33  59  87 117 159 212 267 319 382
#     4  11  24  41  60  85 123 176 218 264 326 404
#     4   8  15  28  50  83 120 150 192 254 320 381
#     4  10  21  34  53  85 123 163 204 267 319 377
#     4  10  20  34  56  89 126 167 208 266 340 402
#     4  10  18  30  53  84 121 160 199 265 322 379
#     4   9  16  29  52  85 119 151 193 252 319 377
#     4  10  21  37  63  89 118 168 220 265 319 392
#
# _framework density 22.396170999999999
#
# number of rings (size 3 to 8) (size 9 to 14) (size 15 to 20)
#    0.000    2.250    2.500    1.875    1.750    1.000 
#    0.000    1.875    2.750    1.500    0.000    0.000 
#    0.000    0.000    0.000    0.000    0.000    0.000 
#
# Total GULP energy -178354.967212 kJ/mol
# GULP energy per Si atom -5573.592725 kJ/mol
# Density = 2.234520 g / cm^3
# Si number density = 22.396171 Si / 1000 Ang^3
#
#
#
# Elastic Constant Matrix: (Units=GPa)
#
#
# Indices 1 2 3 4 5 6 
#
# 1 109.5224 47.7285 -4.4396 0.0000 0.0000 0.0000
# 2 47.7285 182.0693 14.8156 0.0000 0.0000 0.0000
# 3 -4.4396 14.8156 30.1167 0.0000 0.0000 0.0000
# 4 0.0000 0.0000 0.0000 31.8278 0.0000 0.0000
# 5 0.0000 0.0000 0.0000 0.0000 12.6796 0.0000
# 6 0.0000 0.0000 0.0000 0.0000 0.0000 15.7238
#
#
#
# Elastic Compliance Matrix: (Units=1/GPa)
#
#
# Indices 1 2 3 4 5 6 
#
# 1 0.010569 -0.003018 0.003043 0.000000 0.000000 0.000000
# 2 -0.003018 0.006583 -0.003684 0.000000 0.000000 0.000000
# 3 0.003043 -0.003684 0.035465 0.000000 0.000000 0.000000
# 4 0.000000 0.000000 0.000000 0.031419 0.000000 0.000000
# 5 0.000000 0.000000 0.000000 0.000000 0.078867 0.000000
# 6 0.000000 0.000000 0.000000 0.000000 0.000000 0.063598
#
#
# Mechanical properties :
#
#
# Convention : Reuss Voigt Hill
#
# Bulk Modulus (GPa) = 22.07533 48.65750 35.36641
# Shear Modulus (GPa) = 20.08690 29.61985 24.85337
#
# Velocity S-wave (km/s) = 2.99806 3.64062 3.33485
# Velocity P-wave (km/s) = 4.67575 6.28054 5.53659
#
# Compressibility (1/GPa) = 0.04529944
#
# Stress axis : x y z
#
# Youngs Moduli (GPa) = 94.61435 151.89757 28.19696
#
# Poissons Ratio (x) = 0.45847 -0.08580
# Poissons Ratio (y) = 0.28557 0.10387
# Poissons Ratio (z) = -0.28790 0.55952
#
# Static dielectric constant tensor:
#      x y z
#    x 1.844420 0.000000 0.000000 
#    y 0.000000 1.859830 0.000000 
#    z 0.000000 0.000000 1.902930 
# 
# From -- ./inp_files/20768.got.cif
#   From: 2010.05.17/outbox.cif.g08.bks.cpg/sg40_11_cif.got.tgz:20768.got - 2010.06.03 18:35:42.
