data_PCOD9362610
_publ_section_title
;
Structure prediction by ZEFSAII (Michael W. Deem and Ramdas Pophale) SiO2 
 PCOD9362610
Probable space group: A M A 2
;
_chemical_formula_sum "Si O2"
_cell_formula_units_Z 64
_cell_length_a 15.424433
_cell_length_b 11.713124
_cell_length_c 16.874668
_cell_angle_alpha 90.000000
_cell_angle_beta 90.000000
_cell_angle_gamma 90.000000
_cell_volume 3048.717519
_symmetry_space_group_name_H-M "A M A 2"
_symmetry_group_IT_number 40
_symmetry_cell_setting 'orthorhombic'
loop_
_space_group_symop_operation_xyz
x,y,z
-x,-y,z
1/2-x,y,z
1/2+x,-y,z
x,1/2+y,1/2+z
-x,1/2-y,1/2+z
1/2-x,1/2+y,1/2+z
1/2+x,1/2-y,1/2+z
loop_
_atom_site_type_symbol
_atom_site_label
_atom_site_fract_x
_atom_site_fract_y
_atom_site_fract_z
Si Si1 0.977657 0.617527 0.511020
Si Si2 0.905716 0.219377 0.756712
Si Si3 0.593115 0.886319 0.734406
Si Si4 0.652894 0.420139 0.676856
Si Si5 0.150807 0.225710 0.013915
Si Si6 0.847246 0.682939 0.636913
Si Si7 0.653281 0.056674 0.874417
Si Si8 0.347955 0.435750 0.117040
O O1 0.922673 0.696624 0.570901
O O2 0.915006 0.566249 0.444208
O O3 0.000000 0.500000 0.557171
O O4 0.061790 0.680964 0.474585
O O5 0.911784 0.350862 0.733419
O O6 0.854947 0.180893 0.833841
O O7 0.852982 0.159712 0.685651
O O8 0.998120 0.156510 0.757658
O O9 0.644080 0.774098 0.707172
O O10 0.631146 0.963241 0.805930
O O11 0.594951 0.963582 0.654146
O O12 0.750000 0.399495 0.709057
O O13 0.651249 0.358763 0.590670
O O14 0.642576 0.554642 0.669126
O O15 0.250000 0.219665 0.980793
O O16 0.134422 0.357067 0.040818
O O17 0.750000 0.691287 0.601930
O O18 0.750000 0.034683 0.903691
O O19 0.250000 0.480712 0.111142
#
# Coordination Sequence:
#
# PCOD9362610 Si02
#       8
#     8   8   8   8   8   8   8   8
#     4  12  23  36  56  85 125 158 199 246 310 372
#     4  10  18  31  54  82 112 153 200 252 299 362
#     4  11  21  34  57  88 126 158 204 257 313 364
#     4   9  17  32  54  84 115 152 198 252 313 363
#     4   9  18  33  55  83 117 153 197 249 302 360
#     4  11  22  35  56  90 125 160 200 256 311 363
#     4  11  23  40  58  84 121 164 204 248 306 376
#     4   9  16  30  52  80 113 149 190 243 301 356
#
# _framework density 20.992433999999999
#
# number of rings (size 3 to 8) (size 9 to 14) (size 15 to 20)
#    0.000    1.750    1.250    7.875    0.000    0.500 
#    0.000    0.000    0.000    0.000   13.000    0.000 
#    0.000    0.000    0.000    0.000    0.000    0.000 
#
# Total GULP energy -178290.031887 kJ/mol
# GULP energy per Si atom -5571.563496 kJ/mol
# Density = 2.094465 g / cm^3
# Si number density = 20.992434 Si / 1000 Ang^3
#
#
#
# Elastic Constant Matrix: (Units=GPa)
#
#
# Indices 1 2 3 4 5 6 
#
# 1 142.5267 27.2923 25.0858 0.0000 0.0000 0.0000
# 2 27.2923 83.6396 14.2249 0.0000 0.0000 0.0000
# 3 25.0858 14.2249 35.5211 0.0000 0.0000 0.0000
# 4 0.0000 0.0000 0.0000 26.7221 0.0000 0.0000
# 5 0.0000 0.0000 0.0000 0.0000 27.7985 0.0000
# 6 0.0000 0.0000 0.0000 0.0000 0.0000 27.2080
#
#
#
# Elastic Compliance Matrix: (Units=1/GPa)
#
#
# Indices 1 2 3 4 5 6 
#
# 1 0.008265 -0.001829 -0.005104 0.000000 0.000000 0.000000
# 2 -0.001829 0.013235 -0.004008 0.000000 0.000000 0.000000
# 3 -0.005104 -0.004008 0.033362 0.000000 0.000000 0.000000
# 4 0.000000 0.000000 0.000000 0.037422 0.000000 0.000000
# 5 0.000000 0.000000 0.000000 0.000000 0.035973 0.000000
# 6 0.000000 0.000000 0.000000 0.000000 0.000000 0.036754
#
#
# Mechanical properties :
#
#
# Convention : Reuss Voigt Hill
#
# Bulk Modulus (GPa) = 30.32283 43.87704 37.09993
# Shear Modulus (GPa) = 25.26693 29.35135 27.30914
#
# Velocity S-wave (km/s) = 3.47309 3.74329 3.61072
# Velocity P-wave (km/s) = 5.52803 6.29521 5.92405
#
# Compressibility (1/GPa) = 0.03297846
#
# Stress axis : x y z
#
# Youngs Moduli (GPa) = 120.99442 75.55994 29.97387
#
# Poissons Ratio (x) = 0.13818 0.15300
# Poissons Ratio (y) = 0.22127 0.12015
# Poissons Ratio (z) = 0.61761 0.30288
#
# Static dielectric constant tensor:
#      x y z
#    x 1.882120 0.000000 0.000000 
#    y 0.000000 1.802620 0.000000 
#    z 0.000000 0.000000 1.772900 
# 
# From -- ./inp_files/20766.got.cif
#   From: 2010.05.17/outbox.cif.g08.bks.cpg/sg40_11_cif.got.tgz:20766.got - 2010.06.03 18:35:42.
