data_PCOD9362031
_publ_section_title
;
Structure prediction by ZEFSAII (Michael W. Deem and Ramdas Pophale) SiO2 
 PCOD9362031
Probable space group: A B M 2
;
_chemical_formula_sum "Si O2"
_cell_formula_units_Z 40
_cell_length_a 8.428161
_cell_length_b 9.979173
_cell_length_c 23.227854
_cell_angle_alpha 90.000000
_cell_angle_beta 90.000000
_cell_angle_gamma 90.000000
_cell_volume 1953.603670
_symmetry_space_group_name_H-M "A B M 2"
_symmetry_group_IT_number 39
_symmetry_cell_setting 'orthorhombic'
loop_
_space_group_symop_operation_xyz
x,y,z
-x,-y,z
-x,1/2+y,z
x,1/2-y,z
x,1/2+y,1/2+z
-x,1/2-y,1/2+z
-x,y,1/2+z
x,-y,1/2+z
loop_
_atom_site_type_symbol
_atom_site_label
_atom_site_fract_x
_atom_site_fract_y
_atom_site_fract_z
Si Si1 0.175134 0.250000 0.622200
Si Si2 0.706023 0.250000 0.991418
Si Si3 0.409227 0.250000 0.786785
Si Si4 0.373497 0.750000 0.422307
Si Si5 0.127600 0.250000 0.201725
Si Si6 0.815199 0.025358 0.908426
Si Si7 0.758026 0.750000 0.314437
Si Si8 0.682164 0.027136 0.200744
O O1 0.236343 0.250000 0.557005
O O2 0.249801 0.379033 0.651859
O O3 0.997085 0.250000 0.649107
O O4 0.521028 0.250000 0.967746
O O5 0.783961 0.120868 0.962267
O O6 0.420785 0.250000 0.855158
O O7 0.598664 0.250000 0.775026
O O8 0.325696 0.380646 0.758944
O O9 0.272696 0.613049 0.423720
O O10 0.089813 0.250000 0.271275
O O11 0.218102 0.391787 0.198961
O O12 0.757206 0.117247 0.854400
O O13 0.000000 0.000000 0.899041
O O14 0.500000 0.000000 0.188126
#
# Coordination Sequence:
#
# PCOD9362031 Si02
#       8
#     4   4   4   4   4   8   4   8
#     4  11  28  47  65  99 138 189 248 297 353 423
#     4  11  26  48  69  94 136 193 257 292 349 421
#     4  11  22  40  70 106 147 180 229 287 341 440
#     4  12  23  41  76 106 137 193 233 294 353 425
#     4  12  23  42  70 101 141 187 227 288 357 414
#     4  11  25  43  67 107 145 183 233 296 363 426
#     4  11  22  42  68 106 153 184 228 280 363 439
#     4  11  23  43  67 100 138 184 233 288 346 427
#
# _framework density 20.474981
#
# number of rings (size 3 to 8) (size 9 to 14) (size 15 to 20)
#    0.000    0.800    4.000    4.200    0.000    8.000 
#    0.000    3.000    0.000    0.000    0.000    0.000 
#    0.000    0.000    0.000    0.000    0.000    0.000 
#
# Total GULP energy -111446.832605 kJ/mol
# GULP energy per Si atom -5572.341630 kJ/mol
# Density = 2.042838 g / cm^3
# Si number density = 20.474981 Si / 1000 Ang^3
#
#
#
# Elastic Constant Matrix: (Units=GPa)
#
#
# Indices 1 2 3 4 5 6 
#
# 1 57.5445 60.1261 61.3575 0.0000 0.0000 0.0000
# 2 60.1261 193.0100 75.4054 0.0000 0.0000 0.0000
# 3 61.3575 75.4054 152.2441 0.0000 0.0000 0.0000
# 4 0.0000 0.0000 0.0000 -211.0267 0.0000 0.0000
# 5 0.0000 0.0000 0.0000 0.0000 27.9883 0.0000
# 6 0.0000 0.0000 0.0000 0.0000 0.0000 62.7167
#
#
#
# Elastic Compliance Matrix: (Units=1/GPa)
#
#
# Indices 1 2 3 4 5 6 
#
# 1 0.036852 -0.007040 -0.011365 0.000000 0.000000 0.000000
# 2 -0.007040 0.007769 -0.001011 0.000000 0.000000 0.000000
# 3 -0.011365 -0.001011 0.011649 0.000000 0.000000 0.000000
# 4 0.000000 0.000000 0.000000 -0.004739 0.000000 0.000000
# 5 0.000000 0.000000 0.000000 0.000000 0.035729 0.000000
# 6 0.000000 0.000000 0.000000 0.000000 0.000000 0.015945
#
#
# Mechanical properties :
#
#
# Convention : Reuss Voigt Hill
#
# Bulk Modulus (GPa) = 57.34391 88.50851 72.92621
# Shear Modulus (GPa) = 33.81801 -10.33702 11.74049
#
# Velocity S-wave (km/s) = 4.06849 -2.24935 2.39719
# Velocity P-wave (km/s) = 7.08080 6.04776 6.58457
#
# Compressibility (1/GPa) = 0.01743864
#
# Stress axis : x y z
#
# Youngs Moduli (GPa) = 27.13560 128.71705 85.84078
#
# Poissons Ratio (x) = 0.90614 0.97561
# Poissons Ratio (y) = 0.19103 0.08676
# Poissons Ratio (z) = 0.30841 0.13010
#
# Static dielectric constant tensor:
#      x y z
#    x 1.774100 0.000000 0.000000 
#    y 0.000000 1.906200 0.000000 
#    z 0.000000 0.000000 1.761390 
# 
# From -- ./inp_files/13911.got.cif
#   From: 2010.05.17/outbox.cif.g08.bks.cpg/sg39_7_cif.got.tgz:13911.got - 2010.06.03 18:22:40.
