data_PCOD9362443
_publ_section_title
;
Structure prediction by ZEFSAII (Michael W. Deem and Ramdas Pophale) SiO2 
 PCOD9362443
Probable space group: A M A 2
;
_chemical_formula_sum "Si O2"
_cell_formula_units_Z 48
_cell_length_a 22.366930
_cell_length_b 23.439136
_cell_length_c 5.126455
_cell_angle_alpha 90.000000
_cell_angle_beta 90.000000
_cell_angle_gamma 90.000000
_cell_volume 2687.603061
_symmetry_space_group_name_H-M "A M A 2"
_symmetry_group_IT_number 40
_symmetry_cell_setting 'orthorhombic'
loop_
_space_group_symop_operation_xyz
x,y,z
-x,-y,z
1/2-x,y,z
1/2+x,-y,z
x,1/2+y,1/2+z
-x,1/2-y,1/2+z
1/2-x,1/2+y,1/2+z
1/2+x,1/2-y,1/2+z
loop_
_atom_site_type_symbol
_atom_site_label
_atom_site_fract_x
_atom_site_fract_y
_atom_site_fract_z
Si Si1 0.495307 0.616036 0.849630
Si Si2 0.902810 0.975497 0.186329
Si Si3 0.320061 0.130358 0.078707
Si Si4 0.467494 0.274280 0.559465
Si Si5 0.879395 0.318096 0.068158
Si Si6 0.562557 0.534170 0.188169
O O1 0.463588 0.563229 0.699718
O O2 0.523804 0.661039 0.650645
O O3 0.439225 0.646040 0.993343
O O4 0.543028 0.593812 0.060266
O O5 0.850604 0.931411 0.117533
O O6 0.897124 0.002218 0.472287
O O7 0.909335 0.024707 0.970517
O O8 0.250000 0.125984 0.027771
O O9 0.333461 0.166282 0.340099
O O10 0.354148 0.161108 0.841937
O O11 0.494295 0.261160 0.275787
O O12 0.401691 0.247069 0.571321
O O13 0.500000 0.500000 0.193646
#
# Coordination Sequence:
#
# PCOD9362443 Si02
#       6
#     8   8   8   8   8   8
#     4   9  19  31  50  74 106 137 156 190 251 308
#     4  10  19  30  44  69  99 124 161 199 231 287
#     4  11  21  35  52  70  94 130 169 214 257 283
#     4  10  19  31  49  74 105 137 161 194 246 308
#     4  10  20  33  49  75 103 126 164 206 242 302
#     4  10  18  28  44  68  99 130 155 187 234 292
#
# _framework density 17.859779
#
# number of rings (size 3 to 8) (size 9 to 14) (size 15 to 20)
#    0.000    2.000    0.000    8.000    0.000    6.667 
#    0.000    0.000    0.000    0.000    0.000    7.000 
#    0.000    0.000    0.000    0.000    0.000    0.000 
#
# Total GULP energy -133932.335099 kJ/mol
# GULP energy per Si atom -5580.513962 kJ/mol
# Density = 1.781913 g / cm^3
# Si number density = 17.859779 Si / 1000 Ang^3
#
#
#
# Elastic Constant Matrix: (Units=GPa)
#
#
# Indices 1 2 3 4 5 6 
#
# 1 54.1719 12.6146 -0.0101 0.0000 0.0000 0.0000
# 2 12.6146 49.8489 -0.3416 0.0000 0.0000 0.0000
# 3 -0.0101 -0.3416 65.3160 0.0000 0.0000 0.0000
# 4 0.0000 0.0000 0.0000 31.4927 0.0000 0.0000
# 5 0.0000 0.0000 0.0000 0.0000 15.7624 0.0000
# 6 0.0000 0.0000 0.0000 0.0000 0.0000 8.8779
#
#
#
# Elastic Compliance Matrix: (Units=1/GPa)
#
#
# Indices 1 2 3 4 5 6 
#
# 1 0.019616 -0.004964 -0.000023 0.000000 0.000000 0.000000
# 2 -0.004964 0.021318 0.000111 0.000000 0.000000 0.000000
# 3 -0.000023 0.000111 0.015311 0.000000 0.000000 0.000000
# 4 0.000000 0.000000 0.000000 0.031753 0.000000 0.000000
# 5 0.000000 0.000000 0.000000 0.000000 0.063442 0.000000
# 6 0.000000 0.000000 0.000000 0.000000 0.000000 0.112640
#
#
# Mechanical properties :
#
#
# Convention : Reuss Voigt Hill
#
# Bulk Modulus (GPa) = 21.50930 21.54030 21.52480
# Shear Modulus (GPa) = 17.28136 21.69818 19.48977
#
# Velocity S-wave (km/s) = 3.11402 3.48935 3.30702
# Velocity P-wave (km/s) = 4.99991 5.32175 5.16334
#
# Compressibility (1/GPa) = 0.04649151
#
# Stress axis : x y z
#
# Youngs Moduli (GPa) = 50.97962 46.90965 65.31355
#
# Poissons Ratio (x) = 0.23286 0.00150
# Poissons Ratio (y) = 0.25307 -0.00723
# Poissons Ratio (z) = 0.00117 -0.00519
#
# Static dielectric constant tensor:
#      x y z
#    x 1.584700 0.000000 0.000000 
#    y 0.000000 1.684780 0.000000 
#    z 0.000000 0.000000 1.643980 
# 
# From -- ./inp_files/2378.got.cif
#   From: 2010.05.17/outbox.cif.g08.bks.cpg/sg40_2_cif.got.tgz:2378.got - 2010.06.03 18:35:42.
