data_PCOD9362758
_publ_section_title
;
Structure prediction by ZEFSAII (Michael W. Deem and Ramdas Pophale) SiO2 
 PCOD9362758
Probable space group: A M A 2
;
_chemical_formula_sum "Si O2"
_cell_formula_units_Z 64
_cell_length_a 12.454092
_cell_length_b 32.301452
_cell_length_c 8.473794
_cell_angle_alpha 90.000000
_cell_angle_beta 90.000000
_cell_angle_gamma 90.000000
_cell_volume 3408.882380
_symmetry_space_group_name_H-M "A M A 2"
_symmetry_group_IT_number 40
_symmetry_cell_setting 'orthorhombic'
loop_
_space_group_symop_operation_xyz
x,y,z
-x,-y,z
1/2-x,y,z
1/2+x,-y,z
x,1/2+y,1/2+z
-x,1/2-y,1/2+z
1/2-x,1/2+y,1/2+z
1/2+x,1/2-y,1/2+z
loop_
_atom_site_type_symbol
_atom_site_label
_atom_site_fract_x
_atom_site_fract_y
_atom_site_fract_z
Si Si1 0.630565 0.265528 0.786250
Si Si2 0.627066 0.427184 0.223789
Si Si3 0.468223 0.791890 0.531865
Si Si4 0.373188 0.171143 0.778843
Si Si5 0.627778 0.936691 0.071046
Si Si6 0.511364 0.951302 0.400656
Si Si7 0.061908 0.155290 0.110784
Si Si8 0.377627 0.869635 0.338720
O O1 0.750000 0.258559 0.854144
O O2 0.611097 0.234619 0.640427
O O3 0.621706 0.312613 0.723290
O O4 0.526723 0.264202 0.899237
O O5 0.750000 0.441655 0.218657
O O6 0.627375 0.377564 0.238519
O O7 0.581896 0.443914 0.393207
O O8 0.574727 0.437069 0.056949
O O9 0.568159 0.805919 0.638822
O O10 0.412621 0.833263 0.461378
O O11 0.250000 0.184557 0.803919
O O12 0.440722 0.174994 0.938711
O O13 0.750000 0.952148 0.074683
O O14 0.566860 0.950903 0.227498
O O15 0.627178 0.887013 0.091292
O O16 0.417934 0.915999 0.386335
O O17 0.500000 0.000000 0.431058
O O18 0.947172 0.143069 0.184265
O O19 0.250000 0.869141 0.316508
#
# Coordination Sequence:
#
# PCOD9362758 Si02
#       8
#     8   8   8   8   8   8   8   8
#     4  11  22  36  55  83 114 151 197 245 296 352
#     4   9  18  34  58  87 114 143 186 240 303 364
#     4  11  22  38  57  84 119 156 198 248 295 361
#     4  10  18  34  60  86 112 143 185 244 307 358
#     4   9  18  34  58  86 115 146 183 240 309 363
#     4  11  22  36  59  87 119 157 201 258 301 362
#     4   9  19  35  58  84 111 145 190 246 293 349
#     4  10  22  41  58  79 119 169 206 241 295 363
#
# _framework density 18.774480000000001
#
# number of rings (size 3 to 8) (size 9 to 14) (size 15 to 20)
#    0.000    2.000    1.250    3.750    0.000    1.500 
#    0.000    9.375    0.000    0.000    0.000    0.000 
#    0.000    0.000    0.000    0.000    0.000    0.000 
#
# Total GULP energy -178134.925132 kJ/mol
# GULP energy per Si atom -5566.716410 kJ/mol
# Density = 1.873175 g / cm^3
# Si number density = 18.774480 Si / 1000 Ang^3
#
#
#
# Elastic Constant Matrix: (Units=GPa)
#
#
# Indices 1 2 3 4 5 6 
#
# 1 104.2264 34.0428 40.8040 0.0000 0.0000 0.0000
# 2 34.0428 62.9019 6.1009 0.0000 0.0000 0.0000
# 3 40.8040 6.1009 85.6237 0.0000 0.0000 0.0000
# 4 0.0000 0.0000 0.0000 14.2383 0.0000 0.0000
# 5 0.0000 0.0000 0.0000 0.0000 13.8110 0.0000
# 6 0.0000 0.0000 0.0000 0.0000 0.0000 6.1221
#
#
#
# Elastic Compliance Matrix: (Units=1/GPa)
#
#
# Indices 1 2 3 4 5 6 
#
# 1 0.014438 -0.007196 -0.006368 0.000000 0.000000 0.000000
# 2 -0.007196 0.019595 0.002033 0.000000 0.000000 0.000000
# 3 -0.006368 0.002033 0.014569 0.000000 0.000000 0.000000
# 4 0.000000 0.000000 0.000000 0.070233 0.000000 0.000000
# 5 0.000000 0.000000 0.000000 0.000000 0.072406 0.000000
# 6 0.000000 0.000000 0.000000 0.000000 0.000000 0.163343
#
#
# Mechanical properties :
#
#
# Convention : Reuss Voigt Hill
#
# Bulk Modulus (GPa) = 39.15381 46.07195 42.61288
# Shear Modulus (GPa) = 12.94804 18.28791 15.61798
#
# Velocity S-wave (km/s) = 2.62899 3.12442 2.88735
# Velocity P-wave (km/s) = 5.48776 6.13261 5.81913
#
# Compressibility (1/GPa) = 0.02554030
#
# Stress axis : x y z
#
# Youngs Moduli (GPa) = 69.26253 51.03291 68.64071
#
# Poissons Ratio (x) = 0.36724 0.43708
# Poissons Ratio (y) = 0.49843 -0.13956
# Poissons Ratio (z) = 0.44104 -0.10376
#
# Static dielectric constant tensor:
#      x y z
#    x 1.656020 0.000000 0.000000 
#    y 0.000000 1.680400 0.000000 
#    z 0.000000 0.000000 1.719000 
# 
# From -- ./inp_files/5707.got.cif
#   From: 2010.05.17/outbox.cif.g08.bks.cpg/sg40_3_cif.got.tgz:5707.got - 2010.06.03 18:35:42.
