data_PCOD9362004
_publ_section_title
;
Structure prediction by ZEFSAII (Michael W. Deem and Ramdas Pophale) SiO2 
 PCOD9362004
Probable space group: A B M 2
;
_chemical_formula_sum "Si O2"
_cell_formula_units_Z 40
_cell_length_a 8.401661
_cell_length_b 10.314374
_cell_length_c 23.600337
_cell_angle_alpha 90.000000
_cell_angle_beta 90.000000
_cell_angle_gamma 90.000000
_cell_volume 2045.155025
_symmetry_space_group_name_H-M "A B M 2"
_symmetry_group_IT_number 39
_symmetry_cell_setting 'orthorhombic'
loop_
_space_group_symop_operation_xyz
x,y,z
-x,-y,z
-x,1/2+y,z
x,1/2-y,z
x,1/2+y,1/2+z
-x,1/2-y,1/2+z
-x,y,1/2+z
x,-y,1/2+z
loop_
_atom_site_type_symbol
_atom_site_label
_atom_site_fract_x
_atom_site_fract_y
_atom_site_fract_z
Si Si1 0.186807 0.750000 0.581671
Si Si2 0.193969 0.486100 0.004245
Si Si3 0.800418 0.250000 0.060952
Si Si4 0.849211 0.596164 0.882053
Si Si5 0.311982 0.512070 0.265941
Si Si6 0.207818 0.250000 0.691294
Si Si7 0.828373 0.750000 0.213273
O O1 0.243158 0.877944 0.549391
O O2 0.229543 0.750000 0.647768
O O3 0.993948 0.750000 0.570775
O O4 0.236611 0.440974 0.941066
O O5 0.000000 0.500000 0.004344
O O6 0.250418 0.624720 0.025745
O O7 0.745536 0.250000 0.125581
O O8 0.891053 0.750000 0.883750
O O9 0.751087 0.563796 0.826039
O O10 0.000000 0.500000 0.879188
O O11 0.500000 0.500000 0.269308
O O12 0.272336 0.620848 0.219915
O O13 0.230025 0.377546 0.246564
O O14 0.018753 0.250000 0.704771
#
# Coordination Sequence:
#
# PCOD9362004 Si02
#       7
#     4   8   4   8   8   4   4
#     4   9  16  32  53  90 120 149 194 245 312 357
#     4   9  17  30  54  89 125 151 189 252 313 359
#     4   9  18  30  57  90 124 151 190 255 308 359
#     4  11  23  39  64  93 125 162 209 261 307 370
#     4  12  26  42  61  88 129 168 207 258 319 371
#     4  11  21  42  65  94 126 159 212 257 302 375
#     4  11  23  38  67  94 120 165 206 259 304 369
#
# _framework density 19.558419000000001
#
# number of rings (size 3 to 8) (size 9 to 14) (size 15 to 20)
#    0.000    1.600    2.000    3.600    5.600    3.200 
#    0.000    0.000    0.000    7.200    0.000    0.000 
#    0.000    0.000    0.000    0.000    0.000    0.000 
#
# Total GULP energy -111667.727524 kJ/mol
# GULP energy per Si atom -5583.386376 kJ/mol
# Density = 1.951390 g / cm^3
# Si number density = 19.558419 Si / 1000 Ang^3
#
#
#
# Elastic Constant Matrix: (Units=GPa)
#
#
# Indices 1 2 3 4 5 6 
#
# 1 37.0077 24.9751 21.5042 0.0000 0.0000 0.0000
# 2 24.9751 210.1017 91.1843 0.0000 0.0000 0.0000
# 3 21.5042 91.1843 157.8099 0.0000 0.0000 0.0000
# 4 0.0000 0.0000 0.0000 44.0166 0.0000 0.0000
# 5 0.0000 0.0000 0.0000 0.0000 -13.0583 0.0000
# 6 0.0000 0.0000 0.0000 0.0000 0.0000 19.8048
#
#
#
# Elastic Compliance Matrix: (Units=1/GPa)
#
#
# Indices 1 2 3 4 5 6 
#
# 1 0.030233 -0.002410 -0.002727 0.000000 0.000000 0.000000
# 2 -0.002410 0.006545 -0.003453 0.000000 0.000000 0.000000
# 3 -0.002727 -0.003453 0.008704 0.000000 0.000000 0.000000
# 4 0.000000 0.000000 0.000000 0.022719 0.000000 0.000000
# 5 0.000000 0.000000 0.000000 0.000000 -0.076580 0.000000
# 6 0.000000 0.000000 0.000000 0.000000 0.000000 0.050493
#
#
# Mechanical properties :
#
#
# Convention : Reuss Voigt Hill
#
# Bulk Modulus (GPa) = 35.33565 75.58295 55.45930
# Shear Modulus (GPa) = 72.75157 27.96967 50.36062
#
# Velocity S-wave (km/s) = 6.10556 3.78571 5.07983
# Velocity P-wave (km/s) = 8.23466 7.60509 7.92613
#
# Compressibility (1/GPa) = 0.02830003
#
# Stress axis : x y z
#
# Youngs Moduli (GPa) = 33.07691 152.79275 114.89435
#
# Poissons Ratio (x) = 0.36827 0.31332
# Poissons Ratio (y) = 0.07972 0.39676
# Poissons Ratio (z) = 0.09020 0.52763
#
# Static dielectric constant tensor:
#      x y z
#    x 1.679140 0.000000 0.000000 
#    y 0.000000 1.668910 0.000000 
#    z 0.000000 0.000000 1.680360 
# 
# From -- ./inp_files/15485.got.cif
#   From: 2010.05.17/outbox.cif.g08.bks.cpg/sg39_8_cif.got.tgz:15485.got - 2010.06.03 18:22:40.
