data_PCOD9362382
_publ_section_title
;
Structure prediction by ZEFSAII (Michael W. Deem and Ramdas Pophale) SiO2 
 PCOD9362382
Probable space group: A M A 2
;
_chemical_formula_sum "Si O2"
_cell_formula_units_Z 64
_cell_length_a 8.235687
_cell_length_b 27.509914
_cell_length_c 19.082689
_cell_angle_alpha 90.000000
_cell_angle_beta 90.000000
_cell_angle_gamma 90.000000
_cell_volume 4323.432052
_symmetry_space_group_name_H-M "A M A 2"
_symmetry_group_IT_number 40
_symmetry_cell_setting 'orthorhombic'
loop_
_space_group_symop_operation_xyz
x,y,z
-x,-y,z
1/2-x,y,z
1/2+x,-y,z
x,1/2+y,1/2+z
-x,1/2-y,1/2+z
1/2-x,1/2+y,1/2+z
1/2+x,1/2-y,1/2+z
loop_
_atom_site_type_symbol
_atom_site_label
_atom_site_fract_x
_atom_site_fract_y
_atom_site_fract_z
Si Si1 0.944170 0.946152 0.310690
Si Si2 0.553316 0.744540 0.657210
Si Si3 0.944147 0.553909 0.650969
Si Si4 0.448845 0.646760 0.896070
Si Si5 0.943786 0.254588 0.816437
Si Si6 0.946490 0.648835 0.569403
Si Si7 0.560604 0.302921 0.029796
Si Si8 0.560559 0.289978 0.449499
O O1 0.750000 0.945340 0.311090
O O2 0.004143 0.903192 0.361109
O O3 0.999613 0.937515 0.230817
O O4 0.000000 0.000000 0.331484
O O5 0.750000 0.745478 0.656907
O O6 0.493711 0.749118 0.736006
O O7 0.504899 0.693035 0.621771
O O8 0.492643 0.787566 0.605362
O O9 0.750000 0.554482 0.651018
O O10 0.001660 0.597687 0.601475
O O11 0.000000 0.500000 0.629968
O O12 0.250000 0.646485 0.897749
O O13 0.496244 0.692786 0.847728
O O14 0.507459 0.657524 0.975377
O O15 0.750000 0.251856 0.822209
O O16 0.019863 0.214058 0.867647
O O17 0.750000 0.648956 0.565637
O O18 0.015409 0.662197 0.493115
O O19 0.750000 0.314513 0.040065
O O20 0.545045 0.252738 0.985728
O O21 0.750000 0.279083 0.460004
#
# Coordination Sequence:
#
# PCOD9362382 Si02
#       8
#     8   8   8   8   8   8   8   8
#     4  10  18  28  41  58  81 107 139 174 206 239
#     4   9  16  26  41  60  81 104 133 166 199 239
#     4  10  19  30  43  59  81 108 138 171 206 239
#     4   8  15  27  42  56  73 106 142 166 194 237
#     4  10  18  28  41  57  81 109 136 165 200 240
#     4   9  18  31  44  58  81 112 139 167 206 244
#     4   8  15  29  43  56  79 107 133 165 205 243
#     4  10  18  27  41  60  80 103 135 170 200 237
#
# _framework density 14.803055000000001
#
# number of rings (size 3 to 8) (size 9 to 14) (size 15 to 20)
#    0.000    2.750    0.000    5.250    0.000    3.000 
#    0.000    5.625    0.000    0.000    0.000    0.000 
#    0.000    1.000    0.000    9.250    0.000    2.500 
#
# Total GULP energy -178182.681627 kJ/mol
# GULP energy per Si atom -5568.208801 kJ/mol
# Density = 1.476936 g / cm^3
# Si number density = 14.803055 Si / 1000 Ang^3
#
#
#
# Elastic Constant Matrix: (Units=GPa)
#
#
# Indices 1 2 3 4 5 6 
#
# 1 21.6795 15.4645 14.4716 0.0000 0.0000 0.0000
# 2 15.4645 101.1952 68.4188 0.0000 0.0000 0.0000
# 3 14.4716 68.4188 121.3839 0.0000 0.0000 0.0000
# 4 0.0000 0.0000 0.0000 29.8362 0.0000 0.0000
# 5 0.0000 0.0000 0.0000 0.0000 18.1497 0.0000
# 6 0.0000 0.0000 0.0000 0.0000 0.0000 -22.0593
#
#
#
# Elastic Compliance Matrix: (Units=1/GPa)
#
#
# Indices 1 2 3 4 5 6 
#
# 1 0.052352 -0.006108 -0.002799 0.000000 0.000000 0.000000
# 2 -0.006108 0.016679 -0.008673 0.000000 0.000000 0.000000
# 3 -0.002799 -0.008673 0.013461 0.000000 0.000000 0.000000
# 4 0.000000 0.000000 0.000000 0.033516 0.000000 0.000000
# 5 0.000000 0.000000 0.000000 0.000000 0.055097 0.000000
# 6 0.000000 0.000000 0.000000 0.000000 0.000000 -0.045332
#
#
# Mechanical properties :
#
#
# Convention : Reuss Voigt Hill
#
# Bulk Modulus (GPa) = 21.12742 48.99650 35.06196
# Shear Modulus (GPa) = 28.29490 14.91222 21.60356
#
# Velocity S-wave (km/s) = 4.37673 3.17736 3.82435
# Velocity P-wave (km/s) = 6.31223 6.82873 6.57556
#
# Compressibility (1/GPa) = 0.04733187
#
# Stress axis : x y z
#
# Youngs Moduli (GPa) = 19.10156 59.95445 74.29059
#
# Poissons Ratio (x) = 0.36622 0.20790
# Poissons Ratio (y) = 0.11668 0.64434
# Poissons Ratio (z) = 0.05346 0.52000
#
# Static dielectric constant tensor:
#      x y z
#    x 1.517830 0.000000 0.000000 
#    y 0.000000 1.492360 0.000000 
#    z 0.000000 0.000000 1.506610 
# 
# From -- ./inp_files/19776.got.cif
#   From: 2010.05.17/outbox.cif.g08.bks.cpg/sg40_10_cif.got.tgz:19776.got - 2010.06.03 18:35:42.
