data_PCOD9362357
_publ_section_title
;
Structure prediction by ZEFSAII (Michael W. Deem and Ramdas Pophale) SiO2 
 PCOD9362357
Probable space group: A M A 2
;
_chemical_formula_sum "Si O2"
_cell_formula_units_Z 44
_cell_length_a 23.383281
_cell_length_b 7.897651
_cell_length_c 11.101254
_cell_angle_alpha 90.000000
_cell_angle_beta 90.000000
_cell_angle_gamma 90.000000
_cell_volume 2050.101797
_symmetry_space_group_name_H-M "A M A 2"
_symmetry_group_IT_number 40
_symmetry_cell_setting 'orthorhombic'
loop_
_space_group_symop_operation_xyz
x,y,z
-x,-y,z
1/2-x,y,z
1/2+x,-y,z
x,1/2+y,1/2+z
-x,1/2-y,1/2+z
1/2-x,1/2+y,1/2+z
1/2+x,1/2-y,1/2+z
loop_
_atom_site_type_symbol
_atom_site_label
_atom_site_fract_x
_atom_site_fract_y
_atom_site_fract_z
Si Si1 0.374196 0.541160 0.671170
Si Si2 0.122736 0.088920 0.423153
Si Si3 0.375541 0.434363 0.190047
Si Si4 0.750000 0.265634 0.951135
Si Si5 0.750000 0.422566 0.571506
Si Si6 0.936414 0.568186 0.428741
Si Si7 0.250000 0.952899 0.643519
O O1 0.385388 0.470869 0.805508
O O2 0.306896 0.536100 0.644961
O O3 0.404352 0.468016 0.554120
O O4 0.391593 0.738215 0.675352
O O5 0.118968 0.013576 0.556872
O O6 0.187190 0.169927 0.404880
O O7 0.073952 0.231385 0.416537
O O8 0.408426 0.506181 0.305699
O O9 0.308039 0.441145 0.216190
O O10 0.750000 0.367428 0.077829
O O11 0.750000 0.063275 0.966797
O O12 0.750000 0.216075 0.555293
O O13 0.000000 0.500000 0.437271
#
# Coordination Sequence:
#
# PCOD9362357 Si02
#       7
#     8   8   8   4   4   8   4
#     4  10  21  38  60  91 119 157 198 250 310 369
#     4  10  21  39  62  86 122 156 196 255 309 367
#     4   9  21  40  62  88 123 156 193 255 311 368
#     4  10  17  35  63  92 126 164 196 247 318 385
#     4  10  17  34  63  89 127 165 190 249 320 372
#     4  11  24  40  59  86 118 161 216 254 300 367
#     4   8  18  35  60  97 127 151 204 248 306 397
#
# _framework density 21.462350000000001
#
# number of rings (size 3 to 8) (size 9 to 14) (size 15 to 20)
#    0.000    2.182    1.818    0.545    0.000    7.273 
#    0.000    0.909    0.000    0.000    0.000    0.000 
#    0.000    0.000    0.000    0.000    0.000    0.000 
#
# Total GULP energy -122498.670451 kJ/mol
# GULP energy per Si atom -5568.121384 kJ/mol
# Density = 2.141350 g / cm^3
# Si number density = 21.462350 Si / 1000 Ang^3
#
#
#
# Elastic Constant Matrix: (Units=GPa)
#
#
# Indices 1 2 3 4 5 6 
#
# 1 35.1320 -1.9376 35.0619 0.0000 0.0000 0.0000
# 2 -1.9376 37.2250 25.4604 0.0000 0.0000 0.0000
# 3 35.0619 25.4604 199.3644 0.0000 0.0000 0.0000
# 4 0.0000 0.0000 0.0000 35.2456 0.0000 0.0000
# 5 0.0000 0.0000 0.0000 0.0000 -19.4089 0.0000
# 6 0.0000 0.0000 0.0000 0.0000 0.0000 27.0753
#
#
#
# Elastic Compliance Matrix: (Units=1/GPa)
#
#
# Indices 1 2 3 4 5 6 
#
# 1 0.036031 0.006804 -0.007206 0.000000 0.000000 0.000000
# 2 0.006804 0.030719 -0.005120 0.000000 0.000000 0.000000
# 3 -0.007206 -0.005120 0.006937 0.000000 0.000000 0.000000
# 4 0.000000 0.000000 0.000000 0.028372 0.000000 0.000000
# 5 0.000000 0.000000 0.000000 0.000000 -0.051523 0.000000
# 6 0.000000 0.000000 0.000000 0.000000 0.000000 0.036934
#
#
# Mechanical properties :
#
#
# Convention : Reuss Voigt Hill
#
# Bulk Modulus (GPa) = 15.96320 43.21007 29.58664
# Shear Modulus (GPa) = 41.87786 22.79151 32.33468
#
# Velocity S-wave (km/s) = 4.42206 3.26226 3.88568
# Velocity P-wave (km/s) = 5.79023 5.86229 5.82637
#
# Compressibility (1/GPa) = 0.06264407
#
# Stress axis : x y z
#
# Youngs Moduli (GPa) = 27.75425 32.55263 144.15471
#
# Poissons Ratio (x) = -0.22148 1.03871
# Poissons Ratio (y) = -0.18883 0.73803
# Poissons Ratio (z) = 0.19998 0.16666
#
# Static dielectric constant tensor:
#      x y z
#    x 1.770970 0.000000 0.000000 
#    y 0.000000 1.813590 0.000000 
#    z 0.000000 0.000000 1.868010 
# 
# From -- ./inp_files/13885.got.cif
#   From: 2010.05.17/outbox.cif.g08.bks.cpg/sg40_7_cif.got.tgz:13885.got - 2010.06.03 18:35:42.
