data_PCOD9362563
_publ_section_title
;
Structure prediction by ZEFSAII (Michael W. Deem and Ramdas Pophale) SiO2 
 PCOD9362563
Probable space group: A M A 2
;
_chemical_formula_sum "Si O2"
_cell_formula_units_Z 48
_cell_length_a 14.080585
_cell_length_b 12.618140
_cell_length_c 13.975832
_cell_angle_alpha 90.000000
_cell_angle_beta 90.000000
_cell_angle_gamma 90.000000
_cell_volume 2483.097152
_symmetry_space_group_name_H-M "A M A 2"
_symmetry_group_IT_number 40
_symmetry_cell_setting 'orthorhombic'
loop_
_space_group_symop_operation_xyz
x,y,z
-x,-y,z
1/2-x,y,z
1/2+x,-y,z
x,1/2+y,1/2+z
-x,1/2-y,1/2+z
1/2-x,1/2+y,1/2+z
1/2+x,1/2-y,1/2+z
loop_
_atom_site_type_symbol
_atom_site_label
_atom_site_fract_x
_atom_site_fract_y
_atom_site_fract_z
Si Si1 0.359425 0.648914 0.395770
Si Si2 0.481528 0.235125 0.275168
Si Si3 0.011216 0.734567 0.551608
Si Si4 0.637668 0.848795 0.432721
Si Si5 0.853244 0.563308 0.049844
Si Si6 0.394584 0.458497 0.262994
O O1 0.250000 0.680882 0.409216
O O2 0.420315 0.725412 0.324260
O O3 0.423516 0.653328 0.491544
O O4 0.357662 0.532823 0.347081
O O5 0.496560 0.210272 0.163860
O O6 0.427519 0.148330 0.337976
O O7 0.407999 0.334802 0.283525
O O8 0.911494 0.758587 0.499483
O O9 0.068463 0.845973 0.543238
O O10 0.750000 0.830091 0.415821
O O11 0.628351 0.960408 0.487000
O O12 0.750000 0.607252 0.022654
O O13 0.847802 0.528073 0.160351
O O14 0.500000 0.500000 0.246076
#
# Coordination Sequence:
#
# PCOD9362563 Si02
#       6
#     8   8   8   8   8   8
#     4  10  19  31  51  78 104 132 167 208 251 296
#     4   9  20  35  52  75 104 133 167 208 251 295
#     4  10  20  35  52  75 104 133 166 209 251 295
#     4  10  20  32  51  77 103 132 168 208 251 296
#     4  10  18  30  52  78 100 128 166 207 250 297
#     4   9  17  31  51  75 101 130 165 206 249 295
#
# _framework density 19.330698000000002
#
# number of rings (size 3 to 8) (size 9 to 14) (size 15 to 20)
#    0.000    2.333    0.000    4.500    0.000    6.000 
#    0.000    0.000    0.000   22.000    0.000   21.000 
#    0.000    0.000    0.000    0.000    0.000    0.000 
#
# Total GULP energy -133772.896786 kJ/mol
# GULP energy per Si atom -5573.870699 kJ/mol
# Density = 1.928670 g / cm^3
# Si number density = 19.330698 Si / 1000 Ang^3
#
#
#
# Elastic Constant Matrix: (Units=GPa)
#
#
# Indices 1 2 3 4 5 6 
#
# 1 81.5413 -7.3581 0.4732 0.0000 0.0000 0.0000
# 2 -7.3581 21.9812 7.1944 0.0000 0.0000 0.0000
# 3 0.4732 7.1944 92.0087 0.0000 0.0000 0.0000
# 4 0.0000 0.0000 0.0000 25.3768 0.0000 0.0000
# 5 0.0000 0.0000 0.0000 0.0000 37.3848 0.0000
# 6 0.0000 0.0000 0.0000 0.0000 0.0000 9.8995
#
#
#
# Elastic Compliance Matrix: (Units=1/GPa)
#
#
# Indices 1 2 3 4 5 6 
#
# 1 0.012661 0.004371 -0.000407 0.000000 0.000000 0.000000
# 2 0.004371 0.048198 -0.003791 0.000000 0.000000 0.000000
# 3 -0.000407 -0.003791 0.011167 0.000000 0.000000 0.000000
# 4 0.000000 0.000000 0.000000 0.039406 0.000000 0.000000
# 5 0.000000 0.000000 0.000000 0.000000 0.026749 0.000000
# 6 0.000000 0.000000 0.000000 0.000000 0.000000 0.101015
#
#
# Mechanical properties :
#
#
# Convention : Reuss Voigt Hill
#
# Bulk Modulus (GPa) = 13.81760 21.79446 17.80603
# Shear Modulus (GPa) = 19.01335 27.54699 23.28017
#
# Velocity S-wave (km/s) = 3.13962 3.77906 3.47408
# Velocity P-wave (km/s) = 4.50627 5.50825 5.03226
#
# Compressibility (1/GPa) = 0.07237146
#
# Stress axis : x y z
#
# Youngs Moduli (GPa) = 78.98559 20.74794 89.54897
#
# Poissons Ratio (x) = -0.09069 0.03644
# Poissons Ratio (y) = -0.34526 0.33950
# Poissons Ratio (z) = 0.03214 0.07866
#
# Static dielectric constant tensor:
#      x y z
#    x 1.755460 0.000000 0.000000 
#    y 0.000000 1.724700 0.000000 
#    z 0.000000 0.000000 1.702730 
# 
# From -- ./inp_files/17122.got.cif
#   From: 2010.05.17/outbox.cif.g08.bks.cpg/sg40_9_cif.got.tgz:17122.got - 2010.06.03 18:35:42.
