data_PCOD9362678
_publ_section_title
;
Structure prediction by ZEFSAII (Michael W. Deem and Ramdas Pophale) SiO2 
 PCOD9362678
Probable space group: A M A 2
;
_chemical_formula_sum "Si O2"
_cell_formula_units_Z 64
_cell_length_a 8.445240
_cell_length_b 23.081080
_cell_length_c 16.595282
_cell_angle_alpha 90.000000
_cell_angle_beta 90.000000
_cell_angle_gamma 90.000000
_cell_volume 3234.839660
_symmetry_space_group_name_H-M "A M A 2"
_symmetry_group_IT_number 40
_symmetry_cell_setting 'orthorhombic'
loop_
_space_group_symop_operation_xyz
x,y,z
-x,-y,z
1/2-x,y,z
1/2+x,-y,z
x,1/2+y,1/2+z
-x,1/2-y,1/2+z
1/2-x,1/2+y,1/2+z
1/2+x,1/2-y,1/2+z
loop_
_atom_site_type_symbol
_atom_site_label
_atom_site_fract_x
_atom_site_fract_y
_atom_site_fract_z
Si Si1 0.558740 0.067179 0.936750
Si Si2 0.561142 0.063288 0.462132
Si Si3 0.932996 0.277509 0.005488
Si Si4 0.062075 0.644315 0.285278
Si Si5 0.567152 0.155694 0.069587
Si Si6 0.067337 0.336787 0.855172
Si Si7 0.070272 0.731677 0.718147
Si Si8 0.440683 0.367752 0.118198
O O1 0.750000 0.066432 0.937539
O O2 0.506696 0.108901 0.861738
O O3 0.500000 0.000000 0.930349
O O4 0.504763 0.099778 0.020295
O O5 0.750000 0.065256 0.467304
O O6 0.520211 0.099611 0.383416
O O7 0.502230 0.092859 0.544196
O O8 0.500000 0.000000 0.456607
O O9 0.750000 0.295571 0.993078
O O10 0.935913 0.208558 0.005702
O O11 0.992247 0.304765 0.090387
O O12 0.049926 0.301068 0.938095
O O13 0.250000 0.646303 0.294657
O O14 0.006076 0.709847 0.259887
O O15 0.010196 0.612228 0.202774
O O16 0.750000 0.143804 0.091312
O O17 0.492795 0.189005 0.146427
O O18 0.250000 0.333875 0.826834
O O19 0.946200 0.311472 0.793073
O O20 0.250000 0.747331 0.698718
O O21 0.250000 0.367211 0.121167
#
# Coordination Sequence:
#
# PCOD9362678 Si02
#       8
#     8   8   8   8   8   8   8   8
#     4  11  25  46  68  93 127 171 222 268 317 380
#     4   9  20  36  56  81 112 154 198 243 293 352
#     4  10  18  32  57  88 120 155 196 243 308 373
#     4  12  24  40  64  94 128 165 207 258 316 374
#     4  10  22  40  63  89 121 158 202 256 313 374
#     4  10  21  37  56  82 119 156 196 247 304 363
#     4  12  24  38  62  95 126 156 200 256 319 381
#     4  10  20  35  55  86 124 159 199 249 306 368
#
# _framework density 19.784597999999999
#
# number of rings (size 3 to 8) (size 9 to 14) (size 15 to 20)
#    0.000    1.500    1.250    5.250    0.000    6.000 
#    0.000    1.875    0.000    0.000    0.000    0.000 
#    0.000    0.000    0.000    0.000    0.000    0.000 
#
# Total GULP energy -178190.559020 kJ/mol
# GULP energy per Si atom -5568.454969 kJ/mol
# Density = 1.973957 g / cm^3
# Si number density = 19.784598 Si / 1000 Ang^3
#
#
#
# Elastic Constant Matrix: (Units=GPa)
#
#
# Indices 1 2 3 4 5 6 
#
# 1 72.4908 37.5564 20.1492 0.0000 0.0000 0.0000
# 2 37.5564 117.6962 47.7906 0.0000 0.0000 0.0000
# 3 20.1492 47.7906 70.5302 0.0000 0.0000 0.0000
# 4 0.0000 0.0000 0.0000 23.6508 0.0000 0.0000
# 5 0.0000 0.0000 0.0000 0.0000 36.1278 0.0000
# 6 0.0000 0.0000 0.0000 0.0000 0.0000 55.3459
#
#
#
# Elastic Compliance Matrix: (Units=1/GPa)
#
#
# Indices 1 2 3 4 5 6 
#
# 1 0.016656 -0.004667 -0.001596 0.000000 0.000000 0.000000
# 2 -0.004667 0.013029 -0.007495 0.000000 0.000000 0.000000
# 3 -0.001596 -0.007495 0.019713 0.000000 0.000000 0.000000
# 4 0.000000 0.000000 0.000000 0.042282 0.000000 0.000000
# 5 0.000000 0.000000 0.000000 0.000000 0.027680 0.000000
# 6 0.000000 0.000000 0.000000 0.000000 0.000000 0.018068
#
#
# Mechanical properties :
#
#
# Convention : Reuss Voigt Hill
#
# Bulk Modulus (GPa) = 45.69964 52.41215 49.05590
# Shear Modulus (GPa) = 29.02958 33.37296 31.20127
#
# Velocity S-wave (km/s) = 3.83467 4.11154 3.97552
# Velocity P-wave (km/s) = 6.53873 7.00633 6.77656
#
# Compressibility (1/GPa) = 0.02188201
#
# Stress axis : x y z
#
# Youngs Moduli (GPa) = 60.03721 76.75183 50.72811
#
# Poissons Ratio (x) = 0.35819 0.08097
# Poissons Ratio (y) = 0.28018 0.38021
# Poissons Ratio (z) = 0.09583 0.57526
#
# Static dielectric constant tensor:
#      x y z
#    x 1.691060 0.000000 0.000000 
#    y 0.000000 1.722060 0.000000 
#    z 0.000000 0.000000 1.745990 
# 
# From -- ./inp_files/15646.got.cif
#   From: 2010.05.17/outbox.cif.g08.bks.cpg/sg40_8_cif.got.tgz:15646.got - 2010.06.03 18:35:42.
