data_PCOD9362842
_publ_section_title
;
Structure prediction by ZEFSAII (Michael W. Deem and Ramdas Pophale) SiO2 
 PCOD9362842
Probable space group: A M A 2
;
_chemical_formula_sum "Si O2"
_cell_formula_units_Z 48
_cell_length_a 23.893766
_cell_length_b 10.837039
_cell_length_c 8.405372
_cell_angle_alpha 90.000000
_cell_angle_beta 90.000000
_cell_angle_gamma 90.000000
_cell_volume 2176.467475
_symmetry_space_group_name_H-M "A M A 2"
_symmetry_group_IT_number 40
_symmetry_cell_setting 'orthorhombic'
loop_
_space_group_symop_operation_xyz
x,y,z
-x,-y,z
1/2-x,y,z
1/2+x,-y,z
x,1/2+y,1/2+z
-x,1/2-y,1/2+z
1/2-x,1/2+y,1/2+z
1/2+x,1/2-y,1/2+z
loop_
_atom_site_type_symbol
_atom_site_label
_atom_site_fract_x
_atom_site_fract_y
_atom_site_fract_z
Si Si1 0.035280 0.191514 0.111600
Si Si2 0.627783 0.951032 0.931813
Si Si3 0.314047 0.800227 0.523815
Si Si4 0.313542 0.301918 0.413587
Si Si5 0.090589 0.951784 0.585925
Si Si6 0.566892 0.793518 0.474732
O O1 0.073678 0.083798 0.039019
O O2 0.059043 0.323985 0.053930
O O3 0.045779 0.206007 0.296245
O O4 0.970104 0.194186 0.068593
O O5 0.660651 0.820243 0.936827
O O6 0.672578 0.058161 0.971537
O O7 0.604029 0.008726 0.767791
O O8 0.250000 0.816342 0.479978
O O9 0.317287 0.785959 0.719049
O O10 0.350849 0.922716 0.497006
O O11 0.250000 0.268008 0.458447
O O12 0.366663 0.229164 0.482753
O O13 0.057394 0.068767 0.530240
#
# Coordination Sequence:
#
# PCOD9362842 Si02
#       6
#     8   8   8   8   8   8
#     4  11  24  43  62  95 129 168 214 270 322 385
#     4  10  18  41  66  91 128 168 213 263 324 381
#     4   9  18  37  65  94 127 171 217 262 320 387
#     4  10  21  40  65  95 132 171 213 265 322 387
#     4  10  22  41  61  89 131 167 209 266 325 380
#     4  12  23  44  66  94 132 169 214 270 329 380
#
# _framework density 22.054086000000002
#
# number of rings (size 3 to 8) (size 9 to 14) (size 15 to 20)
#    0.000    1.667    5.000    2.000    0.000    2.000 
#   12.000    0.000    0.000    0.000    0.000    0.000 
#    0.000    0.000    0.000    0.000    0.000    0.000 
#
# Total GULP energy -133738.452991 kJ/mol
# GULP energy per Si atom -5572.435541 kJ/mol
# Density = 2.200389 g / cm^3
# Si number density = 22.054086 Si / 1000 Ang^3
#
#
#
# Elastic Constant Matrix: (Units=GPa)
#
#
# Indices 1 2 3 4 5 6 
#
# 1 136.2166 -2.0259 88.4412 0.0000 0.0000 0.0000
# 2 -2.0259 -22.3587 174.6525 0.0000 0.0000 0.0000
# 3 88.4412 174.6525 -247.8843 0.0000 0.0000 0.0000
# 4 0.0000 0.0000 0.0000 -12.0174 0.0000 0.0000
# 5 0.0000 0.0000 0.0000 0.0000 15.5548 0.0000
# 6 0.0000 0.0000 0.0000 0.0000 0.0000 30.6939
#
#
#
# Elastic Compliance Matrix: (Units=1/GPa)
#
#
# Indices 1 2 3 4 5 6 
#
# 1 0.007594 -0.004547 -0.000494 0.000000 0.000000 0.000000
# 2 -0.004547 0.012653 0.007293 0.000000 0.000000 0.000000
# 3 -0.000494 0.007293 0.000928 0.000000 0.000000 0.000000
# 4 0.000000 0.000000 0.000000 -0.083213 0.000000 0.000000
# 5 0.000000 0.000000 0.000000 0.000000 0.064289 0.000000
# 6 0.000000 0.000000 0.000000 0.000000 0.000000 0.032580
#
#
# Mechanical properties :
#
#
# Convention : Reuss Voigt Hill
#
# Bulk Modulus (GPa) = 38.94205 43.12325 41.03265
# Shear Modulus (GPa) = 128.57750 -19.49335 54.54208
#
# Velocity S-wave (km/s) = 7.64379 -2.97625 4.97843
# Velocity P-wave (km/s) = 9.77749 2.79018 7.18973
#
# Compressibility (1/GPa) = 0.02567918
#
# Stress axis : x y z
#
# Youngs Moduli (GPa) = 131.67684 79.03275 1077.73405
#
# Poissons Ratio (x) = 0.35934 0.53238
# Poissons Ratio (y) = 0.59870 -7.85962
# Poissons Ratio (z) = 0.06505 -0.57636
#
# Static dielectric constant tensor:
#      x y z
#    x 1.892850 0.000000 0.000000 
#    y 0.000000 1.935360 0.000000 
#    z 0.000000 0.000000 2.056340 
# 
# From -- ./inp_files/8749.got.cif
#   From: 2010.05.17/outbox.cif.g08.bks.cpg/sg40_5_cif.got.tgz:8749.got - 2010.06.03 18:35:42.
