data_PCOD9362909
_publ_section_title
;
Structure prediction by ZEFSAII (Michael W. Deem and Ramdas Pophale) SiO2 
 PCOD9362909
Probable space group: A M A 2
;
_chemical_formula_sum "Si O2"
_cell_formula_units_Z 56
_cell_length_a 8.110973
_cell_length_b 21.057124
_cell_length_c 14.404642
_cell_angle_alpha 90.000000
_cell_angle_beta 90.000000
_cell_angle_gamma 90.000000
_cell_volume 2460.223029
_symmetry_space_group_name_H-M "A M A 2"
_symmetry_group_IT_number 40
_symmetry_cell_setting 'orthorhombic'
loop_
_space_group_symop_operation_xyz
x,y,z
-x,-y,z
1/2-x,y,z
1/2+x,-y,z
x,1/2+y,1/2+z
-x,1/2-y,1/2+z
1/2-x,1/2+y,1/2+z
1/2+x,1/2-y,1/2+z
loop_
_atom_site_type_symbol
_atom_site_label
_atom_site_fract_x
_atom_site_fract_y
_atom_site_fract_z
Si Si1 0.950335 0.431758 0.234950
Si Si2 0.946493 0.431729 0.638925
Si Si3 0.562618 0.334028 0.092434
Si Si4 0.436836 0.430303 0.953452
Si Si5 0.435917 0.833526 0.285039
Si Si6 0.056078 0.595838 0.436732
Si Si7 0.554120 0.238267 0.937232
O O1 0.750000 0.428508 0.233513
O O2 0.012019 0.367795 0.183008
O O3 0.014500 0.430142 0.340498
O O4 0.000000 0.500000 0.192630
O O5 0.750000 0.432112 0.636231
O O6 0.016581 0.427661 0.534089
O O7 0.000000 0.500000 0.680056
O O8 0.996039 0.368010 0.693973
O O9 0.750000 0.315191 0.114293
O O10 0.557547 0.393554 0.022151
O O11 0.490167 0.278485 0.027313
O O12 0.500000 0.500000 0.936934
O O13 0.250000 0.429819 0.991713
O O14 0.433747 0.390942 0.858936
O O15 0.250000 0.811513 0.267121
O O16 0.526256 0.778157 0.342368
O O17 0.250000 0.579933 0.437121
O O18 0.035148 0.671489 0.433399
O O19 0.750000 0.229392 0.948662
#
# Coordination Sequence:
#
# PCOD9362909 Si02
#       7
#     8   8   8   8   8   8   8
#     4  10  21  38  59  84 114 149 189 234 285 338
#     4  11  23  39  60  87 118 154 199 248 298 352
#     4   9  19  35  55  80 111 145 182 228 279 334
#     4  10  19  30  48  76 109 145 182 224 278 338
#     4  10  21  37  58  83 114 152 191 237 294 351
#     4  10  23  41  59  82 117 157 196 242 291 341
#     4  10  21  38  60  88 119 152 194 237 284 348
#
# _framework density 22.762163999999999
#
# number of rings (size 3 to 8) (size 9 to 14) (size 15 to 20)
#    0.000    2.000    0.000    3.000    0.000    8.000 
#    0.000    1.429    0.000    0.000    0.000    0.000 
#    0.000    0.000    0.000    0.000    0.000    0.000 
#
# Total GULP energy -156280.187486 kJ/mol
# GULP energy per Si atom -5581.435267 kJ/mol
# Density = 2.271036 g / cm^3
# Si number density = 22.762164 Si / 1000 Ang^3
#
#
#
# Elastic Constant Matrix: (Units=GPa)
#
#
# Indices 1 2 3 4 5 6 
#
# 1 35.8678 -22.1617 2.3053 0.0000 0.0000 0.0000
# 2 -22.1617 81.1004 12.5999 0.0000 0.0000 0.0000
# 3 2.3053 12.5999 94.0176 0.0000 0.0000 0.0000
# 4 0.0000 0.0000 0.0000 30.0380 0.0000 0.0000
# 5 0.0000 0.0000 0.0000 0.0000 7.4231 0.0000
# 6 0.0000 0.0000 0.0000 0.0000 0.0000 20.6388
#
#
#
# Elastic Compliance Matrix: (Units=1/GPa)
#
#
# Indices 1 2 3 4 5 6 
#
# 1 0.033953 0.009607 -0.002120 0.000000 0.000000 0.000000
# 2 0.009607 0.015311 -0.002288 0.000000 0.000000 0.000000
# 3 -0.002120 -0.002288 0.010995 0.000000 0.000000 0.000000
# 4 0.000000 0.000000 0.000000 0.033291 0.000000 0.000000
# 5 0.000000 0.000000 0.000000 0.000000 0.134714 0.000000
# 6 0.000000 0.000000 0.000000 0.000000 0.000000 0.048452
#
#
# Mechanical properties :
#
#
# Convention : Reuss Voigt Hill
#
# Bulk Modulus (GPa) = 14.15267 21.83031 17.99149
# Shear Modulus (GPa) = 17.24917 26.16948 21.70933
#
# Velocity S-wave (km/s) = 2.75580 3.39439 3.09163
# Velocity P-wave (km/s) = 4.04439 4.99739 4.54593
#
# Compressibility (1/GPa) = 0.07065805
#
# Stress axis : x y z
#
# Youngs Moduli (GPa) = 29.45287 65.31202 90.95166
#
# Poissons Ratio (x) = -0.62747 0.19282
# Poissons Ratio (y) = -0.28296 0.20805
# Poissons Ratio (z) = 0.06244 0.14940
#
# Static dielectric constant tensor:
#      x y z
#    x 1.825770 0.000000 0.000000 
#    y 0.000000 1.818110 0.000000 
#    z 0.000000 0.000000 1.926560 
# 
# From -- ./inp_files/15300.got.cif
#   From: 2010.05.17/outbox.cif.g08.bks.cpg/sg40_8_cif.got.tgz:15300.got - 2010.06.03 18:35:42.
