data_PCOD9362703
_publ_section_title
;
Structure prediction by ZEFSAII (Michael W. Deem and Ramdas Pophale) SiO2 
 PCOD9362703
Probable space group: A M A 2
;
_chemical_formula_sum "Si O2"
_cell_formula_units_Z 56
_cell_length_a 8.509400
_cell_length_b 16.196735
_cell_length_c 20.416621
_cell_angle_alpha 90.000000
_cell_angle_beta 90.000000
_cell_angle_gamma 90.000000
_cell_volume 2813.910516
_symmetry_space_group_name_H-M "A M A 2"
_symmetry_group_IT_number 40
_symmetry_cell_setting 'orthorhombic'
loop_
_space_group_symop_operation_xyz
x,y,z
-x,-y,z
1/2-x,y,z
1/2+x,-y,z
x,1/2+y,1/2+z
-x,1/2-y,1/2+z
1/2-x,1/2+y,1/2+z
1/2+x,1/2-y,1/2+z
loop_
_atom_site_type_symbol
_atom_site_label
_atom_site_fract_x
_atom_site_fract_y
_atom_site_fract_z
Si Si1 0.570614 0.915436 0.385510
Si Si2 0.936424 0.749688 0.182509
Si Si3 0.429801 0.378408 0.013830
Si Si4 0.560863 0.406990 0.415961
Si Si5 0.063772 0.753605 0.834588
Si Si6 0.932882 0.422143 0.149591
Si Si7 0.564303 0.814560 0.045958
O O1 0.750000 0.911737 0.364595
O O2 0.552856 0.915858 0.463606
O O3 0.493074 0.827570 0.369091
O O4 0.500000 0.000000 0.358960
O O5 0.750000 0.731906 0.169368
O O6 0.947779 0.772116 0.258353
O O7 0.989833 0.809448 0.122504
O O8 0.035930 0.666069 0.180720
O O9 0.250000 0.393295 0.992754
O O10 0.461713 0.416036 0.084515
O O11 0.454635 0.279943 0.021561
O O12 0.500000 0.500000 0.403885
O O13 0.750000 0.408783 0.417183
O O14 0.511057 0.338106 0.361909
O O15 0.501601 0.373498 0.487906
O O16 0.250000 0.762034 0.849770
O O17 0.750000 0.432033 0.135713
O O18 0.000000 0.500000 0.189121
O O19 0.750000 0.832883 0.049406
#
# Coordination Sequence:
#
# PCOD9362703 Si02
#       7
#     8   8   8   8   8   8   8
#     4  11  22  35  54  83 115 149 188 235 291 349
#     4   9  19  38  60  80 108 150 196 242 301 356
#     4  10  18  33  55  80 110 146 183 227 282 338
#     4  11  22  38  61  90 122 160 205 253 306 364
#     4  10  22  40  61  86 118 156 199 252 301 356
#     4  11  21  33  50  78 111 145 184 230 282 344
#     4   8  16  33  58  83 108 145 189 236 290 347
#
# _framework density 19.901129999999998
#
# number of rings (size 3 to 8) (size 9 to 14) (size 15 to 20)
#    0.000    2.000    1.429    3.857    0.000    1.714 
#    0.000    1.429    0.000    0.000    0.000    0.000 
#    0.000    0.000    0.000    0.000    0.000    0.000 
#
# Total GULP energy -155912.221321 kJ/mol
# GULP energy per Si atom -5568.293619 kJ/mol
# Density = 1.985583 g / cm^3
# Si number density = 19.901130 Si / 1000 Ang^3
#
#
#
# Elastic Constant Matrix: (Units=GPa)
#
#
# Indices 1 2 3 4 5 6 
#
# 1 50.2019 21.6130 9.5251 0.0000 0.0000 0.0000
# 2 21.6130 90.8959 21.0327 0.0000 0.0000 0.0000
# 3 9.5251 21.0327 70.8734 0.0000 0.0000 0.0000
# 4 0.0000 0.0000 0.0000 6.2131 0.0000 0.0000
# 5 0.0000 0.0000 0.0000 0.0000 17.8349 0.0000
# 6 0.0000 0.0000 0.0000 0.0000 0.0000 23.4269
#
#
#
# Elastic Compliance Matrix: (Units=1/GPa)
#
#
# Indices 1 2 3 4 5 6 
#
# 1 0.022345 -0.004959 -0.001531 0.000000 0.000000 0.000000
# 2 -0.004959 0.012913 -0.003166 0.000000 0.000000 0.000000
# 3 -0.001531 -0.003166 0.015255 0.000000 0.000000 0.000000
# 4 0.000000 0.000000 0.000000 0.160949 0.000000 0.000000
# 5 0.000000 0.000000 0.000000 0.000000 0.056070 0.000000
# 6 0.000000 0.000000 0.000000 0.000000 0.000000 0.042686
#
#
# Mechanical properties :
#
#
# Convention : Reuss Voigt Hill
#
# Bulk Modulus (GPa) = 32.05006 35.14587 33.59797
# Shear Modulus (GPa) = 14.70887 20.14833 17.42860
#
# Velocity S-wave (km/s) = 2.72158 3.18531 2.96253
# Velocity P-wave (km/s) = 5.10055 5.58810 5.34988
#
# Compressibility (1/GPa) = 0.03120119
#
# Stress axis : x y z
#
# Youngs Moduli (GPa) = 44.75273 77.44004 65.55235
#
# Poissons Ratio (x) = 0.38401 0.10039
# Poissons Ratio (y) = 0.22192 0.20752
# Poissons Ratio (z) = 0.06854 0.24516
#
# Static dielectric constant tensor:
#      x y z
#    x 1.687520 0.000000 0.000000 
#    y 0.000000 1.768650 0.000000 
#    z 0.000000 0.000000 1.744620 
# 
# From -- ./inp_files/22165.got.cif
#   From: 2010.05.17/outbox.cif.g08.bks.cpg/sg40_12_cif.got.tgz:22165.got - 2010.06.03 18:35:42.
