data_PCOD9362097
_publ_section_title
;
Structure prediction by ZEFSAII (Michael W. Deem and Ramdas Pophale) SiO2 
 PCOD9362097
Probable space group: A B M 2
;
_chemical_formula_sum "Si O2"
_cell_formula_units_Z 64
_cell_length_a 11.028862
_cell_length_b 28.777220
_cell_length_c 9.287256
_cell_angle_alpha 90.000000
_cell_angle_beta 90.000000
_cell_angle_gamma 90.000000
_cell_volume 2947.589199
_symmetry_space_group_name_H-M "A B M 2"
_symmetry_group_IT_number 39
_symmetry_cell_setting 'orthorhombic'
loop_
_space_group_symop_operation_xyz
x,y,z
-x,-y,z
-x,1/2+y,z
x,1/2-y,z
x,1/2+y,1/2+z
-x,1/2-y,1/2+z
-x,y,1/2+z
x,-y,1/2+z
loop_
_atom_site_type_symbol
_atom_site_label
_atom_site_fract_x
_atom_site_fract_y
_atom_site_fract_z
Si Si1 0.970878 0.398133 0.318100
Si Si2 0.848957 0.472876 0.762165
Si Si3 0.738294 0.593341 0.023440
Si Si4 0.506677 0.449549 0.373314
Si Si5 0.562689 0.144827 0.708925
Si Si6 0.370707 0.804396 0.006526
Si Si7 0.727121 0.454481 0.060053
Si Si8 0.851497 0.140341 0.052086
O O1 0.851914 0.399351 0.418351
O O2 0.944664 0.365903 0.181834
O O3 0.014061 0.450635 0.271046
O O4 0.078481 0.375076 0.409222
O O5 0.787396 0.433422 0.662774
O O6 0.807376 0.472043 0.926036
O O7 0.782584 0.517059 0.691162
O O8 0.668314 0.637585 0.089922
O O9 0.635406 0.563734 0.941337
O O10 0.500000 0.500000 0.298659
O O11 0.470235 0.406527 0.271384
O O12 0.409167 0.455745 0.502139
O O13 0.452941 0.169570 0.625615
O O14 0.601980 0.173497 0.849720
O O15 0.397865 0.750000 0.007146
O O16 0.229077 0.814251 0.039359
O O17 0.755714 0.400761 0.083034
#
# Coordination Sequence:
#
# PCOD9362097 Si02
#       8
#     8   8   8   8   8   8   8   8
#     4  11  25  46  71 100 141 202 253 304 387 450
#     4  11  24  44  60  97 142 194 259 302 350 450
#     4  12  23  42  71 103 147 199 245 313 379 451
#     4  12  24  41  70 111 155 202 249 306 376 466
#     4  12  24  49  74 109 158 194 247 321 391 474
#     4  12  27  49  80 114 148 196 257 327 407 474
#     4  11  24  42  63  95 145 193 248 306 368 427
#     4  11  24  46  71  99 141 191 246 320 371 455
#
# _framework density 21.71266
#
# number of rings (size 3 to 8) (size 9 to 14) (size 15 to 20)
#    0.000    0.500    6.250    1.875    1.750    3.000 
#    2.250    0.625    0.000    0.000    0.000    0.000 
#    0.000    0.000    0.000    0.000    0.000    0.000 
#
# Total GULP energy -178950.399185 kJ/mol
# GULP energy per Si atom -5592.199975 kJ/mol
# Density = 2.166324 g / cm^3
# Si number density = 21.712660 Si / 1000 Ang^3
#
#
#
# Elastic Constant Matrix: (Units=GPa)
#
#
# Indices 1 2 3 4 5 6 
#
# 1 122.2510 36.8623 38.5218 0.0000 0.0000 0.0000
# 2 36.8623 117.5962 45.3445 0.0000 0.0000 0.0000
# 3 38.5218 45.3445 109.9814 0.0000 0.0000 0.0000
# 4 0.0000 0.0000 0.0000 17.3581 0.0000 0.0000
# 5 0.0000 0.0000 0.0000 0.0000 47.1580 0.0000
# 6 0.0000 0.0000 0.0000 0.0000 0.0000 20.2704
#
#
#
# Elastic Compliance Matrix: (Units=1/GPa)
#
#
# Indices 1 2 3 4 5 6 
#
# 1 0.009587 -0.002034 -0.002519 0.000000 0.000000 0.000000
# 2 -0.002034 0.010543 -0.003634 0.000000 0.000000 0.000000
# 3 -0.002519 -0.003634 0.011473 0.000000 0.000000 0.000000
# 4 0.000000 0.000000 0.000000 0.057610 0.000000 0.000000
# 5 0.000000 0.000000 0.000000 0.000000 0.021205 0.000000
# 6 0.000000 0.000000 0.000000 0.000000 0.000000 0.049333
#
#
# Mechanical properties :
#
#
# Convention : Reuss Voigt Hill
#
# Bulk Modulus (GPa) = 65.66865 65.69840 65.68352
# Shear Modulus (GPa) = 27.59352 32.23064 29.91208
#
# Velocity S-wave (km/s) = 3.56876 3.85699 3.71567
# Velocity P-wave (km/s) = 6.87688 7.08230 6.98035
#
# Compressibility (1/GPa) = 0.01522797
#
# Stress axis : x y z
#
# Youngs Moduli (GPa) = 104.30792 94.85388 87.15901
#
# Poissons Ratio (x) = 0.19291 0.21959
# Poissons Ratio (y) = 0.21213 0.31676
# Poissons Ratio (z) = 0.26280 0.34473
#
# Static dielectric constant tensor:
#      x y z
#    x 1.928840 0.000000 0.000000 
#    y 0.000000 1.796370 0.000000 
#    z 0.000000 0.000000 1.821550 
# 
# From -- ./inp_files/2921.got.cif
#   From: 2010.05.17/outbox.cif.g08.bks.cpg/sg39_2_cif.got.tgz:2921.got - 2010.06.03 18:22:40.
