data_PCOD9362065
_publ_section_title
;
Structure prediction by ZEFSAII (Michael W. Deem and Ramdas Pophale) SiO2 
 PCOD9362065
Probable space group: A B M 2
;
_chemical_formula_sum "Si O2"
_cell_formula_units_Z 48
_cell_length_a 9.331805
_cell_length_b 27.156970
_cell_length_c 10.001863
_cell_angle_alpha 90.000000
_cell_angle_beta 90.000000
_cell_angle_gamma 90.000000
_cell_volume 2534.707612
_symmetry_space_group_name_H-M "A B M 2"
_symmetry_group_IT_number 39
_symmetry_cell_setting 'orthorhombic'
loop_
_space_group_symop_operation_xyz
x,y,z
-x,-y,z
-x,1/2+y,z
x,1/2-y,z
x,1/2+y,1/2+z
-x,1/2-y,1/2+z
-x,y,1/2+z
x,-y,1/2+z
loop_
_atom_site_type_symbol
_atom_site_label
_atom_site_fract_x
_atom_site_fract_y
_atom_site_fract_z
Si Si1 0.845162 0.526754 0.939440
Si Si2 0.640627 0.307751 0.247978
Si Si3 0.546078 0.354822 0.516241
Si Si4 0.309608 0.571053 0.950372
Si Si5 0.191516 0.602514 0.666592
Si Si6 0.864349 0.608970 0.707416
O O1 0.718803 0.486701 0.928002
O O2 0.843207 0.568429 0.824540
O O3 0.000000 0.500000 0.929425
O O4 0.828852 0.551956 0.083840
O O5 0.668672 0.250000 0.247377
O O6 0.557705 0.324695 0.380424
O O7 0.547325 0.324540 0.121456
O O8 0.781246 0.341531 0.243777
O O9 0.464567 0.406864 0.488537
O O10 0.701678 0.364998 0.578098
O O11 0.262102 0.595196 0.810883
O O12 0.204452 0.587273 0.071292
O O13 0.030503 0.620693 0.686588
#
# Coordination Sequence:
#
# PCOD9362065 Si02
#       6
#     8   8   8   8   8   8
#     4  12  22  38  66  98 134 184 212 262 329 397
#     4  11  24  47  71  94 127 173 223 281 345 392
#     4  11  24  45  67  97 131 174 218 284 329 403
#     4  11  24  38  63  96 135 178 221 255 329 397
#     4  12  22  41  65  94 134 173 219 266 332 383
#     4  11  23  41  68  97 132 172 224 276 322 397
#
# _framework density 18.937096
#
# number of rings (size 3 to 8) (size 9 to 14) (size 15 to 20)
#    0.000    0.667    6.667    1.500    0.000    0.667 
#    0.000    3.333    0.000    0.000    0.000    0.000 
#    0.000    0.000    0.000    0.000    0.000    0.000 
#
# Total GULP energy -134132.629207 kJ/mol
# GULP energy per Si atom -5588.859550 kJ/mol
# Density = 1.889399 g / cm^3
# Si number density = 18.937096 Si / 1000 Ang^3
#
#
#
# Elastic Constant Matrix: (Units=GPa)
#
#
# Indices 1 2 3 4 5 6 
#
# 1 92.2397 64.3815 45.5177 0.0000 0.0000 0.0000
# 2 64.3815 134.2326 34.5797 0.0000 0.0000 0.0000
# 3 45.5177 34.5797 122.8654 0.0000 0.0000 0.0000
# 4 0.0000 0.0000 0.0000 10.6440 0.0000 0.0000
# 5 0.0000 0.0000 0.0000 0.0000 28.7351 0.0000
# 6 0.0000 0.0000 0.0000 0.0000 0.0000 13.8555
#
#
#
# Elastic Compliance Matrix: (Units=1/GPa)
#
#
# Indices 1 2 3 4 5 6 
#
# 1 0.018513 -0.007669 -0.004700 0.000000 0.000000 0.000000
# 2 -0.007669 0.011209 -0.000314 0.000000 0.000000 0.000000
# 3 -0.004700 -0.000314 0.009969 0.000000 0.000000 0.000000
# 4 0.000000 0.000000 0.000000 0.093950 0.000000 0.000000
# 5 0.000000 0.000000 0.000000 0.000000 0.034801 0.000000
# 6 0.000000 0.000000 0.000000 0.000000 0.000000 0.072173
#
#
# Mechanical properties :
#
#
# Convention : Reuss Voigt Hill
#
# Bulk Modulus (GPa) = 69.80601 70.92171 70.36386
# Shear Modulus (GPa) = 18.46692 24.30418 21.38555
#
# Velocity S-wave (km/s) = 3.12616 3.58637 3.36414
# Velocity P-wave (km/s) = 7.06913 7.39472 7.23376
#
# Compressibility (1/GPa) = 0.01432542
#
# Stress axis : x y z
#
# Youngs Moduli (GPa) = 54.01508 89.21702 100.31533
#
# Poissons Ratio (x) = 0.68417 0.47151
# Poissons Ratio (y) = 0.41422 0.03146
# Poissons Ratio (z) = 0.25389 0.02798
#
# Static dielectric constant tensor:
#      x y z
#    x 1.662100 0.000000 0.000000 
#    y 0.000000 1.636110 0.000000 
#    z 0.000000 0.000000 1.655360 
# 
# From -- ./inp_files/2297.got.cif
#   From: 2010.05.17/outbox.cif.g08.bks.cpg/sg39_2_cif.got.tgz:2297.got - 2010.06.03 18:22:40.
