data_PCOD9362390
_publ_section_title
;
Structure prediction by ZEFSAII (Michael W. Deem and Ramdas Pophale) SiO2 
 PCOD9362390
Probable space group: A M A 2
;
_chemical_formula_sum "Si O2"
_cell_formula_units_Z 56
_cell_length_a 8.745331
_cell_length_b 22.913078
_cell_length_c 18.310407
_cell_angle_alpha 90.000000
_cell_angle_beta 90.000000
_cell_angle_gamma 90.000000
_cell_volume 3669.084240
_symmetry_space_group_name_H-M "A M A 2"
_symmetry_group_IT_number 40
_symmetry_cell_setting 'orthorhombic'
loop_
_space_group_symop_operation_xyz
x,y,z
-x,-y,z
1/2-x,y,z
1/2+x,-y,z
x,1/2+y,1/2+z
-x,1/2-y,1/2+z
1/2-x,1/2+y,1/2+z
1/2+x,1/2-y,1/2+z
loop_
_atom_site_type_symbol
_atom_site_label
_atom_site_fract_x
_atom_site_fract_y
_atom_site_fract_z
Si Si1 0.434244 0.435465 0.322530
Si Si2 0.433756 0.346006 0.448553
Si Si3 0.065995 0.349864 0.193096
Si Si4 0.066672 0.187315 0.092185
Si Si5 0.932185 0.313814 0.048282
Si Si6 0.933056 0.781043 0.249486
Si Si7 0.931666 0.719720 0.904269
O O1 0.500000 0.500000 0.324056
O O2 0.250000 0.438088 0.322052
O O3 0.478850 0.397145 0.393123
O O4 0.480835 0.399351 0.250364
O O5 0.250000 0.341273 0.449985
O O6 0.496834 0.354279 0.530553
O O7 0.499528 0.284603 0.418513
O O8 0.250000 0.350736 0.184281
O O9 0.028746 0.286279 0.228036
O O10 0.989498 0.354791 0.113786
O O11 0.250000 0.189480 0.084837
O O12 0.031020 0.180249 0.177853
O O13 0.998264 0.250537 0.071640
O O14 0.750000 0.312177 0.045536
O O15 0.999673 0.321745 0.967392
O O16 0.750000 0.782830 0.261731
O O17 0.018658 0.797742 0.323064
O O18 0.750000 0.722364 0.911648
#
# Coordination Sequence:
#
# PCOD9362390 Si02
#       7
#     8   8   8   8   8   8   8
#     4  10  21  34  48  65  87 117 152 192 229 261
#     4  10  18  31  45  59  84 116 147 183 226 260
#     4   9  17  32  46  58  84 116 146 183 227 261
#     4   9  17  28  42  61  84 113 145 178 217 262
#     4  10  18  27  41  61  84 112 146 179 216 262
#     4   9  16  28  43  60  88 117 144 177 218 261
#     4  11  19  26  41  64  88 116 149 179 213 261
#
# _framework density 15.262665
#
# number of rings (size 3 to 8) (size 9 to 14) (size 15 to 20)
#    0.000    2.286    1.429    6.000    0.000    4.571 
#    0.000    0.000    0.000    0.000    0.000    0.000 
#    0.000    1.143    0.000    5.714    0.000    5.571 
#
# Total GULP energy -156012.248838 kJ/mol
# GULP energy per Si atom -5571.866030 kJ/mol
# Density = 1.522793 g / cm^3
# Si number density = 15.262665 Si / 1000 Ang^3
#
#
#
# Elastic Constant Matrix: (Units=GPa)
#
#
# Indices 1 2 3 4 5 6 
#
# 1 62.3561 19.9577 59.7547 0.0000 0.0000 0.0000
# 2 19.9577 50.5055 48.2290 0.0000 0.0000 0.0000
# 3 59.7547 48.2290 170.3028 0.0000 0.0000 0.0000
# 4 0.0000 0.0000 0.0000 13.6031 0.0000 0.0000
# 5 0.0000 0.0000 0.0000 0.0000 30.7685 0.0000
# 6 0.0000 0.0000 0.0000 0.0000 0.0000 16.2316
#
#
#
# Elastic Compliance Matrix: (Units=1/GPa)
#
#
# Indices 1 2 3 4 5 6 
#
# 1 0.024307 -0.002002 -0.007962 0.000000 0.000000 0.000000
# 2 -0.002002 0.027304 -0.007030 0.000000 0.000000 0.000000
# 3 -0.007962 -0.007030 0.010656 0.000000 0.000000 0.000000
# 4 0.000000 0.000000 0.000000 0.073513 0.000000 0.000000
# 5 0.000000 0.000000 0.000000 0.000000 0.032501 0.000000
# 6 0.000000 0.000000 0.000000 0.000000 0.000000 0.061608
#
#
# Mechanical properties :
#
#
# Convention : Reuss Voigt Hill
#
# Bulk Modulus (GPa) = 35.36094 59.89413 47.62754
# Shear Modulus (GPa) = 18.29465 22.46884 20.38175
#
# Velocity S-wave (km/s) = 3.46591 3.84102 3.65828
# Velocity P-wave (km/s) = 6.26381 7.68106 7.00835
#
# Compressibility (1/GPa) = 0.02827979
#
# Stress axis : x y z
#
# Youngs Moduli (GPa) = 41.13968 36.62463 93.84153
#
# Poissons Ratio (x) = 0.07334 0.74714
# Poissons Ratio (y) = 0.08238 0.65968
# Poissons Ratio (z) = 0.32754 0.25746
#
# Static dielectric constant tensor:
#      x y z
#    x 1.509320 0.000000 0.000000 
#    y 0.000000 1.473050 0.000000 
#    z 0.000000 0.000000 1.566200 
# 
# From -- ./inp_files/19505.got.cif
#   From: 2010.05.17/outbox.cif.g08.bks.cpg/sg40_10_cif.got.tgz:19505.got - 2010.06.03 18:35:42.
