data_PCOD9362015
_publ_section_title
;
Structure prediction by ZEFSAII (Michael W. Deem and Ramdas Pophale) SiO2 
 PCOD9362015
Probable space group: A B M 2
;
_chemical_formula_sum "Si O2"
_cell_formula_units_Z 44
_cell_length_a 17.460990
_cell_length_b 7.500842
_cell_length_c 14.811859
_cell_angle_alpha 90.000000
_cell_angle_beta 90.000000
_cell_angle_gamma 90.000000
_cell_volume 1939.940680
_symmetry_space_group_name_H-M "A B M 2"
_symmetry_group_IT_number 39
_symmetry_cell_setting 'orthorhombic'
loop_
_space_group_symop_operation_xyz
x,y,z
-x,-y,z
-x,1/2+y,z
x,1/2-y,z
x,1/2+y,1/2+z
-x,1/2-y,1/2+z
-x,y,1/2+z
x,-y,1/2+z
loop_
_atom_site_type_symbol
_atom_site_label
_atom_site_fract_x
_atom_site_fract_y
_atom_site_fract_z
Si Si1 0.000000 0.500000 0.801280
Si Si2 0.706435 0.031999 0.654180
Si Si3 0.704754 0.535025 0.948337
Si Si4 0.880562 0.532993 0.157542
Si Si5 0.879770 0.966692 0.944564
Si Si6 0.587675 0.548761 0.295308
O O1 0.938030 0.561212 0.725920
O O2 0.937513 0.439415 0.876310
O O3 0.708602 0.250000 0.655468
O O4 0.692407 0.979066 0.551289
O O5 0.793087 0.981003 0.679237
O O6 0.640646 0.959260 0.719089
O O7 0.702119 0.750000 0.944744
O O8 0.791743 0.484223 0.923352
O O9 0.638955 0.464151 0.884314
O O10 0.889152 0.750000 0.169094
O O11 0.893872 0.495641 0.050957
O O12 0.888256 0.750000 0.933211
O O13 0.500000 0.500000 0.310098
O O14 0.582486 0.750000 0.263748
#
# Coordination Sequence:
#
# PCOD9362015 Si02
#       6
#     4   8   8   8   8   8
#     4  12  18  26  48  76 104 136 172 214 260 306
#     4   8  17  35  56  73  98 140 181 215 257 310
#     4   9  18  37  59  76 102 142 182 218 261 311
#     4   9  18  32  48  69  99 135 174 213 255 304
#     4   9  19  33  49  72 102 137 176 217 261 307
#     4  11  22  36  55  83 111 134 168 213 263 317
#
# _framework density 22.681104999999999
#
# number of rings (size 3 to 8) (size 9 to 14) (size 15 to 20)
#    0.000    2.545    0.000    4.909    0.000    0.727 
#    0.000    4.545    0.000    8.727    0.000    0.000 
#    0.000    0.000    0.000    0.000    0.000    0.000 
#
# Total GULP energy -122599.959980 kJ/mol
# GULP energy per Si atom -5572.725454 kJ/mol
# Density = 2.262948 g / cm^3
# Si number density = 22.681105 Si / 1000 Ang^3
#
#
#
# Elastic Constant Matrix: (Units=GPa)
#
#
# Indices 1 2 3 4 5 6 
#
# 1 221.1092 18.1951 119.4715 0.0000 0.0000 0.0000
# 2 18.1951 69.6710 7.4910 0.0000 0.0000 0.0000
# 3 119.4715 7.4910 131.5796 0.0000 0.0000 0.0000
# 4 0.0000 0.0000 0.0000 -13.2509 0.0000 0.0000
# 5 0.0000 0.0000 0.0000 0.0000 78.9631 0.0000
# 6 0.0000 0.0000 0.0000 0.0000 0.0000 -809.3249
#
#
#
# Elastic Compliance Matrix: (Units=1/GPa)
#
#
# Indices 1 2 3 4 5 6 
#
# 1 0.009029 -0.001486 -0.008113 0.000000 0.000000 0.000000
# 2 -0.001486 0.014686 0.000513 0.000000 0.000000 0.000000
# 3 -0.008113 0.000513 0.014938 0.000000 0.000000 0.000000
# 4 0.000000 0.000000 0.000000 -0.075467 0.000000 0.000000
# 5 0.000000 0.000000 0.000000 0.000000 0.012664 0.000000
# 6 0.000000 0.000000 0.000000 0.000000 0.000000 -0.001236
#
#
# Mechanical properties :
#
#
# Convention : Reuss Voigt Hill
#
# Bulk Modulus (GPa) = 48.82816 79.18612 64.00714
# Shear Modulus (GPa) = -12932.81393 -130.24240 -6531.52817
#
# Velocity S-wave (km/s) = -75.59365 -7.58604 -53.72126
# Velocity P-wave (km/s) = 87.16436 6.46081 61.80359
#
# Compressibility (1/GPa) = 0.02047999
#
# Stress axis : x y z
#
# Youngs Moduli (GPa) = 110.75687 68.09204 66.94540
#
# Poissons Ratio (x) = 0.10116 0.54315
# Poissons Ratio (y) = 0.16454 -0.03433
# Poissons Ratio (z) = 0.89861 -0.03492
#
# Static dielectric constant tensor:
#      x y z
#    x 1.842470 0.000000 0.000000 
#    y 0.000000 1.890790 0.000000 
#    z 0.000000 0.000000 1.807640 
# 
# From -- ./inp_files/6763.got.cif
#   From: 2010.05.17/outbox.cif.g08.bks.cpg/sg39_4_cif.got.tgz:6763.got - 2010.06.03 18:22:40.
