data_PCOD9362582
_publ_section_title
;
Structure prediction by ZEFSAII (Michael W. Deem and Ramdas Pophale) SiO2 
 PCOD9362582
Probable space group: A M A 2
;
_chemical_formula_sum "Si O2"
_cell_formula_units_Z 56
_cell_length_a 8.596565
_cell_length_b 19.517234
_cell_length_c 18.683874
_cell_angle_alpha 90.000000
_cell_angle_beta 90.000000
_cell_angle_gamma 90.000000
_cell_volume 3134.802253
_symmetry_space_group_name_H-M "A M A 2"
_symmetry_group_IT_number 40
_symmetry_cell_setting 'orthorhombic'
loop_
_space_group_symop_operation_xyz
x,y,z
-x,-y,z
1/2-x,y,z
1/2+x,-y,z
x,1/2+y,1/2+z
-x,1/2-y,1/2+z
1/2-x,1/2+y,1/2+z
1/2+x,1/2-y,1/2+z
loop_
_atom_site_type_symbol
_atom_site_label
_atom_site_fract_x
_atom_site_fract_y
_atom_site_fract_z
Si Si1 0.429786 0.842642 0.190190
Si Si2 0.937094 0.696883 0.846369
Si Si3 0.935563 0.928314 0.436075
Si Si4 0.928705 0.793634 0.596465
Si Si5 0.937727 0.292834 0.467460
Si Si6 0.935972 0.423737 0.558413
Si Si7 0.934157 0.068925 0.597234
O O1 0.250000 0.866054 0.197834
O O2 0.497591 0.824990 0.268179
O O3 0.429085 0.770122 0.149719
O O4 0.514188 0.895110 0.136632
O O5 0.750000 0.702501 0.839495
O O6 0.989702 0.765522 0.889230
O O7 0.983000 0.634248 0.897036
O O8 0.750000 0.925029 0.430072
O O9 0.985976 0.927293 0.519047
O O10 0.000000 0.000000 0.406011
O O11 0.750000 0.812643 0.581070
O O12 0.007819 0.764176 0.524825
O O13 0.017055 0.858455 0.629518
O O14 0.750000 0.293913 0.467402
O O15 0.990533 0.366256 0.499893
O O16 0.750000 0.425930 0.555301
O O17 0.000000 0.500000 0.546373
O O18 0.750000 0.063455 0.589350
O O19 0.000000 0.000000 0.632861
#
# Coordination Sequence:
#
# PCOD9362582 Si02
#       7
#     8   8   8   8   8   8   8
#     4   9  20  35  53  76 104 138 172 211 258 315
#     4  10  19  34  53  75 104 138 174 211 258 311
#     4  11  21  32  47  71 101 134 167 203 245 293
#     4  10  18  31  50  74 101 130 168 210 254 303
#     4   9  18  32  53  76  99 132 174 217 262 308
#     4  10  20  35  55  79 105 137 177 222 268 316
#     4  11  20  31  48  71  98 129 164 204 248 296
#
# _framework density 17.863966000000001
#
# number of rings (size 3 to 8) (size 9 to 14) (size 15 to 20)
#    0.000    2.000    1.429    4.286    0.000    2.286 
#    0.000    0.000    0.000    0.857    0.000    2.000 
#    0.000    0.000    0.000    0.000    0.000    0.000 
#
# Total GULP energy -156017.897605 kJ/mol
# GULP energy per Si atom -5572.067772 kJ/mol
# Density = 1.782331 g / cm^3
# Si number density = 17.863966 Si / 1000 Ang^3
#
#
#
# Elastic Constant Matrix: (Units=GPa)
#
#
# Indices 1 2 3 4 5 6 
#
# 1 14.1634 14.5551 -2.4382 0.0000 0.0000 0.0000
# 2 14.5551 121.6922 20.4838 0.0000 0.0000 0.0000
# 3 -2.4382 20.4838 49.3838 0.0000 0.0000 0.0000
# 4 0.0000 0.0000 0.0000 0.9826 0.0000 0.0000
# 5 0.0000 0.0000 0.0000 0.0000 13.6096 0.0000
# 6 0.0000 0.0000 0.0000 0.0000 0.0000 24.4207
#
#
#
# Elastic Compliance Matrix: (Units=1/GPa)
#
#
# Indices 1 2 3 4 5 6 
#
# 1 0.084017 -0.011554 0.008940 0.000000 0.000000 0.000000
# 2 -0.011554 0.010423 -0.004894 0.000000 0.000000 0.000000
# 3 0.008940 -0.004894 0.022721 0.000000 0.000000 0.000000
# 4 0.000000 0.000000 0.000000 1.017683 0.000000 0.000000
# 5 0.000000 0.000000 0.000000 0.000000 0.073477 0.000000
# 6 0.000000 0.000000 0.000000 0.000000 0.000000 0.040949
#
#
# Mechanical properties :
#
#
# Convention : Reuss Voigt Hill
#
# Bulk Modulus (GPa) = 9.78984 27.82677 18.80831
# Shear Modulus (GPa) = 3.85109 17.97849 10.91479
#
# Velocity S-wave (km/s) = 1.46985 3.17584 2.47451
# Velocity P-wave (km/s) = 2.89357 5.39062 4.32617
#
# Compressibility (1/GPa) = 0.10214667
#
# Stress axis : x y z
#
# Youngs Moduli (GPa) = 11.90233 95.94061 44.01246
#
# Poissons Ratio (x) = 1.10848 -0.39349
# Poissons Ratio (y) = 0.13752 0.21539
# Poissons Ratio (z) = -0.10641 0.46952
#
# Static dielectric constant tensor:
#      x y z
#    x 1.612420 0.000000 0.000000 
#    y 0.000000 1.661860 0.000000 
#    z 0.000000 0.000000 1.628880 
# 
# From -- ./inp_files/19506.got.cif
#   From: 2010.05.17/outbox.cif.g08.bks.cpg/sg40_10_cif.got.tgz:19506.got - 2010.06.03 18:35:42.
