data_PCOD9362085
_publ_section_title
;
Structure prediction by ZEFSAII (Michael W. Deem and Ramdas Pophale) SiO2 
 PCOD9362085
Probable space group: A B M 2
;
_chemical_formula_sum "Si O2"
_cell_formula_units_Z 48
_cell_length_a 5.187680
_cell_length_b 24.177856
_cell_length_c 17.005372
_cell_angle_alpha 90.000000
_cell_angle_beta 90.000000
_cell_angle_gamma 90.000000
_cell_volume 2132.932454
_symmetry_space_group_name_H-M "A B M 2"
_symmetry_group_IT_number 39
_symmetry_cell_setting 'orthorhombic'
loop_
_space_group_symop_operation_xyz
x,y,z
-x,-y,z
-x,1/2+y,z
x,1/2-y,z
x,1/2+y,1/2+z
-x,1/2-y,1/2+z
-x,y,1/2+z
x,-y,1/2+z
loop_
_atom_site_type_symbol
_atom_site_label
_atom_site_fract_x
_atom_site_fract_y
_atom_site_fract_z
Si Si1 0.430294 0.617529 0.360840
Si Si2 0.777859 0.250000 0.710128
Si Si3 0.642130 0.944246 0.128066
Si Si4 0.109494 0.051950 0.968420
Si Si5 0.905979 0.372141 0.761005
Si Si6 0.329308 0.638334 0.012397
Si Si7 0.729280 0.750000 0.602225
O O1 0.345873 0.567816 0.415206
O O2 0.694199 0.603401 0.319169
O O3 0.499335 0.656979 0.435716
O O4 0.194941 0.628549 0.298863
O O5 0.802103 0.308741 0.754091
O O6 0.528419 0.250000 0.654829
O O7 0.032112 0.250000 0.659182
O O8 0.841435 0.909189 0.183306
O O9 0.462246 0.898352 0.082673
O O10 0.500000 0.000000 0.162471
O O11 0.790735 0.967123 0.052740
O O12 0.000000 0.000000 0.925004
O O13 0.913217 0.102397 0.982057
O O14 0.250205 0.694955 0.051995
#
# Coordination Sequence:
#
# PCOD9362085 Si02
#       7
#     8   4   8   8   8   8   4
#     4  11  27  46  69 104 146 191 234 293 359 433
#     4  12  26  46  73 105 144 189 226 306 361 418
#     4  11  24  41  74 106 142 189 244 299 351 424
#     4  11  23  45  76 103 144 188 243 299 358 420
#     4  12  26  47  70 105 148 187 239 289 369 432
#     4  11  24  48  71 109 140 188 250 295 356 420
#     4  12  26  44  79 105 142 183 246 300 343 424
#
# _framework density 22.504227
#
# number of rings (size 3 to 8) (size 9 to 14) (size 15 to 20)
#    0.000    0.667    5.000    2.000    4.667    2.667 
#    0.000    0.833    0.000    0.000    0.000    0.000 
#    0.000    0.000    0.000    0.000    0.000    0.000 
#
# Total GULP energy -133645.059762 kJ/mol
# GULP energy per Si atom -5568.544157 kJ/mol
# Density = 2.245301 g / cm^3
# Si number density = 22.504227 Si / 1000 Ang^3
#
#
#
# Elastic Constant Matrix: (Units=GPa)
#
#
# Indices 1 2 3 4 5 6 
#
# 1 92.9481 -4.4608 11.1698 0.0000 0.0000 0.0000
# 2 -4.4608 73.7065 -7.0688 0.0000 0.0000 0.0000
# 3 11.1698 -7.0688 67.7572 0.0000 0.0000 0.0000
# 4 0.0000 0.0000 0.0000 -401.0942 0.0000 0.0000
# 5 0.0000 0.0000 0.0000 0.0000 46.7980 0.0000
# 6 0.0000 0.0000 0.0000 0.0000 0.0000 37.6328
#
#
#
# Elastic Compliance Matrix: (Units=1/GPa)
#
#
# Indices 1 2 3 4 5 6 
#
# 1 0.010994 0.000497 -0.001761 0.000000 0.000000 0.000000
# 2 0.000497 0.013727 0.001350 0.000000 0.000000 0.000000
# 3 -0.001761 0.001350 0.015190 0.000000 0.000000 0.000000
# 4 0.000000 0.000000 0.000000 -0.002493 0.000000 0.000000
# 5 0.000000 0.000000 0.000000 0.000000 0.021368 0.000000
# 6 0.000000 0.000000 0.000000 0.000000 0.000000 0.026573
#
#
# Mechanical properties :
#
#
# Convention : Reuss Voigt Hill
#
# Bulk Modulus (GPa) = 24.94827 25.96580 25.45704
# Shear Modulus (GPa) = 50.73715 -47.68124 1.52796
#
# Velocity S-wave (km/s) = 4.75337 -4.60800 0.82489
# Velocity P-wave (km/s) = 6.42154 4.09247 3.49913
#
# Compressibility (1/GPa) = 0.04008294
#
# Stress axis : x y z
#
# Youngs Moduli (GPa) = 90.95797 72.84982 65.83423
#
# Poissons Ratio (x) = -0.03617 0.11591
# Poissons Ratio (y) = -0.04516 -0.08889
# Poissons Ratio (z) = 0.16014 -0.09836
#
# Static dielectric constant tensor:
#      x y z
#    x -0.158440 0.000000 0.000000 
#    y 0.000000 1.870310 0.000000 
#    z 0.000000 0.000000 1.902310 
# 
# From -- ./inp_files/11073.got.cif
#   From: 2010.05.17/outbox.cif.g08.bks.cpg/sg39_6_cif.got.tgz:11073.got - 2010.06.03 18:22:40.
