data_PCOD9362541
_publ_section_title
;
Structure prediction by ZEFSAII (Michael W. Deem and Ramdas Pophale) SiO2 
 PCOD9362541
Probable space group: A M A 2
;
_chemical_formula_sum "Si O2"
_cell_formula_units_Z 52
_cell_length_a 9.415317
_cell_length_b 15.623905
_cell_length_c 20.713445
_cell_angle_alpha 90.000000
_cell_angle_beta 90.000000
_cell_angle_gamma 90.000000
_cell_volume 3047.030993
_symmetry_space_group_name_H-M "A M A 2"
_symmetry_group_IT_number 40
_symmetry_cell_setting 'orthorhombic'
loop_
_space_group_symop_operation_xyz
x,y,z
-x,-y,z
1/2-x,y,z
1/2+x,-y,z
x,1/2+y,1/2+z
-x,1/2-y,1/2+z
1/2-x,1/2+y,1/2+z
1/2+x,1/2-y,1/2+z
loop_
_atom_site_type_symbol
_atom_site_label
_atom_site_fract_x
_atom_site_fract_y
_atom_site_fract_z
Si Si1 0.402424 0.843740 0.838480
Si Si2 0.082157 0.912251 0.387006
Si Si3 0.913843 0.278285 0.964057
Si Si4 0.914749 0.369412 0.530871
Si Si5 0.914258 0.217789 0.265755
Si Si6 0.577368 0.584355 0.659750
Si Si7 0.000000 0.500000 0.421182
O O1 0.250000 0.841277 0.806141
O O2 0.403638 0.777601 0.898413
O O3 0.512735 0.805127 0.788113
O O4 0.422444 0.934788 0.872880
O O5 0.250000 0.925104 0.400734
O O6 0.073834 0.850671 0.324375
O O7 0.998593 0.863288 0.444217
O O8 0.000000 0.000000 0.374011
O O9 0.750000 0.291504 0.986167
O O10 0.010464 0.218895 0.009525
O O11 0.750000 0.359222 0.549758
O O12 0.012159 0.404191 0.588670
O O13 0.919114 0.436001 0.470475
O O14 0.750000 0.236468 0.256032
O O15 0.963715 0.166745 0.202536
O O16 0.500000 0.500000 0.687460
O O17 0.750000 0.575243 0.659003
#
# Coordination Sequence:
#
# PCOD9362541 Si02
#       7
#     8   8   8   8   8   8   4
#     4   9  18  31  50  74 100 134 171 212 258 308
#     4  10  18  30  49  73 100 132 171 212 258 305
#     4   9  18  32  48  70 101 132 166 209 259 309
#     4  11  21  33  51  75 106 139 172 211 261 316
#     4   9  20  35  49  70 102 139 175 214 257 306
#     4  11  22  35  51  74 104 139 178 213 256 308
#     4  10  20  32  52  80 112 136 174 214 266 314
#
# _framework density 17.065791999999998
#
# number of rings (size 3 to 8) (size 9 to 14) (size 15 to 20)
#    0.000    2.154    0.769    2.769    0.000    7.385 
#    0.000    0.000    0.000    0.000    2.000    0.000 
#    0.000    0.000    0.000    0.000    0.000    0.000 
#
# Total GULP energy -144743.631407 kJ/mol
# GULP energy per Si atom -5567.062746 kJ/mol
# Density = 1.702695 g / cm^3
# Si number density = 17.065792 Si / 1000 Ang^3
#
#
#
# Elastic Constant Matrix: (Units=GPa)
#
#
# Indices 1 2 3 4 5 6 
#
# 1 97.3514 31.9319 20.7589 0.0000 0.0000 0.0000
# 2 31.9319 48.1880 20.7024 0.0000 0.0000 0.0000
# 3 20.7589 20.7024 46.1368 0.0000 0.0000 0.0000
# 4 0.0000 0.0000 0.0000 28.6803 0.0000 0.0000
# 5 0.0000 0.0000 0.0000 0.0000 6.3476 0.0000
# 6 0.0000 0.0000 0.0000 0.0000 0.0000 12.4773
#
#
#
# Elastic Compliance Matrix: (Units=1/GPa)
#
#
# Indices 1 2 3 4 5 6 
#
# 1 0.013358 -0.007767 -0.002525 0.000000 0.000000 0.000000
# 2 -0.007767 0.030224 -0.010067 0.000000 0.000000 0.000000
# 3 -0.002525 -0.010067 0.027328 0.000000 0.000000 0.000000
# 4 0.000000 0.000000 0.000000 0.034867 0.000000 0.000000
# 5 0.000000 0.000000 0.000000 0.000000 0.157539 0.000000
# 6 0.000000 0.000000 0.000000 0.000000 0.000000 0.080146
#
#
# Mechanical properties :
#
#
# Convention : Reuss Voigt Hill
#
# Bulk Modulus (GPa) = 33.12208 37.60697 35.36452
# Shear Modulus (GPa) = 12.68246 17.38656 15.03451
#
# Velocity S-wave (km/s) = 2.72904 3.19532 2.97134
# Velocity P-wave (km/s) = 5.42040 5.97476 5.70432
#
# Compressibility (1/GPa) = 0.03019134
#
# Stress axis : x y z
#
# Youngs Moduli (GPa) = 74.86068 33.08631 36.59211
#
# Poissons Ratio (x) = 0.25698 0.09240
# Poissons Ratio (y) = 0.58144 0.36839
# Poissons Ratio (z) = 0.18904 0.33309
#
# Static dielectric constant tensor:
#      x y z
#    x 1.592280 0.000000 0.000000 
#    y 0.000000 1.595860 0.000000 
#    z 0.000000 0.000000 1.568060 
# 
# From -- ./inp_files/22043.got.cif
#   From: 2010.05.17/outbox.cif.g08.bks.cpg/sg40_12_cif.got.tgz:22043.got - 2010.06.03 18:35:42.
