data_PCOD9362633
_publ_section_title
;
Structure prediction by ZEFSAII (Michael W. Deem and Ramdas Pophale) SiO2 
 PCOD9362633
Probable space group: A M A 2
;
_chemical_formula_sum "Si O2"
_cell_formula_units_Z 64
_cell_length_a 8.795883
_cell_length_b 14.597063
_cell_length_c 25.051189
_cell_angle_alpha 90.000000
_cell_angle_beta 90.000000
_cell_angle_gamma 90.000000
_cell_volume 3216.423821
_symmetry_space_group_name_H-M "A M A 2"
_symmetry_group_IT_number 40
_symmetry_cell_setting 'orthorhombic'
loop_
_space_group_symop_operation_xyz
x,y,z
-x,-y,z
1/2-x,y,z
1/2+x,-y,z
x,1/2+y,1/2+z
-x,1/2-y,1/2+z
1/2-x,1/2+y,1/2+z
1/2+x,1/2-y,1/2+z
loop_
_atom_site_type_symbol
_atom_site_label
_atom_site_fract_x
_atom_site_fract_y
_atom_site_fract_z
Si Si1 0.566516 0.798241 0.788550
Si Si2 0.577654 0.340998 0.173615
Si Si3 0.422080 0.580181 0.564937
Si Si4 0.419462 0.377758 0.673315
Si Si5 0.567374 0.398774 0.398518
Si Si6 0.075913 0.246735 0.985773
Si Si7 0.932741 0.901363 0.556670
Si Si8 0.428267 0.096365 0.282534
O O1 0.750000 0.787324 0.782383
O O2 0.507865 0.845885 0.733371
O O3 0.537273 0.862975 0.838713
O O4 0.501581 0.695248 0.798141
O O5 0.750000 0.379265 0.176849
O O6 0.586240 0.231536 0.168119
O O7 0.510880 0.376472 0.117464
O O8 0.500000 0.500000 0.530866
O O9 0.250000 0.556676 0.578797
O O10 0.526501 0.589885 0.616308
O O11 0.419068 0.674066 0.533789
O O12 0.750000 0.590380 0.688281
O O13 0.537685 0.403436 0.718991
O O14 0.500000 0.500000 0.406323
O O15 0.750000 0.404687 0.407171
O O16 0.513619 0.315793 0.437355
O O17 0.250000 0.274941 0.972666
O O18 0.985241 0.330906 0.010871
O O19 0.750000 0.901007 0.558600
O O20 0.000000 0.000000 0.543912
O O21 0.250000 0.097383 0.293822
O O22 0.500000 0.000000 0.303196
#
# Coordination Sequence:
#
# PCOD9362633 Si02
#       8
#     8   8   8   8   8   8   8   8
#     4   9  19  38  61  87 120 159 200 249 298 353
#     4   8  16  32  55  81 113 152 193 234 289 347
#     4  11  21  31  48  76 111 148 192 238 288 344
#     4  10  18  32  51  75 111 152 194 236 285 347
#     4  10  22  41  66  92 122 157 199 249 304 357
#     4  10  22  40  59  84 117 154 197 248 296 350
#     4  11  22  38  60  88 119 157 197 243 298 360
#     4  11  21  34  53  81 116 156 199 242 294 352
#
# _framework density 19.897874999999999
#
# number of rings (size 3 to 8) (size 9 to 14) (size 15 to 20)
#    0.000    2.000    1.250    3.750    0.000    2.000 
#    0.000    1.250    0.000    0.000    0.000    0.000 
#    0.000    0.000    0.000    0.000    0.000    0.000 
#
# Total GULP energy -178299.143147 kJ/mol
# GULP energy per Si atom -5571.848223 kJ/mol
# Density = 1.985259 g / cm^3
# Si number density = 19.897875 Si / 1000 Ang^3
#
#
#
# Elastic Constant Matrix: (Units=GPa)
#
#
# Indices 1 2 3 4 5 6 
#
# 1 56.2380 36.7450 26.0886 0.0000 0.0000 0.0000
# 2 36.7450 119.3896 58.0648 0.0000 0.0000 0.0000
# 3 26.0886 58.0648 103.8224 0.0000 0.0000 0.0000
# 4 0.0000 0.0000 0.0000 7.8035 0.0000 0.0000
# 5 0.0000 0.0000 0.0000 0.0000 10.0906 0.0000
# 6 0.0000 0.0000 0.0000 0.0000 0.0000 29.0026
#
#
#
# Elastic Compliance Matrix: (Units=1/GPa)
#
#
# Indices 1 2 3 4 5 6 
#
# 1 0.022709 -0.005788 -0.002469 0.000000 0.000000 0.000000
# 2 -0.005788 0.012981 -0.005805 0.000000 0.000000 0.000000
# 3 -0.002469 -0.005805 0.013499 0.000000 0.000000 0.000000
# 4 0.000000 0.000000 0.000000 0.128148 0.000000 0.000000
# 5 0.000000 0.000000 0.000000 0.000000 0.099102 0.000000
# 6 0.000000 0.000000 0.000000 0.000000 0.000000 0.034480
#
#
# Mechanical properties :
#
#
# Convention : Reuss Voigt Hill
#
# Bulk Modulus (GPa) = 47.47589 57.91634 52.69611
# Shear Modulus (GPa) = 14.44814 19.94944 17.19879
#
# Velocity S-wave (km/s) = 2.69758 3.16981 2.94318
# Velocity P-wave (km/s) = 5.79777 6.52433 6.17175
#
# Compressibility (1/GPa) = 0.02106332
#
# Stress axis : x y z
#
# Youngs Moduli (GPa) = 44.03532 77.03654 74.07968
#
# Poissons Ratio (x) = 0.44592 0.18291
# Poissons Ratio (y) = 0.25490 0.43005
# Poissons Ratio (z) = 0.10873 0.44722
#
# Static dielectric constant tensor:
#      x y z
#    x 1.723790 0.000000 0.000000 
#    y 0.000000 1.729780 0.000000 
#    z 0.000000 0.000000 1.742860 
# 
# From -- ./inp_files/24312.got.cif
#   From: 2010.05.17/outbox.cif.g08.bks.cpg/sg40_13_cif.got.tgz:24312.got - 2010.06.03 18:35:42.
