data_PCOD9362350
_publ_section_title
;
Structure prediction by ZEFSAII (Michael W. Deem and Ramdas Pophale) SiO2 
 PCOD9362350
Probable space group: A M A 2
;
_chemical_formula_sum "Si O2"
_cell_formula_units_Z 52
_cell_length_a 27.009331
_cell_length_b 11.304570
_cell_length_c 6.791363
_cell_angle_alpha 90.000000
_cell_angle_beta 90.000000
_cell_angle_gamma 90.000000
_cell_volume 2073.599211
_symmetry_space_group_name_H-M "A M A 2"
_symmetry_group_IT_number 40
_symmetry_cell_setting 'orthorhombic'
loop_
_space_group_symop_operation_xyz
x,y,z
-x,-y,z
1/2-x,y,z
1/2+x,-y,z
x,1/2+y,1/2+z
-x,1/2-y,1/2+z
1/2-x,1/2+y,1/2+z
1/2+x,1/2-y,1/2+z
loop_
_atom_site_type_symbol
_atom_site_label
_atom_site_fract_x
_atom_site_fract_y
_atom_site_fract_z
Si Si1 0.924224 0.201585 0.602190
Si Si2 0.750000 0.338946 0.159745
Si Si3 0.581695 0.919671 0.535761
Si Si4 0.250000 0.423994 0.039559
Si Si5 0.503711 0.864709 0.844727
Si Si6 0.647214 0.745864 0.786244
Si Si7 0.250000 0.657917 0.683670
Si Si8 0.339335 0.506359 0.751889
O O1 0.960396 0.286643 0.477027
O O2 0.871464 0.235636 0.510459
O O3 0.950157 0.197651 0.816398
O O4 0.924143 0.061030 0.556748
O O5 0.750000 0.477492 0.209579
O O6 0.703116 0.274927 0.244098
O O7 0.750000 0.329844 0.922790
O O8 0.529418 0.875643 0.627508
O O9 0.618318 0.853651 0.685512
O O10 0.614419 0.916107 0.333431
O O11 0.250000 0.291369 0.111499
O O12 0.300820 0.456582 0.921057
O O13 0.500000 0.000000 0.920551
O O14 0.637971 0.618212 0.678824
O O15 0.299486 0.582941 0.631598
#
# Coordination Sequence:
#
# PCOD9362350 Si02
#       8
#     8   4   8   4   8   8   4   8
#     4   9  19  33  61  87 114 154 198 245 301 356
#     4  10  18  34  58  82 114 160 194 237 292 347
#     4   9  16  33  59  82 108 151 193 237 300 354
#     4  10  19  33  53  76 111 150 192 237 298 343
#     4   9  18  35  57  83 112 150 193 246 299 357
#     4  10  17  33  62  85 113 157 200 237 296 355
#     4  10  19  33  53  80 117 156 198 242 284 354
#     4   9  18  34  55  77 108 150 189 242 292 346
#
# _framework density 25.077172000000001
#
# number of rings (size 3 to 8) (size 9 to 14) (size 15 to 20)
#    0.000    2.769    3.077    0.923    0.000    0.000 
#    0.000   10.000    0.000   14.769    0.000    0.000 
#    0.000    0.000    0.000    0.000    0.000    0.000 
#
# Total GULP energy -144792.483646 kJ/mol
# GULP energy per Si atom -5568.941679 kJ/mol
# Density = 2.502010 g / cm^3
# Si number density = 25.077172 Si / 1000 Ang^3
#
#
#
# Elastic Constant Matrix: (Units=GPa)
#
#
# Indices 1 2 3 4 5 6 
#
# 1 119.1108 31.3708 1.6365 0.0000 0.0000 0.0000
# 2 31.3708 151.6049 32.4896 0.0000 0.0000 0.0000
# 3 1.6365 32.4896 48.7661 0.0000 0.0000 0.0000
# 4 0.0000 0.0000 0.0000 32.0949 0.0000 0.0000
# 5 0.0000 0.0000 0.0000 0.0000 34.5876 0.0000
# 6 0.0000 0.0000 0.0000 0.0000 0.0000 55.4126
#
#
#
# Elastic Compliance Matrix: (Units=1/GPa)
#
#
# Indices 1 2 3 4 5 6 
#
# 1 0.008929 -0.002080 0.001086 0.000000 0.000000 0.000000
# 2 -0.002080 0.008179 -0.005380 0.000000 0.000000 0.000000
# 3 0.001086 -0.005380 0.024054 0.000000 0.000000 0.000000
# 4 0.000000 0.000000 0.000000 0.031158 0.000000 0.000000
# 5 0.000000 0.000000 0.000000 0.000000 0.028912 0.000000
# 6 0.000000 0.000000 0.000000 0.000000 0.000000 0.018046
#
#
# Mechanical properties :
#
#
# Convention : Reuss Voigt Hill
#
# Bulk Modulus (GPa) = 35.19336 50.05286 42.62311
# Shear Modulus (GPa) = 35.33658 41.35135 38.34397
#
# Velocity S-wave (km/s) = 3.75789 4.06515 3.91453
# Velocity P-wave (km/s) = 5.73528 6.48358 6.12088
#
# Compressibility (1/GPa) = 0.02841445
#
# Stress axis : x y z
#
# Youngs Moduli (GPa) = 112.00058 122.25773 41.57372
#
# Poissons Ratio (x) = 0.25434 -0.04516
# Poissons Ratio (y) = 0.23300 0.22365
# Poissons Ratio (z) = -0.12167 0.65770
#
# Static dielectric constant tensor:
#      x y z
#    x 2.038790 0.000000 0.000000 
#    y 0.000000 2.028790 0.000000 
#    z 0.000000 0.000000 2.038890 
# 
# From -- ./inp_files/9379.got.cif
#   From: 2010.05.17/outbox.cif.g08.bks.cpg/sg40_5_cif.got.tgz:9379.got - 2010.06.03 18:35:42.
