data_PCOD9362992
_publ_section_title
;
Structure prediction by ZEFSAII (Michael W. Deem and Ramdas Pophale) SiO2 
 PCOD9362992
Probable space group: A M A 2
;
_chemical_formula_sum "Si O2"
_cell_formula_units_Z 64
_cell_length_a 8.991805
_cell_length_b 20.921376
_cell_length_c 20.031896
_cell_angle_alpha 90.000000
_cell_angle_beta 90.000000
_cell_angle_gamma 90.000000
_cell_volume 3768.418972
_symmetry_space_group_name_H-M "A M A 2"
_symmetry_group_IT_number 40
_symmetry_cell_setting 'orthorhombic'
loop_
_space_group_symop_operation_xyz
x,y,z
-x,-y,z
1/2-x,y,z
1/2+x,-y,z
x,1/2+y,1/2+z
-x,1/2-y,1/2+z
1/2-x,1/2+y,1/2+z
1/2+x,1/2-y,1/2+z
loop_
_atom_site_type_symbol
_atom_site_label
_atom_site_fract_x
_atom_site_fract_y
_atom_site_fract_z
Si Si1 0.428566 0.314760 0.856100
Si Si2 0.928223 0.317160 0.278566
Si Si3 0.072273 0.066251 0.281435
Si Si4 0.573837 0.233933 0.500262
Si Si5 0.072632 0.238826 0.638012
Si Si6 0.426868 0.433472 0.357481
Si Si7 0.073605 0.613074 0.491196
Si Si8 0.428807 0.121548 0.140003
O O1 0.250000 0.324078 0.851591
O O2 0.462568 0.249185 0.816704
O O3 0.510914 0.374129 0.823227
O O4 0.468403 0.303425 0.933399
O O5 0.750000 0.327544 0.285117
O O6 0.965582 0.305522 0.201009
O O7 0.013068 0.375274 0.312661
O O8 0.250000 0.063203 0.286282
O O9 0.031775 0.079363 0.203759
O O10 0.000000 0.000000 0.303481
O O11 0.750000 0.225637 0.511794
O O12 0.486607 0.215296 0.566756
O O13 0.551849 0.309965 0.487594
O O14 0.250000 0.245605 0.636617
O O15 0.001824 0.308894 0.648409
O O16 0.500000 0.500000 0.335594
O O17 0.250000 0.437238 0.354913
O O18 0.481193 0.419583 0.433085
O O19 0.250000 0.600629 0.481129
O O20 0.030228 0.594846 0.566928
O O21 0.250000 0.130268 0.138774
#
# Coordination Sequence:
#
# PCOD9362992 Si02
#       8
#     8   8   8   8   8   8   8   8
#     4  10  19  36  59  81 109 147 183 222 275 324
#     4  10  20  37  58  81 111 145 181 223 274 325
#     4  11  23  37  54  79 111 147 187 231 274 324
#     4   9  18  33  55  80 111 146 177 219 271 323
#     4  10  19  31  54  84 112 141 176 224 272 319
#     4  12  25  38  55  79 109 146 186 229 274 325
#     4   9  17  34  54  76 110 147 182 220 267 320
#     4   9  19  34  52  76 109 147 184 222 266 319
#
# _framework density 16.983249000000001
#
# number of rings (size 3 to 8) (size 9 to 14) (size 15 to 20)
#    0.000    2.000    2.500    2.625    0.000    5.000 
#    0.000    1.250    0.000    0.750    0.000    5.250 
#    0.000    0.000    0.000    0.000    0.000    0.000 
#
# Total GULP energy -178642.923308 kJ/mol
# GULP energy per Si atom -5582.591353 kJ/mol
# Density = 1.694459 g / cm^3
# Si number density = 16.983249 Si / 1000 Ang^3
#
#
#
# Elastic Constant Matrix: (Units=GPa)
#
#
# Indices 1 2 3 4 5 6 
#
# 1 52.2384 50.2664 45.6365 0.0000 0.0000 0.0000
# 2 50.2664 102.4564 55.9725 0.0000 0.0000 0.0000
# 3 45.6365 55.9725 107.3643 0.0000 0.0000 0.0000
# 4 0.0000 0.0000 0.0000 15.4024 0.0000 0.0000
# 5 0.0000 0.0000 0.0000 0.0000 29.3283 0.0000
# 6 0.0000 0.0000 0.0000 0.0000 0.0000 22.9452
#
#
#
# Elastic Compliance Matrix: (Units=1/GPa)
#
#
# Indices 1 2 3 4 5 6 
#
# 1 0.042965 -0.015523 -0.010170 0.000000 0.000000 0.000000
# 2 -0.015523 0.019256 -0.003440 0.000000 0.000000 0.000000
# 3 -0.010170 -0.003440 0.015430 0.000000 0.000000 0.000000
# 4 0.000000 0.000000 0.000000 0.064925 0.000000 0.000000
# 5 0.000000 0.000000 0.000000 0.000000 0.034097 0.000000
# 6 0.000000 0.000000 0.000000 0.000000 0.000000 0.043582
#
#
# Mechanical properties :
#
#
# Convention : Reuss Voigt Hill
#
# Bulk Modulus (GPa) = 51.58876 62.86778 57.22827
# Shear Modulus (GPa) = 17.54489 20.88075 19.21282
#
# Velocity S-wave (km/s) = 3.21763 3.51021 3.36710
# Velocity P-wave (km/s) = 6.65180 7.31619 6.99189
#
# Compressibility (1/GPa) = 0.01938407
#
# Stress axis : x y z
#
# Youngs Moduli (GPa) = 23.27479 51.93305 64.80685
#
# Poissons Ratio (x) = 0.80617 0.65909
# Poissons Ratio (y) = 0.36130 0.22295
# Poissons Ratio (z) = 0.23670 0.17866
#
# Static dielectric constant tensor:
#      x y z
#    x 1.564740 0.000000 0.000000 
#    y 0.000000 1.547950 0.000000 
#    z 0.000000 0.000000 1.589980 
# 
# From -- ./inp_files/22408.got.cif
#   From: 2010.05.17/outbox.cif.g08.bks.cpg/sg40_12_cif.got.tgz:22408.got - 2010.06.03 18:35:42.
