data_PCOD9362345
_publ_section_title
;
Structure prediction by ZEFSAII (Michael W. Deem and Ramdas Pophale) SiO2 
 PCOD9362345
Probable space group: A M A 2
;
_chemical_formula_sum "Si O2"
_cell_formula_units_Z 48
_cell_length_a 16.671392
_cell_length_b 15.412472
_cell_length_c 7.908944
_cell_angle_alpha 90.000000
_cell_angle_beta 90.000000
_cell_angle_gamma 90.000000
_cell_volume 2032.182300
_symmetry_space_group_name_H-M "A M A 2"
_symmetry_group_IT_number 40
_symmetry_cell_setting 'orthorhombic'
loop_
_space_group_symop_operation_xyz
x,y,z
-x,-y,z
1/2-x,y,z
1/2+x,-y,z
x,1/2+y,1/2+z
-x,1/2-y,1/2+z
1/2-x,1/2+y,1/2+z
1/2+x,1/2-y,1/2+z
loop_
_atom_site_type_symbol
_atom_site_label
_atom_site_fract_x
_atom_site_fract_y
_atom_site_fract_z
Si Si1 0.906840 0.747965 0.045850
Si Si2 0.096305 0.012833 0.943460
Si Si3 0.930019 0.162790 0.074701
Si Si4 0.657190 0.878182 0.271372
Si Si5 0.841026 0.326985 0.228392
Si Si6 0.001161 0.597973 0.939582
O O1 0.866083 0.781615 0.213538
O O2 0.985879 0.805042 0.993430
O O3 0.843190 0.770678 0.903756
O O4 0.946564 0.654799 0.061372
O O5 0.128179 0.060277 0.115413
O O6 0.118417 0.910639 0.972019
O O7 0.124966 0.078274 0.793857
O O8 0.000000 0.000000 0.940600
O O9 0.884530 0.251696 0.118008
O O10 0.961560 0.120618 0.254909
O O11 0.750000 0.891689 0.299571
O O12 0.596753 0.891171 0.424124
O O13 0.750000 0.340156 0.171615
O O14 0.000000 0.500000 0.987248
#
# Coordination Sequence:
#
# PCOD9362345 Si02
#       6
#     8   8   8   8   8   8
#     4   9  18  32  54  75 107 149 187 227 278 350
#     4  11  16  33  55  81 109 148 194 233 282 356
#     4  10  18  34  55  80 110 148 191 231 285 350
#     4  10  18  31  52  81 110 137 181 240 284 327
#     4  10  21  32  52  90 120 143 193 251 289 336
#     4  10  17  33  53  80 104 139 192 226 271 354
#
# _framework density 23.619928000000002
#
# number of rings (size 3 to 8) (size 9 to 14) (size 15 to 20)
#    0.000    2.000    6.667    2.000    0.000    1.333 
#    0.000    2.500    0.000    0.000    0.000    2.333 
#    0.000    0.000    0.000    0.000    0.000    0.000 
#
# Total GULP energy -133671.872108 kJ/mol
# GULP energy per Si atom -5569.661338 kJ/mol
# Density = 2.356617 g / cm^3
# Si number density = 23.619928 Si / 1000 Ang^3
#
#
#
# Elastic Constant Matrix: (Units=GPa)
#
#
# Indices 1 2 3 4 5 6 
#
# 1 153.2629 55.3264 25.4767 0.0000 0.0000 0.0000
# 2 55.3264 168.5530 42.1836 0.0000 0.0000 0.0000
# 3 25.4767 42.1836 65.6943 0.0000 0.0000 0.0000
# 4 0.0000 0.0000 0.0000 36.8300 0.0000 0.0000
# 5 0.0000 0.0000 0.0000 0.0000 10.7436 0.0000
# 6 0.0000 0.0000 0.0000 0.0000 0.0000 22.6408
#
#
#
# Elastic Compliance Matrix: (Units=1/GPa)
#
#
# Indices 1 2 3 4 5 6 
#
# 1 0.007539 -0.002077 -0.001590 0.000000 0.000000 0.000000
# 2 -0.002077 0.007641 -0.004101 0.000000 0.000000 0.000000
# 3 -0.001590 -0.004101 0.018472 0.000000 0.000000 0.000000
# 4 0.000000 0.000000 0.000000 0.027152 0.000000 0.000000
# 5 0.000000 0.000000 0.000000 0.000000 0.093078 0.000000
# 6 0.000000 0.000000 0.000000 0.000000 0.000000 0.044168
#
#
# Mechanical properties :
#
#
# Convention : Reuss Voigt Hill
#
# Bulk Modulus (GPa) = 55.19957 70.38708 62.79333
# Shear Modulus (GPa) = 22.76618 31.67778 27.22198
#
# Velocity S-wave (km/s) = 3.10797 3.66614 3.39853
# Velocity P-wave (km/s) = 6.02494 6.91269 6.48403
#
# Compressibility (1/GPa) = 0.01811608
#
# Stress axis : x y z
#
# Youngs Moduli (GPa) = 132.64921 130.87579 54.13584
#
# Poissons Ratio (x) = 0.27177 0.08608
# Poissons Ratio (y) = 0.27545 0.22201
# Poissons Ratio (z) = 0.21093 0.53673
#
# Static dielectric constant tensor:
#      x y z
#    x 1.902350 0.000000 0.000000 
#    y 0.000000 1.971680 0.000000 
#    z 0.000000 0.000000 2.031880 
# 
# From -- ./inp_files/12157.got.cif
#   From: 2010.05.17/outbox.cif.g08.bks.cpg/sg40_7_cif.got.tgz:12157.got - 2010.06.03 18:35:42.
