data_PCOD9362980
_publ_section_title
;
Structure prediction by ZEFSAII (Michael W. Deem and Ramdas Pophale) SiO2 
 PCOD9362980
Probable space group: A M A 2
;
_chemical_formula_sum "Si O2"
_cell_formula_units_Z 48
_cell_length_a 8.791026
_cell_length_b 14.177783
_cell_length_c 19.020933
_cell_angle_alpha 90.000000
_cell_angle_beta 90.000000
_cell_angle_gamma 90.000000
_cell_volume 2370.716952
_symmetry_space_group_name_H-M "A M A 2"
_symmetry_group_IT_number 40
_symmetry_cell_setting 'orthorhombic'
loop_
_space_group_symop_operation_xyz
x,y,z
-x,-y,z
1/2-x,y,z
1/2+x,-y,z
x,1/2+y,1/2+z
-x,1/2-y,1/2+z
1/2-x,1/2+y,1/2+z
1/2+x,1/2-y,1/2+z
loop_
_atom_site_type_symbol
_atom_site_label
_atom_site_fract_x
_atom_site_fract_y
_atom_site_fract_z
Si Si1 0.077923 0.402727 0.852470
Si Si2 0.932680 0.201756 0.866750
Si Si3 0.568698 0.101266 0.726692
Si Si4 0.434560 0.395455 0.511974
Si Si5 0.428730 0.742135 0.115244
Si Si6 0.576281 0.095946 0.521465
O O1 0.250000 0.397539 0.825360
O O2 0.083376 0.408823 0.937506
O O3 0.000000 0.500000 0.827586
O O4 0.993554 0.303662 0.842163
O O5 0.750000 0.208579 0.869991
O O6 0.975445 0.127287 0.806497
O O7 0.986243 0.164065 0.942884
O O8 0.750000 0.095363 0.722525
O O9 0.512700 0.187202 0.677548
O O10 0.500000 0.000000 0.707194
O O11 0.500000 0.500000 0.507976
O O12 0.250000 0.397670 0.510170
O O13 0.479117 0.343475 0.585040
O O14 0.250000 0.744697 0.130741
O O15 0.464993 0.676558 0.047984
O O16 0.750000 0.108328 0.547208
O O17 0.500000 0.000000 0.546940
#
# Coordination Sequence:
#
# PCOD9362980 Si02
#       6
#     8   8   8   8   8   8
#     4  10  20  33  55  86 119 155 195 244 296 351
#     4  10  21  40  62  88 123 160 200 247 301 359
#     4  11  24  41  63  90 123 161 200 246 300 361
#     4  10  22  39  62  89 117 153 197 248 302 357
#     4  11  22  38  59  84 118 156 196 246 297 355
#     4  10  19  31  51  81 114 149 188 235 290 345
#
# _framework density 20.247039999999998
#
# number of rings (size 3 to 8) (size 9 to 14) (size 15 to 20)
#    0.000    1.667    1.667    3.000    0.000    4.667 
#    0.000    0.833    0.000    2.000    0.000    0.000 
#    0.000    0.000    0.000    0.000    0.000    0.000 
#
# Total GULP energy -133900.835559 kJ/mol
# GULP energy per Si atom -5579.201482 kJ/mol
# Density = 2.020096 g / cm^3
# Si number density = 20.247040 Si / 1000 Ang^3
#
#
#
# Elastic Constant Matrix: (Units=GPa)
#
#
# Indices 1 2 3 4 5 6 
#
# 1 24.5611 15.8031 20.3577 0.0000 0.0000 0.0000
# 2 15.8031 124.1410 31.6262 0.0000 0.0000 0.0000
# 3 20.3577 31.6262 76.2028 0.0000 0.0000 0.0000
# 4 0.0000 0.0000 0.0000 -78.7668 0.0000 0.0000
# 5 0.0000 0.0000 0.0000 0.0000 27.0351 0.0000
# 6 0.0000 0.0000 0.0000 0.0000 0.0000 34.8179
#
#
#
# Elastic Compliance Matrix: (Units=1/GPa)
#
#
# Indices 1 2 3 4 5 6 
#
# 1 0.053662 -0.003555 -0.012860 0.000000 0.000000 0.000000
# 2 -0.003555 0.009243 -0.002887 0.000000 0.000000 0.000000
# 3 -0.012860 -0.002887 0.017757 0.000000 0.000000 0.000000
# 4 0.000000 0.000000 0.000000 -0.012696 0.000000 0.000000
# 5 0.000000 0.000000 0.000000 0.000000 0.036989 0.000000
# 6 0.000000 0.000000 0.000000 0.000000 0.000000 0.028721
#
#
# Mechanical properties :
#
#
# Convention : Reuss Voigt Hill
#
# Bulk Modulus (GPa) = 23.77677 40.05321 31.91499
# Shear Modulus (GPa) = 26.83868 7.09176 16.96522
#
# Velocity S-wave (km/s) = 3.64478 1.87356 2.89781
# Velocity P-wave (km/s) = 5.42967 4.95030 5.19552
#
# Compressibility (1/GPa) = 0.04205785
#
# Stress axis : x y z
#
# Youngs Moduli (GPa) = 18.63532 108.18711 56.31723
#
# Poissons Ratio (x) = 0.38458 0.72427
# Poissons Ratio (y) = 0.06624 0.16256
# Poissons Ratio (z) = 0.23966 0.31229
#
# Static dielectric constant tensor:
#      x y z
#    x 1.695660 0.000000 0.000000 
#    y 0.000000 1.719440 0.000000 
#    z 0.000000 0.000000 1.754960 
# 
# From -- ./inp_files/19194.got.cif
#   From: 2010.05.17/outbox.cif.g08.bks.cpg/sg40_10_cif.got.tgz:19194.got - 2010.06.03 18:35:42.
