data_PCOD9362593
_publ_section_title
;
Structure prediction by ZEFSAII (Michael W. Deem and Ramdas Pophale) SiO2 
 PCOD9362593
Probable space group: A M A 2
;
_chemical_formula_sum "Si O2"
_cell_formula_units_Z 64
_cell_length_a 7.671743
_cell_length_b 21.528930
_cell_length_c 20.308225
_cell_angle_alpha 90.000000
_cell_angle_beta 90.000000
_cell_angle_gamma 90.000000
_cell_volume 3354.196163
_symmetry_space_group_name_H-M "A M A 2"
_symmetry_group_IT_number 40
_symmetry_cell_setting 'orthorhombic'
loop_
_space_group_symop_operation_xyz
x,y,z
-x,-y,z
1/2-x,y,z
1/2+x,-y,z
x,1/2+y,1/2+z
-x,1/2-y,1/2+z
1/2-x,1/2+y,1/2+z
1/2+x,1/2-y,1/2+z
loop_
_atom_site_type_symbol
_atom_site_label
_atom_site_fract_x
_atom_site_fract_y
_atom_site_fract_z
Si Si1 0.538220 0.760499 0.131320
Si Si2 0.535632 0.310611 0.769198
Si Si3 0.959429 0.068653 0.769262
Si Si4 0.455065 0.569019 0.845396
Si Si5 0.458900 0.381428 0.985567
Si Si6 0.539840 0.261012 0.485233
Si Si7 0.542678 0.188369 0.847190
Si Si8 0.962109 0.114961 0.630689
O O1 0.750000 0.762173 0.131269
O O2 0.479934 0.799985 0.193858
O O3 0.492448 0.687763 0.140073
O O4 0.480030 0.780077 0.058350
O O5 0.750000 0.310787 0.769822
O O6 0.470852 0.373706 0.803117
O O7 0.476787 0.250580 0.810991
O O8 0.750000 0.073827 0.766838
O O9 0.025801 0.125345 0.814191
O O10 0.025419 0.077760 0.694219
O O11 0.000000 0.000000 0.793838
O O12 0.500000 0.500000 0.822952
O O13 0.250000 0.575069 0.840520
O O14 0.499826 0.578251 0.922137
O O15 0.250000 0.378191 0.990253
O O16 0.521538 0.310341 0.974218
O O17 0.522884 0.403604 0.057411
O O18 0.750000 0.259333 0.486181
O O19 0.487172 0.303643 0.424632
O O20 0.750000 0.111582 0.630531
O O21 0.750000 0.188288 0.836207
#
# Coordination Sequence:
#
# PCOD9362593 Si02
#       8
#     8   8   8   8   8   8   8   8
#     4   8  13  26  49  75  97 121 160 200 238 287
#     4   9  16  29  51  74  93 122 166 204 236 284
#     4  10  20  33  50  71  98 132 166 203 242 284
#     4  11  22  34  49  70  98 132 166 203 243 288
#     4   9  17  30  48  72 101 131 161 195 238 287
#     4   9  17  28  49  78 103 125 155 203 247 283
#     4  10  18  31  52  74  97 128 165 203 242 288
#     4   8  14  27  47  70  97 128 161 196 234 281
#
# _framework density 19.080577999999999
#
# number of rings (size 3 to 8) (size 9 to 14) (size 15 to 20)
#    0.000    2.750    2.500    1.875    0.000    1.000 
#    0.000    1.875    0.000    3.750    0.000    3.500 
#    0.000    0.000    0.000    0.000    0.000    0.000 
#
# Total GULP energy -178445.084503 kJ/mol
# GULP energy per Si atom -5576.408891 kJ/mol
# Density = 1.903715 g / cm^3
# Si number density = 19.080578 Si / 1000 Ang^3
#
#
#
# Elastic Constant Matrix: (Units=GPa)
#
#
# Indices 1 2 3 4 5 6 
#
# 1 30.7967 4.1555 -0.4138 0.0000 0.0000 0.0000
# 2 4.1555 122.4872 78.3956 0.0000 0.0000 0.0000
# 3 -0.4138 78.3956 126.5353 0.0000 0.0000 0.0000
# 4 0.0000 0.0000 0.0000 24.2945 0.0000 0.0000
# 5 0.0000 0.0000 0.0000 0.0000 13.4313 0.0000
# 6 0.0000 0.0000 0.0000 0.0000 0.0000 12.9819
#
#
#
# Elastic Compliance Matrix: (Units=1/GPa)
#
#
# Indices 1 2 3 4 5 6 
#
# 1 0.032752 -0.001955 0.001318 0.000000 0.000000 0.000000
# 2 -0.001955 0.013645 -0.008460 0.000000 0.000000 0.000000
# 3 0.001318 -0.008460 0.013149 0.000000 0.000000 0.000000
# 4 0.000000 0.000000 0.000000 0.041162 0.000000 0.000000
# 5 0.000000 0.000000 0.000000 0.000000 0.074453 0.000000
# 6 0.000000 0.000000 0.000000 0.000000 0.000000 0.077030
#
#
# Mechanical properties :
#
#
# Convention : Reuss Voigt Hill
#
# Bulk Modulus (GPa) = 24.18224 49.34376 36.76300
# Shear Modulus (GPa) = 17.59512 23.32035 20.45774
#
# Velocity S-wave (km/s) = 3.03998 3.49980 3.27796
# Velocity P-wave (km/s) = 5.00233 6.49987 5.79964
#
# Compressibility (1/GPa) = 0.04135266
#
# Stress axis : x y z
#
# Youngs Moduli (GPa) = 30.53205 73.28471 76.05156
#
# Poissons Ratio (x) = 0.14326 -0.10025
# Poissons Ratio (y) = 0.05969 0.64343
# Poissons Ratio (z) = -0.04025 0.62002
#
# Static dielectric constant tensor:
#      x y z
#    x 1.722540 0.000000 0.000000 
#    y 0.000000 1.646060 0.000000 
#    z 0.000000 0.000000 1.691870 
# 
# From -- ./inp_files/20233.got.cif
#   From: 2010.05.17/outbox.cif.g08.bks.cpg/sg40_11_cif.got.tgz:20233.got - 2010.06.03 18:35:42.
