data_PCOD9362225
_publ_section_title
;
Structure prediction by ZEFSAII (Michael W. Deem and Ramdas Pophale) SiO2 
 PCOD9362225
Probable space group: A B M 2
;
_chemical_formula_sum "Si O2"
_cell_formula_units_Z 32
_cell_length_a 12.000000
_cell_length_b 18.000000
_cell_length_c 15.000000
_cell_angle_alpha 90.000000
_cell_angle_beta 90.000000
_cell_angle_gamma 90.000000
_cell_volume 3240.000000
_symmetry_space_group_name_H-M "A B M 2"
_symmetry_group_IT_number 39
_symmetry_cell_setting 'orthorhombic'
loop_
_space_group_symop_operation_xyz
x,y,z
-x,-y,z
-x,1/2+y,z
x,1/2-y,z
x,1/2+y,1/2+z
-x,1/2-y,1/2+z
-x,y,1/2+z
x,-y,1/2+z
loop_
_atom_site_type_symbol
_atom_site_label
_atom_site_fract_x
_atom_site_fract_y
_atom_site_fract_z
Si Si1 0.489871 0.338570 0.103200
Si Si2 0.655816 0.598209 0.940023
Si Si3 0.907211 0.338424 0.438970
Si Si4 0.476517 0.160952 0.309831
Si Si5 0.940305 0.577409 0.294895
Si Si6 0.013819 0.662599 0.131653
Si Si7 0.281913 0.430422 0.401872
Si Si8 0.751915 0.838261 0.571846
O O1 0.471995 0.250000 0.089187
O O2 0.461117 0.357229 0.205424
O O3 0.623435 0.351414 0.097803
O O4 0.417655 0.380066 0.027566
O O5 0.780929 0.631004 0.943641
O O6 0.590171 0.631433 0.854664
O O7 0.667906 0.509810 0.928707
O O8 0.903244 0.250000 0.424016
O O9 0.968827 0.352638 0.532835
O O10 0.982305 0.376553 0.363464
O O11 0.473472 0.250000 0.319402
O O12 0.378244 0.122217 0.364190
O O13 0.940139 0.620482 0.202573
O O14 0.817743 0.562902 0.332073
O O15 0.000000 0.500000 0.280631
O O16 0.003388 0.750000 0.147786
O O17 0.146058 0.644038 0.138265
O O18 0.230052 0.388909 0.486403
O O19 0.762661 0.750000 0.551365
#
# Coordination Sequence:
#
# PCOD9362225 Si02
#       8
#     8   8   8   8   8   8   8   8
#     4  10  23  43  70  98 131 179 229 278 338 405
#     4  12  25  45  65 100 142 180 225 278 350 414
#     4  11  24  44  70  96 130 178 230 282 338 408
#     4  11  25  45  69  99 135 178 230 282 336 410
#     4  12  26  45  66  97 138 180 222 280 349 411
#     4  10  24  43  69 102 130 172 235 286 337 405
#     4  12  25  44  68  97 140 180 224 283 346 412
#     4  10  21  42  69  97 130 178 229 278 338 404
#
# _framework density 9.8765429999999999
#
# number of rings (size 3 to 8) (size 9 to 14) (size 15 to 20)
#    0.000    1.000    3.750    2.250    3.500    3.000 
#    4.500    0.000    0.000    0.000    0.000    0.000 
#    0.000    0.000    0.000    0.000    0.000    0.000 
#
# Total GULP energy -178850.800927 kJ/mol
# GULP energy per Si atom -5589.087529 kJ/mol
# Density = 0.985406 g / cm^3
# Si number density = 9.876543 Si / 1000 Ang^3
#
#
#
# Elastic Constant Matrix: (Units=GPa)
#
#
# Indices 1 2 3 4 5 6 
#
# 1 78.8418 34.7222 0.8292 0.0000 0.0000 0.0000
# 2 34.7222 -80.3380 70.5382 0.0000 0.0000 0.0000
# 3 0.8292 70.5382 62.6578 0.0000 0.0000 0.0000
# 4 0.0000 0.0000 0.0000 97.3292 0.0000 0.0000
# 5 0.0000 0.0000 0.0000 0.0000 18.4297 0.0000
# 6 0.0000 0.0000 0.0000 0.0000 0.0000 14.2640
#
#
#
# Elastic Compliance Matrix: (Units=1/GPa)
#
#
# Indices 1 2 3 4 5 6 
#
# 1 0.011631 0.002460 -0.002923 0.000000 0.000000 0.000000
# 2 0.002460 -0.005740 0.006429 0.000000 0.000000 0.000000
# 3 -0.002923 0.006429 0.008761 0.000000 0.000000 0.000000
# 4 0.000000 0.000000 0.000000 0.010274 0.000000 0.000000
# 5 0.000000 0.000000 0.000000 0.000000 0.054260 0.000000
# 6 0.000000 0.000000 0.000000 0.000000 0.000000 0.070107
#
#
# Mechanical properties :
#
#
# Convention : Reuss Voigt Hill
#
# Bulk Modulus (GPa) = 37.61743 30.37122 33.99432
# Shear Modulus (GPa) = 34.19411 23.00937 28.60174
#
# Velocity S-wave (km/s) = 4.16513 3.41669 3.80934
# Velocity P-wave (km/s) = 6.49741 5.56542 6.04939
#
# Compressibility (1/GPa) = 0.02658342
#
# Stress axis : x y z
#
# Youngs Moduli (GPa) = 85.97762 -174.23023 114.14192
#
# Poissons Ratio (x) = 0.42862 0.33369
# Poissons Ratio (y) = -0.21151 -0.73380
# Poissons Ratio (z) = 0.25135 1.12010
#
# Static dielectric constant tensor:
#      x y z
#    x 1.694370 0.000000 0.000000 
#    y 0.000000 1.670600 0.000000 
#    z 0.000000 0.000000 1.728740 
# 
# From -- ./inp_files/9451.got.cif
#   From: 2010.05.17/outbox.ucp.g08.bks.cvg/sg39_5_cif.got.tgz:9451.got - 2010.06.11 10:41:16.
