data_PCOD9362997
_publ_section_title
;
Structure prediction by ZEFSAII (Michael W. Deem and Ramdas Pophale) SiO2 
 PCOD9362997
Probable space group: A M A 2
;
_chemical_formula_sum "Si O2"
_cell_formula_units_Z 64
_cell_length_a 17.867205
_cell_length_b 14.252462
_cell_length_c 13.536454
_cell_angle_alpha 90.000000
_cell_angle_beta 90.000000
_cell_angle_gamma 90.000000
_cell_volume 3447.080486
_symmetry_space_group_name_H-M "A M A 2"
_symmetry_group_IT_number 40
_symmetry_cell_setting 'orthorhombic'
loop_
_space_group_symop_operation_xyz
x,y,z
-x,-y,z
1/2-x,y,z
1/2+x,-y,z
x,1/2+y,1/2+z
-x,1/2-y,1/2+z
1/2-x,1/2+y,1/2+z
1/2+x,1/2-y,1/2+z
loop_
_atom_site_type_symbol
_atom_site_label
_atom_site_fract_x
_atom_site_fract_y
_atom_site_fract_z
Si Si1 0.163971 0.904161 0.250000
Si Si2 0.940017 0.923688 0.568592
Si Si3 0.028082 0.761014 0.490569
Si Si4 0.336477 0.221723 0.892025
Si Si5 0.973273 0.105631 0.111646
Si Si6 0.959152 0.908316 0.790417
Si Si7 0.339074 0.088112 0.379514
Si Si8 0.545581 0.280841 0.789701
O O1 0.250000 0.919899 0.220059
O O2 0.162661 0.809262 0.315648
O O3 0.109892 0.892442 0.156547
O O4 0.140457 0.994185 0.316619
O O5 0.985873 0.827302 0.565486
O O6 0.924439 0.938592 0.683973
O O7 0.873464 0.919914 0.489788
O O8 0.000000 0.000000 0.534003
O O9 0.989179 0.661236 0.510802
O O10 0.006685 0.804374 0.384405
O O11 0.117469 0.753392 0.489838
O O12 0.250000 0.195808 0.908150
O O13 0.390727 0.140135 0.849482
O O14 0.022006 0.160119 0.194532
O O15 0.000000 0.000000 0.103559
O O16 0.023475 0.828044 0.776482
O O17 0.000000 0.000000 0.832506
O O18 0.250000 0.093472 0.383895
O O19 0.374895 0.179398 0.326253
#
# Coordination Sequence:
#
# PCOD9362997 Si02
#       8
#     8   8   8   8   8   8   8   8
#     4  10  19  34  58  90 119 147 194 248 300 349
#     4  10  19  31  56  83 114 148 193 243 291 352
#     4  10  20  34  55  85 114 145 196 233 289 350
#     4  10  20  36  58  82 114 155 193 243 297 348
#     4  12  21  36  61  88 115 155 196 242 296 349
#     4  10  20  36  58  86 108 148 200 240 283 348
#     4  10  21  34  55  88 120 152 186 243 306 349
#     4  10  20  37  59  80 116 152 195 236 285 352
#
# _framework density 18.566435999999999
#
# number of rings (size 3 to 8) (size 9 to 14) (size 15 to 20)
#    0.000    1.750    5.000    0.750    1.750    2.500 
#    0.000    5.625    0.000    1.500    0.000    0.000 
#    0.000    0.000    0.000    0.000    0.000    0.000 
#
# Total GULP energy -178151.271318 kJ/mol
# GULP energy per Si atom -5567.227229 kJ/mol
# Density = 1.852418 g / cm^3
# Si number density = 18.566436 Si / 1000 Ang^3
#
#
#
# Elastic Constant Matrix: (Units=GPa)
#
#
# Indices 1 2 3 4 5 6 
#
# 1 121.7859 32.2201 22.4459 0.0000 0.0000 0.0000
# 2 32.2201 98.3317 -7.1455 0.0000 0.0000 0.0000
# 3 22.4459 -7.1455 39.2084 0.0000 0.0000 0.0000
# 4 0.0000 0.0000 0.0000 50.4957 0.0000 0.0000
# 5 0.0000 0.0000 0.0000 0.0000 25.2796 0.0000
# 6 0.0000 0.0000 0.0000 0.0000 0.0000 27.7612
#
#
#
# Elastic Compliance Matrix: (Units=1/GPa)
#
#
# Indices 1 2 3 4 5 6 
#
# 1 0.010488 -0.003925 -0.006719 0.000000 0.000000 0.000000
# 2 -0.003925 0.011775 0.004393 0.000000 0.000000 0.000000
# 3 -0.006719 0.004393 0.030152 0.000000 0.000000 0.000000
# 4 0.000000 0.000000 0.000000 0.019804 0.000000 0.000000
# 5 0.000000 0.000000 0.000000 0.000000 0.039558 0.000000
# 6 0.000000 0.000000 0.000000 0.000000 0.000000 0.036021
#
#
# Mechanical properties :
#
#
# Convention : Reuss Voigt Hill
#
# Bulk Modulus (GPa) = 25.05515 39.37411 32.21463
# Shear Modulus (GPa) = 28.80115 34.82769 31.81442
#
# Velocity S-wave (km/s) = 3.94286 4.33580 4.14399
# Velocity P-wave (km/s) = 5.85255 6.80578 6.34709
#
# Compressibility (1/GPa) = 0.03991196
#
# Stress axis : x y z
#
# Youngs Moduli (GPa) = 95.34783 84.92633 33.16537
#
# Poissons Ratio (x) = 0.33332 0.22285
# Poissons Ratio (y) = 0.37422 -0.14569
# Poissons Ratio (z) = 0.64068 -0.37306
#
# Static dielectric constant tensor:
#      x y z
#    x 1.629070 0.000000 0.000000 
#    y 0.000000 1.630830 0.000000 
#    z 0.000000 0.000000 1.691240 
# 
# From -- ./inp_files/17944.got.cif
#   From: 2010.05.17/outbox.cif.g08.bks.cpg/sg40_9_cif.got.tgz:17944.got - 2010.06.03 18:35:42.
