data_PCOD9362299
_publ_section_title
;
Structure prediction by ZEFSAII (Michael W. Deem and Ramdas Pophale) SiO2 
 PCOD9362299
Probable space group: A M A 2
;
_chemical_formula_sum "Si O2"
_cell_formula_units_Z 64
_cell_length_a 8.177404
_cell_length_b 24.863497
_cell_length_c 14.013199
_cell_angle_alpha 90.000000
_cell_angle_beta 90.000000
_cell_angle_gamma 90.000000
_cell_volume 2849.147643
_symmetry_space_group_name_H-M "A M A 2"
_symmetry_group_IT_number 40
_symmetry_cell_setting 'orthorhombic'
loop_
_space_group_symop_operation_xyz
x,y,z
-x,-y,z
1/2-x,y,z
1/2+x,-y,z
x,1/2+y,1/2+z
-x,1/2-y,1/2+z
1/2-x,1/2+y,1/2+z
1/2+x,1/2-y,1/2+z
loop_
_atom_site_type_symbol
_atom_site_label
_atom_site_fract_x
_atom_site_fract_y
_atom_site_fract_z
Si Si1 0.553348 0.940339 0.298290
Si Si2 0.553940 0.769946 0.775270
Si Si3 0.066218 0.442475 0.075601
Si Si4 0.948034 0.439183 0.576986
Si Si5 0.944077 0.674670 0.079007
Si Si6 0.437387 0.647009 0.427342
Si Si7 0.444890 0.171938 0.379415
Si Si8 0.934351 0.948643 0.778667
O O1 0.750000 0.939208 0.301713
O O2 0.503518 0.933059 0.187699
O O3 0.493658 0.888834 0.357891
O O4 0.500000 0.000000 0.328444
O O5 0.750000 0.770736 0.781977
O O6 0.510139 0.795916 0.672862
O O7 0.486555 0.804142 0.866594
O O8 0.488658 0.709963 0.790212
O O9 0.250000 0.438670 0.039834
O O10 0.979068 0.385131 0.063154
O O11 0.000000 0.500000 0.042944
O O12 0.056686 0.444531 0.190732
O O13 0.750000 0.437849 0.569241
O O14 0.009772 0.388133 0.514626
O O15 0.000000 0.500000 0.549424
O O16 0.750000 0.669673 0.094004
O O17 0.976968 0.698165 0.974417
O O18 0.250000 0.662280 0.454833
O O19 0.430217 0.602381 0.344370
O O20 0.250000 0.170665 0.390884
O O21 0.750000 0.956250 0.741450
O O22 0.000000 0.000000 0.835294
#
# Coordination Sequence:
#
# PCOD9362299 Si02
#       8
#     8   8   8   8   8   8   8   8
#     4   9  20  39  65  92 123 159 200 254 314 371
#     4  11  23  42  65  91 125 167 209 258 313 374
#     4  10  20  33  53  82 117 158 203 250 307 368
#     4   9  17  33  55  84 119 158 200 246 300 361
#     4  11  24  43  65  91 123 164 211 263 318 379
#     4   9  18  31  52  81 118 162 203 241 297 360
#     4  11  25  44  66  95 125 161 207 259 316 379
#     4  10  17  27  44  72 110 153 198 241 291 352
#
# _framework density 22.462858000000001
#
# number of rings (size 3 to 8) (size 9 to 14) (size 15 to 20)
#    0.000    2.000    1.250    3.000    0.000    4.000 
#    0.000    6.875    0.000    0.000    0.000    0.000 
#    0.000    0.000    0.000    0.000    0.000    0.000 
#
# Total GULP energy -178380.421771 kJ/mol
# GULP energy per Si atom -5574.388180 kJ/mol
# Density = 2.241173 g / cm^3
# Si number density = 22.462858 Si / 1000 Ang^3
#
#
#
# Elastic Constant Matrix: (Units=GPa)
#
#
# Indices 1 2 3 4 5 6 
#
# 1 38.9313 10.2445 4.9587 0.0000 0.0000 0.0000
# 2 10.2445 123.6560 48.6061 0.0000 0.0000 0.0000
# 3 4.9587 48.6061 131.2705 0.0000 0.0000 0.0000
# 4 0.0000 0.0000 0.0000 28.1813 0.0000 0.0000
# 5 0.0000 0.0000 0.0000 0.0000 4.9235 0.0000
# 6 0.0000 0.0000 0.0000 0.0000 0.0000 23.9987
#
#
#
# Elastic Compliance Matrix: (Units=1/GPa)
#
#
# Indices 1 2 3 4 5 6 
#
# 1 0.026264 -0.002090 -0.000218 0.000000 0.000000 0.000000
# 2 -0.002090 0.009631 -0.003487 0.000000 0.000000 0.000000
# 3 -0.000218 -0.003487 0.008917 0.000000 0.000000 0.000000
# 4 0.000000 0.000000 0.000000 0.035485 0.000000 0.000000
# 5 0.000000 0.000000 0.000000 0.000000 0.203109 0.000000
# 6 0.000000 0.000000 0.000000 0.000000 0.000000 0.041669
#
#
# Mechanical properties :
#
#
# Convention : Reuss Voigt Hill
#
# Bulk Modulus (GPa) = 30.10112 46.83069 38.46590
# Shear Modulus (GPa) = 14.37860 26.75726 20.56793
#
# Velocity S-wave (km/s) = 2.53278 3.45509 3.02924
# Velocity P-wave (km/s) = 4.68858 6.06714 5.42185
#
# Compressibility (1/GPa) = 0.03322136
#
# Stress axis : x y z
#
# Youngs Moduli (GPa) = 38.07481 103.83357 112.14187
#
# Poissons Ratio (x) = 0.21702 0.02447
# Poissons Ratio (y) = 0.07958 0.39105
# Poissons Ratio (z) = 0.00831 0.36208
#
# Static dielectric constant tensor:
#      x y z
#    x 1.827880 0.000000 0.000000 
#    y 0.000000 1.960320 0.000000 
#    z 0.000000 0.000000 1.852330 
# 
# From -- ./inp_files/15658.got.cif
#   From: 2010.05.17/outbox.cif.g08.bks.cpg/sg40_8_cif.got.tgz:15658.got - 2010.06.03 18:35:42.
