data_PCOD9362239
_publ_section_title
;
Structure prediction by ZEFSAII (Michael W. Deem and Ramdas Pophale) SiO2 
 PCOD9362239
Probable space group: A M A 2
;
_chemical_formula_sum "Si O2"
_cell_formula_units_Z 56
_cell_length_a 17.016844
_cell_length_b 18.122783
_cell_length_c 9.650626
_cell_angle_alpha 90.000000
_cell_angle_beta 90.000000
_cell_angle_gamma 90.000000
_cell_volume 2976.181365
_symmetry_space_group_name_H-M "A M A 2"
_symmetry_group_IT_number 40
_symmetry_cell_setting 'orthorhombic'
loop_
_space_group_symop_operation_xyz
x,y,z
-x,-y,z
1/2-x,y,z
1/2+x,-y,z
x,1/2+y,1/2+z
-x,1/2-y,1/2+z
1/2-x,1/2+y,1/2+z
1/2+x,1/2-y,1/2+z
loop_
_atom_site_type_symbol
_atom_site_label
_atom_site_fract_x
_atom_site_fract_y
_atom_site_fract_z
Si Si1 0.371602 0.752433 0.165950
Si Si2 0.601181 0.920727 0.148084
Si Si3 0.614660 0.820726 0.398044
Si Si4 0.086846 0.913870 0.211695
Si Si5 0.969823 0.082122 0.513308
Si Si6 0.661298 0.800653 0.969252
Si Si7 0.444939 0.289155 0.179136
O O1 0.367034 0.841288 0.163368
O O2 0.340224 0.719737 0.308813
O O3 0.465337 0.737144 0.172476
O O4 0.340138 0.709020 0.032061
O O5 0.642405 0.875012 0.274428
O O6 0.506413 0.909308 0.168678
O O7 0.616307 0.007410 0.157339
O O8 0.629952 0.881846 0.008328
O O9 0.542118 0.867501 0.460287
O O10 0.587950 0.746299 0.318936
O O11 0.087175 0.917912 0.379894
O O12 0.939524 0.123879 0.649647
O O13 0.000000 0.000000 0.538059
O O14 0.750000 0.792074 0.021257
O O15 0.602907 0.747224 0.052642
#
# Coordination Sequence:
#
# PCOD9362239 Si02
#       7
#     8   8   8   8   8   8   8
#     4  11  18  32  55  81 110 145 190 238 277 337
#     4   9  18  32  53  80 111 145 186 237 281 337
#     4   9  17  28  49  75 106 138 180 232 280 313
#     4  10  15  29  55  79 110 141 193 241 273 321
#     4  10  15  27  49  84 113 136 179 243 281 320
#     4  11  22  36  55  85 121 153 186 236 300 348
#     4  10  18  32  54  81 111 147 190 238 274 339
#
# _framework density 18.816056
#
# number of rings (size 3 to 8) (size 9 to 14) (size 15 to 20)
#    0.000    2.000    8.571    0.857    0.000    0.000 
#    0.000    6.429    0.000    0.000    0.000   13.000 
#    0.000    0.000    0.000    0.000    0.000    0.000 
#
# Total GULP energy -155894.022605 kJ/mol
# GULP energy per Si atom -5567.643664 kJ/mol
# Density = 1.877323 g / cm^3
# Si number density = 18.816056 Si / 1000 Ang^3
#
#
#
# Elastic Constant Matrix: (Units=GPa)
#
#
# Indices 1 2 3 4 5 6 
#
# 1 51.3961 3.2269 18.3866 0.0000 0.0000 0.0000
# 2 3.2269 131.8935 53.7202 0.0000 0.0000 0.0000
# 3 18.3866 53.7202 77.5447 0.0000 0.0000 0.0000
# 4 0.0000 0.0000 0.0000 34.6814 0.0000 0.0000
# 5 0.0000 0.0000 0.0000 0.0000 1.0449 0.0000
# 6 0.0000 0.0000 0.0000 0.0000 0.0000 8.0778
#
#
#
# Elastic Compliance Matrix: (Units=1/GPa)
#
#
# Indices 1 2 3 4 5 6 
#
# 1 0.021701 0.002180 -0.006656 0.000000 0.000000 0.000000
# 2 0.002180 0.010781 -0.007986 0.000000 0.000000 0.000000
# 3 -0.006656 -0.007986 0.020006 0.000000 0.000000 0.000000
# 4 0.000000 0.000000 0.000000 0.028834 0.000000 0.000000
# 5 0.000000 0.000000 0.000000 0.000000 0.957021 0.000000
# 6 0.000000 0.000000 0.000000 0.000000 0.000000 0.123796
#
#
# Mechanical properties :
#
#
# Convention : Reuss Voigt Hill
#
# Bulk Modulus (GPa) = 36.27750 45.72241 40.99995
# Shear Modulus (GPa) = 4.17973 21.12753 12.65363
#
# Velocity S-wave (km/s) = 1.49204 3.35452 2.59606
# Velocity P-wave (km/s) = 4.72125 6.27345 5.55186
#
# Compressibility (1/GPa) = 0.02756530
#
# Stress axis : x y z
#
# Youngs Moduli (GPa) = 46.08101 92.75499 49.98481
#
# Poissons Ratio (x) = -0.20220 0.33268
# Poissons Ratio (y) = -0.10045 0.39916
# Poissons Ratio (z) = 0.30670 0.74071
#
# Static dielectric constant tensor:
#      x y z
#    x 1.657850 0.000000 0.000000 
#    y 0.000000 1.673380 0.000000 
#    z 0.000000 0.000000 1.682430 
# 
# From -- ./inp_files/8414.got.cif
#   From: 2010.05.17/outbox.cif.g08.bks.cpg/sg40_5_cif.got.tgz:8414.got - 2010.06.03 18:35:42.
