data_PCOD9362133
_publ_section_title
;
Structure prediction by ZEFSAII (Michael W. Deem and Ramdas Pophale) SiO2 
 PCOD9362133
Probable space group: A B M 2
;
_chemical_formula_sum "Si O2"
_cell_formula_units_Z 40
_cell_length_a 7.482264
_cell_length_b 19.370108
_cell_length_c 10.919265
_cell_angle_alpha 90.000000
_cell_angle_beta 90.000000
_cell_angle_gamma 90.000000
_cell_volume 1582.553773
_symmetry_space_group_name_H-M "A B M 2"
_symmetry_group_IT_number 39
_symmetry_cell_setting 'orthorhombic'
loop_
_space_group_symop_operation_xyz
x,y,z
-x,-y,z
-x,1/2+y,z
x,1/2-y,z
x,1/2+y,1/2+z
-x,1/2-y,1/2+z
-x,y,1/2+z
x,-y,1/2+z
loop_
_atom_site_type_symbol
_atom_site_label
_atom_site_fract_x
_atom_site_fract_y
_atom_site_fract_z
Si Si1 0.859355 0.634259 0.800240
Si Si2 0.677166 0.597523 0.120927
Si Si3 0.900410 0.750000 0.388479
Si Si4 0.691418 0.750000 0.141463
Si Si5 0.484398 0.580824 0.886184
Si Si6 0.000000 0.000000 0.667139
Si Si7 0.725785 0.750000 0.631641
O O1 0.666232 0.619521 0.854173
O O2 0.825460 0.684162 0.685470
O O3 0.984601 0.679884 0.887798
O O4 0.932716 0.561971 0.752823
O O5 0.733930 0.675378 0.086381
O O6 0.643702 0.600321 0.269804
O O7 0.830350 0.538197 0.098125
O O8 0.495949 0.587013 0.037186
O O9 0.802093 0.750000 0.262435
O O10 0.747750 0.750000 0.488402
O O11 0.479950 0.750000 0.166123
O O12 0.500000 0.500000 0.866255
#
# Coordination Sequence:
#
# PCOD9362133 Si02
#       7
#     8   8   4   4   8   4   4
#     4  11  26  48  75 115 160 208 274 334 415 492
#     4  12  29  49  84 118 167 210 282 336 424 492
#     4  11  27  49  82 116 163 213 274 345 422 489
#     4  12  26  48  78 117 148 218 269 337 403 503
#     4  12  27  51  80 119 160 215 271 344 407 501
#     4  12  26  52  74 116 164 216 266 344 412 498
#     4  11  27  47  76 113 163 211 273 344 401 492
#
# _framework density 25.275604000000001
#
# number of rings (size 3 to 8) (size 9 to 14) (size 15 to 20)
#    0.000    0.400    6.000    0.600    5.600    2.400 
#    0.000    0.000    0.000    0.000    0.000    0.000 
#    0.000    0.000    0.000    0.000    0.000    0.000 
#
# Total GULP energy -111594.251086 kJ/mol
# GULP energy per Si atom -5579.712554 kJ/mol
# Density = 2.521808 g / cm^3
# Si number density = 25.275604 Si / 1000 Ang^3
#
#
#
# Elastic Constant Matrix: (Units=GPa)
#
#
# Indices 1 2 3 4 5 6 
#
# 1 105.7484 36.5366 30.7330 0.0000 0.0000 0.0000
# 2 36.5366 209.7699 33.9386 0.0000 0.0000 0.0000
# 3 30.7330 33.9386 82.2143 0.0000 0.0000 0.0000
# 4 0.0000 0.0000 0.0000 -38.1819 0.0000 0.0000
# 5 0.0000 0.0000 0.0000 0.0000 80.8583 0.0000
# 6 0.0000 0.0000 0.0000 0.0000 0.0000 27.4814
#
#
#
# Elastic Compliance Matrix: (Units=1/GPa)
#
#
# Indices 1 2 3 4 5 6 
#
# 1 0.010946 -0.001334 -0.003541 0.000000 0.000000 0.000000
# 2 -0.001334 0.005271 -0.001677 0.000000 0.000000 0.000000
# 3 -0.003541 -0.001677 0.014180 0.000000 0.000000 0.000000
# 4 0.000000 0.000000 0.000000 -0.026190 0.000000 0.000000
# 5 0.000000 0.000000 0.000000 0.000000 0.012367 0.000000
# 6 0.000000 0.000000 0.000000 0.000000 0.000000 0.036388
#
#
# Mechanical properties :
#
#
# Convention : Reuss Voigt Hill
#
# Bulk Modulus (GPa) = 57.82985 66.68324 62.25654
# Shear Modulus (GPa) = 69.60822 33.79985 51.70404
#
# Velocity S-wave (km/s) = 5.25352 3.66081 4.52775
# Velocity P-wave (km/s) = 7.72843 6.65646 7.21239
#
# Compressibility (1/GPa) = 0.01729211
#
# Stress axis : x y z
#
# Youngs Moduli (GPa) = 91.35424 189.72526 70.52401
#
# Poissons Ratio (x) = 0.25302 0.24975
# Poissons Ratio (y) = 0.12183 0.11829
# Poissons Ratio (z) = 0.32352 0.31822
#
# Static dielectric constant tensor:
#      x y z
#    x 1.984290 0.000000 0.000000 
#    y 0.000000 1.955780 0.000000 
#    z 0.000000 0.000000 2.102270 
# 
# From -- ./inp_files/5102.got.cif
#   From: 2010.05.17/outbox.cif.g08.bks.cpg/sg39_3_cif.got.tgz:5102.got - 2010.06.03 18:22:40.
