data_PCOD9362520
_publ_section_title
;
Structure prediction by ZEFSAII (Michael W. Deem and Ramdas Pophale) SiO2 
 PCOD9362520
Probable space group: A M A 2
;
_chemical_formula_sum "Si O2"
_cell_formula_units_Z 64
_cell_length_a 8.590970
_cell_length_b 27.227281
_cell_length_c 19.092636
_cell_angle_alpha 90.000000
_cell_angle_beta 90.000000
_cell_angle_gamma 90.000000
_cell_volume 4465.934702
_symmetry_space_group_name_H-M "A M A 2"
_symmetry_group_IT_number 40
_symmetry_cell_setting 'orthorhombic'
loop_
_space_group_symop_operation_xyz
x,y,z
-x,-y,z
1/2-x,y,z
1/2+x,-y,z
x,1/2+y,1/2+z
-x,1/2-y,1/2+z
1/2-x,1/2+y,1/2+z
1/2+x,1/2-y,1/2+z
loop_
_atom_site_type_symbol
_atom_site_label
_atom_site_fract_x
_atom_site_fract_y
_atom_site_fract_z
Si Si1 0.936756 0.644883 0.823950
Si Si2 0.937031 0.244565 0.405033
Si Si3 0.937071 0.053737 0.559722
Si Si4 0.065587 0.799323 0.779503
Si Si5 0.435609 0.293329 0.695292
Si Si6 0.561548 0.746839 0.065677
Si Si7 0.939500 0.147207 0.647073
Si Si8 0.065350 0.053260 0.404299
O O1 0.750000 0.639576 0.832151
O O2 0.985915 0.692400 0.870552
O O3 0.968367 0.659162 0.743030
O O4 0.017540 0.596275 0.851723
O O5 0.750000 0.243874 0.404612
O O6 0.989104 0.249311 0.485108
O O7 0.990974 0.288500 0.354472
O O8 0.750000 0.052638 0.559364
O O9 0.991066 0.096756 0.611716
O O10 0.993768 0.064582 0.480846
O O11 0.000000 0.000000 0.578845
O O12 0.250000 0.803584 0.788192
O O13 0.009983 0.842397 0.727098
O O14 0.025071 0.750695 0.734565
O O15 0.250000 0.284428 0.699857
O O16 0.490695 0.288811 0.615583
O O17 0.750000 0.749676 0.068430
O O18 0.515441 0.694035 0.099108
O O19 0.750000 0.146969 0.647574
O O20 0.750000 0.450029 0.911153
O O21 0.000000 0.000000 0.382892
#
# Coordination Sequence:
#
# PCOD9362520 Si02
#       8
#     8   8   8   8   8   8   8   8
#     4   9  17  30  44  57  79 110 139 166 201 241
#     4   9  17  28  42  61  85 112 137 167 207 242
#     4  10  18  30  44  58  80 107 137 171 207 242
#     4   9  16  27  41  57  78 106 139 169 199 240
#     4   9  17  28  41  58  81 107 134 167 205 239
#     4   9  16  27  42  59  81 109 139 165 196 241
#     4   8  15  27  42  56  75 108 139 164 198 239
#     4  11  21  31  43  60  81 105 136 171 205 238
#
# _framework density 14.330707
#
# number of rings (size 3 to 8) (size 9 to 14) (size 15 to 20)
#    0.000    2.750    0.000    5.250    0.000    5.000 
#    0.000    8.750    0.000    0.000    0.000    0.000 
#    0.000    1.000    0.000    4.500    0.000    4.500 
#
# Total GULP energy -178173.581588 kJ/mol
# GULP energy per Si atom -5567.924425 kJ/mol
# Density = 1.429809 g / cm^3
# Si number density = 14.330707 Si / 1000 Ang^3
#
#
#
# Elastic Constant Matrix: (Units=GPa)
#
#
# Indices 1 2 3 4 5 6 
#
# 1 29.2438 20.9847 20.4987 0.0000 0.0000 0.0000
# 2 20.9847 81.9039 55.4437 0.0000 0.0000 0.0000
# 3 20.4987 55.4437 115.2224 0.0000 0.0000 0.0000
# 4 0.0000 0.0000 0.0000 24.6530 0.0000 0.0000
# 5 0.0000 0.0000 0.0000 0.0000 23.9163 0.0000
# 6 0.0000 0.0000 0.0000 0.0000 0.0000 16.3354
#
#
#
# Elastic Compliance Matrix: (Units=1/GPa)
#
#
# Indices 1 2 3 4 5 6 
#
# 1 0.042813 -0.008621 -0.003468 0.000000 0.000000 0.000000
# 2 -0.008621 0.019844 -0.008015 0.000000 0.000000 0.000000
# 3 -0.003468 -0.008015 0.013153 0.000000 0.000000 0.000000
# 4 0.000000 0.000000 0.000000 0.040563 0.000000 0.000000
# 5 0.000000 0.000000 0.000000 0.000000 0.041813 0.000000
# 6 0.000000 0.000000 0.000000 0.000000 0.000000 0.061217
#
#
# Mechanical properties :
#
#
# Convention : Reuss Voigt Hill
#
# Bulk Modulus (GPa) = 28.08956 46.69159 37.39057
# Shear Modulus (GPa) = 18.41776 21.61047 20.01411
#
# Velocity S-wave (km/s) = 3.58885 3.88749 3.74115
# Velocity P-wave (km/s) = 6.06767 7.26652 6.69399
#
# Compressibility (1/GPa) = 0.03560041
#
# Stress axis : x y z
#
# Youngs Moduli (GPa) = 23.35752 50.39337 76.03113
#
# Poissons Ratio (x) = 0.43446 0.26368
# Poissons Ratio (y) = 0.20138 0.60938
# Poissons Ratio (z) = 0.08101 0.40389
#
# Static dielectric constant tensor:
#      x y z
#    x 1.488440 0.000000 0.000000 
#    y 0.000000 1.460980 0.000000 
#    z 0.000000 0.000000 1.495550 
# 
# From -- ./inp_files/19767.got.cif
#   From: 2010.05.17/outbox.cif.g08.bks.cpg/sg40_10_cif.got.tgz:19767.got - 2010.06.03 18:35:42.
