data_PCOD9362301
_publ_section_title
;
Structure prediction by ZEFSAII (Michael W. Deem and Ramdas Pophale) SiO2 
 PCOD9362301
Probable space group: A M A 2
;
_chemical_formula_sum "Si O2"
_cell_formula_units_Z 48
_cell_length_a 8.597796
_cell_length_b 9.242623
_cell_length_c 32.512798
_cell_angle_alpha 90.000000
_cell_angle_beta 90.000000
_cell_angle_gamma 90.000000
_cell_volume 2583.668088
_symmetry_space_group_name_H-M "A M A 2"
_symmetry_group_IT_number 40
_symmetry_cell_setting 'orthorhombic'
loop_
_space_group_symop_operation_xyz
x,y,z
-x,-y,z
1/2-x,y,z
1/2+x,-y,z
x,1/2+y,1/2+z
-x,1/2-y,1/2+z
1/2-x,1/2+y,1/2+z
1/2+x,1/2-y,1/2+z
loop_
_atom_site_type_symbol
_atom_site_label
_atom_site_fract_x
_atom_site_fract_y
_atom_site_fract_z
Si Si1 0.937672 0.336651 0.694010
Si Si2 0.062847 0.662226 0.855419
Si Si3 0.562277 0.161622 0.773890
Si Si4 0.564245 0.836115 0.933246
Si Si5 0.063472 0.164748 0.103521
Si Si6 0.564579 0.165049 0.019160
O O1 0.750000 0.344216 0.695182
O O2 0.991789 0.240083 0.732090
O O3 0.979681 0.275862 0.648649
O O4 0.000000 0.500000 0.698009
O O5 0.250000 0.661500 0.857759
O O6 0.015705 0.746982 0.813982
O O7 0.000000 0.500000 0.853811
O O8 0.995372 0.743876 0.894986
O O9 0.750000 0.157641 0.773073
O O10 0.500000 0.000000 0.776574
O O11 0.750000 0.841433 0.934252
O O12 0.501895 0.773343 0.976635
O O13 0.500000 0.000000 0.929156
O O14 0.250000 0.161902 0.099581
O O15 0.000000 0.000000 0.104878
O O16 0.992627 0.232722 0.062179
O O17 0.750000 0.161536 0.017944
O O18 0.500000 0.000000 0.019623
#
# Coordination Sequence:
#
# PCOD9362301 Si02
#       6
#     8   8   8   8   8   8
#     4   9  18  32  51  77 107 139 176 218 262 311
#     4  11  23  39  58  81 108 139 177 219 267 321
#     4  10  22  38  56  79 107 139 176 217 262 314
#     4  11  21  35  55  80 110 143 180 222 269 317
#     4   9  15  25  43  69 102 136 172 214 261 308
#     4  10  17  27  45  72 105 138 176 218 262 311
#
# _framework density 18.578237000000001
#
# number of rings (size 3 to 8) (size 9 to 14) (size 15 to 20)
#    0.000    2.000    0.000    7.000    0.000    4.000 
#    0.000    0.000    0.000    1.000    0.000    4.667 
#    0.000    0.000    0.000    0.000    0.000    0.000 
#
# Total GULP energy -133914.517416 kJ/mol
# GULP energy per Si atom -5579.771559 kJ/mol
# Density = 1.853595 g / cm^3
# Si number density = 18.578237 Si / 1000 Ang^3
#
#
#
# Elastic Constant Matrix: (Units=GPa)
#
#
# Indices 1 2 3 4 5 6 
#
# 1 97.4062 28.7376 69.5994 0.0000 0.0000 0.0000
# 2 28.7376 81.9056 81.8017 0.0000 0.0000 0.0000
# 3 69.5994 81.8017 238.1885 0.0000 0.0000 0.0000
# 4 0.0000 0.0000 0.0000 24.4275 0.0000 0.0000
# 5 0.0000 0.0000 0.0000 0.0000 24.5754 0.0000
# 6 0.0000 0.0000 0.0000 0.0000 0.0000 23.2481
#
#
#
# Elastic Compliance Matrix: (Units=1/GPa)
#
#
# Indices 1 2 3 4 5 6 
#
# 1 0.013049 -0.001172 -0.003410 0.000000 0.000000 0.000000
# 2 -0.001172 0.018688 -0.006076 0.000000 0.000000 0.000000
# 3 -0.003410 -0.006076 0.007281 0.000000 0.000000 0.000000
# 4 0.000000 0.000000 0.000000 0.040937 0.000000 0.000000
# 5 0.000000 0.000000 0.000000 0.000000 0.040691 0.000000
# 6 0.000000 0.000000 0.000000 0.000000 0.000000 0.043014
#
#
# Mechanical properties :
#
#
# Convention : Reuss Voigt Hill
#
# Bulk Modulus (GPa) = 56.49035 86.41974 71.45504
# Shear Modulus (GPa) = 26.19460 30.27432 28.23446
#
# Velocity S-wave (km/s) = 3.75902 4.04116 3.90264
# Velocity P-wave (km/s) = 7.02232 8.26996 7.67155
#
# Compressibility (1/GPa) = 0.01770214
#
# Stress axis : x y z
#
# Youngs Moduli (GPa) = 76.63463 53.50889 137.33568
#
# Poissons Ratio (x) = 0.06273 0.46836
# Poissons Ratio (y) = 0.08985 0.83440
# Poissons Ratio (z) = 0.26135 0.32510
#
# Static dielectric constant tensor:
#      x y z
#    x 1.625190 0.000000 0.000000 
#    y 0.000000 1.630940 0.000000 
#    z 0.000000 0.000000 1.702880 
# 
# From -- ./inp_files/26144.got.cif
#   From: 2010.05.17/outbox.cif.g08.bks.cpg/sg40_14_cif.got.tgz:26144.got - 2010.06.03 18:35:42.
