data_PCOD9362129
_publ_section_title
;
Structure prediction by ZEFSAII (Michael W. Deem and Ramdas Pophale) SiO2 
 PCOD9362129
Probable space group: A B M 2
;
_chemical_formula_sum "Si O2"
_cell_formula_units_Z 44
_cell_length_a 8.258521
_cell_length_b 27.806771
_cell_length_c 7.689256
_cell_angle_alpha 90.000000
_cell_angle_beta 90.000000
_cell_angle_gamma 90.000000
_cell_volume 1765.782295
_symmetry_space_group_name_H-M "A B M 2"
_symmetry_group_IT_number 39
_symmetry_cell_setting 'orthorhombic'
loop_
_space_group_symop_operation_xyz
x,y,z
-x,-y,z
-x,1/2+y,z
x,1/2-y,z
x,1/2+y,1/2+z
-x,1/2-y,1/2+z
-x,y,1/2+z
x,-y,1/2+z
loop_
_atom_site_type_symbol
_atom_site_label
_atom_site_fract_x
_atom_site_fract_y
_atom_site_fract_z
Si Si1 0.863844 0.401600 0.011380
Si Si2 0.282271 0.441703 0.197352
Si Si3 0.617282 0.905582 0.829488
Si Si4 0.000000 0.500000 0.136548
Si Si5 0.283626 0.196878 0.942731
Si Si6 0.992052 0.303195 0.143072
O O1 0.720722 0.404609 0.152772
O O2 0.945976 0.351488 0.044628
O O3 0.969464 0.449588 0.040756
O O4 0.814607 0.403139 0.811335
O O5 0.458000 0.436126 0.283428
O O6 0.174391 0.489438 0.224807
O O7 0.302744 0.430517 0.995924
O O8 0.606340 0.849411 0.895474
O O9 0.361145 0.250000 0.926204
O O10 0.131414 0.195307 0.806865
O O11 0.189228 0.195202 0.128897
O O12 0.953722 0.250000 0.066229
#
# Coordination Sequence:
#
# PCOD9362129 Si02
#       6
#     8   8   8   4   8   8
#     4  11  26  47  71 108 148 189 253 310 372 450
#     4  12  27  50  74 106 148 197 248 309 383 452
#     4  11  25  48  73 103 151 199 244 308 383 451
#     4  12  30  48  78 110 144 198 256 314 378 450
#     4   9  19  37  65 105 149 195 250 310 373 443
#     4   9  19  37  67 103 143 191 247 311 369 437
#
# _framework density 24.918133000000001
#
# number of rings (size 3 to 8) (size 9 to 14) (size 15 to 20)
#    0.000    1.455    1.818    1.636   12.727    0.727 
#    0.000    1.818    0.000    1.091    0.000    0.000 
#    0.000    0.000    0.000    0.000    0.000    0.000 
#
# Total GULP energy -122652.014527 kJ/mol
# GULP energy per Si atom -5575.091569 kJ/mol
# Density = 2.486142 g / cm^3
# Si number density = 24.918133 Si / 1000 Ang^3
#
#
#
# Elastic Constant Matrix: (Units=GPa)
#
#
# Indices 1 2 3 4 5 6 
#
# 1 111.5803 76.2271 32.1152 0.0000 0.0000 0.0000
# 2 76.2271 181.9696 45.5330 0.0000 0.0000 0.0000
# 3 32.1152 45.5330 104.2205 0.0000 0.0000 0.0000
# 4 0.0000 0.0000 0.0000 17.2963 0.0000 0.0000
# 5 0.0000 0.0000 0.0000 0.0000 29.2276 0.0000
# 6 0.0000 0.0000 0.0000 0.0000 0.0000 29.4798
#
#
#
# Elastic Compliance Matrix: (Units=1/GPa)
#
#
# Indices 1 2 3 4 5 6 
#
# 1 0.012851 -0.004931 -0.001805 0.000000 0.000000 0.000000
# 2 -0.004931 0.008062 -0.002003 0.000000 0.000000 0.000000
# 3 -0.001805 -0.002003 0.011026 0.000000 0.000000 0.000000
# 4 0.000000 0.000000 0.000000 0.057816 0.000000 0.000000
# 5 0.000000 0.000000 0.000000 0.000000 0.034214 0.000000
# 6 0.000000 0.000000 0.000000 0.000000 0.000000 0.033922
#
#
# Mechanical properties :
#
#
# Convention : Reuss Voigt Hill
#
# Bulk Modulus (GPa) = 69.15517 78.39123 73.77320
# Shear Modulus (GPa) = 27.74842 31.46039 29.60441
#
# Velocity S-wave (km/s) = 3.34066 3.55709 3.45057
# Velocity P-wave (km/s) = 6.53400 6.95689 6.74876
#
# Compressibility (1/GPa) = 0.01446024
#
# Stress axis : x y z
#
# Youngs Moduli (GPa) = 77.81655 124.03356 90.69167
#
# Poissons Ratio (x) = 0.61166 0.16374
# Poissons Ratio (y) = 0.38375 0.18163
# Poissons Ratio (z) = 0.14049 0.24841
#
# Static dielectric constant tensor:
#      x y z
#    x 2.127540 0.000000 0.000000 
#    y 0.000000 1.944790 0.000000 
#    z 0.000000 0.000000 2.059260 
# 
# From -- ./inp_files/2256.got.cif
#   From: 2010.05.17/outbox.cif.g08.bks.cpg/sg39_2_cif.got.tgz:2256.got - 2010.06.03 18:22:40.
