data_PCOD9362022
_publ_section_title
;
Structure prediction by ZEFSAII (Michael W. Deem and Ramdas Pophale) SiO2 
 PCOD9362022
Probable space group: A B M 2
;
_chemical_formula_sum "Si O2"
_cell_formula_units_Z 32
_cell_length_a 8.688057
_cell_length_b 15.574930
_cell_length_c 11.068073
_cell_angle_alpha 90.000000
_cell_angle_beta 90.000000
_cell_angle_gamma 90.000000
_cell_volume 1497.686034
_symmetry_space_group_name_H-M "A B M 2"
_symmetry_group_IT_number 39
_symmetry_cell_setting 'orthorhombic'
loop_
_space_group_symop_operation_xyz
x,y,z
-x,-y,z
-x,1/2+y,z
x,1/2-y,z
x,1/2+y,1/2+z
-x,1/2-y,1/2+z
-x,y,1/2+z
x,-y,1/2+z
loop_
_atom_site_type_symbol
_atom_site_label
_atom_site_fract_x
_atom_site_fract_y
_atom_site_fract_z
Si Si1 0.072322 0.904508 0.325100
Si Si2 0.594685 0.652626 0.810578
Si Si3 0.062273 0.402003 0.565130
Si Si4 0.569435 0.094919 0.048558
O O1 0.257254 0.908679 0.326503
O O2 0.028090 0.863255 0.196744
O O3 0.014481 0.861137 0.447570
O O4 0.000000 0.000000 0.325371
O O5 0.653559 0.750000 0.807177
O O6 0.521489 0.633518 0.679336
O O7 0.488521 0.641202 0.927410
O O8 0.245566 0.404488 0.548776
O O9 0.000000 0.500000 0.570900
O O10 0.500000 0.000000 0.044066
#
# Coordination Sequence:
#
# PCOD9362022 Si02
#       4
#     8   8   8   8
#     4   9  18  35  57  81 113 155 199 241 290 357
#     4  11  24  41  60  91 129 160 197 256 314 358
#     4   9  18  32  55  84 112 144 197 250 285 336
#     4  11  22  38  64  92 120 163 210 247 294 369
#
# _framework density 21.366292999999999
#
# number of rings (size 3 to 8) (size 9 to 14) (size 15 to 20)
#    0.000    2.000    0.000    4.500    0.000    8.000 
#    0.000    6.250    0.000    0.000    0.000    0.000 
#    0.000    0.000    0.000    0.000    0.000    0.000 
#
# Total GULP energy -89250.587144 kJ/mol
# GULP energy per Si atom -5578.161696 kJ/mol
# Density = 2.131766 g / cm^3
# Si number density = 21.366293 Si / 1000 Ang^3
#
#
#
# Elastic Constant Matrix: (Units=GPa)
#
#
# Indices 1 2 3 4 5 6 
#
# 1 39.3775 -3.6878 48.3289 0.0000 0.0000 0.0000
# 2 -3.6878 51.9157 0.6048 0.0000 0.0000 0.0000
# 3 48.3289 0.6048 257.4586 0.0000 0.0000 0.0000
# 4 0.0000 0.0000 0.0000 20.7514 0.0000 0.0000
# 5 0.0000 0.0000 0.0000 0.0000 40.5130 0.0000
# 6 0.0000 0.0000 0.0000 0.0000 0.0000 3.2666
#
#
#
# Elastic Compliance Matrix: (Units=1/GPa)
#
#
# Indices 1 2 3 4 5 6 
#
# 1 0.033303 0.002439 -0.006257 0.000000 0.000000 0.000000
# 2 0.002439 0.019441 -0.000503 0.000000 0.000000 0.000000
# 3 -0.006257 -0.000503 0.005060 0.000000 0.000000 0.000000
# 4 0.000000 0.000000 0.000000 0.048190 0.000000 0.000000
# 5 0.000000 0.000000 0.000000 0.000000 0.024683 0.000000
# 6 0.000000 0.000000 0.000000 0.000000 0.000000 0.306132
#
#
# Mechanical properties :
#
#
# Convention : Reuss Voigt Hill
#
# Bulk Modulus (GPa) = 20.34173 48.80482 34.57327
# Shear Modulus (GPa) = 10.82626 33.13991 21.98309
#
# Velocity S-wave (km/s) = 2.25344 3.94259 3.21108
# Velocity P-wave (km/s) = 4.03879 6.60431 5.47397
#
# Compressibility (1/GPa) = 0.04916004
#
# Stress axis : x y z
#
# Youngs Moduli (GPa) = 30.02711 51.43747 197.63304
#
# Poissons Ratio (x) = -0.12544 1.23664
# Poissons Ratio (y) = -0.07322 0.09949
# Poissons Ratio (z) = 0.18789 0.02590
#
# Static dielectric constant tensor:
#      x y z
#    x 1.747560 0.000000 0.000000 
#    y 0.000000 1.746060 0.000000 
#    z 0.000000 0.000000 1.873610 
# 
# From -- ./inp_files/4798.got.cif
#   From: 2010.05.17/outbox.cif.g08.bks.cpg/sg39_3_cif.got.tgz:4798.got - 2010.06.03 18:22:40.
