data_PCOD9362618
_publ_section_title
;
Structure prediction by ZEFSAII (Michael W. Deem and Ramdas Pophale) SiO2 
 PCOD9362618
Probable space group: A M A 2
;
_chemical_formula_sum "Si O2"
_cell_formula_units_Z 64
_cell_length_a 31.122755
_cell_length_b 5.366391
_cell_length_c 17.620720
_cell_angle_alpha 90.000000
_cell_angle_beta 90.000000
_cell_angle_gamma 90.000000
_cell_volume 2942.957543
_symmetry_space_group_name_H-M "A M A 2"
_symmetry_group_IT_number 40
_symmetry_cell_setting 'orthorhombic'
loop_
_space_group_symop_operation_xyz
x,y,z
-x,-y,z
1/2-x,y,z
1/2+x,-y,z
x,1/2+y,1/2+z
-x,1/2-y,1/2+z
1/2-x,1/2+y,1/2+z
1/2+x,1/2-y,1/2+z
loop_
_atom_site_type_symbol
_atom_site_label
_atom_site_fract_x
_atom_site_fract_y
_atom_site_fract_z
Si Si1 0.490701 0.251568 0.951820
Si Si2 0.601794 0.247110 0.524914
Si Si3 0.975345 0.251603 0.122601
Si Si4 0.298295 0.035184 0.763940
Si Si5 0.844553 0.458394 0.811340
Si Si6 0.607705 0.011781 0.170845
Si Si7 0.149742 0.742691 0.981318
Si Si8 0.702333 0.678855 0.616171
O O1 0.500000 0.500000 0.907185
O O2 0.442273 0.260491 0.979755
O O3 0.500000 0.000000 0.908916
O O4 0.520423 0.249574 0.029238
O O5 0.592106 0.302505 0.612719
O O6 0.627645 0.485730 0.490539
O O7 0.624858 0.983291 0.521604
O O8 0.926770 0.227023 0.152819
O O9 0.000000 0.500000 0.146772
O O10 0.000000 0.000000 0.146980
O O11 0.250000 0.061999 0.793163
O O12 0.325661 0.260859 0.802274
O O13 0.297838 0.088370 0.673757
O O14 0.314290 0.757194 0.776938
O O15 0.887246 0.456318 0.759354
O O16 0.849151 0.360152 0.896344
O O17 0.657466 0.052091 0.143148
O O18 0.194213 0.763672 0.027953
O O19 0.750000 0.560920 0.626461
#
# Coordination Sequence:
#
# PCOD9362618 Si02
#       8
#     8   8   8   8   8   8   8   8
#     4  10  18  31  55  92 117 143 202 263 306 365
#     4  11  21  38  62  91 120 162 208 263 311 371
#     4  10  20  32  57  95 121 149 206 270 312 372
#     4  10  21  40  64  89 120 163 221 272 314 372
#     4  11  23  40  61  92 127 174 211 259 326 393
#     4  10  21  39  65  94 127 167 216 270 320 372
#     4  11  24  39  60  88 131 170 209 254 320 387
#     4   9  21  39  62  93 127 164 212 267 319 372
#
# _framework density 21.746831
#
# number of rings (size 3 to 8) (size 9 to 14) (size 15 to 20)
#    0.000    1.750    2.500    2.625    5.250    3.500 
#    0.000    5.000    0.000    3.000    0.000    0.000 
#    0.000    0.000    0.000    0.000    0.000    0.000 
#
# Total GULP energy -178330.025599 kJ/mol
# GULP energy per Si atom -5572.813300 kJ/mol
# Density = 2.169733 g / cm^3
# Si number density = 21.746831 Si / 1000 Ang^3
#
#
#
# Elastic Constant Matrix: (Units=GPa)
#
#
# Indices 1 2 3 4 5 6 
#
# 1 93.3697 44.8629 16.7270 0.0000 0.0000 0.0000
# 2 44.8629 129.5372 0.9435 0.0000 0.0000 0.0000
# 3 16.7270 0.9435 83.0575 0.0000 0.0000 0.0000
# 4 0.0000 0.0000 0.0000 -37.0931 0.0000 0.0000
# 5 0.0000 0.0000 0.0000 0.0000 1.5682 0.0000
# 6 0.0000 0.0000 0.0000 0.0000 0.0000 32.2888
#
#
#
# Elastic Compliance Matrix: (Units=1/GPa)
#
#
# Indices 1 2 3 4 5 6 
#
# 1 0.013406 -0.004624 -0.002647 0.000000 0.000000 0.000000
# 2 -0.004624 0.009315 0.000825 0.000000 0.000000 0.000000
# 3 -0.002647 0.000825 0.012564 0.000000 0.000000 0.000000
# 4 0.000000 0.000000 0.000000 -0.026959 0.000000 0.000000
# 5 0.000000 0.000000 0.000000 0.000000 0.637675 0.000000
# 6 0.000000 0.000000 0.000000 0.000000 0.000000 0.030971
#
#
# Mechanical properties :
#
#
# Convention : Reuss Voigt Hill
#
# Bulk Modulus (GPa) = 44.65586 47.89233 46.27410
# Shear Modulus (GPa) = 7.17024 15.58152 11.37588
#
# Velocity S-wave (km/s) = 1.81777 2.67965 2.28963
# Velocity P-wave (km/s) = 4.99847 5.62534 5.32115
#
# Compressibility (1/GPa) = 0.02239348
#
# Stress axis : x y z
#
# Youngs Moduli (GPa) = 74.59368 107.35265 79.59490
#
# Poissons Ratio (x) = 0.49636 0.21071
# Poissons Ratio (y) = 0.34489 -0.06569
# Poissons Ratio (z) = 0.19747 -0.08860
#
# Static dielectric constant tensor:
#      x y z
#    x 1.862260 0.000000 0.000000 
#    y 0.000000 1.867290 0.000000 
#    z 0.000000 0.000000 1.854680 
# 
# From -- ./inp_files/21688.got.cif
#   From: 2010.05.17/outbox.cif.g08.bks.cpg/sg40_11_cif.got.tgz:21688.got - 2010.06.03 18:35:42.
