data_PCOD9362409
_publ_section_title
;
Structure prediction by ZEFSAII (Michael W. Deem and Ramdas Pophale) SiO2 
 PCOD9362409
Probable space group: A M A 2
;
_chemical_formula_sum "Si O2"
_cell_formula_units_Z 60
_cell_length_a 9.235543
_cell_length_b 11.077631
_cell_length_c 33.800454
_cell_angle_alpha 90.000000
_cell_angle_beta 90.000000
_cell_angle_gamma 90.000000
_cell_volume 3458.054733
_symmetry_space_group_name_H-M "A M A 2"
_symmetry_group_IT_number 40
_symmetry_cell_setting 'orthorhombic'
loop_
_space_group_symop_operation_xyz
x,y,z
-x,-y,z
1/2-x,y,z
1/2+x,-y,z
x,1/2+y,1/2+z
-x,1/2-y,1/2+z
1/2-x,1/2+y,1/2+z
1/2+x,1/2-y,1/2+z
loop_
_atom_site_type_symbol
_atom_site_label
_atom_site_fract_x
_atom_site_fract_y
_atom_site_fract_z
Si Si1 0.577031 0.628669 0.018320
Si Si2 0.578790 0.625777 0.752355
Si Si3 0.088159 0.212971 0.677475
Si Si4 0.424931 0.621346 0.381763
Si Si5 0.000000 0.500000 0.233983
Si Si6 0.077851 0.369580 0.104257
Si Si7 0.914150 0.674205 0.301021
Si Si8 0.924213 0.132204 0.429515
O O1 0.500000 0.500000 0.020166
O O2 0.750000 0.613112 0.018126
O O3 0.542203 0.687061 0.060980
O O4 0.539090 0.674843 0.974593
O O5 0.500000 0.500000 0.754650
O O6 0.750000 0.619939 0.760712
O O7 0.561304 0.680383 0.708405
O O8 0.498906 0.713337 0.782782
O O9 0.250000 0.221684 0.661103
O O10 0.977333 0.204754 0.641663
O O11 0.078822 0.093329 0.704966
O O12 0.500000 0.500000 0.399661
O O13 0.250000 0.606967 0.381261
O O14 0.491481 0.630153 0.337850
O O15 0.458781 0.751455 0.402217
O O16 0.908323 0.579302 0.264750
O O17 0.250000 0.387111 0.106732
O O18 0.000000 0.500000 0.106872
O O19 0.750000 0.701208 0.313543
O O20 0.750000 0.112632 0.426830
O O21 0.000000 0.000000 0.422210
#
# Coordination Sequence:
#
# PCOD9362409 Si02
#       8
#     8   8   8   8   4   8   8   8
#     4   8  15  29  48  73 104 137 171 214 267 321
#     4  10  22  39  56  75 101 136 182 226 268 318
#     4  10  20  32  49  74 105 136 171 215 259 311
#     4  11  23  38  57  83 114 147 185 232 282 337
#     4  10  20  32  52  76 106 138 174 208 254 318
#     4  10  18  27  45  74 107 138 172 214 265 321
#     4  11  22  36  57  79 105 139 175 219 270 320
#     4   9  19  36  58  82 109 143 183 228 278 335
#
# _framework density 17.350795000000002
#
# number of rings (size 3 to 8) (size 9 to 14) (size 15 to 20)
#    0.000    2.133    1.333    2.000    0.000    5.867 
#    0.000    1.333    0.000    0.800    0.000    3.733 
#    0.000    0.000    0.000    0.000    0.000    0.000 
#
# Total GULP energy -167008.012956 kJ/mol
# GULP energy per Si atom -5566.933765 kJ/mol
# Density = 1.731130 g / cm^3
# Si number density = 17.350795 Si / 1000 Ang^3
#
#
#
# Elastic Constant Matrix: (Units=GPa)
#
#
# Indices 1 2 3 4 5 6 
#
# 1 80.3064 46.7416 42.2826 0.0000 0.0000 0.0000
# 2 46.7416 102.1789 43.7023 0.0000 0.0000 0.0000
# 3 42.2826 43.7023 94.0853 0.0000 0.0000 0.0000
# 4 0.0000 0.0000 0.0000 8.6722 0.0000 0.0000
# 5 0.0000 0.0000 0.0000 0.0000 -12.0040 0.0000
# 6 0.0000 0.0000 0.0000 0.0000 0.0000 33.9791
#
#
#
# Elastic Compliance Matrix: (Units=1/GPa)
#
#
# Indices 1 2 3 4 5 6 
#
# 1 0.019108 -0.006325 -0.005650 0.000000 0.000000 0.000000
# 2 -0.006325 0.014306 -0.003803 0.000000 0.000000 0.000000
# 3 -0.005650 -0.003803 0.014934 0.000000 0.000000 0.000000
# 4 0.000000 0.000000 0.000000 0.115311 0.000000 0.000000
# 5 0.000000 0.000000 0.000000 0.000000 -0.083306 0.000000
# 6 0.000000 0.000000 0.000000 0.000000 0.000000 0.029430
#
#
# Mechanical properties :
#
#
# Convention : Reuss Voigt Hill
#
# Bulk Modulus (GPa) = 59.54387 60.22483 59.88435
# Shear Modulus (GPa) = 34.02838 15.71907 24.87372
#
# Velocity S-wave (km/s) = 4.43335 3.01318 3.79037
# Velocity P-wave (km/s) = 7.78449 6.84771 7.33108
#
# Compressibility (1/GPa) = 0.01679434
#
# Stress axis : x y z
#
# Youngs Moduli (GPa) = 52.33385 69.89833 66.96095
#
# Poissons Ratio (x) = 0.44208 0.37830
# Poissons Ratio (y) = 0.33099 0.25465
# Poissons Ratio (z) = 0.29566 0.26582
#
# Static dielectric constant tensor:
#      x y z
#    x 1.590030 0.000000 0.000000 
#    y 0.000000 1.533260 0.000000 
#    z 0.000000 0.000000 1.628450 
# 
# From -- ./inp_files/26332.got.cif
#   From: 2010.05.17/outbox.cif.g08.bks.cpg/sg40_14_cif.got.tgz:26332.got - 2010.06.03 18:35:42.
