data_PCOD9362522
_publ_section_title
;
Structure prediction by ZEFSAII (Michael W. Deem and Ramdas Pophale) SiO2 
 PCOD9362522
Probable space group: A M A 2
;
_chemical_formula_sum "Si O2"
_cell_formula_units_Z 64
_cell_length_a 8.852095
_cell_length_b 19.096667
_cell_length_c 22.141769
_cell_angle_alpha 90.000000
_cell_angle_beta 90.000000
_cell_angle_gamma 90.000000
_cell_volume 3742.966643
_symmetry_space_group_name_H-M "A M A 2"
_symmetry_group_IT_number 40
_symmetry_cell_setting 'orthorhombic'
loop_
_space_group_symop_operation_xyz
x,y,z
-x,-y,z
1/2-x,y,z
1/2+x,-y,z
x,1/2+y,1/2+z
-x,1/2-y,1/2+z
1/2-x,1/2+y,1/2+z
1/2+x,1/2-y,1/2+z
loop_
_atom_site_type_symbol
_atom_site_label
_atom_site_fract_x
_atom_site_fract_y
_atom_site_fract_z
Si Si1 0.433017 0.073652 0.578910
Si Si2 0.569693 0.572730 0.493314
Si Si3 0.419169 0.562962 0.941500
Si Si4 0.933957 0.722885 0.445742
Si Si5 0.929854 0.076551 0.250536
Si Si6 0.431121 0.279711 0.071453
Si Si7 0.431964 0.361296 0.619791
Si Si8 0.077422 0.682408 0.843646
O O1 0.250000 0.074164 0.583558
O O2 0.483093 0.074268 0.507996
O O3 0.500113 0.148402 0.598903
O O4 0.500000 0.000000 0.603644
O O5 0.500000 0.500000 0.473290
O O6 0.750000 0.566829 0.491672
O O7 0.527298 0.641663 0.455626
O O8 0.525512 0.590896 0.562408
O O9 0.500000 0.500000 0.908316
O O10 0.250000 0.538767 0.951790
O O11 0.418144 0.630194 0.900894
O O12 0.750000 0.730763 0.449712
O O13 0.981680 0.749338 0.379140
O O14 0.003653 0.763748 0.503612
O O15 0.750000 0.070573 0.256719
O O16 0.967334 0.100432 0.182242
O O17 0.987614 0.139270 0.293637
O O18 0.000000 0.000000 0.262852
O O19 0.250000 0.283936 0.068843
O O20 0.485838 0.212873 0.110375
O O21 0.250000 0.349447 0.616891
O O22 0.250000 0.694034 0.822555
#
# Coordination Sequence:
#
# PCOD9362522 Si02
#       8
#     8   8   8   8   8   8   8   8
#     4  10  18  30  45  66  98 132 166 202 245 299
#     4   9  17  30  51  74  98 127 160 200 251 305
#     4   9  17  27  41  60  86 125 163 196 233 279
#     4   9  18  34  50  68  98 136 169 202 252 310
#     4  11  23  37  53  75 103 137 177 216 256 299
#     4  11  20  30  49  76 100 127 167 214 260 306
#     4   9  20  37  53  69  97 137 172 208 255 305
#     4  10  19  33  50  68  95 133 173 209 248 294
#
# _framework density 17.098735999999999
#
# number of rings (size 3 to 8) (size 9 to 14) (size 15 to 20)
#    0.000    2.250    1.250    3.375    0.000    5.500 
#    0.000    0.000    0.000    0.000    0.000    0.875 
#    0.000    4.000    0.000    0.000    0.000    0.000 
#
# Total GULP energy -178198.189314 kJ/mol
# GULP energy per Si atom -5568.693416 kJ/mol
# Density = 1.705982 g / cm^3
# Si number density = 17.098736 Si / 1000 Ang^3
#
#
#
# Elastic Constant Matrix: (Units=GPa)
#
#
# Indices 1 2 3 4 5 6 
#
# 1 38.0894 40.2354 21.2245 0.0000 0.0000 0.0000
# 2 40.2354 137.8534 34.5319 0.0000 0.0000 0.0000
# 3 21.2245 34.5319 64.3995 0.0000 0.0000 0.0000
# 4 0.0000 0.0000 0.0000 17.0435 0.0000 0.0000
# 5 0.0000 0.0000 0.0000 0.0000 14.3733 0.0000
# 6 0.0000 0.0000 0.0000 0.0000 0.0000 27.9080
#
#
#
# Elastic Compliance Matrix: (Units=1/GPa)
#
#
# Indices 1 2 3 4 5 6 
#
# 1 0.041463 -0.010025 -0.008290 0.000000 0.000000 0.000000
# 2 -0.010025 0.010804 -0.002489 0.000000 0.000000 0.000000
# 3 -0.008290 -0.002489 0.019595 0.000000 0.000000 0.000000
# 4 0.000000 0.000000 0.000000 0.058674 0.000000 0.000000
# 5 0.000000 0.000000 0.000000 0.000000 0.069573 0.000000
# 6 0.000000 0.000000 0.000000 0.000000 0.000000 0.035832
#
#
# Mechanical properties :
#
#
# Convention : Reuss Voigt Hill
#
# Bulk Modulus (GPa) = 33.05353 48.03622 40.54487
# Shear Modulus (GPa) = 17.38324 21.48832 19.43578
#
# Velocity S-wave (km/s) = 3.19194 3.54887 3.37513
# Velocity P-wave (km/s) = 5.74087 6.70426 6.24118
#
# Compressibility (1/GPa) = 0.03025396
#
# Stress axis : x y z
#
# Youngs Moduli (GPa) = 24.11761 92.56079 51.03417
#
# Poissons Ratio (x) = 0.92797 0.42305
# Poissons Ratio (y) = 0.24179 0.12702
# Poissons Ratio (z) = 0.19992 0.23038
#
# Static dielectric constant tensor:
#      x y z
#    x 1.586760 0.000000 0.000000 
#    y 0.000000 1.651230 0.000000 
#    z 0.000000 0.000000 1.583940 
# 
# From -- ./inp_files/24396.got.cif
#   From: 2010.05.17/outbox.cif.g08.bks.cpg/sg40_13_cif.got.tgz:24396.got - 2010.06.03 18:35:42.
