data_PCOD9362574
_publ_section_title
;
Structure prediction by ZEFSAII (Michael W. Deem and Ramdas Pophale) SiO2 
 PCOD9362574
Probable space group: A M A 2
;
_chemical_formula_sum "Si O2"
_cell_formula_units_Z 64
_cell_length_a 8.104884
_cell_length_b 19.265545
_cell_length_c 22.385090
_cell_angle_alpha 90.000000
_cell_angle_beta 90.000000
_cell_angle_gamma 90.000000
_cell_volume 3495.320044
_symmetry_space_group_name_H-M "A M A 2"
_symmetry_group_IT_number 40
_symmetry_cell_setting 'orthorhombic'
loop_
_space_group_symop_operation_xyz
x,y,z
-x,-y,z
1/2-x,y,z
1/2+x,-y,z
x,1/2+y,1/2+z
-x,1/2-y,1/2+z
1/2-x,1/2+y,1/2+z
1/2+x,1/2-y,1/2+z
loop_
_atom_site_type_symbol
_atom_site_label
_atom_site_fract_x
_atom_site_fract_y
_atom_site_fract_z
Si Si1 0.552850 0.575957 0.133090
Si Si2 0.562580 0.684854 0.778819
Si Si3 0.548953 0.130856 0.505647
Si Si4 0.943077 0.572159 0.560444
Si Si5 0.939922 0.425096 0.694192
Si Si6 0.550140 0.078397 0.376880
Si Si7 0.446227 0.221016 0.052458
Si Si8 0.553180 0.279668 0.180682
O O1 0.500000 0.500000 0.152921
O O2 0.750000 0.581101 0.133219
O O3 0.494741 0.589421 0.064684
O O4 0.484492 0.639679 0.171256
O O5 0.750000 0.702662 0.796681
O O6 0.557856 0.630303 0.724277
O O7 0.488166 0.639393 0.832586
O O8 0.487119 0.750695 0.744149
O O9 0.750000 0.130652 0.505144
O O10 0.493956 0.096732 0.444000
O O11 0.497880 0.211035 0.515520
O O12 0.750000 0.565769 0.573790
O O13 0.000000 0.500000 0.529840
O O14 0.041614 0.575411 0.622942
O O15 0.975354 0.647963 0.533029
O O16 0.750000 0.411988 0.710295
O O17 0.000000 0.500000 0.715038
O O18 0.750000 0.080381 0.374556
O O19 0.500000 0.000000 0.360923
O O20 0.250000 0.214597 0.046327
O O21 0.482738 0.240055 0.122101
O O22 0.750000 0.268893 0.179958
#
# Coordination Sequence:
#
# PCOD9362574 Si02
#       8
#     8   8   8   8   8   8   8   8
#     4  10  19  32  51  75 100 127 159 201 251 304
#     4  10  20  32  47  67  96 130 168 204 242 286
#     4   8  17  32  51  72  98 129 167 205 246 292
#     4  11  20  30  44  66  95 126 160 198 242 295
#     4  11  20  29  43  61  89 126 163 199 237 280
#     4  10  20  35  51  71  99 135 172 210 242 283
#     4  10  18  31  49  71  96 128 164 206 252 300
#     4  10  19  31  47  69  97 129 163 203 245 298
#
# _framework density 18.310196000000001
#
# number of rings (size 3 to 8) (size 9 to 14) (size 15 to 20)
#    0.000    2.000    1.250    5.625    0.000    2.000 
#    0.000    3.125    0.000    0.000    0.000    0.875 
#    0.000    0.000    0.000    0.000    0.000    0.000 
#
# Total GULP energy -178383.710841 kJ/mol
# GULP energy per Si atom -5574.490964 kJ/mol
# Density = 1.826852 g / cm^3
# Si number density = 18.310196 Si / 1000 Ang^3
#
#
#
# Elastic Constant Matrix: (Units=GPa)
#
#
# Indices 1 2 3 4 5 6 
#
# 1 51.1669 7.8483 0.0059 0.0000 0.0000 0.0000
# 2 7.8483 135.5822 34.8118 0.0000 0.0000 0.0000
# 3 0.0059 34.8118 66.1500 0.0000 0.0000 0.0000
# 4 0.0000 0.0000 0.0000 23.1288 0.0000 0.0000
# 5 0.0000 0.0000 0.0000 0.0000 9.4055 0.0000
# 6 0.0000 0.0000 0.0000 0.0000 0.0000 26.9184
#
#
#
# Elastic Compliance Matrix: (Units=1/GPa)
#
#
# Indices 1 2 3 4 5 6 
#
# 1 0.019746 -0.001321 0.000693 0.000000 0.000000 0.000000
# 2 -0.001321 0.008616 -0.004534 0.000000 0.000000 0.000000
# 3 0.000693 -0.004534 0.017503 0.000000 0.000000 0.000000
# 4 0.000000 0.000000 0.000000 0.043236 0.000000 0.000000
# 5 0.000000 0.000000 0.000000 0.000000 0.106320 0.000000
# 6 0.000000 0.000000 0.000000 0.000000 0.000000 0.037149
#
#
# Mechanical properties :
#
#
# Convention : Reuss Voigt Hill
#
# Bulk Modulus (GPa) = 28.13553 37.58123 32.85838
# Shear Modulus (GPa) = 19.62764 25.90609 22.76687
#
# Velocity S-wave (km/s) = 3.27762 3.76552 3.53001
# Velocity P-wave (km/s) = 5.45189 6.28290 5.88209
#
# Compressibility (1/GPa) = 0.03554225
#
# Stress axis : x y z
#
# Youngs Moduli (GPa) = 50.64206 116.05941 57.13220
#
# Poissons Ratio (x) = 0.15333 -0.03962
# Poissons Ratio (y) = 0.06690 0.25905
# Poissons Ratio (z) = -0.03512 0.52624
#
# Static dielectric constant tensor:
#      x y z
#    x 1.741520 0.000000 0.000000 
#    y 0.000000 1.685580 0.000000 
#    z 0.000000 0.000000 1.637320 
# 
# From -- ./inp_files/24402.got.cif
#   From: 2010.05.17/outbox.cif.g08.bks.cpg/sg40_13_cif.got.tgz:24402.got - 2010.06.03 18:35:42.
