data_PCOD9362515
_publ_section_title
;
Structure prediction by ZEFSAII (Michael W. Deem and Ramdas Pophale) SiO2 
 PCOD9362515
Probable space group: A M A 2
;
_chemical_formula_sum "Si O2"
_cell_formula_units_Z 60
_cell_length_a 18.794624
_cell_length_b 5.208712
_cell_length_c 31.272285
_cell_angle_alpha 90.000000
_cell_angle_beta 90.000000
_cell_angle_gamma 90.000000
_cell_volume 3061.424844
_symmetry_space_group_name_H-M "A M A 2"
_symmetry_group_IT_number 40
_symmetry_cell_setting 'orthorhombic'
loop_
_space_group_symop_operation_xyz
x,y,z
-x,-y,z
1/2-x,y,z
1/2+x,-y,z
x,1/2+y,1/2+z
-x,1/2-y,1/2+z
1/2-x,1/2+y,1/2+z
1/2+x,1/2-y,1/2+z
loop_
_atom_site_type_symbol
_atom_site_label
_atom_site_fract_x
_atom_site_fract_y
_atom_site_fract_z
Si Si1 0.335676 0.738311 0.776580
Si Si2 0.075334 0.132999 0.361246
Si Si3 0.329157 0.569454 0.936598
Si Si4 0.000000 0.500000 0.424655
Si Si5 0.880127 0.905100 0.981593
Si Si6 0.664189 0.424256 0.576888
Si Si7 0.664754 0.434201 0.130964
Si Si8 0.664351 0.756094 0.723265
O O1 0.250000 0.714732 0.784005
O O2 0.380357 0.699783 0.819504
O O3 0.357584 0.517979 0.742475
O O4 0.349609 0.018012 0.756999
O O5 0.126450 0.987364 0.394534
O O6 0.053447 0.368478 0.391645
O O7 0.000000 0.000000 0.351079
O O8 0.250000 0.640946 0.922636
O O9 0.328826 0.321969 0.966727
O O10 0.358969 0.814188 0.963172
O O11 0.045692 0.667444 0.458014
O O12 0.877591 0.911423 0.032467
O O13 0.750000 0.395221 0.568736
O O14 0.653859 0.699388 0.598724
O O15 0.640843 0.199752 0.609542
O O16 0.750000 0.468097 0.136660
O O17 0.635946 0.347871 0.177256
O O18 0.750000 0.735229 0.718586
#
# Coordination Sequence:
#
# PCOD9362515 Si02
#       8
#     8   8   8   4   8   8   8   8
#     4  10  21  35  58  87 114 145 189 236 281 331
#     4  11  23  40  58  82 113 151 196 235 279 346
#     4  11  22  37  58  82 115 152 188 244 294 331
#     4  10  24  42  58  80 112 156 206 230 288 346
#     4  11  22  37  57  82 116 152 195 239 281 344
#     4  10  18  29  50  83 113 144 182 228 278 331
#     4   9  17  30  51  80 116 144 174 221 284 343
#     4   9  18  34  54  84 117 147 178 226 287 343
#
# _framework density 19.598716
#
# number of rings (size 3 to 8) (size 9 to 14) (size 15 to 20)
#    0.000    1.867    1.333    3.200    1.867    4.267 
#    0.000    2.667    0.000    0.000   10.400    0.000 
#    0.000    0.000    0.000    0.000    0.000    0.000 
#
# Total GULP energy -167185.603419 kJ/mol
# GULP energy per Si atom -5572.853447 kJ/mol
# Density = 1.955411 g / cm^3
# Si number density = 19.598716 Si / 1000 Ang^3
#
#
#
# Elastic Constant Matrix: (Units=GPa)
#
#
# Indices 1 2 3 4 5 6 
#
# 1 17.4255 3.0751 23.6107 0.0000 0.0000 0.0000
# 2 3.0751 37.4924 -29.1432 0.0000 0.0000 0.0000
# 3 23.6107 -29.1432 62.9365 0.0000 0.0000 0.0000
# 4 0.0000 0.0000 0.0000 11.9886 0.0000 0.0000
# 5 0.0000 0.0000 0.0000 0.0000 2940.2398 0.0000
# 6 0.0000 0.0000 0.0000 0.0000 0.0000 17.2232
#
#
#
# Elastic Compliance Matrix: (Units=1/GPa)
#
#
# Indices 1 2 3 4 5 6 
#
# 1 2.558528 -1.493500 -1.651411 0.000000 0.000000 0.000000
# 2 -1.493500 0.913478 0.983281 0.000000 0.000000 0.000000
# 3 -1.651411 0.983281 1.090733 0.000000 0.000000 0.000000
# 4 0.000000 0.000000 0.000000 0.083413 0.000000 0.000000
# 5 0.000000 0.000000 0.000000 0.000000 0.000340 0.000000
# 6 0.000000 0.000000 0.000000 0.000000 0.000000 0.058061
#
#
# Mechanical properties :
#
#
# Convention : Reuss Voigt Hill
#
# Bulk Modulus (GPa) = 4.17573 12.54884 8.36229
# Shear Modulus (GPa) = 0.54899 601.91111 301.23005
#
# Velocity S-wave (km/s) = 0.52983 17.54378 12.41098
# Velocity P-wave (km/s) = 1.58415 20.41558 14.47939
#
# Compressibility (1/GPa) = 0.23947897
#
# Stress axis : x y z
#
# Youngs Moduli (GPa) = 0.39085 1.09472 0.91681
#
# Poissons Ratio (x) = 1.63496 1.51404
# Poissons Ratio (y) = 0.58373 -0.90149
# Poissons Ratio (z) = 0.64545 -1.07641
#
# Static dielectric constant tensor:
#      x y z
#    x -3.288830 0.000000 0.000000 
#    y 0.000000 1.712580 0.000000 
#    z 0.000000 0.000000 1.674040 
# 
# From -- ./inp_files/25802.got.cif
#   From: 2010.05.17/outbox.cif.g08.bks.cpg/sg40_13_cif.got.tgz:25802.got - 2010.06.03 18:35:42.
