data_PCOD9362928
_publ_section_title
;
Structure prediction by ZEFSAII (Michael W. Deem and Ramdas Pophale) SiO2 
 PCOD9362928
Probable space group: A M A 2
;
_chemical_formula_sum "Si O2"
_cell_formula_units_Z 56
_cell_length_a 8.715268
_cell_length_b 13.998038
_cell_length_c 30.112657
_cell_angle_alpha 90.000000
_cell_angle_beta 90.000000
_cell_angle_gamma 90.000000
_cell_volume 3673.643356
_symmetry_space_group_name_H-M "A M A 2"
_symmetry_group_IT_number 40
_symmetry_cell_setting 'orthorhombic'
loop_
_space_group_symop_operation_xyz
x,y,z
-x,-y,z
1/2-x,y,z
1/2+x,-y,z
x,1/2+y,1/2+z
-x,1/2-y,1/2+z
1/2-x,1/2+y,1/2+z
1/2+x,1/2-y,1/2+z
loop_
_atom_site_type_symbol
_atom_site_label
_atom_site_fract_x
_atom_site_fract_y
_atom_site_fract_z
Si Si1 0.934201 0.212849 0.073910
Si Si2 0.434184 0.392398 0.750814
Si Si3 0.934047 0.605316 0.026936
Si Si4 0.934759 0.714976 0.936748
Si Si5 0.065008 0.392935 0.848754
Si Si6 0.566942 0.604614 0.483253
Si Si7 0.566820 0.892197 0.159032
O O1 0.750000 0.214788 0.077627
O O2 0.996459 0.317093 0.060709
O O3 0.007208 0.170560 0.118271
O O4 0.976120 0.144328 0.032250
O O5 0.500000 0.500000 0.752302
O O6 0.250000 0.394576 0.746143
O O7 0.473713 0.352594 0.799672
O O8 0.507380 0.350864 0.706162
O O9 0.750000 0.604550 0.030593
O O10 0.000000 0.500000 0.033521
O O11 0.974858 0.643936 0.977474
O O12 0.750000 0.723274 0.936062
O O13 0.986804 0.671180 0.890006
O O14 0.004553 0.817190 0.948824
O O15 0.250000 0.399888 0.850601
O O16 0.000000 0.500000 0.852988
O O17 0.500000 0.500000 0.476277
O O18 0.750000 0.601496 0.480978
O O19 0.750000 0.897939 0.159221
O O20 0.500000 0.000000 0.154448
#
# Coordination Sequence:
#
# PCOD9362928 Si02
#       7
#     8   8   8   8   8   8   8
#     4  10  20  33  48  67  90 118 153 188 225 268
#     4   9  16  27  42  62  89 119 150 182 221 265
#     4  10  19  31  47  67  93 123 153 187 224 262
#     4   9  18  31  46  66  92 121 153 186 221 262
#     4   9  17  28  44  66  92 122 152 184 221 262
#     4  10  20  32  47  66  89 118 150 186 225 265
#     4  11  20  30  45  66  92 121 152 185 225 270
#
# _framework density 15.243722999999999
#
# number of rings (size 3 to 8) (size 9 to 14) (size 15 to 20)
#    0.000    2.286    0.000    4.714    0.000    4.571 
#    0.000    0.000    0.000    0.000    0.000    1.000 
#    0.000    2.286    0.000    0.000    0.000    0.000 
#
# Total GULP energy -156126.221568 kJ/mol
# GULP energy per Si atom -5575.936485 kJ/mol
# Density = 1.520903 g / cm^3
# Si number density = 15.243723 Si / 1000 Ang^3
#
#
#
# Elastic Constant Matrix: (Units=GPa)
#
#
# Indices 1 2 3 4 5 6 
#
# 1 58.9271 37.6680 50.8976 0.0000 0.0000 0.0000
# 2 37.6680 108.2975 71.5225 0.0000 0.0000 0.0000
# 3 50.8976 71.5225 155.3807 0.0000 0.0000 0.0000
# 4 0.0000 0.0000 0.0000 23.4223 0.0000 0.0000
# 5 0.0000 0.0000 0.0000 0.0000 22.4829 0.0000
# 6 0.0000 0.0000 0.0000 0.0000 0.0000 23.8882
#
#
#
# Elastic Compliance Matrix: (Units=1/GPa)
#
#
# Indices 1 2 3 4 5 6 
#
# 1 0.025275 -0.004775 -0.006081 0.000000 0.000000 0.000000
# 2 -0.004775 0.014169 -0.004958 0.000000 0.000000 0.000000
# 3 -0.006081 -0.004958 0.010710 0.000000 0.000000 0.000000
# 4 0.000000 0.000000 0.000000 0.042694 0.000000 0.000000
# 5 0.000000 0.000000 0.000000 0.000000 0.044478 0.000000
# 6 0.000000 0.000000 0.000000 0.000000 0.000000 0.041862
#
#
# Mechanical properties :
#
#
# Convention : Reuss Voigt Hill
#
# Bulk Modulus (GPa) = 53.97912 71.42017 62.69965
# Shear Modulus (GPa) = 23.04230 24.79315 23.91773
#
# Velocity S-wave (km/s) = 3.89214 4.03730 3.96538
# Velocity P-wave (km/s) = 7.46230 8.28776 7.88584
#
# Compressibility (1/GPa) = 0.01852568
#
# Stress axis : x y z
#
# Youngs Moduli (GPa) = 39.56459 70.57661 93.37029
#
# Poissons Ratio (x) = 0.33700 0.56782
# Poissons Ratio (y) = 0.18892 0.46293
# Poissons Ratio (z) = 0.24061 0.34992
#
# Static dielectric constant tensor:
#      x y z
#    x 1.505740 0.000000 0.000000 
#    y 0.000000 1.476290 0.000000 
#    z 0.000000 0.000000 1.533310 
# 
# From -- ./inp_files/26397.got.cif
#   From: 2010.05.17/outbox.cif.g08.bks.cpg/sg40_14_cif.got.tgz:26397.got - 2010.06.03 18:35:42.
