data_PCOD9362143
_publ_section_title
;
Structure prediction by ZEFSAII (Michael W. Deem and Ramdas Pophale) SiO2 
 PCOD9362143
Probable space group: A B M 2
;
_chemical_formula_sum "Si O2"
_cell_formula_units_Z 24
_cell_length_a 6.950422
_cell_length_b 15.720818
_cell_length_c 9.874086
_cell_angle_alpha 90.000000
_cell_angle_beta 90.000000
_cell_angle_gamma 90.000000
_cell_volume 1078.905034
_symmetry_space_group_name_H-M "A B M 2"
_symmetry_group_IT_number 39
_symmetry_cell_setting 'orthorhombic'
loop_
_space_group_symop_operation_xyz
x,y,z
-x,-y,z
-x,1/2+y,z
x,1/2-y,z
x,1/2+y,1/2+z
-x,1/2-y,1/2+z
-x,y,1/2+z
x,-y,1/2+z
loop_
_atom_site_type_symbol
_atom_site_label
_atom_site_fract_x
_atom_site_fract_y
_atom_site_fract_z
Si Si1 0.710780 0.417319 0.333660
Si Si2 0.108273 0.078012 0.409846
Si Si3 0.453556 0.848260 0.064401
O O1 0.758842 0.517427 0.315825
O O2 0.606234 0.401176 0.476383
O O3 0.927136 0.378285 0.338298
O O4 0.582675 0.378881 0.216195
O O5 0.246595 0.137054 0.493227
O O6 0.000000 0.000000 0.491823
O O7 0.509922 0.750000 0.060612
#
# Coordination Sequence:
#
# PCOD9362143 Si02
#       3
#     8   8   8
#     4   9  24  42  65  94 131 173 216 264 320 393
#     4   8  23  42  66  88 127 175 226 255 308 388
#     4  12  23  40  67 101 134 165 212 278 331 379
#
# _framework density 22.244774
#
# number of rings (size 3 to 8) (size 9 to 14) (size 15 to 20)
#    2.000    0.000    0.000    2.000    4.667   10.667 
#    0.000    0.000    0.000    0.000    0.000    0.000 
#    0.000    0.000    0.000    0.000    0.000    0.000 
#
# Total GULP energy -66821.842464 kJ/mol
# GULP energy per Si atom -5568.486872 kJ/mol
# Density = 2.219414 g / cm^3
# Si number density = 22.244774 Si / 1000 Ang^3
#
#
#
# Elastic Constant Matrix: (Units=GPa)
#
#
# Indices 1 2 3 4 5 6 
#
# 1 108.9470 42.9746 31.2056 0.0000 0.0000 0.0000
# 2 42.9746 34.4897 22.6220 0.0000 0.0000 0.0000
# 3 31.2056 22.6220 67.4170 0.0000 0.0000 0.0000
# 4 0.0000 0.0000 0.0000 17.7287 0.0000 0.0000
# 5 0.0000 0.0000 0.0000 0.0000 95.5488 0.0000
# 6 0.0000 0.0000 0.0000 0.0000 0.0000 16.2624
#
#
#
# Elastic Compliance Matrix: (Units=1/GPa)
#
#
# Indices 1 2 3 4 5 6 
#
# 1 0.018107 -0.021880 -0.001039 0.000000 0.000000 0.000000
# 2 -0.021880 0.063615 -0.011219 0.000000 0.000000 0.000000
# 3 -0.001039 -0.011219 0.019079 0.000000 0.000000 0.000000
# 4 0.000000 0.000000 0.000000 0.056406 0.000000 0.000000
# 5 0.000000 0.000000 0.000000 0.000000 0.010466 0.000000
# 6 0.000000 0.000000 0.000000 0.000000 0.000000 0.061491
#
#
# Mechanical properties :
#
#
# Convention : Reuss Voigt Hill
#
# Bulk Modulus (GPa) = 30.74560 44.93976 37.84268
# Shear Modulus (GPa) = 16.21893 33.51142 24.86518
#
# Velocity S-wave (km/s) = 2.70314 3.88556 3.34698
# Velocity P-wave (km/s) = 4.85738 6.35424 5.65555
#
# Compressibility (1/GPa) = 0.03252498
#
# Stress axis : x y z
#
# Youngs Moduli (GPa) = 55.22687 15.71952 52.41466
#
# Poissons Ratio (x) = 0.34394 0.05448
# Poissons Ratio (y) = 1.20836 0.58802
# Poissons Ratio (z) = 0.05741 0.17635
#
# Static dielectric constant tensor:
#      x y z
#    x 1.431840 0.000000 0.000000 
#    y 0.000000 1.806080 0.000000 
#    z 0.000000 0.000000 1.841820 
# 
# From -- ./inp_files/1879.got.cif
#   From: 2010.05.17/outbox.cif.g08.bks.cpg/sg39_1_cif.got.tgz:1879.got - 2010.06.03 18:22:40.
