data_PCOD9362738
_publ_section_title
;
Structure prediction by ZEFSAII (Michael W. Deem and Ramdas Pophale) SiO2 
 PCOD9362738
Probable space group: A M A 2
;
_chemical_formula_sum "Si O2"
_cell_formula_units_Z 64
_cell_length_a 19.244161
_cell_length_b 13.523558
_cell_length_c 11.651613
_cell_angle_alpha 90.000000
_cell_angle_beta 90.000000
_cell_angle_gamma 90.000000
_cell_volume 3032.326777
_symmetry_space_group_name_H-M "A M A 2"
_symmetry_group_IT_number 40
_symmetry_cell_setting 'orthorhombic'
loop_
_space_group_symop_operation_xyz
x,y,z
-x,-y,z
1/2-x,y,z
1/2+x,-y,z
x,1/2+y,1/2+z
-x,1/2-y,1/2+z
1/2-x,1/2+y,1/2+z
1/2+x,1/2-y,1/2+z
loop_
_atom_site_type_symbol
_atom_site_label
_atom_site_fract_x
_atom_site_fract_y
_atom_site_fract_z
Si Si1 0.168538 0.389520 0.949810
Si Si2 0.480229 0.100690 0.027775
Si Si3 0.675140 0.734070 0.304945
Si Si4 0.047802 0.142221 0.699439
Si Si5 0.559280 0.133379 0.266031
Si Si6 0.672561 0.828513 0.051425
Si Si7 0.392576 0.939872 0.698008
Si Si8 0.545130 0.804094 0.443254
O O1 0.250000 0.417582 0.944153
O O2 0.126442 0.410007 0.831731
O O3 0.165583 0.270855 0.974311
O O4 0.132337 0.434334 0.064692
O O5 0.527046 0.097858 0.145084
O O6 0.397187 0.107359 0.041720
O O7 0.500000 0.000000 0.963831
O O8 0.503103 0.202521 0.968232
O O9 0.750000 0.749292 0.357756
O O10 0.671923 0.788454 0.182151
O O11 0.661978 0.619938 0.273714
O O12 0.615936 0.774599 0.384649
O O13 0.069131 0.248648 0.746005
O O14 0.057391 0.145096 0.563270
O O15 0.965457 0.120106 0.711562
O O16 0.092805 0.050091 0.740439
O O17 0.498429 0.127103 0.359444
O O18 0.750000 0.871639 0.029980
#
# Coordination Sequence:
#
# PCOD9362738 Si02
#       8
#     8   8   8   8   8   8   8   8
#     4  10  19  35  59  83 110 148 184 229 282 332
#     4  11  23  36  56  87 113 147 187 235 277 318
#     4  10  19  35  59  83 110 148 184 229 282 332
#     4  10  21  32  56  87 112 141 183 238 285 313
#     4  11  19  37  57  80 114 147 191 225 273 341
#     4   9  17  34  59  84 108 140 189 232 275 330
#     4  10  18  34  56  88 110 135 186 241 273 325
#     4  11  19  37  57  80 114 147 191 225 273 341
#
# _framework density 21.105903000000001
#
# number of rings (size 3 to 8) (size 9 to 14) (size 15 to 20)
#    0.000    1.750    5.000    2.625    0.000    2.000 
#    0.000    6.250    0.000    0.000    0.000    0.000 
#    0.000    0.000    0.000    0.000    0.000    0.000 
#
# Total GULP energy -178683.993972 kJ/mol
# GULP energy per Si atom -5583.874812 kJ/mol
# Density = 2.105787 g / cm^3
# Si number density = 21.105903 Si / 1000 Ang^3
#
#
#
# Elastic Constant Matrix: (Units=GPa)
#
#
# Indices 1 2 3 4 5 6 
#
# 1 148.2914 19.3154 12.2146 0.0000 0.0000 0.0000
# 2 19.3154 51.7396 -22.6164 0.0000 0.0000 0.0000
# 3 12.2146 -22.6164 64.3259 0.0000 0.0000 0.0000
# 4 0.0000 0.0000 0.0000 -15.9548 0.0000 0.0000
# 5 0.0000 0.0000 0.0000 0.0000 27.6071 0.0000
# 6 0.0000 0.0000 0.0000 0.0000 0.0000 11.1159
#
#
#
# Elastic Compliance Matrix: (Units=1/GPa)
#
#
# Indices 1 2 3 4 5 6 
#
# 1 0.007505 -0.004047 -0.002848 0.000000 0.000000 0.000000
# 2 -0.004047 0.025019 0.009565 0.000000 0.000000 0.000000
# 3 -0.002848 0.009565 0.019450 0.000000 0.000000 0.000000
# 4 0.000000 0.000000 0.000000 -0.062677 0.000000 0.000000
# 5 0.000000 0.000000 0.000000 0.000000 0.036223 0.000000
# 6 0.000000 0.000000 0.000000 0.000000 0.000000 0.089961
#
#
# Mechanical properties :
#
#
# Convention : Reuss Voigt Hill
#
# Bulk Modulus (GPa) = 17.44753 31.35379 24.40066
# Shear Modulus (GPa) = 38.68616 21.58319 30.13468
#
# Velocity S-wave (km/s) = 4.28595 3.20130 3.78270
# Velocity P-wave (km/s) = 5.72512 5.34342 5.53756
#
# Compressibility (1/GPa) = 0.05731471
#
# Stress axis : x y z
#
# Youngs Moduli (GPa) = 133.24181 39.96919 51.41503
#
# Poissons Ratio (x) = 0.16174 0.14642
# Poissons Ratio (y) = 0.53919 -0.49178
# Poissons Ratio (z) = 0.37946 -0.38230
#
# Static dielectric constant tensor:
#      x y z
#    x 1.771740 0.000000 0.000000 
#    y 0.000000 1.760810 0.000000 
#    z 0.000000 0.000000 1.772930 
# 
# From -- ./inp_files/13154.got.cif
#   From: 2010.05.17/outbox.cif.g08.bks.cpg/sg40_7_cif.got.tgz:13154.got - 2010.06.03 18:35:42.
