data_PCOD9362406
_publ_section_title
;
Structure prediction by ZEFSAII (Michael W. Deem and Ramdas Pophale) SiO2 
 PCOD9362406
Probable space group: A M A 2
;
_chemical_formula_sum "Si O2"
_cell_formula_units_Z 64
_cell_length_a 7.661917
_cell_length_b 31.652873
_cell_length_c 14.965698
_cell_angle_alpha 90.000000
_cell_angle_beta 90.000000
_cell_angle_gamma 90.000000
_cell_volume 3629.506307
_symmetry_space_group_name_H-M "A M A 2"
_symmetry_group_IT_number 40
_symmetry_cell_setting 'orthorhombic'
loop_
_space_group_symop_operation_xyz
x,y,z
-x,-y,z
1/2-x,y,z
1/2+x,-y,z
x,1/2+y,1/2+z
-x,1/2-y,1/2+z
1/2-x,1/2+y,1/2+z
1/2+x,1/2-y,1/2+z
loop_
_atom_site_type_symbol
_atom_site_label
_atom_site_fract_x
_atom_site_fract_y
_atom_site_fract_z
Si Si1 0.543846 0.452001 0.276600
Si Si2 0.041127 0.229797 0.174934
Si Si3 0.542002 0.134366 0.848776
Si Si4 0.950213 0.871580 0.480200
Si Si5 0.459236 0.293212 0.478717
Si Si6 0.039617 0.048366 0.573740
Si Si7 0.462886 0.826690 0.661258
Si Si8 0.035264 0.208405 0.373557
O O1 0.500000 0.500000 0.302177
O O2 0.750000 0.449482 0.268291
O O3 0.490989 0.415566 0.345402
O O4 0.471058 0.444282 0.175537
O O5 0.250000 0.231169 0.182105
O O6 0.982377 0.278021 0.162464
O O7 0.978952 0.213109 0.270732
O O8 0.998121 0.205908 0.083699
O O9 0.750000 0.139508 0.849058
O O10 0.479892 0.152101 0.753473
O O11 0.474233 0.165374 0.926113
O O12 0.750000 0.878005 0.450625
O O13 0.028922 0.917464 0.502575
O O14 0.027289 0.835812 0.415547
O O15 0.955570 0.849693 0.577190
O O16 0.250000 0.292157 0.469630
O O17 0.521507 0.249503 0.431455
O O18 0.250000 0.053346 0.576281
O O19 0.000000 0.000000 0.551136
O O20 0.250000 0.828963 0.654544
O O21 0.250000 0.208233 0.376955
#
# Coordination Sequence:
#
# PCOD9362406 Si02
#       8
#     8   8   8   8   8   8   8   8
#     4  10  19  31  47  69  97 125 157 195 236 282
#     4  10  19  32  46  66  94 125 160 198 234 274
#     4  10  19  31  47  68  95 129 163 191 233 286
#     4  10  18  30  47  67  90 123 163 192 223 277
#     4  10  19  32  49  68  92 127 162 194 236 281
#     4   9  18  29  43  66  92 120 153 189 229 276
#     4  10  18  27  43  66  94 124 155 192 231 273
#     4   9  17  30  48  66  91 125 158 192 234 281
#
# _framework density 17.633254000000001
#
# number of rings (size 3 to 8) (size 9 to 14) (size 15 to 20)
#    0.000    2.250    3.750    0.375    0.000    1.500 
#    0.000    1.250    0.000    0.000    0.000    0.875 
#    0.000    4.000    0.000    0.000    0.000    0.000 
#
# Total GULP energy -178401.346551 kJ/mol
# GULP energy per Si atom -5575.042080 kJ/mol
# Density = 1.759312 g / cm^3
# Si number density = 17.633254 Si / 1000 Ang^3
#
#
#
# Elastic Constant Matrix: (Units=GPa)
#
#
# Indices 1 2 3 4 5 6 
#
# 1 29.6908 -4.5786 -3.2863 0.0000 0.0000 0.0000
# 2 -4.5786 130.9077 55.4141 0.0000 0.0000 0.0000
# 3 -3.2863 55.4141 95.7134 0.0000 0.0000 0.0000
# 4 0.0000 0.0000 0.0000 26.8012 0.0000 0.0000
# 5 0.0000 0.0000 0.0000 0.0000 11.1659 0.0000
# 6 0.0000 0.0000 0.0000 0.0000 0.0000 10.6526
#
#
#
# Elastic Compliance Matrix: (Units=1/GPa)
#
#
# Indices 1 2 3 4 5 6 
#
# 1 0.033892 0.000918 0.000632 0.000000 0.000000 0.000000
# 2 0.000918 0.010144 -0.005841 0.000000 0.000000 0.000000
# 3 0.000632 -0.005841 0.013851 0.000000 0.000000 0.000000
# 4 0.000000 0.000000 0.000000 0.037312 0.000000 0.000000
# 5 0.000000 0.000000 0.000000 0.000000 0.089559 0.000000
# 6 0.000000 0.000000 0.000000 0.000000 0.000000 0.093874
#
#
# Mechanical properties :
#
#
# Convention : Reuss Voigt Hill
#
# Bulk Modulus (GPa) = 20.28202 39.04559 29.66381
# Shear Modulus (GPa) = 16.46642 23.64145 20.05393
#
# Velocity S-wave (km/s) = 3.05917 3.66557 3.37602
# Velocity P-wave (km/s) = 4.89951 6.33297 5.66179
#
# Compressibility (1/GPa) = 0.04930475
#
# Stress axis : x y z
#
# Youngs Moduli (GPa) = 29.50547 98.58307 72.19471
#
# Poissons Ratio (x) = -0.09047 -0.04565
# Poissons Ratio (y) = -0.02708 0.42171
# Poissons Ratio (z) = -0.01866 0.57585
#
# Static dielectric constant tensor:
#      x y z
#    x 1.657100 0.000000 0.000000 
#    y 0.000000 1.610530 0.000000 
#    z 0.000000 0.000000 1.595630 
# 
# From -- ./inp_files/15856.got.cif
#   From: 2010.05.17/outbox.cif.g08.bks.cpg/sg40_8_cif.got.tgz:15856.got - 2010.06.03 18:35:42.
