data_PCOD9362798
_publ_section_title
;
Structure prediction by ZEFSAII (Michael W. Deem and Ramdas Pophale) SiO2 
 PCOD9362798
Probable space group: A M A 2
;
_chemical_formula_sum "Si O2"
_cell_formula_units_Z 64
_cell_length_a 7.771439
_cell_length_b 31.694486
_cell_length_c 12.357698
_cell_angle_alpha 90.000000
_cell_angle_beta 90.000000
_cell_angle_gamma 90.000000
_cell_volume 3043.846401
_symmetry_space_group_name_H-M "A M A 2"
_symmetry_group_IT_number 40
_symmetry_cell_setting 'orthorhombic'
loop_
_space_group_symop_operation_xyz
x,y,z
-x,-y,z
1/2-x,y,z
1/2+x,-y,z
x,1/2+y,1/2+z
-x,1/2-y,1/2+z
1/2-x,1/2+y,1/2+z
1/2+x,1/2-y,1/2+z
loop_
_atom_site_type_symbol
_atom_site_label
_atom_site_fract_x
_atom_site_fract_y
_atom_site_fract_z
Si Si1 0.956664 0.201864 0.660670
Si Si2 0.543418 0.046116 0.114371
Si Si3 0.957979 0.567915 0.375961
Si Si4 0.538811 0.124272 0.262073
Si Si5 0.457430 0.798241 0.115266
Si Si6 0.459755 0.333708 0.386602
Si Si7 0.947840 0.953283 0.635234
Si Si8 0.049169 0.371726 0.006500
O O1 0.750000 0.196440 0.663773
O O2 0.021709 0.190165 0.780077
O O3 0.025126 0.167678 0.574185
O O4 0.993249 0.250130 0.634416
O O5 0.750000 0.050115 0.108606
O O6 0.481340 0.084746 0.188467
O O7 0.500000 0.000000 0.158647
O O8 0.479389 0.049303 0.990161
O O9 0.750000 0.564264 0.371775
O O10 0.004289 0.617251 0.378008
O O11 0.026150 0.548861 0.264707
O O12 0.750000 0.122884 0.261192
O O13 0.485636 0.168136 0.205769
O O14 0.477756 0.121861 0.385911
O O15 0.250000 0.800257 0.114081
O O16 0.521079 0.813960 0.998545
O O17 0.250000 0.332002 0.388655
O O18 0.750000 0.946862 0.610004
O O19 0.040917 0.914209 0.577715
O O20 0.000000 0.000000 0.598113
O O21 0.250000 0.361655 0.989917
#
# Coordination Sequence:
#
# PCOD9362798 Si02
#       8
#     8   8   8   8   8   8   8   8
#     4  10  21  36  56  83 116 152 188 235 289 336
#     4  10  20  35  58  85 114 147 189 233 284 341
#     4  10  18  36  62  85 115 153 189 231 283 342
#     4   9  19  37  60  84 111 151 195 234 280 341
#     4  10  20  36  59  84 112 150 194 235 278 339
#     4   9  17  34  59  82 110 152 192 228 283 340
#     4  12  25  40  60  87 117 149 190 237 286 340
#     4  10  21  40  62  82 113 154 194 235 285 341
#
# _framework density 21.026028
#
# number of rings (size 3 to 8) (size 9 to 14) (size 15 to 20)
#    0.000    2.000    2.500    1.500    1.750    2.500 
#    0.000    3.750    0.000    0.000    0.000    0.000 
#    0.000    0.000    0.000    0.000    0.000    0.000 
#
# Total GULP energy -178733.059487 kJ/mol
# GULP energy per Si atom -5585.408109 kJ/mol
# Density = 2.097817 g / cm^3
# Si number density = 21.026028 Si / 1000 Ang^3
#
#
#
# Elastic Constant Matrix: (Units=GPa)
#
#
# Indices 1 2 3 4 5 6 
#
# 1 24.9373 -14.5501 -1.8915 0.0000 0.0000 0.0000
# 2 -14.5501 158.1132 66.7421 0.0000 0.0000 0.0000
# 3 -1.8915 66.7421 143.7775 0.0000 0.0000 0.0000
# 4 0.0000 0.0000 0.0000 59.3298 0.0000 0.0000
# 5 0.0000 0.0000 0.0000 0.0000 -6.4647 0.0000
# 6 0.0000 0.0000 0.0000 0.0000 0.0000 23.1147
#
#
#
# Elastic Compliance Matrix: (Units=1/GPa)
#
#
# Indices 1 2 3 4 5 6 
#
# 1 0.042658 0.004588 -0.001568 0.000000 0.000000 0.000000
# 2 0.004588 0.008359 -0.003820 0.000000 0.000000 0.000000
# 3 -0.001568 -0.003820 0.008708 0.000000 0.000000 0.000000
# 4 0.000000 0.000000 0.000000 0.016855 0.000000 0.000000
# 5 0.000000 0.000000 0.000000 0.000000 -0.154687 0.000000
# 6 0.000000 0.000000 0.000000 0.000000 0.000000 0.043262
#
#
# Mechanical properties :
#
#
# Convention : Reuss Voigt Hill
#
# Bulk Modulus (GPa) = 17.20466 47.49210 32.34838
# Shear Modulus (GPa) = -360.53526 33.63115 -163.45205
#
# Velocity S-wave (km/s) = -13.10890 4.00371 -8.82648
# Velocity P-wave (km/s) = 14.86351 6.63395 9.40517
#
# Compressibility (1/GPa) = 0.05812377
#
# Stress axis : x y z
#
# Youngs Moduli (GPa) = 23.44208 119.62790 114.83913
#
# Poissons Ratio (x) = -0.54881 0.18011
# Poissons Ratio (y) = -0.10754 0.43869
# Poissons Ratio (z) = 0.03677 0.45698
#
# Static dielectric constant tensor:
#      x y z
#    x 1.772200 0.000000 0.000000 
#    y 0.000000 2.470890 0.000000 
#    z 0.000000 0.000000 1.750150 
# 
# From -- ./inp_files/10656.got.cif
#   From: 2010.05.17/outbox.cif.g08.bks.cpg/sg40_6_cif.got.tgz:10656.got - 2010.06.03 18:35:42.
