data_PCOD9362827
_publ_section_title
;
Structure prediction by ZEFSAII (Michael W. Deem and Ramdas Pophale) SiO2 
 PCOD9362827
Probable space group: A M A 2
;
_chemical_formula_sum "Si O2"
_cell_formula_units_Z 40
_cell_length_a 17.969859
_cell_length_b 6.846466
_cell_length_c 12.222780
_cell_angle_alpha 90.000000
_cell_angle_beta 90.000000
_cell_angle_gamma 90.000000
_cell_volume 1503.768974
_symmetry_space_group_name_H-M "A M A 2"
_symmetry_group_IT_number 40
_symmetry_cell_setting 'orthorhombic'
loop_
_space_group_symop_operation_xyz
x,y,z
-x,-y,z
1/2-x,y,z
1/2+x,-y,z
x,1/2+y,1/2+z
-x,1/2-y,1/2+z
1/2-x,1/2+y,1/2+z
1/2+x,1/2-y,1/2+z
loop_
_atom_site_type_symbol
_atom_site_label
_atom_site_fract_x
_atom_site_fract_y
_atom_site_fract_z
Si Si1 0.898125 0.330745 0.945600
Si Si2 0.750000 0.272284 0.071097
Si Si3 0.853345 0.878274 0.772747
Si Si4 0.667972 0.337843 0.733796
Si Si5 0.500000 0.500000 0.366306
Si Si6 0.333279 0.803480 0.507683
O O1 0.891288 0.410850 0.820132
O O2 0.897527 0.533779 0.012303
O O3 0.958035 0.160626 0.940754
O O4 0.817394 0.248270 0.978957
O O5 0.815521 0.274833 0.170496
O O6 0.828798 0.794539 0.890405
O O7 0.832385 0.104427 0.754166
O O8 0.941947 0.888458 0.788546
O O9 0.750000 0.413634 0.758954
O O10 0.656470 0.349294 0.604304
O O11 0.250000 0.906173 0.531184
#
# Coordination Sequence:
#
# PCOD9362827 Si02
#       6
#     8   4   8   8   4   8
#     4  11  22  44  68 106 141 190 235 305 359 436
#     4  12  20  44  84 100 142 192 258 296 350 438
#     4  11  22  44  69 105 140 191 235 303 358 441
#     4  10  18  38  65  98 136 179 229 290 349 422
#     4  10  28  46  64 104 158 190 242 292 398 426
#     4  11  20  39  71 104 132 180 245 296 346 424
#
# _framework density 26.599829
#
# number of rings (size 3 to 8) (size 9 to 14) (size 15 to 20)
#    0.000    1.200    6.000    0.000    0.000    0.800 
#   14.400    0.000    0.000    0.000    0.000    0.000 
#    0.000    0.000    0.000    0.000    0.000    0.000 
#
# Total GULP energy -111376.579113 kJ/mol
# GULP energy per Si atom -5568.828956 kJ/mol
# Density = 2.653929 g / cm^3
# Si number density = 26.599829 Si / 1000 Ang^3
#
#
#
# Elastic Constant Matrix: (Units=GPa)
#
#
# Indices 1 2 3 4 5 6 
#
# 1 155.5503 23.4994 33.5155 0.0000 0.0000 0.0000
# 2 23.4994 55.9728 -11.5295 0.0000 0.0000 0.0000
# 3 33.5155 -11.5295 146.9084 0.0000 0.0000 0.0000
# 4 0.0000 0.0000 0.0000 -7.6031 0.0000 0.0000
# 5 0.0000 0.0000 0.0000 0.0000 25.5088 0.0000
# 6 0.0000 0.0000 0.0000 0.0000 0.0000 34.8435
#
#
#
# Elastic Compliance Matrix: (Units=1/GPa)
#
#
# Indices 1 2 3 4 5 6 
#
# 1 0.007380 -0.003502 -0.001958 0.000000 0.000000 0.000000
# 2 -0.003502 0.019821 0.002354 0.000000 0.000000 0.000000
# 3 -0.001958 0.002354 0.007439 0.000000 0.000000 0.000000
# 4 0.000000 0.000000 0.000000 -0.131526 0.000000 0.000000
# 5 0.000000 0.000000 0.000000 0.000000 0.039202 0.000000
# 6 0.000000 0.000000 0.000000 0.000000 0.000000 0.028700
#
#
# Mechanical properties :
#
#
# Convention : Reuss Voigt Hill
#
# Bulk Modulus (GPa) = 35.17677 49.93358 42.55518
# Shear Modulus (GPa) = -376.01014 31.41292 -172.29861
#
# Velocity S-wave (km/s) = -11.90231 3.44022 -8.05698
# Velocity P-wave (km/s) = 13.25268 5.88158 8.39763
#
# Compressibility (1/GPa) = 0.02842785
#
# Stress axis : x y z
#
# Youngs Moduli (GPa) = 135.50559 50.45174 134.43516
#
# Poissons Ratio (x) = 0.17667 0.26328
# Poissons Ratio (y) = 0.47450 -0.31652
# Poissons Ratio (z) = 0.26538 -0.11878
#
# Static dielectric constant tensor:
#      x y z
#    x 2.149000 0.000000 0.000000 
#    y 0.000000 3.661930 0.000000 
#    z 0.000000 0.000000 2.112640 
# 
# From -- ./inp_files/12740.got.cif
#   From: 2010.05.17/outbox.cif.g08.bks.cpg/sg40_7_cif.got.tgz:12740.got - 2010.06.03 18:35:42.
