data_PCOD9362028
_publ_section_title
;
Structure prediction by ZEFSAII (Michael W. Deem and Ramdas Pophale) SiO2 
 PCOD9362028
Probable space group: A B M 2
;
_chemical_formula_sum "Si O2"
_cell_formula_units_Z 52
_cell_length_a 12.227838
_cell_length_b 15.162667
_cell_length_c 13.807819
_cell_angle_alpha 90.000000
_cell_angle_beta 90.000000
_cell_angle_gamma 90.000000
_cell_volume 2560.061267
_symmetry_space_group_name_H-M "A B M 2"
_symmetry_group_IT_number 39
_symmetry_cell_setting 'orthorhombic'
loop_
_space_group_symop_operation_xyz
x,y,z
-x,-y,z
-x,1/2+y,z
x,1/2-y,z
x,1/2+y,1/2+z
-x,1/2-y,1/2+z
-x,y,1/2+z
x,-y,1/2+z
loop_
_atom_site_type_symbol
_atom_site_label
_atom_site_fract_x
_atom_site_fract_y
_atom_site_fract_z
Si Si1 0.825041 0.904987 0.983710
Si Si2 0.255650 0.355217 0.770882
Si Si3 0.508547 0.896648 0.299225
Si Si4 0.825964 0.908995 0.561596
Si Si5 0.404437 0.849681 0.001857
Si Si6 0.995631 0.250000 0.017602
Si Si7 0.615001 0.644152 0.108762
O O1 0.787526 0.898052 0.871160
O O2 0.910476 0.827178 0.002047
O O3 0.717904 0.889790 0.050256
O O4 0.870069 0.998504 0.021310
O O5 0.229776 0.250000 0.770998
O O6 0.387802 0.364629 0.767431
O O7 0.201435 0.400639 0.676598
O O8 0.546497 0.848202 0.395265
O O9 0.602632 0.881040 0.220046
O O10 0.500000 0.000000 0.319841
O O11 0.708356 0.899706 0.509456
O O12 0.902684 0.827675 0.534448
O O13 0.382786 0.750000 0.037042
O O14 0.501540 0.890329 0.064461
O O15 0.615039 0.750000 0.099292
#
# Coordination Sequence:
#
# PCOD9362028 Si02
#       7
#     8   8   8   8   8   4   8
#     4  12  26  47  77 106 146 192 246 305 364 430
#     4  12  22  46  75 109 143 199 248 280 371 465
#     4  12  24  36  64 109 148 186 237 285 364 460
#     4  12  26  47  77 106 146 192 246 305 364 430
#     4  11  22  40  65 101 141 182 228 289 358 428
#     4  12  26  54  70 102 140 196 248 304 368 418
#     4  11  22  40  65 101 141 182 228 289 358 428
#
# _framework density 20.312013
#
# number of rings (size 3 to 8) (size 9 to 14) (size 15 to 20)
#    0.000    0.308    6.154    3.692    0.000    0.000 
#    0.000    7.692    0.000    0.000    0.000    0.000 
#    0.000    0.000    0.000    0.000    0.000    0.000 
#
# Total GULP energy -144809.422122 kJ/mol
# GULP energy per Si atom -5569.593159 kJ/mol
# Density = 2.026578 g / cm^3
# Si number density = 20.312013 Si / 1000 Ang^3
#
#
#
# Elastic Constant Matrix: (Units=GPa)
#
#
# Indices 1 2 3 4 5 6 
#
# 1 112.8977 39.1052 23.9887 0.0000 0.0000 0.0000
# 2 39.1052 170.8589 37.1920 0.0000 0.0000 0.0000
# 3 23.9887 37.1920 91.0871 0.0000 0.0000 0.0000
# 4 0.0000 0.0000 0.0000 14.9805 0.0000 0.0000
# 5 0.0000 0.0000 0.0000 0.0000 -5.8016 0.0000
# 6 0.0000 0.0000 0.0000 0.0000 0.0000 -78.6978
#
#
#
# Elastic Compliance Matrix: (Units=1/GPa)
#
#
# Indices 1 2 3 4 5 6 
#
# 1 0.009895 -0.001863 -0.001845 0.000000 0.000000 0.000000
# 2 -0.001863 0.006774 -0.002275 0.000000 0.000000 0.000000
# 3 -0.001845 -0.002275 0.012394 0.000000 0.000000 0.000000
# 4 0.000000 0.000000 0.000000 0.066753 0.000000 0.000000
# 5 0.000000 0.000000 0.000000 0.000000 -0.172367 0.000000
# 6 0.000000 0.000000 0.000000 0.000000 0.000000 -0.012707
#
#
# Mechanical properties :
#
#
# Convention : Reuss Voigt Hill
#
# Bulk Modulus (GPa) = 58.49475 63.93506 61.21490
# Shear Modulus (GPa) = -69.84084 4.40009 -32.72038
#
# Velocity S-wave (km/s) = -5.87015 1.47342 -4.01794
# Velocity P-wave (km/s) = 4.13331 5.86851 2.94577
#
# Compressibility (1/GPa) = 0.01709555
#
# Stress axis : x y z
#
# Youngs Moduli (GPa) = 101.06143 147.61247 80.68708
#
# Poissons Ratio (x) = 0.27501 0.14889
# Poissons Ratio (y) = 0.18828 0.18360
# Poissons Ratio (z) = 0.18648 0.33589
#
# Static dielectric constant tensor:
#      x y z
#    x 1.684430 0.000000 0.000000 
#    y 0.000000 1.815080 0.000000 
#    z 0.000000 0.000000 1.734400 
# 
# From -- ./inp_files/9304.got.cif
#   From: 2010.05.17/outbox.cif.g08.bks.cpg/sg39_5_cif.got.tgz:9304.got - 2010.06.03 18:22:40.
