data_PCOD9362359
_publ_section_title
;
Structure prediction by ZEFSAII (Michael W. Deem and Ramdas Pophale) SiO2 
 PCOD9362359
Probable space group: A M A 2
;
_chemical_formula_sum "Si O2"
_cell_formula_units_Z 60
_cell_length_a 14.478711
_cell_length_b 14.092336
_cell_length_c 11.185233
_cell_angle_alpha 90.000000
_cell_angle_beta 90.000000
_cell_angle_gamma 90.000000
_cell_volume 2282.222193
_symmetry_space_group_name_H-M "A M A 2"
_symmetry_group_IT_number 40
_symmetry_cell_setting 'orthorhombic'
loop_
_space_group_symop_operation_xyz
x,y,z
-x,-y,z
1/2-x,y,z
1/2+x,-y,z
x,1/2+y,1/2+z
-x,1/2-y,1/2+z
1/2-x,1/2+y,1/2+z
1/2+x,1/2-y,1/2+z
loop_
_atom_site_type_symbol
_atom_site_label
_atom_site_fract_x
_atom_site_fract_y
_atom_site_fract_z
Si Si1 0.898847 0.836924 0.911110
Si Si2 0.853336 0.105866 0.679836
Si Si3 0.554755 0.306369 0.151466
Si Si4 0.644581 0.617771 0.924044
Si Si5 0.250000 0.025125 0.020053
Si Si6 0.355322 0.670794 0.900937
Si Si7 0.007140 0.900128 0.218647
Si Si8 0.390619 0.892133 0.927579
O O1 0.884666 0.834037 0.767305
O O2 0.999868 0.881617 0.929345
O O3 0.829195 0.894386 0.991530
O O4 0.892072 0.725503 0.946019
O O5 0.750000 0.152215 0.677011
O O6 0.857559 0.060523 0.548203
O O7 0.859439 0.050951 0.805332
O O8 0.950513 0.160792 0.678954
O O9 0.593873 0.346339 0.027938
O O10 0.546765 0.191965 0.151266
O O11 0.750000 0.624380 0.883221
O O12 0.579439 0.576907 0.824296
O O13 0.330775 0.942550 0.027458
O O14 0.250000 0.635601 0.897215
O O15 0.414583 0.633991 0.788478
O O16 0.355102 0.785719 0.899609
O O17 0.000000 0.000000 0.153024
#
# Coordination Sequence:
#
# PCOD9362359 Si02
#       8
#     8   8   8   8   4   8   8   8
#     4  10  21  38  60  89 125 168 209 266 327 392
#     4  10  17  34  64  91 117 170 215 259 324 401
#     4  10  22  41  67  92 129 178 214 265 345 406
#     4  10  19  37  65  90 122 170 216 264 337 398
#     4  12  22  36  58  94 126 164 222 270 322 382
#     4  12  23  43  72  95 132 178 223 267 343 400
#     4  11  24  44  68 101 133 173 228 284 329 399
#     4  11  21  39  61  92 127 167 211 272 328 390
#
# _framework density 26.290165999999999
#
# number of rings (size 3 to 8) (size 9 to 14) (size 15 to 20)
#    0.000    1.333    7.333    0.400    0.933    1.067 
#    2.400    2.667    0.000    0.000    0.000    0.000 
#    0.000    0.000    0.000    0.000    0.000    0.000 
#
# Total GULP energy -167292.947785 kJ/mol
# GULP energy per Si atom -5576.431593 kJ/mol
# Density = 2.623033 g / cm^3
# Si number density = 26.290166 Si / 1000 Ang^3
#
#
#
# Elastic Constant Matrix: (Units=GPa)
#
#
# Indices 1 2 3 4 5 6 
#
# 1 188.4742 19.1679 23.0372 0.0000 0.0000 0.0000
# 2 19.1679 143.3697 -10.3180 0.0000 0.0000 0.0000
# 3 23.0372 -10.3180 89.0017 0.0000 0.0000 0.0000
# 4 0.0000 0.0000 0.0000 8.2245 0.0000 0.0000
# 5 0.0000 0.0000 0.0000 0.0000 18.8782 0.0000
# 6 0.0000 0.0000 0.0000 0.0000 0.0000 62.5366
#
#
#
# Elastic Compliance Matrix: (Units=1/GPa)
#
#
# Indices 1 2 3 4 5 6 
#
# 1 0.005582 -0.000857 -0.001544 0.000000 0.000000 0.000000
# 2 -0.000857 0.007165 0.001053 0.000000 0.000000 0.000000
# 3 -0.001544 0.001053 0.011757 0.000000 0.000000 0.000000
# 4 0.000000 0.000000 0.000000 0.121588 0.000000 0.000000
# 5 0.000000 0.000000 0.000000 0.000000 0.052971 0.000000
# 6 0.000000 0.000000 0.000000 0.000000 0.000000 0.015991
#
#
# Mechanical properties :
#
#
# Convention : Reuss Voigt Hill
#
# Bulk Modulus (GPa) = 45.85757 53.84663 49.85210
# Shear Modulus (GPa) = 22.22013 43.85841 33.03927
#
# Velocity S-wave (km/s) = 2.91037 4.08885 3.54886
# Velocity P-wave (km/s) = 5.36417 6.54352 5.98298
#
# Compressibility (1/GPa) = 0.02180665
#
# Stress axis : x y z
#
# Youngs Moduli (GPa) = 179.15667 139.56037 85.05236
#
# Poissons Ratio (x) = 0.11966 0.13133
# Poissons Ratio (y) = 0.15361 -0.08953
# Poissons Ratio (z) = 0.27665 -0.14690
#
# Static dielectric constant tensor:
#      x y z
#    x 1.946480 0.000000 0.000000 
#    y 0.000000 2.058030 0.000000 
#    z 0.000000 0.000000 2.232710 
# 
# From -- ./inp_files/17214.got.cif
#   From: 2010.05.17/outbox.cif.g08.bks.cpg/sg40_9_cif.got.tgz:17214.got - 2010.06.03 18:35:42.
