data_PCOD9362959
_publ_section_title
;
Structure prediction by ZEFSAII (Michael W. Deem and Ramdas Pophale) SiO2 
 PCOD9362959
Probable space group: A M A 2
;
_chemical_formula_sum "Si O2"
_cell_formula_units_Z 64
_cell_length_a 8.824826
_cell_length_b 27.753664
_cell_length_c 15.140238
_cell_angle_alpha 90.000000
_cell_angle_beta 90.000000
_cell_angle_gamma 90.000000
_cell_volume 3708.166102
_symmetry_space_group_name_H-M "A M A 2"
_symmetry_group_IT_number 40
_symmetry_cell_setting 'orthorhombic'
loop_
_space_group_symop_operation_xyz
x,y,z
-x,-y,z
1/2-x,y,z
1/2+x,-y,z
x,1/2+y,1/2+z
-x,1/2-y,1/2+z
1/2-x,1/2+y,1/2+z
1/2+x,1/2-y,1/2+z
loop_
_atom_site_type_symbol
_atom_site_label
_atom_site_fract_x
_atom_site_fract_y
_atom_site_fract_z
Si Si1 0.069381 0.717203 0.603260
Si Si2 0.569284 0.830184 0.799329
Si Si3 0.067825 0.829764 0.610983
Si Si4 0.431007 0.553048 0.797741
Si Si5 0.931275 0.718126 0.791429
Si Si6 0.067773 0.367901 0.923469
Si Si7 0.567757 0.552920 0.609712
Si Si8 0.569234 0.637915 0.476655
O O1 0.250000 0.712603 0.595658
O O2 0.029087 0.773623 0.592638
O O3 0.014827 0.703403 0.701494
O O4 0.992091 0.683517 0.531414
O O5 0.750000 0.833527 0.801592
O O6 0.508415 0.844118 0.702858
O O7 0.527549 0.773482 0.812361
O O8 0.499306 0.860148 0.879149
O O9 0.250000 0.831864 0.620915
O O10 0.024755 0.860599 0.525429
O O11 0.500000 0.500000 0.813084
O O12 0.250000 0.550358 0.791946
O O13 0.484098 0.589260 0.873541
O O14 0.499224 0.569713 0.703456
O O15 0.750000 0.716788 0.775469
O O16 0.964936 0.681454 0.870153
O O17 0.250000 0.375389 0.918877
O O18 0.500000 0.500000 0.592744
O O19 0.750000 0.550074 0.617735
O O20 0.528400 0.590501 0.532990
O O21 0.750000 0.640420 0.471558
#
# Coordination Sequence:
#
# PCOD9362959 Si02
#       8
#     8   8   8   8   8   8   8   8
#     4  10  19  31  49  75 105 138 175 210 247 296
#     4  10  20  34  52  74 102 137 177 216 250 293
#     4   9  19  35  52  72 103 140 174 211 255 298
#     4  11  22  36  55  79 106 133 164 204 252 305
#     4   9  18  32  49  73 106 140 171 206 251 298
#     4  10  19  33  53  74 101 137 173 209 252 301
#     4  10  21  37  56  78 104 133 165 203 252 306
#     4  11  22  34  51  75 103 136 171 209 257 307
#
# _framework density 17.259205000000001
#
# number of rings (size 3 to 8) (size 9 to 14) (size 15 to 20)
#    0.000    2.000    0.000    4.875    0.000    9.000 
#    0.000    1.250    0.000    0.750    0.000    3.500 
#    0.000    0.000    0.000    0.000    0.000    0.000 
#
# Total GULP energy -178724.453901 kJ/mol
# GULP energy per Si atom -5585.139184 kJ/mol
# Density = 1.721992 g / cm^3
# Si number density = 17.259205 Si / 1000 Ang^3
#
#
#
# Elastic Constant Matrix: (Units=GPa)
#
#
# Indices 1 2 3 4 5 6 
#
# 1 56.4597 41.1248 62.9204 0.0000 0.0000 0.0000
# 2 41.1248 67.1789 77.6877 0.0000 0.0000 0.0000
# 3 62.9204 77.6877 163.7659 0.0000 0.0000 0.0000
# 4 0.0000 0.0000 0.0000 28.2179 0.0000 0.0000
# 5 0.0000 0.0000 0.0000 0.0000 29.4598 0.0000
# 6 0.0000 0.0000 0.0000 0.0000 0.0000 17.7772
#
#
#
# Elastic Compliance Matrix: (Units=1/GPa)
#
#
# Indices 1 2 3 4 5 6 
#
# 1 0.035597 -0.013237 -0.007397 0.000000 0.000000 0.000000
# 2 -0.013237 0.037898 -0.012892 0.000000 0.000000 0.000000
# 3 -0.007397 -0.012892 0.015064 0.000000 0.000000 0.000000
# 4 0.000000 0.000000 0.000000 0.035439 0.000000 0.000000
# 5 0.000000 0.000000 0.000000 0.000000 0.033945 0.000000
# 6 0.000000 0.000000 0.000000 0.000000 0.000000 0.056252
#
#
# Mechanical properties :
#
#
# Convention : Reuss Voigt Hill
#
# Bulk Modulus (GPa) = 46.49830 72.31893 59.40862
# Shear Modulus (GPa) = 17.33598 22.13574 19.73586
#
# Velocity S-wave (km/s) = 3.17274 3.58515 3.38523
# Velocity P-wave (km/s) = 6.35778 7.68963 7.05520
#
# Compressibility (1/GPa) = 0.02150616
#
# Stress axis : x y z
#
# Youngs Moduli (GPa) = 28.09195 26.38651 66.38157
#
# Poissons Ratio (x) = 0.34928 0.49106
# Poissons Ratio (y) = 0.37185 0.85582
# Poissons Ratio (z) = 0.20781 0.34019
#
# Static dielectric constant tensor:
#      x y z
#    x 1.575810 0.000000 0.000000 
#    y 0.000000 1.575630 0.000000 
#    z 0.000000 0.000000 1.575710 
# 
# From -- ./inp_files/15707.got.cif
#   From: 2010.05.17/outbox.cif.g08.bks.cpg/sg40_8_cif.got.tgz:15707.got - 2010.06.03 18:35:42.
