data_PCOD9362547
_publ_section_title
;
Structure prediction by ZEFSAII (Michael W. Deem and Ramdas Pophale) SiO2 
 PCOD9362547
Probable space group: A M A 2
;
_chemical_formula_sum "Si O2"
_cell_formula_units_Z 64
_cell_length_a 8.569627
_cell_length_b 23.830971
_cell_length_c 19.820145
_cell_angle_alpha 90.000000
_cell_angle_beta 90.000000
_cell_angle_gamma 90.000000
_cell_volume 4047.720207
_symmetry_space_group_name_H-M "A M A 2"
_symmetry_group_IT_number 40
_symmetry_cell_setting 'orthorhombic'
loop_
_space_group_symop_operation_xyz
x,y,z
-x,-y,z
1/2-x,y,z
1/2+x,-y,z
x,1/2+y,1/2+z
-x,1/2-y,1/2+z
1/2-x,1/2+y,1/2+z
1/2+x,1/2-y,1/2+z
loop_
_atom_site_type_symbol
_atom_site_label
_atom_site_fract_x
_atom_site_fract_y
_atom_site_fract_z
Si Si1 0.937158 0.437506 0.661810
Si Si2 0.062237 0.336154 0.745696
Si Si3 0.938620 0.882286 0.019415
Si Si4 0.064553 0.437489 0.382562
Si Si5 0.440164 0.248717 0.022812
Si Si6 0.060576 0.273078 0.875947
Si Si7 0.437626 0.774011 0.670744
Si Si8 0.436987 0.661128 0.294390
O O1 0.750000 0.437436 0.663963
O O2 0.985258 0.413497 0.588254
O O3 0.000000 0.500000 0.670598
O O4 0.001072 0.394607 0.717517
O O5 0.250000 0.334439 0.742189
O O6 0.013234 0.320313 0.822156
O O7 0.995225 0.285870 0.699620
O O8 0.750000 0.883657 0.014697
O O9 0.985887 0.816949 0.022522
O O10 0.005770 0.912275 0.953705
O O11 0.250000 0.438928 0.382745
O O12 0.000000 0.500000 0.374129
O O13 0.005303 0.395647 0.324419
O O14 0.250000 0.249340 0.022617
O O15 0.488995 0.277048 0.092823
O O16 0.494653 0.276252 0.952846
O O17 0.250000 0.273509 0.877469
O O18 0.015707 0.212951 0.843642
O O19 0.250000 0.775168 0.673655
O O20 0.504995 0.821011 0.720525
O O21 0.250000 0.658450 0.294978
#
# Coordination Sequence:
#
# PCOD9362547 Si02
#       8
#     8   8   8   8   8   8   8   8
#     4  11  22  35  50  69  96 134 173 211 250 295
#     4  10  19  31  48  71  97 130 169 210 251 296
#     4  10  19  34  51  70 100 137 171 205 245 291
#     4  12  24  36  51  73  99 134 174 213 250 297
#     4   9  15  28  50  74 100 133 165 198 245 298
#     4   8  15  28  49  71  94 126 163 199 244 293
#     4  10  18  30  50  75 101 130 166 208 252 299
#     4  10  19  34  52  71  99 134 168 208 251 297
#
# _framework density 15.811368999999999
#
# number of rings (size 3 to 8) (size 9 to 14) (size 15 to 20)
#    0.000    2.000    2.500    3.750    0.000    2.000 
#    0.000    0.000    0.000    0.000    0.000    0.875 
#    0.000    4.000    0.000    0.000    0.000    0.000 
#
# Total GULP energy -178540.977496 kJ/mol
# GULP energy per Si atom -5579.405547 kJ/mol
# Density = 1.577538 g / cm^3
# Si number density = 15.811369 Si / 1000 Ang^3
#
#
#
# Elastic Constant Matrix: (Units=GPa)
#
#
# Indices 1 2 3 4 5 6 
#
# 1 42.7118 29.0165 31.0089 0.0000 0.0000 0.0000
# 2 29.0165 100.1462 78.8356 0.0000 0.0000 0.0000
# 3 31.0089 78.8356 161.5991 0.0000 0.0000 0.0000
# 4 0.0000 0.0000 0.0000 19.0225 0.0000 0.0000
# 5 0.0000 0.0000 0.0000 0.0000 21.0262 0.0000
# 6 0.0000 0.0000 0.0000 0.0000 0.0000 23.1429
#
#
#
# Elastic Compliance Matrix: (Units=1/GPa)
#
#
# Indices 1 2 3 4 5 6 
#
# 1 0.029731 -0.006694 -0.002439 0.000000 0.000000 0.000000
# 2 -0.006694 0.017718 -0.007359 0.000000 0.000000 0.000000
# 3 -0.002439 -0.007359 0.010246 0.000000 0.000000 0.000000
# 4 0.000000 0.000000 0.000000 0.052569 0.000000 0.000000
# 5 0.000000 0.000000 0.000000 0.000000 0.047560 0.000000
# 6 0.000000 0.000000 0.000000 0.000000 0.000000 0.043210
#
#
# Mechanical properties :
#
#
# Convention : Reuss Voigt Hill
#
# Bulk Modulus (GPa) = 40.46860 64.68659 52.57760
# Shear Modulus (GPa) = 20.63924 23.67808 22.15866
#
# Velocity S-wave (km/s) = 3.61687 3.87400 3.74764
# Velocity P-wave (km/s) = 6.56449 7.81094 7.21468
#
# Compressibility (1/GPa) = 0.02471051
#
# Stress axis : x y z
#
# Youngs Moduli (GPa) = 33.63446 56.43916 97.59494
#
# Poissons Ratio (x) = 0.37781 0.23807
# Poissons Ratio (y) = 0.22515 0.71823
# Poissons Ratio (z) = 0.08205 0.41535
#
# Static dielectric constant tensor:
#      x y z
#    x 1.535740 0.000000 0.000000 
#    y 0.000000 1.497220 0.000000 
#    z 0.000000 0.000000 1.545150 
# 
# From -- ./inp_files/19714.got.cif
#   From: 2010.05.17/outbox.cif.g08.bks.cpg/sg40_10_cif.got.tgz:19714.got - 2010.06.03 18:35:42.
