data_PCOD9362479
_publ_section_title
;
Structure prediction by ZEFSAII (Michael W. Deem and Ramdas Pophale) SiO2 
 PCOD9362479
Probable space group: A M A 2
;
_chemical_formula_sum "Si O2"
_cell_formula_units_Z 48
_cell_length_a 17.231893
_cell_length_b 8.972168
_cell_length_c 11.433892
_cell_angle_alpha 90.000000
_cell_angle_beta 90.000000
_cell_angle_gamma 90.000000
_cell_volume 1767.764759
_symmetry_space_group_name_H-M "A M A 2"
_symmetry_group_IT_number 40
_symmetry_cell_setting 'orthorhombic'
loop_
_space_group_symop_operation_xyz
x,y,z
-x,-y,z
1/2-x,y,z
1/2+x,-y,z
x,1/2+y,1/2+z
-x,1/2-y,1/2+z
1/2-x,1/2+y,1/2+z
1/2+x,1/2-y,1/2+z
loop_
_atom_site_type_symbol
_atom_site_label
_atom_site_fract_x
_atom_site_fract_y
_atom_site_fract_z
Si Si1 0.585606 0.439730 0.361830
Si Si2 0.915569 0.785124 0.611982
Si Si3 0.584283 0.709915 0.066194
Si Si4 0.417639 0.021552 0.247993
Si Si5 0.750000 0.205819 0.581402
Si Si6 0.250000 0.729730 0.117334
Si Si7 0.250000 0.529177 0.758655
Si Si8 0.750000 0.444393 0.368125
O O1 0.500000 0.500000 0.386810
O O2 0.584168 0.377738 0.231703
O O3 0.595144 0.304410 0.449766
O O4 0.667094 0.528466 0.375229
O O5 0.920003 0.610476 0.650231
O O6 0.831247 0.800260 0.554824
O O7 0.994978 0.837447 0.554411
O O8 0.582423 0.821947 0.178701
O O9 0.666409 0.624826 0.080893
O O10 0.335324 0.006758 0.313993
O O11 0.500000 0.000000 0.311425
O O12 0.750000 0.311739 0.695292
O O13 0.750000 0.320667 0.471447
O O14 0.250000 0.642394 0.242999
O O15 0.250000 0.902957 0.156726
#
# Coordination Sequence:
#
# PCOD9362479 Si02
#       8
#     8   8   8   8   4   4   4   4
#     4  10  18  29  45  65  88 115 146 182 218 257
#     4   9  16  26  42  63  87 112 141 176 215 254
#     4   9  16  28  45  65  87 112 142 177 215 256
#     4   8  13  22  37  57  80 103 130 164 202 242
#     4   8  14  24  41  62  85 110 137 172 214 254
#     4   8  14  24  38  58  82 110 142 174 206 248
#     4   8  12  18  32  55  77  99 127 161 199 238
#     4   8  16  28  41  59  84 113 146 179 213 252
#
# _framework density 27.152934999999999
#
# number of rings (size 3 to 8) (size 9 to 14) (size 15 to 20)
#    0.000    3.333    0.000    1.500    0.000    1.333 
#    0.000    0.833    0.000    3.000    0.000    0.000 
#    0.000   18.667    0.000    0.000    0.000    0.000 
#
# Total GULP energy -133854.231502 kJ/mol
# GULP energy per Si atom -5577.259646 kJ/mol
# Density = 2.709113 g / cm^3
# Si number density = 27.152935 Si / 1000 Ang^3
#
#
#
# Elastic Constant Matrix: (Units=GPa)
#
#
# Indices 1 2 3 4 5 6 
#
# 1 404.0850 12.4148 27.6895 0.0000 0.0000 0.0000
# 2 12.4148 73.2093 12.8717 0.0000 0.0000 0.0000
# 3 27.6895 12.8717 74.0121 0.0000 0.0000 0.0000
# 4 0.0000 0.0000 0.0000 33.9337 0.0000 0.0000
# 5 0.0000 0.0000 0.0000 0.0000 12.9850 0.0000
# 6 0.0000 0.0000 0.0000 0.0000 0.0000 -59.9603
#
#
#
# Elastic Compliance Matrix: (Units=1/GPa)
#
#
# Indices 1 2 3 4 5 6 
#
# 1 0.002545 -0.000273 -0.000905 0.000000 0.000000 0.000000
# 2 -0.000273 0.014119 -0.002354 0.000000 0.000000 0.000000
# 3 -0.000905 -0.002354 0.014259 0.000000 0.000000 0.000000
# 4 0.000000 0.000000 0.000000 0.029469 0.000000 0.000000
# 5 0.000000 0.000000 0.000000 0.000000 0.077012 0.000000
# 6 0.000000 0.000000 0.000000 0.000000 0.000000 -0.016678
#
#
# Mechanical properties :
#
#
# Convention : Reuss Voigt Hill
#
# Bulk Modulus (GPa) = 41.90783 73.02872 57.46827
# Shear Modulus (GPa) = 36.83439 30.61371 33.72405
#
# Velocity S-wave (km/s) = 3.68714 3.36140 3.52803
# Velocity P-wave (km/s) = 5.79605 6.48221 6.14871
#
# Compressibility (1/GPa) = 0.02386189
#
# Stress axis : x y z
#
# Youngs Moduli (GPa) = 392.91210 70.82406 70.13050
#
# Poissons Ratio (x) = 0.01930 0.06345
# Poissons Ratio (y) = 0.10708 0.16506
# Poissons Ratio (z) = 0.35550 0.16669
#
# Static dielectric constant tensor:
#      x y z
#    x 2.154270 0.000000 0.000000 
#    y 0.000000 2.118750 0.000000 
#    z 0.000000 0.000000 1.994610 
# 
# From -- ./inp_files/7506.got.cif
#   From: 2010.05.17/outbox.cif.g08.bks.cpg/sg40_4_cif.got.tgz:7506.got - 2010.06.03 18:35:42.
