data_PCOD9362630
_publ_section_title
;
Structure prediction by ZEFSAII (Michael W. Deem and Ramdas Pophale) SiO2 
 PCOD9362630
Probable space group: A M A 2
;
_chemical_formula_sum "Si O2"
_cell_formula_units_Z 64
_cell_length_a 8.796910
_cell_length_b 23.831040
_cell_length_c 19.655163
_cell_angle_alpha 90.000000
_cell_angle_beta 90.000000
_cell_angle_gamma 90.000000
_cell_volume 4120.498821
_symmetry_space_group_name_H-M "A M A 2"
_symmetry_group_IT_number 40
_symmetry_cell_setting 'orthorhombic'
loop_
_space_group_symop_operation_xyz
x,y,z
-x,-y,z
1/2-x,y,z
1/2+x,-y,z
x,1/2+y,1/2+z
-x,1/2-y,1/2+z
1/2-x,1/2+y,1/2+z
1/2+x,1/2-y,1/2+z
loop_
_atom_site_type_symbol
_atom_site_label
_atom_site_fract_x
_atom_site_fract_y
_atom_site_fract_z
Si Si1 0.933078 0.438840 0.667350
Si Si2 0.932252 0.335518 0.759497
Si Si3 0.067529 0.883249 0.032398
Si Si4 0.068115 0.438242 0.387015
Si Si5 0.433953 0.241935 0.029932
Si Si6 0.067605 0.272722 0.880767
Si Si7 0.432673 0.777315 0.677661
Si Si8 0.431723 0.659653 0.299469
O O1 0.750000 0.440854 0.665200
O O2 0.980310 0.393291 0.724311
O O3 0.000000 0.500000 0.680761
O O4 0.993884 0.416239 0.595201
O O5 0.750000 0.335843 0.764217
O O6 0.974058 0.283457 0.709923
O O7 0.999405 0.320581 0.832831
O O8 0.250000 0.883473 0.039111
O O9 0.006471 0.819741 0.032136
O O10 0.026620 0.912695 0.960996
O O11 0.250000 0.440587 0.383051
O O12 0.000000 0.500000 0.379983
O O13 0.005045 0.395803 0.330425
O O14 0.250000 0.235030 0.029868
O O15 0.474720 0.275196 0.098459
O O16 0.478473 0.271744 0.959531
O O17 0.250000 0.276238 0.877456
O O18 0.023115 0.212725 0.847398
O O19 0.250000 0.783257 0.683159
O O20 0.511301 0.823633 0.724547
O O21 0.250000 0.655188 0.300809
#
# Coordination Sequence:
#
# PCOD9362630 Si02
#       8
#     8   8   8   8   8   8   8   8
#     4  11  22  36  51  70  97 134 172 208 246 289
#     4   9  18  32  49  68  95 130 163 199 246 293
#     4  11  22  33  48  72 100 134 171 206 239 285
#     4  11  23  36  50  70  97 133 172 207 245 290
#     4  10  18  32  51  73 101 135 165 200 248 294
#     4   9  18  30  49  73  98 127 162 203 247 291
#     4   9  17  31  50  70  97 130 162 198 245 299
#     4  10  19  32  50  72  98 128 163 206 247 290
#
# _framework density 15.5321
#
# number of rings (size 3 to 8) (size 9 to 14) (size 15 to 20)
#    0.000    2.000    2.500    1.875    0.000    5.000 
#    0.000    0.000    0.000    0.000    0.000    0.875 
#    0.000    2.000    0.000    0.000    0.000    0.000 
#
# Total GULP energy -178567.901249 kJ/mol
# GULP energy per Si atom -5580.246914 kJ/mol
# Density = 1.549675 g / cm^3
# Si number density = 15.532100 Si / 1000 Ang^3
#
#
#
# Elastic Constant Matrix: (Units=GPa)
#
#
# Indices 1 2 3 4 5 6 
#
# 1 31.1250 38.4127 41.5481 0.0000 0.0000 0.0000
# 2 38.4127 108.1778 79.4473 0.0000 0.0000 0.0000
# 3 41.5481 79.4473 145.2208 0.0000 0.0000 0.0000
# 4 0.0000 0.0000 0.0000 18.1464 0.0000 0.0000
# 5 0.0000 0.0000 0.0000 0.0000 22.5193 0.0000
# 6 0.0000 0.0000 0.0000 0.0000 0.0000 26.5875
#
#
#
# Elastic Compliance Matrix: (Units=1/GPa)
#
#
# Indices 1 2 3 4 5 6 
#
# 1 0.064777 -0.015698 -0.009945 0.000000 0.000000 0.000000
# 2 -0.015698 0.019257 -0.006044 0.000000 0.000000 0.000000
# 3 -0.009945 -0.006044 0.013038 0.000000 0.000000 0.000000
# 4 0.000000 0.000000 0.000000 0.055107 0.000000 0.000000
# 5 0.000000 0.000000 0.000000 0.000000 0.044406 0.000000
# 6 0.000000 0.000000 0.000000 0.000000 0.000000 0.037612
#
#
# Mechanical properties :
#
#
# Convention : Reuss Voigt Hill
#
# Bulk Modulus (GPa) = 29.67488 67.03778 48.35633
# Shear Modulus (GPa) = 16.19151 21.79167 18.99159
#
# Velocity S-wave (km/s) = 3.23221 3.74974 3.50055
# Velocity P-wave (km/s) = 5.75122 7.87413 6.89487
#
# Compressibility (1/GPa) = 0.03369854
#
# Stress axis : x y z
#
# Youngs Moduli (GPa) = 15.43747 51.92943 76.70010
#
# Poissons Ratio (x) = 0.81519 0.76278
# Poissons Ratio (y) = 0.24234 0.46356
# Poissons Ratio (z) = 0.15353 0.31385
#
# Static dielectric constant tensor:
#      x y z
#    x 1.519370 0.000000 0.000000 
#    y 0.000000 1.487920 0.000000 
#    z 0.000000 0.000000 1.520470 
# 
# From -- ./inp_files/19610.got.cif
#   From: 2010.05.17/outbox.cif.g08.bks.cpg/sg40_10_cif.got.tgz:19610.got - 2010.06.03 18:35:42.
