data_PCOD9362335
_publ_section_title
;
Structure prediction by ZEFSAII (Michael W. Deem and Ramdas Pophale) SiO2 
 PCOD9362335
Probable space group: A M A 2
;
_chemical_formula_sum "Si O2"
_cell_formula_units_Z 64
_cell_length_a 17.228528
_cell_length_b 9.973194
_cell_length_c 17.255916
_cell_angle_alpha 90.000000
_cell_angle_beta 90.000000
_cell_angle_gamma 90.000000
_cell_volume 2964.971056
_symmetry_space_group_name_H-M "A M A 2"
_symmetry_group_IT_number 40
_symmetry_cell_setting 'orthorhombic'
loop_
_space_group_symop_operation_xyz
x,y,z
-x,-y,z
1/2-x,y,z
1/2+x,-y,z
x,1/2+y,1/2+z
-x,1/2-y,1/2+z
1/2-x,1/2+y,1/2+z
1/2+x,1/2-y,1/2+z
loop_
_atom_site_type_symbol
_atom_site_label
_atom_site_fract_x
_atom_site_fract_y
_atom_site_fract_z
Si Si1 0.068524 0.595120 0.587280
Si Si2 0.843150 0.704645 0.426446
Si Si3 0.841206 0.092317 0.170957
Si Si4 0.427502 0.569556 0.410128
Si Si5 0.844753 0.346366 0.086761
Si Si6 0.163182 0.317167 0.909019
Si Si7 0.343045 0.575826 0.815624
Si Si8 0.660321 0.155261 0.594389
O O1 0.143626 0.498897 0.595533
O O2 0.046990 0.614613 0.497226
O O3 0.097649 0.735434 0.623126
O O4 0.000000 0.500000 0.620056
O O5 0.750000 0.713733 0.427628
O O6 0.867093 0.550749 0.421071
O O7 0.870466 0.782967 0.504212
O O8 0.872731 0.785303 0.350531
O O9 0.750000 0.107690 0.185139
O O10 0.871819 0.240095 0.151669
O O11 0.873821 0.000442 0.240012
O O12 0.500000 0.500000 0.369763
O O13 0.391958 0.703270 0.375356
O O14 0.750000 0.346055 0.084900
O O15 0.865281 0.500697 0.102018
O O16 0.250000 0.288002 0.880571
O O17 0.144839 0.466483 0.882908
O O18 0.164599 0.315675 0.002027
O O19 0.250000 0.593114 0.803449
O O20 0.750000 0.172348 0.624279
#
# Coordination Sequence:
#
# PCOD9362335 Si02
#       8
#     8   8   8   8   8   8   8   8
#     4  10  20  33  49  72 108 142 175 219 268 318
#     4  10  17  31  54  80 105 135 178 224 271 320
#     4  10  19  33  53  77 104 138 176 216 266 322
#     4  10  20  32  49  75 108 137 175 225 264 312
#     4   9  16  28  51  79 103 131 176 221 262 318
#     4   9  16  30  51  73  98 132 170 215 272 316
#     4   9  18  32  53  80 108 133 171 224 268 317
#     4   9  16  29  52  78 100 130 175 224 267 313
#
# _framework density 21.585370999999999
#
# number of rings (size 3 to 8) (size 9 to 14) (size 15 to 20)
#    0.000    2.500    2.500    0.750    0.000    1.000 
#    0.000    3.750    0.000    4.500    0.000    0.000 
#    0.000    0.000    0.000    0.000    0.000    0.000 
#
# Total GULP energy -178150.489568 kJ/mol
# GULP energy per Si atom -5567.202799 kJ/mol
# Density = 2.153624 g / cm^3
# Si number density = 21.585371 Si / 1000 Ang^3
#
#
#
# Elastic Constant Matrix: (Units=GPa)
#
#
# Indices 1 2 3 4 5 6 
#
# 1 11.1541 1.5536 8.0772 0.0000 0.0000 0.0000
# 2 1.5536 79.9056 3.7654 0.0000 0.0000 0.0000
# 3 8.0772 3.7654 30.5878 0.0000 0.0000 0.0000
# 4 0.0000 0.0000 0.0000 19.4512 0.0000 0.0000
# 5 0.0000 0.0000 0.0000 0.0000 6.8943 0.0000
# 6 0.0000 0.0000 0.0000 0.0000 0.0000 -6.1232
#
#
#
# Elastic Compliance Matrix: (Units=1/GPa)
#
#
# Indices 1 2 3 4 5 6 
#
# 1 0.110899 -0.000781 -0.029188 0.000000 0.000000 0.000000
# 2 -0.000781 0.012593 -0.001344 0.000000 0.000000 0.000000
# 3 -0.029188 -0.001344 0.040566 0.000000 0.000000 0.000000
# 4 0.000000 0.000000 0.000000 0.051411 0.000000 0.000000
# 5 0.000000 0.000000 0.000000 0.000000 0.145047 0.000000
# 6 0.000000 0.000000 0.000000 0.000000 0.000000 -0.163313
#
#
# Mechanical properties :
#
#
# Convention : Reuss Voigt Hill
#
# Bulk Modulus (GPa) = 9.85888 16.49330 13.17609
# Shear Modulus (GPa) = 17.02773 11.26122 14.14447
#
# Velocity S-wave (km/s) = 2.81170 2.28657 2.56262
# Velocity P-wave (km/s) = 3.88821 3.82475 3.85661
#
# Compressibility (1/GPa) = 0.10143138
#
# Stress axis : x y z
#
# Youngs Moduli (GPa) = 9.01725 79.40738 24.65128
#
# Poissons Ratio (x) = 0.06200 0.71953
# Poissons Ratio (y) = 0.00704 0.03313
# Poissons Ratio (z) = 0.26320 0.10673
#
# Static dielectric constant tensor:
#      x y z
#    x 1.840750 0.000000 0.000000 
#    y 0.000000 1.817550 0.000000 
#    z 0.000000 0.000000 1.858980 
# 
# From -- ./inp_files/21425.got.cif
#   From: 2010.05.17/outbox.cif.g08.bks.cpg/sg40_11_cif.got.tgz:21425.got - 2010.06.03 18:35:42.
