data_PCOD9362782
_publ_section_title
;
Structure prediction by ZEFSAII (Michael W. Deem and Ramdas Pophale) SiO2 
 PCOD9362782
Probable space group: A M A 2
;
_chemical_formula_sum "Si O2"
_cell_formula_units_Z 64
_cell_length_a 7.780628
_cell_length_b 32.047593
_cell_length_c 12.254801
_cell_angle_alpha 90.000000
_cell_angle_beta 90.000000
_cell_angle_gamma 90.000000
_cell_volume 3055.739524
_symmetry_space_group_name_H-M "A M A 2"
_symmetry_group_IT_number 40
_symmetry_cell_setting 'orthorhombic'
loop_
_space_group_symop_operation_xyz
x,y,z
-x,-y,z
1/2-x,y,z
1/2+x,-y,z
x,1/2+y,1/2+z
-x,1/2-y,1/2+z
1/2-x,1/2+y,1/2+z
1/2+x,1/2-y,1/2+z
loop_
_atom_site_type_symbol
_atom_site_label
_atom_site_fract_x
_atom_site_fract_y
_atom_site_fract_z
Si Si1 0.545437 0.045661 0.609030
Si Si2 0.040203 0.431154 0.870482
Si Si3 0.546759 0.373435 0.249188
Si Si4 0.045745 0.702485 0.102344
Si Si5 0.546324 0.625964 0.500448
Si Si6 0.456782 0.954522 0.131959
Si Si7 0.460826 0.796032 0.139596
Si Si8 0.542730 0.165728 0.369898
O O1 0.750000 0.049148 0.604593
O O2 0.478093 0.049521 0.484362
O O3 0.483539 0.084377 0.680979
O O4 0.500000 0.000000 0.653097
O O5 0.250000 0.433145 0.870515
O O6 0.979531 0.451105 0.757181
O O7 0.989879 0.382570 0.869439
O O8 0.750000 0.367859 0.259113
O O9 0.475089 0.333637 0.182113
O O10 0.477339 0.376219 0.371368
O O11 0.250000 0.704517 0.122596
O O12 0.976878 0.749126 0.118961
O O13 0.019142 0.687913 0.978805
O O14 0.750000 0.626144 0.522735
O O15 0.477465 0.584743 0.561878
O O16 0.479903 0.669113 0.552803
O O17 0.250000 0.951549 0.135425
O O18 0.500000 0.000000 0.086403
O O19 0.250000 0.795154 0.136094
O O20 0.512532 0.811719 0.259328
O O21 0.750000 0.166022 0.371205
#
# Coordination Sequence:
#
# PCOD9362782 Si02
#       8
#     8   8   8   8   8   8   8   8
#     4  11  22  38  61  88 116 150 192 236 284 343
#     4   9  17  33  58  87 115 143 183 229 278 336
#     4  11  24  40  57  82 119 154 190 239 290 340
#     4  10  22  38  56  85 120 151 186 238 294 338
#     4  10  21  39  61  81 109 152 197 236 281 343
#     4  10  20  36  58  85 113 144 182 229 281 336
#     4   9  19  37  61  85 114 151 191 237 291 344
#     4  10  18  35  63  87 111 150 193 233 280 342
#
# _framework density 20.944192999999999
#
# number of rings (size 3 to 8) (size 9 to 14) (size 15 to 20)
#    0.000    2.000    2.500    1.125    1.750    1.500 
#    0.000    3.750    0.000    0.000    0.000    0.000 
#    0.000    0.000    0.000    0.000    0.000    0.000 
#
# Total GULP energy -178746.870983 kJ/mol
# GULP energy per Si atom -5585.839718 kJ/mol
# Density = 2.089652 g / cm^3
# Si number density = 20.944193 Si / 1000 Ang^3
#
#
#
# Elastic Constant Matrix: (Units=GPa)
#
#
# Indices 1 2 3 4 5 6 
#
# 1 24.1264 -3.4075 -11.9498 0.0000 0.0000 0.0000
# 2 -3.4075 196.7618 78.6917 0.0000 0.0000 0.0000
# 3 -11.9498 78.6917 128.5059 0.0000 0.0000 0.0000
# 4 0.0000 0.0000 0.0000 10.6281 0.0000 0.0000
# 5 0.0000 0.0000 0.0000 0.0000 84.2516 0.0000
# 6 0.0000 0.0000 0.0000 0.0000 0.0000 11.6500
#
#
#
# Elastic Compliance Matrix: (Units=1/GPa)
#
#
# Indices 1 2 3 4 5 6 
#
# 1 0.043645 -0.001149 0.004762 0.000000 0.000000 0.000000
# 2 -0.001149 0.006761 -0.004247 0.000000 0.000000 0.000000
# 3 0.004762 -0.004247 0.010825 0.000000 0.000000 0.000000
# 4 0.000000 0.000000 0.000000 0.094090 0.000000 0.000000
# 5 0.000000 0.000000 0.000000 0.000000 0.011869 0.000000
# 6 0.000000 0.000000 0.000000 0.000000 0.000000 0.085837
#
#
# Mechanical properties :
#
#
# Convention : Reuss Voigt Hill
#
# Bulk Modulus (GPa) = 16.67677 52.89588 34.78633
# Shear Modulus (GPa) = 18.22940 40.37658 29.30299
#
# Velocity S-wave (km/s) = 2.95342 4.39546 3.74451
# Velocity P-wave (km/s) = 4.42832 7.14636 5.94477
#
# Compressibility (1/GPa) = 0.05996364
#
# Stress axis : x y z
#
# Youngs Moduli (GPa) = 22.91224 147.90993 92.37723
#
# Poissons Ratio (x) = 0.16989 -0.43989
# Poissons Ratio (y) = 0.02632 0.39232
# Poissons Ratio (z) = -0.10911 0.62816
#
# Static dielectric constant tensor:
#      x y z
#    x 1.776020 0.000000 0.000000 
#    y 0.000000 1.750290 0.000000 
#    z 0.000000 0.000000 1.720460 
# 
# From -- ./inp_files/10669.got.cif
#   From: 2010.05.17/outbox.cif.g08.bks.cpg/sg40_6_cif.got.tgz:10669.got - 2010.06.03 18:35:42.
