data_PCOD9362298
_publ_section_title
;
Structure prediction by ZEFSAII (Michael W. Deem and Ramdas Pophale) SiO2 
 PCOD9362298
Probable space group: A M A 2
;
_chemical_formula_sum "Si O2"
_cell_formula_units_Z 56
_cell_length_a 9.115489
_cell_length_b 22.452288
_cell_length_c 17.978461
_cell_angle_alpha 90.000000
_cell_angle_beta 90.000000
_cell_angle_gamma 90.000000
_cell_volume 3679.536268
_symmetry_space_group_name_H-M "A M A 2"
_symmetry_group_IT_number 40
_symmetry_cell_setting 'orthorhombic'
loop_
_space_group_symop_operation_xyz
x,y,z
-x,-y,z
1/2-x,y,z
1/2+x,-y,z
x,1/2+y,1/2+z
-x,1/2-y,1/2+z
1/2-x,1/2+y,1/2+z
1/2+x,1/2-y,1/2+z
loop_
_atom_site_type_symbol
_atom_site_label
_atom_site_fract_x
_atom_site_fract_y
_atom_site_fract_z
Si Si1 0.076358 0.851896 0.958590
Si Si2 0.577053 0.285981 0.008574
Si Si3 0.419732 0.681147 0.311472
Si Si4 0.426290 0.064382 0.079719
Si Si5 0.424809 0.784493 0.664632
Si Si6 0.576207 0.851029 0.217234
Si Si7 0.581546 0.179978 0.362814
O O1 0.250000 0.864448 0.956608
O O2 0.057760 0.784457 0.989807
O O3 0.007141 0.852554 0.876280
O O4 0.992313 0.896557 0.012815
O O5 0.750000 0.297058 0.015842
O O6 0.510087 0.321341 0.938720
O O7 0.493822 0.299060 0.085054
O O8 0.250000 0.662491 0.307022
O O9 0.499391 0.680030 0.232022
O O10 0.421079 0.750726 0.336542
O O11 0.250000 0.060527 0.072885
O O12 0.460323 0.099465 0.156251
O O13 0.500000 0.000000 0.079971
O O14 0.250000 0.793290 0.664850
O O15 0.452658 0.714173 0.681403
O O16 0.750000 0.853326 0.233068
O O17 0.488795 0.855305 0.294123
O O18 0.750000 0.163185 0.375464
#
# Coordination Sequence:
#
# PCOD9362298 Si02
#       7
#     8   8   8   8   8   8   8
#     4  10  19  31  46  63  86 118 153 190 230 271
#     4  10  18  27  42  64  91 120 151 183 222 270
#     4   9  17  28  42  62  87 116 149 183 223 271
#     4  11  22  35  49  67  89 119 157 198 235 272
#     4  10  17  27  43  64  90 119 152 185 222 269
#     4   9  18  31  45  60  85 117 149 187 230 268
#     4   9  17  27  42  62  85 114 149 183 220 268
#
# _framework density 15.21931
#
# number of rings (size 3 to 8) (size 9 to 14) (size 15 to 20)
#    0.000    2.286    1.429    2.571    0.000    6.286 
#    0.000    0.000    0.000    0.000    0.000    0.000 
#    0.000    1.143    0.000    9.714    0.000    6.571 
#
# Total GULP energy -156132.429187 kJ/mol
# GULP energy per Si atom -5576.158185 kJ/mol
# Density = 1.518467 g / cm^3
# Si number density = 15.219310 Si / 1000 Ang^3
#
#
#
# Elastic Constant Matrix: (Units=GPa)
#
#
# Indices 1 2 3 4 5 6 
#
# 1 106.7596 37.7460 94.5310 0.0000 0.0000 0.0000
# 2 37.7460 43.9728 39.3312 0.0000 0.0000 0.0000
# 3 94.5310 39.3312 162.5949 0.0000 0.0000 0.0000
# 4 0.0000 0.0000 0.0000 9.6177 0.0000 0.0000
# 5 0.0000 0.0000 0.0000 0.0000 34.8950 0.0000
# 6 0.0000 0.0000 0.0000 0.0000 0.0000 12.4684
#
#
#
# Elastic Compliance Matrix: (Units=1/GPa)
#
#
# Indices 1 2 3 4 5 6 
#
# 1 0.022038 -0.009516 -0.010511 0.000000 0.000000 0.000000
# 2 -0.009516 0.033129 -0.002481 0.000000 0.000000 0.000000
# 3 -0.010511 -0.002481 0.012861 0.000000 0.000000 0.000000
# 4 0.000000 0.000000 0.000000 0.103975 0.000000 0.000000
# 5 0.000000 0.000000 0.000000 0.000000 0.028657 0.000000
# 6 0.000000 0.000000 0.000000 0.000000 0.000000 0.080203
#
#
# Mechanical properties :
#
#
# Convention : Reuss Voigt Hill
#
# Bulk Modulus (GPa) = 43.45496 72.94927 58.20211
# Shear Modulus (GPa) = 14.99019 20.84418 17.91718
#
# Velocity S-wave (km/s) = 3.14179 3.70481 3.43485
# Velocity P-wave (km/s) = 6.46341 8.14475 7.35230
#
# Compressibility (1/GPa) = 0.02301233
#
# Stress axis : x y z
#
# Youngs Moduli (GPa) = 45.37541 30.18478 77.75185
#
# Poissons Ratio (x) = 0.28724 0.81725
# Poissons Ratio (y) = 0.43180 0.19292
# Poissons Ratio (z) = 0.47694 0.07490
#
# Static dielectric constant tensor:
#      x y z
#    x 1.505100 0.000000 0.000000 
#    y 0.000000 1.472800 0.000000 
#    z 0.000000 0.000000 1.497340 
# 
# From -- ./inp_files/15287.got.cif
#   From: 2010.05.17/outbox.cif.g08.bks.cpg/sg40_8_cif.got.tgz:15287.got - 2010.06.03 18:35:42.
