data_PCOD9362150
_publ_section_title
;
Structure prediction by ZEFSAII (Michael W. Deem and Ramdas Pophale) SiO2 
 PCOD9362150
Probable space group: A B M 2
;
_chemical_formula_sum "Si O2"
_cell_formula_units_Z 36
_cell_length_a 6.794560
_cell_length_b 24.178521
_cell_length_c 10.175454
_cell_angle_alpha 90.000000
_cell_angle_beta 90.000000
_cell_angle_gamma 90.000000
_cell_volume 1671.648123
_symmetry_space_group_name_H-M "A B M 2"
_symmetry_group_IT_number 39
_symmetry_cell_setting 'orthorhombic'
loop_
_space_group_symop_operation_xyz
x,y,z
-x,-y,z
-x,1/2+y,z
x,1/2-y,z
x,1/2+y,1/2+z
-x,1/2-y,1/2+z
-x,y,1/2+z
x,-y,1/2+z
loop_
_atom_site_type_symbol
_atom_site_label
_atom_site_fract_x
_atom_site_fract_y
_atom_site_fract_z
Si Si1 0.500000 0.500000 0.817520
Si Si2 0.216282 0.685307 0.118205
Si Si3 0.061272 0.358583 0.347257
Si Si4 0.589473 0.389618 0.669510
Si Si5 0.854978 0.542593 0.974583
O O1 0.499056 0.444913 0.731966
O O2 0.692064 0.504561 0.906614
O O3 0.262442 0.750000 0.116711
O O4 0.415431 0.649104 0.119112
O O5 0.090589 0.670511 0.248282
O O6 0.091024 0.669611 0.988703
O O7 0.273721 0.360461 0.277613
O O8 0.980495 0.420600 0.373065
O O9 0.738090 0.412887 0.560250
O O10 0.000000 0.500000 0.048470
#
# Coordination Sequence:
#
# PCOD9362150 Si02
#       5
#     4   8   8   8   8
#     4  12  24  42  72 110 150 196 242 308 376 452
#     4  12  29  52  78 107 150 203 257 318 375 442
#     4  12  26  51  75 111 148 196 257 315 375 452
#     4  12  27  45  74 111 151 193 255 308 378 446
#     4  12  26  43  71 109 153 198 240 302 378 453
#
# _framework density 21.535634000000002
#
# number of rings (size 3 to 8) (size 9 to 14) (size 15 to 20)
#    0.000    0.000    6.667    2.667    6.222    1.778 
#    0.000    0.000    0.000    0.000    0.000    0.000 
#    0.000    0.000    0.000    0.000    0.000    0.000 
#
# Total GULP energy -100747.053244 kJ/mol
# GULP energy per Si atom -5597.058514 kJ/mol
# Density = 2.148662 g / cm^3
# Si number density = 21.535634 Si / 1000 Ang^3
#
#
#
# Elastic Constant Matrix: (Units=GPa)
#
#
# Indices 1 2 3 4 5 6 
#
# 1 120.8829 69.8004 62.4522 0.0000 0.0000 0.0000
# 2 69.8004 142.5320 46.7082 0.0000 0.0000 0.0000
# 3 62.4522 46.7082 106.8346 0.0000 0.0000 0.0000
# 4 0.0000 0.0000 0.0000 17.6804 0.0000 0.0000
# 5 0.0000 0.0000 0.0000 0.0000 14.9801 0.0000
# 6 0.0000 0.0000 0.0000 0.0000 0.0000 33.6564
#
#
#
# Elastic Compliance Matrix: (Units=1/GPa)
#
#
# Indices 1 2 3 4 5 6 
#
# 1 0.014371 -0.005001 -0.006214 0.000000 0.000000 0.000000
# 2 -0.005001 0.009930 -0.001418 0.000000 0.000000 0.000000
# 3 -0.006214 -0.001418 0.013613 0.000000 0.000000 0.000000
# 4 0.000000 0.000000 0.000000 0.056560 0.000000 0.000000
# 5 0.000000 0.000000 0.000000 0.000000 0.066755 0.000000
# 6 0.000000 0.000000 0.000000 0.000000 0.000000 0.029712
#
#
# Mechanical properties :
#
#
# Convention : Reuss Voigt Hill
#
# Bulk Modulus (GPa) = 79.07031 80.90792 79.98911
# Shear Modulus (GPa) = 22.68373 26.01594 24.34983
#
# Velocity S-wave (km/s) = 3.24900 3.47946 3.36620
# Velocity P-wave (km/s) = 7.13235 7.33438 7.23407
#
# Compressibility (1/GPa) = 0.01264697
#
# Stress axis : x y z
#
# Youngs Moduli (GPa) = 69.58599 100.70750 73.46077
#
# Poissons Ratio (x) = 0.50366 0.45650
# Poissons Ratio (y) = 0.34801 0.10415
# Poissons Ratio (z) = 0.43242 0.14278
#
# Static dielectric constant tensor:
#      x y z
#    x 2.003440 0.000000 0.000000 
#    y 0.000000 1.769590 0.000000 
#    z 0.000000 0.000000 1.839370 
# 
# From -- ./inp_files/4474.got.cif
#   From: 2010.05.17/outbox.cif.g08.bks.cpg/sg39_3_cif.got.tgz:4474.got - 2010.06.03 18:22:40.
