data_PCOD9362828
_publ_section_title
;
Structure prediction by ZEFSAII (Michael W. Deem and Ramdas Pophale) SiO2 
 PCOD9362828
Probable space group: A M A 2
;
_chemical_formula_sum "Si O2"
_cell_formula_units_Z 52
_cell_length_a 13.101181
_cell_length_b 27.370387
_cell_length_c 7.603988
_cell_angle_alpha 90.000000
_cell_angle_beta 90.000000
_cell_angle_gamma 90.000000
_cell_volume 2726.671430
_symmetry_space_group_name_H-M "A M A 2"
_symmetry_group_IT_number 40
_symmetry_cell_setting 'orthorhombic'
loop_
_space_group_symop_operation_xyz
x,y,z
-x,-y,z
1/2-x,y,z
1/2+x,-y,z
x,1/2+y,1/2+z
-x,1/2-y,1/2+z
1/2-x,1/2+y,1/2+z
1/2+x,1/2-y,1/2+z
loop_
_atom_site_type_symbol
_atom_site_label
_atom_site_fract_x
_atom_site_fract_y
_atom_site_fract_z
Si Si1 0.363182 0.658139 0.216020
Si Si2 0.077366 0.835658 0.533546
Si Si3 0.134388 0.908808 0.827835
Si Si4 0.526348 0.644115 0.657570
Si Si5 0.366199 0.723695 0.540286
Si Si6 0.133651 0.578974 0.537270
Si Si7 0.500000 0.000000 0.877900
O O1 0.250000 0.654388 0.136495
O O2 0.457168 0.659361 0.084028
O O3 0.368073 0.706858 0.336265
O O4 0.372362 0.614558 0.362957
O O5 0.131989 0.873045 0.662362
O O6 0.114102 0.780581 0.565242
O O7 0.091717 0.848573 0.330386
O O8 0.250000 0.924525 0.865701
O O9 0.060946 0.955201 0.788905
O O10 0.089634 0.876943 0.991646
O O11 0.459655 0.692899 0.621996
O O12 0.438241 0.603582 0.681161
O O13 0.250000 0.710794 0.602324
O O14 0.250000 0.576648 0.590083
O O15 0.086457 0.527249 0.489663
#
# Coordination Sequence:
#
# PCOD9362828 Si02
#       7
#     8   8   8   8   8   8   4
#     4   9  18  35  57  82 116 155 199 242 289 351
#     4  12  21  38  60  90 123 158 201 250 299 355
#     4  11  24  42  63  91 122 158 201 252 312 359
#     4  10  22  37  62  85 122 158 202 246 293 360
#     4  10  20  37  58  85 123 166 203 243 295 353
#     4   9  17  35  60  85 114 150 192 243 297 352
#     4  10  18  38  66  90 112 160 198 250 302 368
#
# _framework density 19.070871
#
# number of rings (size 3 to 8) (size 9 to 14) (size 15 to 20)
#    0.000    1.846    4.615    3.231    0.000    2.462 
#    0.000    3.846    0.000    3.692    0.000    0.000 
#    0.000    0.000    0.000    0.000    0.000    0.000 
#
# Total GULP energy -144872.775794 kJ/mol
# GULP energy per Si atom -5572.029838 kJ/mol
# Density = 1.902746 g / cm^3
# Si number density = 19.070871 Si / 1000 Ang^3
#
#
#
# Elastic Constant Matrix: (Units=GPa)
#
#
# Indices 1 2 3 4 5 6 
#
# 1 103.8569 18.4026 15.1097 0.0000 0.0000 0.0000
# 2 18.4026 116.2637 22.9465 0.0000 0.0000 0.0000
# 3 15.1097 22.9465 59.0029 0.0000 0.0000 0.0000
# 4 0.0000 0.0000 0.0000 16.6811 0.0000 0.0000
# 5 0.0000 0.0000 0.0000 0.0000 13.6276 0.0000
# 6 0.0000 0.0000 0.0000 0.0000 0.0000 24.4889
#
#
#
# Elastic Compliance Matrix: (Units=1/GPa)
#
#
# Indices 1 2 3 4 5 6 
#
# 1 0.010150 -0.001184 -0.002139 0.000000 0.000000 0.000000
# 2 -0.001184 0.009454 -0.003374 0.000000 0.000000 0.000000
# 3 -0.002139 -0.003374 0.018808 0.000000 0.000000 0.000000
# 4 0.000000 0.000000 0.000000 0.059948 0.000000 0.000000
# 5 0.000000 0.000000 0.000000 0.000000 0.073380 0.000000
# 6 0.000000 0.000000 0.000000 0.000000 0.000000 0.040835
#
#
# Mechanical properties :
#
#
# Convention : Reuss Voigt Hill
#
# Bulk Modulus (GPa) = 39.96965 43.56010 41.76488
# Shear Modulus (GPa) = 21.33942 25.80384 23.57163
#
# Velocity S-wave (km/s) = 3.34871 3.68237 3.51950
# Velocity P-wave (km/s) = 5.99631 6.40083 6.20187
#
# Compressibility (1/GPa) = 0.02501898
#
# Stress axis : x y z
#
# Youngs Moduli (GPa) = 98.52578 105.77043 53.16903
#
# Poissons Ratio (x) = 0.12528 0.11370
# Poissons Ratio (y) = 0.11670 0.17937
# Poissons Ratio (z) = 0.21070 0.35682
#
# Static dielectric constant tensor:
#      x y z
#    x 1.707790 0.000000 0.000000 
#    y 0.000000 1.678010 0.000000 
#    z 0.000000 0.000000 1.647160 
# 
# From -- ./inp_files/6812.got.cif
#   From: 2010.05.17/outbox.cif.g08.bks.cpg/sg40_4_cif.got.tgz:6812.got - 2010.06.03 18:35:42.
