data_PCOD9362237
_publ_section_title
;
Structure prediction by ZEFSAII (Michael W. Deem and Ramdas Pophale) SiO2 
 PCOD9362237
Probable space group: A M A 2
;
_chemical_formula_sum "Si O2"
_cell_formula_units_Z 52
_cell_length_a 9.520073
_cell_length_b 33.556823
_cell_length_c 6.895190
_cell_angle_alpha 90.000000
_cell_angle_beta 90.000000
_cell_angle_gamma 90.000000
_cell_volume 2202.760873
_symmetry_space_group_name_H-M "A M A 2"
_symmetry_group_IT_number 40
_symmetry_cell_setting 'orthorhombic'
loop_
_space_group_symop_operation_xyz
x,y,z
-x,-y,z
1/2-x,y,z
1/2+x,-y,z
x,1/2+y,1/2+z
-x,1/2-y,1/2+z
1/2-x,1/2+y,1/2+z
1/2+x,1/2-y,1/2+z
loop_
_atom_site_type_symbol
_atom_site_label
_atom_site_fract_x
_atom_site_fract_y
_atom_site_fract_z
Si Si1 0.905444 0.225419 0.399750
Si Si2 0.250000 0.005329 0.696200
Si Si3 0.919111 0.872898 0.072466
Si Si4 0.917747 0.960574 0.142258
Si Si5 0.000982 0.444112 0.094908
Si Si6 0.081434 0.859649 0.474008
Si Si7 0.591196 0.698906 0.453213
O O1 0.750000 0.241013 0.454332
O O2 0.940113 0.186785 0.532194
O O3 0.896164 0.207357 0.184812
O O4 0.017568 0.260386 0.387411
O O5 0.370187 0.040033 0.713656
O O6 0.130169 0.971615 0.650235
O O7 0.750000 0.869449 0.068425
O O8 0.958554 0.919087 0.042236
O O9 0.980652 0.864925 0.287564
O O10 0.993472 0.839955 0.940065
O O11 0.750000 0.968111 0.128937
O O12 0.955867 0.953634 0.369917
O O13 0.000000 0.000000 0.079372
O O14 0.039846 0.397517 0.103663
O O15 0.250000 0.863246 0.429934
O O16 0.750000 0.692251 0.382320
#
# Coordination Sequence:
#
# PCOD9362237 Si02
#       7
#     8   4   8   8   8   8   8
#     4   9  19  34  51  69  96 127 160 197 246 289
#     4  10  16  20  32  48  74 114 150 186 226 270
#     4   9  18  27  41  59  85 119 155 190 232 281
#     4  10  16  22  32  51  77 112 148 182 220 270
#     4  10  15  23  31  50  77 112 153 187 222 273
#     4   9  17  27  39  58  85 119 153 194 233 279
#     4  10  20  35  51  74  96 126 161 201 243 291
#
# _framework density 23.606738
#
# number of rings (size 3 to 8) (size 9 to 14) (size 15 to 20)
#    0.000    2.462    3.077    1.846    1.077    4.308 
#    0.000    0.000    0.000    0.000    0.000    0.000 
#    0.000    0.000    5.231    2.615    0.000    7.385 
#
# Total GULP energy -144781.344676 kJ/mol
# GULP energy per Si atom -5568.513257 kJ/mol
# Density = 2.355301 g / cm^3
# Si number density = 23.606738 Si / 1000 Ang^3
#
#
#
# Elastic Constant Matrix: (Units=GPa)
#
#
# Indices 1 2 3 4 5 6 
#
# 1 184.4270 103.0954 15.5902 0.0000 0.0000 0.0000
# 2 103.0954 219.8014 30.1726 0.0000 0.0000 0.0000
# 3 15.5902 30.1726 59.8142 0.0000 0.0000 0.0000
# 4 0.0000 0.0000 0.0000 38.7466 0.0000 0.0000
# 5 0.0000 0.0000 0.0000 0.0000 305.3015 0.0000
# 6 0.0000 0.0000 0.0000 0.0000 0.0000 46.0916
#
#
#
# Elastic Compliance Matrix: (Units=1/GPa)
#
#
# Indices 1 2 3 4 5 6 
#
# 1 0.007351 -0.003422 -0.000190 0.000000 0.000000 0.000000
# 2 -0.003422 0.006481 -0.002377 0.000000 0.000000 0.000000
# 3 -0.000190 -0.002377 0.017967 0.000000 0.000000 0.000000
# 4 0.000000 0.000000 0.000000 0.025809 0.000000 0.000000
# 5 0.000000 0.000000 0.000000 0.000000 0.003275 0.000000
# 6 0.000000 0.000000 0.000000 0.000000 0.000000 0.021696
#
#
# Mechanical properties :
#
#
# Convention : Reuss Voigt Hill
#
# Bulk Modulus (GPa) = 50.45166 84.63989 67.54577
# Shear Modulus (GPa) = 49.42450 99.04023 74.23237
#
# Velocity S-wave (km/s) = 4.58062 6.48423 5.61370
# Velocity P-wave (km/s) = 7.02810 9.59126 8.40793
#
# Compressibility (1/GPa) = 0.01982095
#
# Stress axis : x y z
#
# Youngs Moduli (GPa) = 136.03411 154.29962 55.65714
#
# Poissons Ratio (x) = 0.52800 0.01057
# Poissons Ratio (y) = 0.46549 0.13232
# Poissons Ratio (z) = 0.02583 0.36682
#
# Static dielectric constant tensor:
#      x y z
#    x 1.569770 0.000000 0.000000 
#    y 0.000000 1.874740 0.000000 
#    z 0.000000 0.000000 2.073390 
# 
# From -- ./inp_files/10497.got.cif
#   From: 2010.05.17/outbox.cif.g08.bks.cpg/sg40_6_cif.got.tgz:10497.got - 2010.06.03 18:35:42.
