data_PCOD9362381
_publ_section_title
;
Structure prediction by ZEFSAII (Michael W. Deem and Ramdas Pophale) SiO2 
 PCOD9362381
Probable space group: A M A 2
;
_chemical_formula_sum "Si O2"
_cell_formula_units_Z 56
_cell_length_a 9.040641
_cell_length_b 18.855269
_cell_length_c 21.572946
_cell_angle_alpha 90.000000
_cell_angle_beta 90.000000
_cell_angle_gamma 90.000000
_cell_volume 3677.404583
_symmetry_space_group_name_H-M "A M A 2"
_symmetry_group_IT_number 40
_symmetry_cell_setting 'orthorhombic'
loop_
_space_group_symop_operation_xyz
x,y,z
-x,-y,z
1/2-x,y,z
1/2+x,-y,z
x,1/2+y,1/2+z
-x,1/2-y,1/2+z
1/2-x,1/2+y,1/2+z
1/2+x,1/2-y,1/2+z
loop_
_atom_site_type_symbol
_atom_site_label
_atom_site_fract_x
_atom_site_fract_y
_atom_site_fract_z
Si Si1 0.429392 0.576242 0.424430
Si Si2 0.426922 0.576144 0.917958
Si Si3 0.921052 0.704230 0.857394
Si Si4 0.070631 0.577512 0.171800
Si Si5 0.420020 0.214867 0.990306
Si Si6 0.070184 0.155137 0.797937
Si Si7 0.072714 0.654828 0.045400
O O1 0.500000 0.500000 0.434736
O O2 0.250000 0.572293 0.425083
O O3 0.473847 0.635570 0.475168
O O4 0.474469 0.606832 0.356706
O O5 0.500000 0.500000 0.908498
O O6 0.250000 0.570855 0.916046
O O7 0.484249 0.634209 0.868790
O O8 0.471002 0.606710 0.986054
O O9 0.750000 0.685798 0.843651
O O10 0.977746 0.763584 0.809356
O O11 0.920943 0.746549 0.922968
O O12 0.250000 0.571625 0.171905
O O13 0.025465 0.620590 0.233295
O O14 0.025473 0.618693 0.109373
O O15 0.000000 0.500000 0.172693
O O16 0.250000 0.211455 0.011017
O O17 0.510157 0.266552 0.034673
O O18 0.250000 0.157484 0.799517
O O19 0.250000 0.658556 0.045114
#
# Coordination Sequence:
#
# PCOD9362381 Si02
#       7
#     8   8   8   8   8   8   8
#     4   9  16  26  41  63  86 109 136 168 206 247
#     4  10  18  27  40  61  86 110 136 170 208 246
#     4   8  14  27  44  59  77 106 139 171 207 246
#     4  10  19  30  43  62  87 115 144 171 197 234
#     4   8  15  27  42  58  79 107 139 171 207 248
#     4   8  15  28  44  60  83 113 142 168 199 241
#     4   9  18  29  41  59  84 112 143 173 201 236
#
# _framework density 15.228132
#
# number of rings (size 3 to 8) (size 9 to 14) (size 15 to 20)
#    0.000    3.143    0.000    3.000    0.000    1.714 
#    0.000    2.857    0.000    0.000    0.000    1.000 
#    0.000    2.286    0.000    0.000    0.000    0.000 
#
# Total GULP energy -155875.071354 kJ/mol
# GULP energy per Si atom -5566.966834 kJ/mol
# Density = 1.519347 g / cm^3
# Si number density = 15.228132 Si / 1000 Ang^3
#
#
#
# Elastic Constant Matrix: (Units=GPa)
#
#
# Indices 1 2 3 4 5 6 
#
# 1 20.3099 42.0407 20.4473 0.0000 0.0000 0.0000
# 2 42.0407 165.0122 66.8848 0.0000 0.0000 0.0000
# 3 20.4473 66.8848 75.0376 0.0000 0.0000 0.0000
# 4 0.0000 0.0000 0.0000 25.2948 0.0000 0.0000
# 5 0.0000 0.0000 0.0000 0.0000 5.5341 0.0000
# 6 0.0000 0.0000 0.0000 0.0000 0.0000 30.2502
#
#
#
# Elastic Compliance Matrix: (Units=1/GPa)
#
#
# Indices 1 2 3 4 5 6 
#
# 1 0.106874 -0.024149 -0.007597 0.000000 0.000000 0.000000
# 2 -0.024149 0.014945 -0.006741 0.000000 0.000000 0.000000
# 3 -0.007597 -0.006741 0.021405 0.000000 0.000000 0.000000
# 4 0.000000 0.000000 0.000000 0.039534 0.000000 0.000000
# 5 0.000000 0.000000 0.000000 0.000000 0.180697 0.000000
# 6 0.000000 0.000000 0.000000 0.000000 0.000000 0.033058
#
#
# Mechanical properties :
#
#
# Convention : Reuss Voigt Hill
#
# Bulk Modulus (GPa) = 15.09434 57.67837 36.38635
# Shear Modulus (GPa) = 10.08939 20.94829 15.51884
#
# Velocity S-wave (km/s) = 2.57680 3.71297 3.19578
# Velocity P-wave (km/s) = 4.33438 7.50600 6.12890
#
# Compressibility (1/GPa) = 0.06625001
#
# Stress axis : x y z
#
# Youngs Moduli (GPa) = 9.35682 66.91214 46.71794
#
# Poissons Ratio (x) = 1.61588 0.35492
# Poissons Ratio (y) = 0.22596 0.31491
# Poissons Ratio (z) = 0.07108 0.45103
#
# Static dielectric constant tensor:
#      x y z
#    x 1.510390 0.000000 0.000000 
#    y 0.000000 1.504860 0.000000 
#    z 0.000000 0.000000 1.502000 
# 
# From -- ./inp_files/22295.got.cif
#   From: 2010.05.17/outbox.cif.g08.bks.cpg/sg40_12_cif.got.tgz:22295.got - 2010.06.03 18:35:42.
