data_PCOD9362569
_publ_section_title
;
Structure prediction by ZEFSAII (Michael W. Deem and Ramdas Pophale) SiO2 
 PCOD9362569
Probable space group: A M A 2
;
_chemical_formula_sum "Si O2"
_cell_formula_units_Z 64
_cell_length_a 17.604071
_cell_length_b 30.238601
_cell_length_c 5.525864
_cell_angle_alpha 90.000000
_cell_angle_beta 90.000000
_cell_angle_gamma 90.000000
_cell_volume 2941.541623
_symmetry_space_group_name_H-M "A M A 2"
_symmetry_group_IT_number 40
_symmetry_cell_setting 'orthorhombic'
loop_
_space_group_symop_operation_xyz
x,y,z
-x,-y,z
1/2-x,y,z
1/2+x,-y,z
x,1/2+y,1/2+z
-x,1/2-y,1/2+z
1/2-x,1/2+y,1/2+z
1/2+x,1/2-y,1/2+z
loop_
_atom_site_type_symbol
_atom_site_label
_atom_site_fract_x
_atom_site_fract_y
_atom_site_fract_z
Si Si1 0.665973 0.177901 0.328270
Si Si2 0.018740 0.820331 0.988001
Si Si3 0.090567 0.011852 0.320198
Si Si4 0.920419 0.616103 0.117778
Si Si5 0.381250 0.231708 0.039080
Si Si6 0.661815 0.316638 0.038215
Si Si7 0.415306 0.976970 0.829005
Si Si8 0.562381 0.889364 0.313569
O O1 0.750000 0.179911 0.219223
O O2 0.596180 0.180357 0.140720
O O3 0.653802 0.133387 0.483485
O O4 0.653194 0.220148 0.499767
O O5 0.959758 0.856718 0.095744
O O6 0.042160 0.839746 0.731013
O O7 0.972439 0.774842 0.009347
O O8 0.100191 0.063836 0.267955
O O9 0.120088 0.996779 0.582527
O O10 0.000000 0.000000 0.329637
O O11 0.122416 0.987943 0.084013
O O12 0.915483 0.576059 0.303562
O O13 0.980999 0.598860 0.925641
O O14 0.351853 0.204680 0.801864
O O15 0.359081 0.214511 0.306767
O O16 0.750000 0.327317 0.016279
O O17 0.611902 0.360308 0.996940
O O18 0.500000 0.000000 0.838377
#
# Coordination Sequence:
#
# PCOD9362569 Si02
#       8
#     8   8   8   8   8   8   8   8
#     4  11  27  43  63  95 137 181 225 275 343 411
#     4  10  23  38  67  91 129 167 219 277 329 381
#     4  10  18  30  55  87 123 155 202 267 323 375
#     4  11  21  39  61  92 125 169 219 280 329 394
#     4  11  25  44  68  96 128 175 231 277 323 393
#     4  11  23  41  66  94 134 174 214 271 340 402
#     4  10  19  31  57  88 120 155 209 266 328 369
#     4  10  20  36  58  97 128 162 213 273 330 393
#
# _framework density 21.757297999999999
#
# number of rings (size 3 to 8) (size 9 to 14) (size 15 to 20)
#    0.000    1.500    3.750    2.625    5.250    0.500 
#    0.000    0.000    0.000    1.500    0.000    0.000 
#    0.000    0.000    0.000    0.000    0.000    0.000 
#
# Total GULP energy -178543.375689 kJ/mol
# GULP energy per Si atom -5579.480490 kJ/mol
# Density = 2.170778 g / cm^3
# Si number density = 21.757298 Si / 1000 Ang^3
#
#
#
# Elastic Constant Matrix: (Units=GPa)
#
#
# Indices 1 2 3 4 5 6 
#
# 1 87.3164 20.4525 9.9363 0.0000 0.0000 0.0000
# 2 20.4525 77.5066 6.2122 0.0000 0.0000 0.0000
# 3 9.9363 6.2122 98.9512 0.0000 0.0000 0.0000
# 4 0.0000 0.0000 0.0000 12.0547 0.0000 0.0000
# 5 0.0000 0.0000 0.0000 0.0000 15.6769 0.0000
# 6 0.0000 0.0000 0.0000 0.0000 0.0000 5.1529
#
#
#
# Elastic Compliance Matrix: (Units=1/GPa)
#
#
# Indices 1 2 3 4 5 6 
#
# 1 0.012312 -0.003166 -0.001038 0.000000 0.000000 0.000000
# 2 -0.003166 0.013781 -0.000547 0.000000 0.000000 0.000000
# 3 -0.001038 -0.000547 0.010245 0.000000 0.000000 0.000000
# 4 0.000000 0.000000 0.000000 0.082955 0.000000 0.000000
# 5 0.000000 0.000000 0.000000 0.000000 0.063788 0.000000
# 6 0.000000 0.000000 0.000000 0.000000 0.000000 0.194066
#
#
# Mechanical properties :
#
#
# Convention : Reuss Voigt Hill
#
# Bulk Modulus (GPa) = 37.26231 37.44179 37.35205
# Shear Modulus (GPa) = 12.63922 21.72178 17.18050
#
# Velocity S-wave (km/s) = 2.41284 3.16312 2.81311
# Velocity P-wave (km/s) = 4.99259 5.53052 5.26842
#
# Compressibility (1/GPa) = 0.02683677
#
# Stress axis : x y z
#
# Youngs Moduli (GPa) = 81.22013 72.56166 97.61296
#
# Poissons Ratio (x) = 0.22971 0.10128
# Poissons Ratio (y) = 0.25713 0.05342
# Poissons Ratio (z) = 0.08427 0.03971
#
# Static dielectric constant tensor:
#      x y z
#    x 1.796240 0.000000 0.000000 
#    y 0.000000 1.882930 0.000000 
#    z 0.000000 0.000000 1.843060 
# 
# From -- ./inp_files/2023.got.cif
#   From: 2010.05.17/outbox.cif.g08.bks.cpg/sg40_2_cif.got.tgz:2023.got - 2010.06.03 18:35:42.
