data_PCOD9362811
_publ_section_title
;
Structure prediction by ZEFSAII (Michael W. Deem and Ramdas Pophale) SiO2 
 PCOD9362811
Probable space group: A M A 2
;
_chemical_formula_sum "Si O2"
_cell_formula_units_Z 48
_cell_length_a 13.747731
_cell_length_b 12.937397
_cell_length_c 12.980712
_cell_angle_alpha 90.000000
_cell_angle_beta 90.000000
_cell_angle_gamma 90.000000
_cell_volume 2308.747538
_symmetry_space_group_name_H-M "A M A 2"
_symmetry_group_IT_number 40
_symmetry_cell_setting 'orthorhombic'
loop_
_space_group_symop_operation_xyz
x,y,z
-x,-y,z
1/2-x,y,z
1/2+x,-y,z
x,1/2+y,1/2+z
-x,1/2-y,1/2+z
1/2-x,1/2+y,1/2+z
1/2+x,1/2-y,1/2+z
loop_
_atom_site_type_symbol
_atom_site_label
_atom_site_fract_x
_atom_site_fract_y
_atom_site_fract_z
Si Si1 0.750000 0.144153 0.589900
Si Si2 0.750000 0.373806 0.492085
Si Si3 0.539811 0.892052 0.934875
Si Si4 0.250000 0.444393 0.656773
Si Si5 0.533064 0.170668 0.375007
Si Si6 0.958642 0.162071 0.154336
Si Si7 0.250000 0.897708 0.373495
Si Si8 0.970161 0.613939 0.112061
O O1 0.750000 0.260457 0.543447
O O2 0.750000 0.065699 0.491260
O O3 0.855874 0.130794 0.639222
O O4 0.654785 0.389506 0.424918
O O5 0.750000 0.459288 0.581468
O O6 0.518728 0.880022 0.057400
O O7 0.500000 0.000000 0.897397
O O8 0.497549 0.788320 0.885660
O O9 0.151705 0.377767 0.640202
O O10 0.250000 0.475285 0.777868
O O11 0.499337 0.126297 0.265420
O O12 0.650611 0.166534 0.362951
O O13 0.516537 0.119384 0.486325
O O14 0.969537 0.286861 0.151580
O O15 0.000000 0.500000 0.146314
#
# Coordination Sequence:
#
# PCOD9362811 Si02
#       8
#     4   4   8   4   8   8   4   8
#     4  10  18  37  58  74 108 149 186 219 268 343
#     4  12  18  34  58  82 112 145 180 226 281 340
#     4  11  20  33  56  84 107 144 186 227 277 322
#     4  10  20  29  54  86 114 140 175 232 273 321
#     4   9  18  34  54  77 110 143 181 224 264 330
#     4  10  20  35  54  81 114 142 181 226 274 319
#     4   8  14  32  50  76 104 144 181 205 262 326
#     4  10  21  37  57  80 107 146 185 224 270 323
#
# _framework density 20.790493000000001
#
# number of rings (size 3 to 8) (size 9 to 14) (size 15 to 20)
#    0.000    2.000    6.667    0.000    0.000    2.000 
#    3.000    0.000    0.000   12.000    0.000    0.000 
#    0.000    0.000    0.000    0.000    0.000    0.000 
#
# Total GULP energy -133722.336250 kJ/mol
# GULP energy per Si atom -5571.764010 kJ/mol
# Density = 2.074317 g / cm^3
# Si number density = 20.790493 Si / 1000 Ang^3
#
#
#
# Elastic Constant Matrix: (Units=GPa)
#
#
# Indices 1 2 3 4 5 6 
#
# 1 66.1889 13.2839 -13.8861 0.0000 0.0000 0.0000
# 2 13.2839 109.6920 -10.4467 0.0000 0.0000 0.0000
# 3 -13.8861 -10.4467 77.8049 0.0000 0.0000 0.0000
# 4 0.0000 0.0000 0.0000 2.4200 0.0000 0.0000
# 5 0.0000 0.0000 0.0000 0.0000 9.4325 0.0000
# 6 0.0000 0.0000 0.0000 0.0000 0.0000 24.8602
#
#
#
# Elastic Compliance Matrix: (Units=1/GPa)
#
#
# Indices 1 2 3 4 5 6 
#
# 1 0.015998 -0.001687 0.002629 0.000000 0.000000 0.000000
# 2 -0.001687 0.009412 0.000963 0.000000 0.000000 0.000000
# 3 0.002629 0.000963 0.013451 0.000000 0.000000 0.000000
# 4 0.000000 0.000000 0.000000 0.413225 0.000000 0.000000
# 5 0.000000 0.000000 0.000000 0.000000 0.106016 0.000000
# 6 0.000000 0.000000 0.000000 0.000000 0.000000 0.040225
#
#
# Mechanical properties :
#
#
# Convention : Reuss Voigt Hill
#
# Bulk Modulus (GPa) = 23.43532 25.73200 24.58366
# Shear Modulus (GPa) = 8.21365 24.99152 16.60259
#
# Velocity S-wave (km/s) = 1.98979 3.47084 2.82896
# Velocity P-wave (km/s) = 4.07132 5.33535 4.74561
#
# Compressibility (1/GPa) = 0.04267064
#
# Stress axis : x y z
#
# Youngs Moduli (GPa) = 62.50634 106.24253 74.34343
#
# Poissons Ratio (x) = 0.17924 -0.19543
# Poissons Ratio (y) = 0.10545 -0.07157
# Poissons Ratio (z) = -0.16431 -0.10228
#
# Static dielectric constant tensor:
#      x y z
#    x 1.748140 0.000000 0.000000 
#    y 0.000000 1.738420 0.000000 
#    z 0.000000 0.000000 1.834830 
# 
# From -- ./inp_files/17137.got.cif
#   From: 2010.05.17/outbox.cif.g08.bks.cpg/sg40_9_cif.got.tgz:17137.got - 2010.06.03 18:35:42.
