data_PCOD9362449
_publ_section_title
;
Structure prediction by ZEFSAII (Michael W. Deem and Ramdas Pophale) SiO2 
 PCOD9362449
Probable space group: A M A 2
;
_chemical_formula_sum "Si O2"
_cell_formula_units_Z 64
_cell_length_a 21.327647
_cell_length_b 27.432060
_cell_length_c 5.550895
_cell_angle_alpha 90.000000
_cell_angle_beta 90.000000
_cell_angle_gamma 90.000000
_cell_volume 3247.613801
_symmetry_space_group_name_H-M "A M A 2"
_symmetry_group_IT_number 40
_symmetry_cell_setting 'orthorhombic'
loop_
_space_group_symop_operation_xyz
x,y,z
-x,-y,z
1/2-x,y,z
1/2+x,-y,z
x,1/2+y,1/2+z
-x,1/2-y,1/2+z
1/2-x,1/2+y,1/2+z
1/2+x,1/2-y,1/2+z
loop_
_atom_site_type_symbol
_atom_site_label
_atom_site_fract_x
_atom_site_fract_y
_atom_site_fract_z
Si Si1 0.875982 0.557637 0.436860
Si Si2 0.099465 0.565872 0.936857
Si Si3 0.883211 0.324689 0.936855
Si Si4 0.944957 0.461602 0.436857
Si Si5 0.965677 0.692976 0.936859
Si Si6 0.466702 0.854635 0.936859
Si Si7 0.405608 0.701379 0.436857
Si Si8 0.823524 0.035988 0.436860
O O1 0.886586 0.499265 0.436862
O O2 0.938886 0.590778 0.436858
O O3 0.842133 0.564961 0.693125
O O4 0.842132 0.564961 0.180596
O O5 0.058553 0.564961 0.692922
O O6 0.140180 0.516378 0.936860
O O7 0.132930 0.618047 0.936848
O O8 0.058557 0.564964 0.180800
O O9 0.865277 0.302512 0.193910
O O10 0.959078 0.315133 0.936858
O O11 0.865277 0.302510 0.679803
O O12 0.000000 0.500000 0.436841
O O13 0.943066 0.669410 0.187409
O O14 0.946296 0.749301 0.936855
O O15 0.943066 0.669410 0.686310
O O16 0.541522 0.841880 0.936861
O O17 0.750000 0.026478 0.436858
#
# Coordination Sequence:
#
# PCOD9362449 Si02
#       8
#     8   8   8   8   8   8   8   8
#     4  10  21  33  51  78  94 129 176 201 250 303
#     4  10  21  33  47  74  90 131 175 202 247 294
#     4  10  18  28  46  63  97 124 177 207 220 281
#     4  10  21  31  45  65 107 132 161 194 236 302
#     4  10  19  29  46  66 102 146 168 187 235 282
#     4  10  18  29  46  68 100 126 170 204 217 284
#     4  10  19  31  44  68 100 148 166 189 235 282
#     4  10  21  40  55  68  98 128 163 224 266 298
#
# _framework density 19.706776999999999
#
# number of rings (size 3 to 8) (size 9 to 14) (size 15 to 20)
#    0.000    2.000    0.000    6.000    7.000    0.000 
#    0.000    0.000    0.000    0.000    0.000    0.000 
#    0.000   34.000    0.000    0.000    0.000    0.000 
#
# Total GULP energy -178155.663872 kJ/mol
# GULP energy per Si atom -5567.364496 kJ/mol
# Density = 1.966192 g / cm^3
# Si number density = 19.706777 Si / 1000 Ang^3
#
#
#
# Elastic Constant Matrix: (Units=GPa)
#
#
# Indices 1 2 3 4 5 6 
#
# 1 21.0032 -3.8237 16.0823 0.0000 0.0000 0.0000
# 2 -3.8237 78.0916 29.9816 0.0000 0.0000 0.0000
# 3 16.0823 29.9816 223.4433 0.0000 0.0000 0.0000
# 4 0.0000 0.0000 0.0000 29.4056 0.0000 0.0000
# 5 0.0000 0.0000 0.0000 0.0000 9.8487 0.0000
# 6 0.0000 0.0000 0.0000 0.0000 0.0000 6.5090
#
#
#
# Elastic Compliance Matrix: (Units=1/GPa)
#
#
# Indices 1 2 3 4 5 6 
#
# 1 0.051646 0.004171 -0.004277 0.000000 0.000000 0.000000
# 2 0.004171 0.013838 -0.002157 0.000000 0.000000 0.000000
# 3 -0.004277 -0.002157 0.005073 0.000000 0.000000 0.000000
# 4 0.000000 0.000000 0.000000 0.034007 0.000000 0.000000
# 5 0.000000 0.000000 0.000000 0.000000 0.101537 0.000000
# 6 0.000000 0.000000 0.000000 0.000000 0.000000 0.153632
#
#
# Mechanical properties :
#
#
# Convention : Reuss Voigt Hill
#
# Bulk Modulus (GPa) = 15.14457 45.22429 30.18443
# Shear Modulus (GPa) = 12.94437 27.83920 20.39178
#
# Velocity S-wave (km/s) = 2.56569 3.76263 3.22026
# Velocity P-wave (km/s) = 4.05939 6.47108 5.40155
#
# Compressibility (1/GPa) = 0.06603026
#
# Stress axis : x y z
#
# Youngs Moduli (GPa) = 19.36267 72.26575 197.13560
#
# Poissons Ratio (x) = -0.30141 0.84311
# Poissons Ratio (y) = -0.08076 0.42521
# Poissons Ratio (z) = 0.08281 0.15587
#
# Static dielectric constant tensor:
#      x y z
#    x 1.682410 0.000000 0.000000 
#    y 0.000000 1.739560 0.000000 
#    z 0.000000 0.000000 1.792060 
# 
# From -- ./inp_files/2879.got.cif
#   From: 2010.05.17/outbox.cif.g08.bks.cpg/sg40_2_cif.got.tgz:2879.got - 2010.06.03 18:35:42.
