data_PCOD9362439
_publ_section_title
;
Structure prediction by ZEFSAII (Michael W. Deem and Ramdas Pophale) SiO2 
 PCOD9362439
Probable space group: A M A 2
;
_chemical_formula_sum "Si O2"
_cell_formula_units_Z 56
_cell_length_a 8.684009
_cell_length_b 14.031164
_cell_length_c 30.330571
_cell_angle_alpha 90.000000
_cell_angle_beta 90.000000
_cell_angle_gamma 90.000000
_cell_volume 3695.681637
_symmetry_space_group_name_H-M "A M A 2"
_symmetry_group_IT_number 40
_symmetry_cell_setting 'orthorhombic'
loop_
_space_group_symop_operation_xyz
x,y,z
-x,-y,z
1/2-x,y,z
1/2+x,-y,z
x,1/2+y,1/2+z
-x,1/2-y,1/2+z
1/2-x,1/2+y,1/2+z
1/2+x,1/2-y,1/2+z
loop_
_atom_site_type_symbol
_atom_site_label
_atom_site_fract_x
_atom_site_fract_y
_atom_site_fract_z
Si Si1 0.434655 0.892614 0.388740
Si Si2 0.064317 0.607022 0.700722
Si Si3 0.065263 0.607639 0.797580
Si Si4 0.934619 0.103439 0.565547
Si Si5 0.936610 0.796193 0.110637
Si Si6 0.066471 0.396155 0.524314
Si Si7 0.435994 0.785745 0.477734
O O1 0.250000 0.898934 0.387206
O O2 0.495538 0.850811 0.342400
O O3 0.480060 0.829149 0.430690
O O4 0.500000 0.000000 0.393822
O O5 0.250000 0.600935 0.699803
O O6 0.022417 0.647244 0.749241
O O7 0.014642 0.668833 0.658829
O O8 0.000000 0.500000 0.696500
O O9 0.250000 0.605556 0.801294
O O10 0.000000 0.500000 0.796607
O O11 0.750000 0.097811 0.566241
O O12 0.981711 0.187919 0.598812
O O13 0.980510 0.140970 0.516866
O O14 0.000000 0.000000 0.575067
O O15 0.750000 0.801793 0.107791
O O16 0.004444 0.862652 0.072226
O O17 0.250000 0.399089 0.525104
O O18 0.000000 0.500000 0.514007
O O19 0.008800 0.315310 0.490409
O O20 0.250000 0.776127 0.479179
#
# Coordination Sequence:
#
# PCOD9362439 Si02
#       7
#     8   8   8   8   8   8   8
#     4  10  18  28  44  65  91 120 147 179 218 259
#     4   9  17  28  43  62  86 116 146 178 216 258
#     4   9  16  26  40  60  86 114 145 178 215 261
#     4   9  17  29  44  61  85 113 141 177 214 251
#     4   9  18  32  46  63  88 117 149 182 218 257
#     4  11  21  32  47  66  89 116 145 179 217 258
#     4   9  19  33  46  63  87 116 148 179 213 254
#
# _framework density 15.152820999999999
#
# number of rings (size 3 to 8) (size 9 to 14) (size 15 to 20)
#    0.000    2.571    0.000    4.714    0.000    5.714 
#    0.000    0.000    0.000    0.000    0.000    1.000 
#    0.000    4.571    0.000    0.000    0.000    0.000 
#
# Total GULP energy -156015.427507 kJ/mol
# GULP energy per Si atom -5571.979554 kJ/mol
# Density = 1.511833 g / cm^3
# Si number density = 15.152821 Si / 1000 Ang^3
#
#
#
# Elastic Constant Matrix: (Units=GPa)
#
#
# Indices 1 2 3 4 5 6 
#
# 1 33.1284 26.2518 37.0661 0.0000 0.0000 0.0000
# 2 26.2518 94.5043 67.0269 0.0000 0.0000 0.0000
# 3 37.0661 67.0269 161.6101 0.0000 0.0000 0.0000
# 4 0.0000 0.0000 0.0000 20.5392 0.0000 0.0000
# 5 0.0000 0.0000 0.0000 0.0000 27.3867 0.0000
# 6 0.0000 0.0000 0.0000 0.0000 0.0000 19.8346
#
#
#
# Elastic Compliance Matrix: (Units=1/GPa)
#
#
# Indices 1 2 3 4 5 6 
#
# 1 0.043758 -0.007136 -0.007076 0.000000 0.000000 0.000000
# 2 -0.007136 0.016155 -0.005063 0.000000 0.000000 0.000000
# 3 -0.007076 -0.005063 0.009911 0.000000 0.000000 0.000000
# 4 0.000000 0.000000 0.000000 0.048687 0.000000 0.000000
# 5 0.000000 0.000000 0.000000 0.000000 0.036514 0.000000
# 6 0.000000 0.000000 0.000000 0.000000 0.000000 0.050417
#
#
# Mechanical properties :
#
#
# Convention : Reuss Voigt Hill
#
# Bulk Modulus (GPa) = 31.97795 61.10362 46.54078
# Shear Modulus (GPa) = 19.65261 24.14530 21.89896
#
# Velocity S-wave (km/s) = 3.60524 3.99614 3.80571
# Velocity P-wave (km/s) = 6.20321 7.85523 7.07758
#
# Compressibility (1/GPa) = 0.03127155
#
# Stress axis : x y z
#
# Youngs Moduli (GPa) = 22.85287 61.89965 100.90013
#
# Poissons Ratio (x) = 0.44174 0.71401
# Poissons Ratio (y) = 0.16309 0.51091
# Poissons Ratio (z) = 0.16172 0.31343
#
# Static dielectric constant tensor:
#      x y z
#    x 1.511890 0.000000 0.000000 
#    y 0.000000 1.479190 0.000000 
#    z 0.000000 0.000000 1.534110 
# 
# From -- ./inp_files/26420.got.cif
#   From: 2010.05.17/outbox.cif.g08.bks.cpg/sg40_14_cif.got.tgz:26420.got - 2010.06.03 18:35:42.
