data_PCOD9362176
_publ_section_title
;
Structure prediction by ZEFSAII (Michael W. Deem and Ramdas Pophale) SiO2 
 PCOD9362176
Probable space group: A B M 2
;
_chemical_formula_sum "Si O2"
_cell_formula_units_Z 32
_cell_length_a 15.000000
_cell_length_b 9.000000
_cell_length_c 30.000000
_cell_angle_alpha 90.000000
_cell_angle_beta 90.000000
_cell_angle_gamma 90.000000
_cell_volume 4050.000000
_symmetry_space_group_name_H-M "A B M 2"
_symmetry_group_IT_number 39
_symmetry_cell_setting 'orthorhombic'
loop_
_space_group_symop_operation_xyz
x,y,z
-x,-y,z
-x,1/2+y,z
x,1/2-y,z
x,1/2+y,1/2+z
-x,1/2-y,1/2+z
-x,y,1/2+z
x,-y,1/2+z
loop_
_atom_site_type_symbol
_atom_site_label
_atom_site_fract_x
_atom_site_fract_y
_atom_site_fract_z
Si Si1 0.786712 0.429027 0.046050
Si Si2 0.901850 0.426808 0.226586
Si Si3 0.093467 0.419288 0.310485
Si Si4 0.591280 0.071949 0.017452
Si Si5 0.589656 0.926627 0.412491
Si Si6 0.213744 0.420789 0.396776
Si Si7 0.096557 0.425603 0.969354
Si Si8 0.903186 0.072412 0.129044
O O1 0.790266 0.250000 0.039297
O O2 0.684127 0.474754 0.039810
O O3 0.829132 0.465858 0.093340
O O4 0.852033 0.506920 0.011342
O O5 0.905922 0.250000 0.230284
O O6 0.858788 0.497443 0.269808
O O7 0.867537 0.467063 0.178002
O O8 0.000000 0.500000 0.227488
O O9 0.072483 0.250000 0.297779
O O10 0.158703 0.417923 0.351787
O O11 0.000000 0.500000 0.321713
O O12 0.584016 0.250000 0.020775
O O13 0.500000 0.000000 0.034630
O O14 0.598868 0.033140 0.964916
O O15 0.578869 0.750000 0.409843
O O16 0.683883 0.966474 0.390791
O O17 0.500000 0.000000 0.394686
O O18 0.214574 0.250000 0.415516
O O19 0.160567 0.529040 0.428963
O O20 0.085576 0.250000 0.973039
O O21 0.000000 0.500000 0.963990
O O22 0.917506 0.250000 0.127768
O O23 0.000000 0.000000 0.121027
#
# Coordination Sequence:
#
# PCOD9362176 Si02
#       8
#     8   8   8   8   8   8   8   8
#     4  10  19  34  50  67  93 125 158 192 232 274
#     4   9  16  28  45  66  91 118 151 191 230 271
#     4  10  19  30  47  68  92 123 155 189 228 273
#     4   9  17  30  49  67  90 119 150 192 236 274
#     4   9  17  31  49  68  90 118 150 191 236 274
#     4  10  20  35  50  67  93 124 158 192 231 275
#     4  12  24  34  46  65  93 128 162 191 225 269
#     4   9  18  30  47  68  92 123 156 188 227 272
#
# _framework density 7.9012349999999998
#
# number of rings (size 3 to 8) (size 9 to 14) (size 15 to 20)
#    0.000    2.250    1.250    3.375    0.000    5.000 
#    0.000    0.000    0.000    0.000    0.000    0.875 
#    0.000    6.000    0.000    0.000    0.000    0.000 
#
# Total GULP energy -178212.796407 kJ/mol
# GULP energy per Si atom -5569.149888 kJ/mol
# Density = 0.788325 g / cm^3
# Si number density = 7.901235 Si / 1000 Ang^3
#
#
#
# Elastic Constant Matrix: (Units=GPa)
#
#
# Indices 1 2 3 4 5 6 
#
# 1 110.7612 33.0853 26.9740 0.0000 0.0000 0.0000
# 2 33.0853 42.9136 24.6238 0.0000 0.0000 0.0000
# 3 26.9740 24.6238 57.4934 0.0000 0.0000 0.0000
# 4 0.0000 0.0000 0.0000 18.8999 0.0000 0.0000
# 5 0.0000 0.0000 0.0000 0.0000 9.4275 0.0000
# 6 0.0000 0.0000 0.0000 0.0000 0.0000 20.8370
#
#
#
# Elastic Compliance Matrix: (Units=1/GPa)
#
#
# Indices 1 2 3 4 5 6 
#
# 1 0.011936 -0.007940 -0.002199 0.000000 0.000000 0.000000
# 2 -0.007940 0.036178 -0.011769 0.000000 0.000000 0.000000
# 3 -0.002199 -0.011769 0.023466 0.000000 0.000000 0.000000
# 4 0.000000 0.000000 0.000000 0.052910 0.000000 0.000000
# 5 0.000000 0.000000 0.000000 0.000000 0.106073 0.000000
# 6 0.000000 0.000000 0.000000 0.000000 0.000000 0.047992
#
#
# Mechanical properties :
#
#
# Convention : Reuss Voigt Hill
#
# Bulk Modulus (GPa) = 36.02067 42.28159 39.15113
# Shear Modulus (GPa) = 15.07727 18.26522 16.67124
#
# Velocity S-wave (km/s) = 3.09222 3.40346 3.25156
# Velocity P-wave (km/s) = 5.96598 6.50070 6.23907
#
# Compressibility (1/GPa) = 0.02776184
#
# Stress axis : x y z
#
# Youngs Moduli (GPa) = 83.78127 27.64144 42.61550
#
# Poissons Ratio (x) = 0.21948 0.09372
# Poissons Ratio (y) = 0.66525 0.50155
# Poissons Ratio (z) = 0.18424 0.32532
#
# Static dielectric constant tensor:
#      x y z
#    x 1.505870 0.000000 0.000000 
#    y 0.000000 1.530760 0.000000 
#    z 0.000000 0.000000 1.591410 
# 
# From -- ./inp_files/17962.got.cif
#   From: 2010.05.17/outbox.ucp.g08.bks.cvg/sg39_9_cif.got.tgz:17962.got - 2010.06.11 10:41:16.
