data_PCOD9362490
_publ_section_title
;
Structure prediction by ZEFSAII (Michael W. Deem and Ramdas Pophale) SiO2 
 PCOD9362490
Probable space group: A M A 2
;
_chemical_formula_sum "Si O2"
_cell_formula_units_Z 64
_cell_length_a 7.886076
_cell_length_b 21.084992
_cell_length_c 16.429834
_cell_angle_alpha 90.000000
_cell_angle_beta 90.000000
_cell_angle_gamma 90.000000
_cell_volume 2731.917463
_symmetry_space_group_name_H-M "A M A 2"
_symmetry_group_IT_number 40
_symmetry_cell_setting 'orthorhombic'
loop_
_space_group_symop_operation_xyz
x,y,z
-x,-y,z
1/2-x,y,z
1/2+x,-y,z
x,1/2+y,1/2+z
-x,1/2-y,1/2+z
1/2-x,1/2+y,1/2+z
1/2+x,1/2-y,1/2+z
loop_
_atom_site_type_symbol
_atom_site_label
_atom_site_fract_x
_atom_site_fract_y
_atom_site_fract_z
Si Si1 0.953733 0.925213 0.341690
Si Si2 0.551870 0.814224 0.612097
Si Si3 0.456358 0.209363 0.782597
Si Si4 0.440788 0.755648 0.446453
Si Si5 0.953476 0.925529 0.166203
Si Si6 0.545253 0.926925 0.519586
Si Si7 0.451766 0.067428 0.838563
Si Si8 0.059646 0.874260 0.994436
O O1 0.750000 0.919779 0.341195
O O2 0.015619 0.900026 0.254429
O O3 0.014434 0.902203 0.430167
O O4 0.000000 0.000000 0.341835
O O5 0.750000 0.822320 0.631329
O O6 0.483201 0.777516 0.690606
O O7 0.537085 0.781806 0.524621
O O8 0.478284 0.883616 0.592541
O O9 0.250000 0.214885 0.789494
O O10 0.520017 0.254443 0.855768
O O11 0.501716 0.134789 0.797291
O O12 0.250000 0.781185 0.446431
O O13 0.434533 0.680650 0.466427
O O14 0.750000 0.919649 0.162421
O O15 0.000000 0.000000 0.163402
O O16 0.030282 0.893733 0.086817
O O17 0.750000 0.922540 0.518993
O O18 0.500000 0.000000 0.527730
O O19 0.250000 0.068656 0.845002
O O20 0.533177 0.070487 0.928713
O O21 0.500000 0.000000 0.799077
O O22 0.250000 0.849589 0.985331
#
# Coordination Sequence:
#
# PCOD9362490 Si02
#       8
#     8   8   8   8   8   8   8   8
#     4   8  15  28  45  67 100 139 176 217 263 314
#     4  10  20  38  62  86 114 149 188 231 283 339
#     4   8  18  37  59  80 112 151 186 230 283 336
#     4  10  21  40  60  80 109 145 187 236 286 334
#     4  10  18  29  46  70 105 144 186 232 281 332
#     4   9  18  33  55  82 113 146 180 222 273 328
#     4  10  19  33  53  80 114 151 189 229 281 338
#     4  11  21  34  52  75 105 143 189 235 286 339
#
# _framework density 23.426770000000001
#
# number of rings (size 3 to 8) (size 9 to 14) (size 15 to 20)
#    0.000    2.500    0.000    3.375    0.000    1.500 
#    2.250    3.750    0.000    0.000    0.000    0.000 
#    0.000    0.000    0.000    0.000    0.000    0.000 
#
# Total GULP energy -178470.417478 kJ/mol
# GULP energy per Si atom -5577.200546 kJ/mol
# Density = 2.337345 g / cm^3
# Si number density = 23.426770 Si / 1000 Ang^3
#
#
#
# Elastic Constant Matrix: (Units=GPa)
#
#
# Indices 1 2 3 4 5 6 
#
# 1 58.8675 -3.2716 3.4716 0.0000 0.0000 0.0000
# 2 -3.2716 25.6671 9.2309 0.0000 0.0000 0.0000
# 3 3.4716 9.2309 160.5084 0.0000 0.0000 0.0000
# 4 0.0000 0.0000 0.0000 18.5917 0.0000 0.0000
# 5 0.0000 0.0000 0.0000 0.0000 10.9833 0.0000
# 6 0.0000 0.0000 0.0000 0.0000 0.0000 23.6690
#
#
#
# Elastic Compliance Matrix: (Units=1/GPa)
#
#
# Indices 1 2 3 4 5 6 
#
# 1 0.017149 0.002368 -0.000507 0.000000 0.000000 0.000000
# 2 0.002368 0.040110 -0.002358 0.000000 0.000000 0.000000
# 3 -0.000507 -0.002358 0.006377 0.000000 0.000000 0.000000
# 4 0.000000 0.000000 0.000000 0.053787 0.000000 0.000000
# 5 0.000000 0.000000 0.000000 0.000000 0.091047 0.000000
# 6 0.000000 0.000000 0.000000 0.000000 0.000000 0.042249
#
#
# Mechanical properties :
#
#
# Convention : Reuss Voigt Hill
#
# Bulk Modulus (GPa) = 15.96368 29.32275 22.64321
# Shear Modulus (GPa) = 18.34226 26.35626 22.34926
#
# Velocity S-wave (km/s) = 2.80118 3.35781 3.09205
# Velocity P-wave (km/s) = 4.15827 5.25140 4.73647
#
# Compressibility (1/GPa) = 0.06264221
#
# Stress axis : x y z
#
# Youngs Moduli (GPa) = 58.31303 24.93125 156.81895
#
# Poissons Ratio (x) = -0.05904 0.07952
# Poissons Ratio (y) = -0.13810 0.36977
# Poissons Ratio (z) = 0.02957 0.05879
#
# Static dielectric constant tensor:
#      x y z
#    x 1.862310 0.000000 0.000000 
#    y 0.000000 1.932450 0.000000 
#    z 0.000000 0.000000 1.960840 
# 
# From -- ./inp_files/15669.got.cif
#   From: 2010.05.17/outbox.cif.g08.bks.cpg/sg40_8_cif.got.tgz:15669.got - 2010.06.03 18:35:42.
