data_PCOD9362976
_publ_section_title
;
Structure prediction by ZEFSAII (Michael W. Deem and Ramdas Pophale) SiO2 
 PCOD9362976
Probable space group: A M A 2
;
_chemical_formula_sum "Si O2"
_cell_formula_units_Z 64
_cell_length_a 14.630686
_cell_length_b 8.511091
_cell_length_c 29.179591
_cell_angle_alpha 90.000000
_cell_angle_beta 90.000000
_cell_angle_gamma 90.000000
_cell_volume 3633.533126
_symmetry_space_group_name_H-M "A M A 2"
_symmetry_group_IT_number 40
_symmetry_cell_setting 'orthorhombic'
loop_
_space_group_symop_operation_xyz
x,y,z
-x,-y,z
1/2-x,y,z
1/2+x,-y,z
x,1/2+y,1/2+z
-x,1/2-y,1/2+z
1/2-x,1/2+y,1/2+z
1/2+x,1/2-y,1/2+z
loop_
_atom_site_type_symbol
_atom_site_label
_atom_site_fract_x
_atom_site_fract_y
_atom_site_fract_z
Si Si1 0.000000 0.188498 0.338440
Si Si2 0.645422 0.690100 0.017968
Si Si3 0.645105 0.689913 0.267254
Si Si4 0.000000 0.313656 0.588646
Si Si5 0.354895 0.189913 0.767254
Si Si6 0.000000 0.689490 0.191295
Si Si7 0.354578 0.690101 0.017968
Si Si8 0.500000 0.308743 0.943157
O O1 0.911861 0.247241 0.310393
O O2 1.000000 0.245653 0.390896
O O3 0.088140 0.247241 0.310393
O O4 0.000000 0.000000 0.338451
O O5 0.750000 0.744113 0.017710
O O6 0.588009 0.747814 0.061539
O O7 0.645170 0.500000 0.018781
O O8 0.588312 0.739599 0.972905
O O9 0.750000 0.742576 0.266479
O O10 0.643680 0.500000 0.269186
O O11 0.588045 0.735495 0.221859
O O12 0.088009 0.247815 0.561539
O O13 0.000000 0.500000 0.585392
O O14 0.000000 0.261247 0.641174
O O15 0.250000 0.242575 0.766479
O O16 0.411955 0.235495 0.721859
O O17 0.000000 0.500000 0.187165
O O18 0.250000 0.744114 0.017709
O O19 0.411688 0.739599 0.972905
O O20 0.500000 0.500000 0.942132
#
# Coordination Sequence:
#
# PCOD9362976 Si02
#       8
#     8   8   8   8   8   8   8   8
#     4  10  19  31  51  79 108 134 162 204 256 301
#     4   9  18  35  57  75  95 131 177 214 242 285
#     4   9  19  36  55  74  99 133 172 210 246 291
#     4  11  22  34  50  76 109 134 156 200 261 312
#     4   9  19  36  55  74  99 133 172 210 246 291
#     4   9  18  34  54  74  97 130 174 212 243 290
#     4   9  18  35  57  75  95 131 177 214 242 285
#     4   8  16  31  51  77 104 130 166 210 250 289
#
# _framework density 17.613710000000001
#
# number of rings (size 3 to 8) (size 9 to 14) (size 15 to 20)
#    0.000    2.750    0.000    3.000    0.000    5.000 
#    0.000   10.000    0.000    0.000    0.000    0.000 
#    0.000    0.000    0.000    0.000    0.000    0.000 
#
# Total GULP energy -178448.210976 kJ/mol
# GULP energy per Si atom -5576.506593 kJ/mol
# Density = 1.757362 g / cm^3
# Si number density = 17.613710 Si / 1000 Ang^3
#
#
#
# Elastic Constant Matrix: (Units=GPa)
#
#
# Indices 1 2 3 4 5 6 
#
# 1 204.0802 30.2379 106.6108 0.0000 0.0000 0.0000
# 2 30.2379 14.4747 26.1587 0.0000 0.0000 0.0000
# 3 106.6108 26.1587 188.5420 0.0000 0.0000 0.0000
# 4 0.0000 0.0000 0.0000 24.7032 0.0000 0.0000
# 5 0.0000 0.0000 0.0000 0.0000 5.3806 0.0000
# 6 0.0000 0.0000 0.0000 0.0000 0.0000 12.7947
#
#
#
# Elastic Compliance Matrix: (Units=1/GPa)
#
#
# Indices 1 2 3 4 5 6 
#
# 1 0.008210 -0.011694 -0.003020 0.000000 0.000000 0.000000
# 2 -0.011694 0.108860 -0.008491 0.000000 0.000000 0.000000
# 3 -0.003020 -0.008491 0.008190 0.000000 0.000000 0.000000
# 4 0.000000 0.000000 0.000000 0.040481 0.000000 0.000000
# 5 0.000000 0.000000 0.000000 0.000000 0.185852 0.000000
# 6 0.000000 0.000000 0.000000 0.000000 0.000000 0.078157
#
#
# Mechanical properties :
#
#
# Convention : Reuss Voigt Hill
#
# Bulk Modulus (GPa) = 12.68234 81.45683 47.06958
# Shear Modulus (GPa) = 9.95137 24.84834 17.39986
#
# Velocity S-wave (km/s) = 2.37951 3.76005 3.14643
# Velocity P-wave (km/s) = 3.84256 8.07449 6.32308
#
# Compressibility (1/GPa) = 0.07884981
#
# Stress axis : x y z
#
# Youngs Moduli (GPa) = 121.79769 9.18613 122.10463
#
# Poissons Ratio (x) = 0.10742 0.36877
# Poissons Ratio (y) = 1.42425 1.03683
# Poissons Ratio (z) = 0.36785 0.07800
#
# Static dielectric constant tensor:
#      x y z
#    x 1.594730 0.000000 0.000000 
#    y 0.000000 1.604240 0.000000 
#    z 0.000000 0.000000 1.574820 
# 
# From -- ./inp_files/26671.got.cif
#   From: 2010.05.17/outbox.cif.g08.bks.cpg/sg40_14_cif.got.tgz:26671.got - 2010.06.03 18:35:42.
