data_PCOD9362025
_publ_section_title
;
Structure prediction by ZEFSAII (Michael W. Deem and Ramdas Pophale) SiO2 
 PCOD9362025
Probable space group: A B M 2
;
_chemical_formula_sum "Si O2"
_cell_formula_units_Z 48
_cell_length_a 9.251237
_cell_length_b 27.536476
_cell_length_c 8.857939
_cell_angle_alpha 90.000000
_cell_angle_beta 90.000000
_cell_angle_gamma 90.000000
_cell_volume 2256.528653
_symmetry_space_group_name_H-M "A B M 2"
_symmetry_group_IT_number 39
_symmetry_cell_setting 'orthorhombic'
loop_
_space_group_symop_operation_xyz
x,y,z
-x,-y,z
-x,1/2+y,z
x,1/2-y,z
x,1/2+y,1/2+z
-x,1/2-y,1/2+z
-x,y,1/2+z
x,-y,1/2+z
loop_
_atom_site_type_symbol
_atom_site_label
_atom_site_fract_x
_atom_site_fract_y
_atom_site_fract_z
Si Si1 0.721328 0.694085 0.703680
Si Si2 0.643766 0.402411 0.548637
Si Si3 0.597716 0.546477 0.359022
Si Si4 0.102754 0.046596 0.502793
Si Si5 0.534688 0.305518 0.503736
Si Si6 0.103824 0.602284 0.311921
O O1 0.773726 0.750000 0.705046
O O2 0.632813 0.684937 0.548323
O O3 0.595268 0.690323 0.832744
O O4 0.843708 0.654647 0.746443
O O5 0.501058 0.416274 0.453208
O O6 0.646985 0.432623 0.699836
O O7 0.629332 0.345756 0.588093
O O8 0.777909 0.410039 0.439152
O O9 0.500000 0.500000 0.330774
O O10 0.736914 0.532947 0.454681
O O11 0.105962 0.065448 0.672992
O O12 0.045780 0.091199 0.397900
O O13 0.000000 0.000000 0.485696
O O14 0.561590 0.250000 0.550857
#
# Coordination Sequence:
#
# PCOD9362025 Si02
#       6
#     8   8   8   8   8   8
#     4   9  18  35  60  91 125 160 201 251 306 364
#     4  11  22  39  63  92 124 156 199 251 303 361
#     4  12  25  41  63  91 121 156 201 254 307 360
#     4  12  26  44  63  85 118 162 208 252 306 369
#     4   9  17  31  56  89 122 154 191 240 295 348
#     4  11  24  42  63  88 122 164 205 250 306 368
#
# _framework density 21.271612999999999
#
# number of rings (size 3 to 8) (size 9 to 14) (size 15 to 20)
#    0.000    1.333    0.000    7.000    0.000    4.000 
#    0.000    2.500    0.000    4.000    0.000    0.000 
#    0.000    0.000    0.000    0.000    0.000    0.000 
#
# Total GULP energy -134096.507148 kJ/mol
# GULP energy per Si atom -5587.354464 kJ/mol
# Density = 2.122320 g / cm^3
# Si number density = 21.271613 Si / 1000 Ang^3
#
#
#
# Elastic Constant Matrix: (Units=GPa)
#
#
# Indices 1 2 3 4 5 6 
#
# 1 36.2666 -2.5234 -13.1787 0.0000 0.0000 0.0000
# 2 -2.5234 78.1524 4.1730 0.0000 0.0000 0.0000
# 3 -13.1787 4.1730 63.5267 0.0000 0.0000 0.0000
# 4 0.0000 0.0000 0.0000 56.2578 0.0000 0.0000
# 5 0.0000 0.0000 0.0000 0.0000 35.5400 0.0000
# 6 0.0000 0.0000 0.0000 0.0000 0.0000 13.7811
#
#
#
# Elastic Compliance Matrix: (Units=1/GPa)
#
#
# Indices 1 2 3 4 5 6 
#
# 1 0.029853 0.000635 0.006151 0.000000 0.000000 0.000000
# 2 0.000635 0.012854 -0.000713 0.000000 0.000000 0.000000
# 3 0.006151 -0.000713 0.017064 0.000000 0.000000 0.000000
# 4 0.000000 0.000000 0.000000 0.017775 0.000000 0.000000
# 5 0.000000 0.000000 0.000000 0.000000 0.028137 0.000000
# 6 0.000000 0.000000 0.000000 0.000000 0.000000 0.072563
#
#
# Mechanical properties :
#
#
# Convention : Reuss Voigt Hill
#
# Bulk Modulus (GPa) = 13.90435 17.20971 15.55703
# Shear Modulus (GPa) = 26.30583 33.74743 30.02663
#
# Velocity S-wave (km/s) = 3.52044 3.98741 3.76118
# Velocity P-wave (km/s) = 4.80369 5.41362 5.11775
#
# Compressibility (1/GPa) = 0.07191996
#
# Stress axis : x y z
#
# Youngs Moduli (GPa) = 33.49737 77.79628 58.60183
#
# Poissons Ratio (x) = -0.04944 -0.36048
# Poissons Ratio (y) = -0.02129 0.04176
# Poissons Ratio (z) = -0.20605 0.05543
#
# Static dielectric constant tensor:
#      x y z
#    x 1.752630 0.000000 0.000000 
#    y 0.000000 1.804680 0.000000 
#    z 0.000000 0.000000 1.764240 
# 
# From -- ./inp_files/2328.got.cif
#   From: 2010.05.17/outbox.cif.g08.bks.cpg/sg39_2_cif.got.tgz:2328.got - 2010.06.03 18:22:40.
