data_PCOD9362904
_publ_section_title
;
Structure prediction by ZEFSAII (Michael W. Deem and Ramdas Pophale) SiO2 
 PCOD9362904
Probable space group: A M A 2
;
_chemical_formula_sum "Si O2"
_cell_formula_units_Z 64
_cell_length_a 8.997189
_cell_length_b 29.034605
_cell_length_c 14.602815
_cell_angle_alpha 90.000000
_cell_angle_beta 90.000000
_cell_angle_gamma 90.000000
_cell_volume 3814.690861
_symmetry_space_group_name_H-M "A M A 2"
_symmetry_group_IT_number 40
_symmetry_cell_setting 'orthorhombic'
loop_
_space_group_symop_operation_xyz
x,y,z
-x,-y,z
1/2-x,y,z
1/2+x,-y,z
x,1/2+y,1/2+z
-x,1/2-y,1/2+z
1/2-x,1/2+y,1/2+z
1/2+x,1/2-y,1/2+z
loop_
_atom_site_type_symbol
_atom_site_label
_atom_site_fract_x
_atom_site_fract_y
_atom_site_fract_z
Si Si1 0.571911 0.681524 0.339890
Si Si2 0.572215 0.950722 0.128912
Si Si3 0.071484 0.549035 0.841427
Si Si4 0.075757 0.275654 0.628311
Si Si5 0.071820 0.137976 0.457066
Si Si6 0.928099 0.631715 0.519033
Si Si7 0.424256 0.779082 0.346539
Si Si8 0.926975 0.678529 0.128117
O O1 0.750000 0.689432 0.343964
O O2 0.536060 0.642138 0.413142
O O3 0.491863 0.728964 0.367061
O O4 0.533363 0.670452 0.234754
O O5 0.750000 0.953691 0.122683
O O6 0.532541 0.940154 0.235352
O O7 0.510688 0.910984 0.063881
O O8 0.500000 0.000000 0.106838
O O9 0.250000 0.544850 0.845827
O O10 0.025617 0.590693 0.907259
O O11 0.000000 0.500000 0.865040
O O12 0.250000 0.265588 0.609313
O O13 0.033820 0.321247 0.573178
O O14 0.060772 0.285059 0.736758
O O15 0.981127 0.230455 0.605740
O O16 0.250000 0.139817 0.459361
O O17 0.010145 0.180758 0.398389
O O18 0.006190 0.144325 0.558190
O O19 0.750000 0.625079 0.527720
O O20 0.250000 0.780627 0.369997
O O21 0.750000 0.675553 0.118383
#
# Coordination Sequence:
#
# PCOD9362904 Si02
#       8
#     8   8   8   8   8   8   8   8
#     4   9  19  34  50  70 101 137 169 206 250 290
#     4  10  20  35  54  77 103 128 156 194 242 295
#     4   9  20  36  54  76 101 128 157 194 244 299
#     4   9  18  31  48  73 105 136 164 200 247 296
#     4  11  21  33  50  72  99 132 168 206 251 296
#     4  10  19  32  51  73  98 131 167 201 243 293
#     4  10  19  30  47  74 104 134 169 204 241 292
#     4  10  20  33  49  71  99 134 174 211 246 287
#
# _framework density 16.777245000000001
#
# number of rings (size 3 to 8) (size 9 to 14) (size 15 to 20)
#    0.000    2.250    0.000    3.000    0.000    4.500 
#    0.000    0.000    0.000    0.750    0.000    1.750 
#    0.000    0.000    0.000    0.000    0.000    0.000 
#
# Total GULP energy -178643.027622 kJ/mol
# GULP energy per Si atom -5582.594613 kJ/mol
# Density = 1.673906 g / cm^3
# Si number density = 16.777245 Si / 1000 Ang^3
#
#
#
# Elastic Constant Matrix: (Units=GPa)
#
#
# Indices 1 2 3 4 5 6 
#
# 1 50.8770 56.5837 51.5910 0.0000 0.0000 0.0000
# 2 56.5837 125.5337 94.2502 0.0000 0.0000 0.0000
# 3 51.5910 94.2502 101.0596 0.0000 0.0000 0.0000
# 4 0.0000 0.0000 0.0000 31.2621 0.0000 0.0000
# 5 0.0000 0.0000 0.0000 0.0000 21.2668 0.0000
# 6 0.0000 0.0000 0.0000 0.0000 0.0000 30.6150
#
#
#
# Elastic Compliance Matrix: (Units=1/GPa)
#
#
# Indices 1 2 3 4 5 6 
#
# 1 0.044181 -0.009942 -0.013282 0.000000 0.000000 0.000000
# 2 -0.009942 0.028809 -0.021792 0.000000 0.000000 0.000000
# 3 -0.013282 -0.021792 0.037000 0.000000 0.000000 0.000000
# 4 0.000000 0.000000 0.000000 0.031988 0.000000 0.000000
# 5 0.000000 0.000000 0.000000 0.000000 0.047022 0.000000
# 6 0.000000 0.000000 0.000000 0.000000 0.000000 0.032664
#
#
# Mechanical properties :
#
#
# Convention : Reuss Voigt Hill
#
# Bulk Modulus (GPa) = 50.10935 75.81335 62.96135
# Shear Modulus (GPa) = 15.70606 21.63182 18.66894
#
# Velocity S-wave (km/s) = 3.06298 3.59465 3.33942
# Velocity P-wave (km/s) = 6.51471 7.90664 7.24419
#
# Compressibility (1/GPa) = 0.01995636
#
# Stress axis : x y z
#
# Youngs Moduli (GPa) = 22.63403 34.71146 27.02727
#
# Poissons Ratio (x) = 0.34511 0.35898
# Poissons Ratio (y) = 0.22503 0.58899
# Poissons Ratio (z) = 0.30063 0.75644
#
# Static dielectric constant tensor:
#      x y z
#    x 1.560840 0.000000 0.000000 
#    y 0.000000 1.524290 0.000000 
#    z 0.000000 0.000000 1.588660 
# 
# From -- ./inp_files/15565.got.cif
#   From: 2010.05.17/outbox.cif.g08.bks.cpg/sg40_8_cif.got.tgz:15565.got - 2010.06.03 18:35:42.
