data_PCOD9362269
_publ_section_title
;
Structure prediction by ZEFSAII (Michael W. Deem and Ramdas Pophale) SiO2 
 PCOD9362269
Probable space group: A M A 2
;
_chemical_formula_sum "Si O2"
_cell_formula_units_Z 64
_cell_length_a 22.368778
_cell_length_b 15.377716
_cell_length_c 8.526931
_cell_angle_alpha 90.000000
_cell_angle_beta 90.000000
_cell_angle_gamma 90.000000
_cell_volume 2933.099825
_symmetry_space_group_name_H-M "A M A 2"
_symmetry_group_IT_number 40
_symmetry_cell_setting 'orthorhombic'
loop_
_space_group_symop_operation_xyz
x,y,z
-x,-y,z
1/2-x,y,z
1/2+x,-y,z
x,1/2+y,1/2+z
-x,1/2-y,1/2+z
1/2-x,1/2+y,1/2+z
1/2+x,1/2-y,1/2+z
loop_
_atom_site_type_symbol
_atom_site_label
_atom_site_fract_x
_atom_site_fract_y
_atom_site_fract_z
Si Si1 0.361933 0.546293 0.286930
Si Si2 0.122895 0.159849 0.489530
Si Si3 0.815419 0.790193 0.192688
Si Si4 0.075138 0.696913 0.482126
Si Si5 0.930861 0.002479 0.296555
Si Si6 0.186206 0.006122 0.104629
Si Si7 0.949162 0.074146 0.623913
Si Si8 0.479890 0.748920 0.178356
O O1 0.404169 0.611454 0.388430
O O2 0.315845 0.514510 0.416774
O O3 0.395587 0.461135 0.227852
O O4 0.346908 0.604052 0.131706
O O5 0.165059 0.213868 0.373638
O O6 0.087787 0.088992 0.382009
O O7 0.075289 0.224216 0.567655
O O8 0.750000 0.751648 0.163013
O O9 0.811430 0.894050 0.163238
O O10 0.867992 0.763634 0.073420
O O11 0.045313 0.757476 0.351301
O O12 0.022745 0.678548 0.606518
O O13 0.877473 0.025825 0.175149
O O14 0.929880 0.068119 0.443528
O O15 0.000000 0.000000 0.241367
O O16 0.250000 0.964343 0.153464
O O17 0.977384 0.163980 0.676703
O O18 0.000000 0.000000 0.639593
#
# Coordination Sequence:
#
# PCOD9362269 Si02
#       8
#     8   8   8   8   8   8   8   8
#     4   9  18  32  49  76 108 143 184 226 277 339
#     4   9  16  29  50  74 103 134 180 229 275 329
#     4   9  18  33  50  72 105 144 185 226 275 338
#     4  10  20  32  51  78 110 139 174 229 282 331
#     4   9  15  29  48  75 100 137 181 227 271 333
#     4   9  18  30  46  74 110 140 180 235 284 329
#     4  10  16  33  54  75 108 146 180 220 275 340
#     4  11  19  33  53  81 117 139 174 231 286 342
#
# _framework density 21.819918999999999
#
# number of rings (size 3 to 8) (size 9 to 14) (size 15 to 20)
#    0.000    2.500    5.000    0.750    0.000    1.000 
#    2.250    3.750    0.000    1.500    0.000    0.000 
#    0.000    0.000    0.000    0.000    0.000    0.000 
#
# Total GULP energy -178382.242555 kJ/mol
# GULP energy per Si atom -5574.445080 kJ/mol
# Density = 2.177026 g / cm^3
# Si number density = 21.819919 Si / 1000 Ang^3
#
#
#
# Elastic Constant Matrix: (Units=GPa)
#
#
# Indices 1 2 3 4 5 6 
#
# 1 155.2482 1.4579 85.8368 0.0000 0.0000 0.0000
# 2 1.4579 28.7527 18.1368 0.0000 0.0000 0.0000
# 3 85.8368 18.1368 134.2446 0.0000 0.0000 0.0000
# 4 0.0000 0.0000 0.0000 17.0164 0.0000 0.0000
# 5 0.0000 0.0000 0.0000 0.0000 -31.7377 0.0000
# 6 0.0000 0.0000 0.0000 0.0000 0.0000 -6.2771
#
#
#
# Elastic Compliance Matrix: (Units=1/GPa)
#
#
# Indices 1 2 3 4 5 6 
#
# 1 0.010367 0.003996 -0.007169 0.000000 0.000000 0.000000
# 2 0.003996 0.039560 -0.007900 0.000000 0.000000 0.000000
# 3 -0.007169 -0.007900 0.013100 0.000000 0.000000 0.000000
# 4 0.000000 0.000000 0.000000 0.058767 0.000000 0.000000
# 5 0.000000 0.000000 0.000000 0.000000 -0.031508 0.000000
# 6 0.000000 0.000000 0.000000 0.000000 0.000000 -0.159310
#
#
# Mechanical properties :
#
#
# Convention : Reuss Voigt Hill
#
# Bulk Modulus (GPa) = 24.46024 58.78981 41.62502
# Shear Modulus (GPa) = -150.36844 9.98794 -70.19025
#
# Velocity S-wave (km/s) = -8.31041 2.14182 -5.67783
# Velocity P-wave (km/s) = 8.99164 5.75484 4.88525
#
# Compressibility (1/GPa) = 0.04088268
#
# Stress axis : x y z
#
# Youngs Moduli (GPa) = 96.45537 25.27808 76.33435
#
# Poissons Ratio (x) = -0.10102 0.54724
# Poissons Ratio (y) = -0.38548 0.60304
# Poissons Ratio (z) = 0.69148 0.19970
#
# Static dielectric constant tensor:
#      x y z
#    x 1.864920 0.000000 0.000000 
#    y 0.000000 1.840070 0.000000 
#    z 0.000000 0.000000 1.844500 
# 
# From -- ./inp_files/8972.got.cif
#   From: 2010.05.17/outbox.cif.g08.bks.cpg/sg40_5_cif.got.tgz:8972.got - 2010.06.03 18:35:42.
