data_PCOD9362552
_publ_section_title
;
Structure prediction by ZEFSAII (Michael W. Deem and Ramdas Pophale) SiO2 
 PCOD9362552
Probable space group: A M A 2
;
_chemical_formula_sum "Si O2"
_cell_formula_units_Z 48
_cell_length_a 16.250624
_cell_length_b 9.489330
_cell_length_c 16.468917
_cell_angle_alpha 90.000000
_cell_angle_beta 90.000000
_cell_angle_gamma 90.000000
_cell_volume 2539.631076
_symmetry_space_group_name_H-M "A M A 2"
_symmetry_group_IT_number 40
_symmetry_cell_setting 'orthorhombic'
loop_
_space_group_symop_operation_xyz
x,y,z
-x,-y,z
1/2-x,y,z
1/2+x,-y,z
x,1/2+y,1/2+z
-x,1/2-y,1/2+z
1/2-x,1/2+y,1/2+z
1/2+x,1/2-y,1/2+z
loop_
_atom_site_type_symbol
_atom_site_label
_atom_site_fract_x
_atom_site_fract_y
_atom_site_fract_z
Si Si1 0.098679 0.005890 0.188780
Si Si2 0.407307 0.689728 0.215798
Si Si3 0.844809 0.052618 0.615377
Si Si4 0.152671 0.018680 0.870445
Si Si5 0.151312 0.176073 0.030410
Si Si6 0.902420 0.719667 0.267992
O O1 0.132223 0.077814 0.107444
O O2 0.116861 0.114848 0.262207
O O3 0.126341 0.846315 0.201467
O O4 0.000000 0.000000 0.180644
O O5 0.393766 0.588295 0.138384
O O6 0.363693 0.616861 0.292379
O O7 0.503644 0.698216 0.238563
O O8 0.750000 0.016519 0.597273
O O9 0.878736 0.164689 0.549734
O O10 0.847827 0.143906 0.698805
O O11 0.250000 0.996099 0.880016
O O12 0.111867 0.868274 0.849461
O O13 0.120119 0.099961 0.949502
O O14 0.250000 0.189154 0.023582
#
# Coordination Sequence:
#
# PCOD9362552 Si02
#       6
#     8   8   8   8   8   8
#     4   9  19  33  50  73  98 124 162 208 247 286
#     4  10  18  30  51  74  95 124 163 204 245 291
#     4   9  16  29  48  70  94 125 159 196 239 289
#     4  10  19  32  49  72  98 130 165 198 240 295
#     4   9  19  33  49  69  98 129 161 199 244 293
#     4   9  17  31  50  70  96 128 164 201 239 288
#
# _framework density 18.900382
#
# number of rings (size 3 to 8) (size 9 to 14) (size 15 to 20)
#    0.000    2.667    0.000    4.000    0.000    3.333 
#    0.000    1.667    0.000   14.000    0.000    0.000 
#    0.000    0.000    0.000    0.000    0.000    0.000 
#
# Total GULP energy -133676.477022 kJ/mol
# GULP energy per Si atom -5569.853209 kJ/mol
# Density = 1.885736 g / cm^3
# Si number density = 18.900382 Si / 1000 Ang^3
#
#
#
# Elastic Constant Matrix: (Units=GPa)
#
#
# Indices 1 2 3 4 5 6 
#
# 1 32.0975 22.6808 5.1326 0.0000 0.0000 0.0000
# 2 22.6808 184.9490 65.9891 0.0000 0.0000 0.0000
# 3 5.1326 65.9891 80.9795 0.0000 0.0000 0.0000
# 4 0.0000 0.0000 0.0000 29.9782 0.0000 0.0000
# 5 0.0000 0.0000 0.0000 0.0000 3.7182 0.0000
# 6 0.0000 0.0000 0.0000 0.0000 0.0000 7.8052
#
#
#
# Elastic Compliance Matrix: (Units=1/GPa)
#
#
# Indices 1 2 3 4 5 6 
#
# 1 0.034289 -0.004835 0.001767 0.000000 0.000000 0.000000
# 2 -0.004835 0.008305 -0.006461 0.000000 0.000000 0.000000
# 3 0.001767 -0.006461 0.017502 0.000000 0.000000 0.000000
# 4 0.000000 0.000000 0.000000 0.033358 0.000000 0.000000
# 5 0.000000 0.000000 0.000000 0.000000 0.268945 0.000000
# 6 0.000000 0.000000 0.000000 0.000000 0.000000 0.128119
#
#
# Mechanical properties :
#
#
# Convention : Reuss Voigt Hill
#
# Bulk Modulus (GPa) = 24.36818 53.95901 39.16359
# Shear Modulus (GPa) = 9.55553 21.91523 15.73538
#
# Velocity S-wave (km/s) = 2.25094 3.40886 2.88851
# Velocity P-wave (km/s) = 4.43583 6.64115 5.64719
#
# Compressibility (1/GPa) = 0.04103712
#
# Stress axis : x y z
#
# Youngs Moduli (GPa) = 29.16354 120.40547 57.13607
#
# Poissons Ratio (x) = 0.58222 -0.10096
# Poissons Ratio (y) = 0.14102 0.36918
# Poissons Ratio (z) = -0.05153 0.77798
#
# Static dielectric constant tensor:
#      x y z
#    x 1.684140 0.000000 0.000000 
#    y 0.000000 1.710630 0.000000 
#    z 0.000000 0.000000 1.662760 
# 
# From -- ./inp_files/21004.got.cif
#   From: 2010.05.17/outbox.cif.g08.bks.cpg/sg40_11_cif.got.tgz:21004.got - 2010.06.03 18:35:42.
