data_PCOD9362093
_publ_section_title
;
Structure prediction by ZEFSAII (Michael W. Deem and Ramdas Pophale) SiO2 
 PCOD9362093
Probable space group: A B M 2
;
_chemical_formula_sum "Si O2"
_cell_formula_units_Z 40
_cell_length_a 4.817963
_cell_length_b 31.119147
_cell_length_c 9.817017
_cell_angle_alpha 90.000000
_cell_angle_beta 90.000000
_cell_angle_gamma 90.000000
_cell_volume 1471.874183
_symmetry_space_group_name_H-M "A B M 2"
_symmetry_group_IT_number 39
_symmetry_cell_setting 'orthorhombic'
loop_
_space_group_symop_operation_xyz
x,y,z
-x,-y,z
-x,1/2+y,z
x,1/2-y,z
x,1/2+y,1/2+z
-x,1/2-y,1/2+z
-x,y,1/2+z
x,-y,1/2+z
loop_
_atom_site_type_symbol
_atom_site_label
_atom_site_fract_x
_atom_site_fract_y
_atom_site_fract_z
Si Si1 0.059691 0.250000 0.283610
Si Si2 0.750000 0.972072 0.866822
Si Si3 0.750002 0.326776 0.366822
Si Si4 0.440315 0.250000 0.450034
Si Si5 0.548338 0.898586 0.200135
Si Si6 0.951661 0.898586 0.533510
O O1 0.110010 0.250000 0.456350
O O2 0.913702 0.294744 0.264202
O O3 0.389996 0.250000 0.277295
O O4 0.572537 0.941405 0.768171
O O5 0.500000 0.000000 0.933352
O O6 0.927464 0.941405 0.965474
O O7 0.000000 0.000000 0.800291
O O8 0.586304 0.294744 0.469443
O O9 0.546282 0.357283 0.283683
O O10 0.953719 0.357283 0.449962
O O11 0.874936 0.897620 0.174706
O O12 0.374936 0.897620 0.058939
#
# Coordination Sequence:
#
# PCOD9362093 Si02
#       6
#     4   8   8   4   8   8
#     4   8  18  34  60  82 114 160 192 232 286 340
#     4  11  24  43  62  85 120 153 190 243 292 343
#     4   8  22  39  60  82 126 152 194 241 288 332
#     4   8  18  34  60  82 114 160 192 232 286 340
#     4  11  24  38  62  90 116 154 195 238 291 348
#     4  11  24  38  62  90 116 154 195 238 291 348
#
# _framework density 27.176233
#
# number of rings (size 3 to 8) (size 9 to 14) (size 15 to 20)
#    1.200    0.800    0.000    2.400    5.600    8.000 
#    0.000    8.000    0.000    0.000    0.000    0.000 
#    0.000    0.000    0.000    0.000    0.000    0.000 
#
# Total GULP energy -111709.270203 kJ/mol
# GULP energy per Si atom -5585.463510 kJ/mol
# Density = 2.711438 g / cm^3
# Si number density = 27.176233 Si / 1000 Ang^3
#
#
#
# Elastic Constant Matrix: (Units=GPa)
#
#
# Indices 1 2 3 4 5 6 
#
# 1 118.4662 31.3285 11.6647 0.0000 0.0000 0.0000
# 2 31.3285 149.6887 29.5702 0.0000 0.0000 0.0000
# 3 11.6647 29.5702 50.2380 0.0000 0.0000 0.0000
# 4 0.0000 0.0000 0.0000 13.9234 0.0000 0.0000
# 5 0.0000 0.0000 0.0000 0.0000 51.4817 0.0000
# 6 0.0000 0.0000 0.0000 0.0000 0.0000 3.8191
#
#
#
# Elastic Compliance Matrix: (Units=1/GPa)
#
#
# Indices 1 2 3 4 5 6 
#
# 1 0.008990 -0.001662 -0.001109 0.000000 0.000000 0.000000
# 2 -0.001662 0.007867 -0.004245 0.000000 0.000000 0.000000
# 3 -0.001109 -0.004245 0.022661 0.000000 0.000000 0.000000
# 4 0.000000 0.000000 0.000000 0.071822 0.000000 0.000000
# 5 0.000000 0.000000 0.000000 0.000000 0.019424 0.000000
# 6 0.000000 0.000000 0.000000 0.000000 0.000000 0.261843
#
#
# Mechanical properties :
#
#
# Convention : Reuss Voigt Hill
#
# Bulk Modulus (GPa) = 39.23665 51.50219 45.36942
# Shear Modulus (GPa) = 12.04430 30.23346 21.13888
#
# Velocity S-wave (km/s) = 2.10750 3.33903 2.79201
# Velocity P-wave (km/s) = 4.51567 5.81875 5.20812
#
# Compressibility (1/GPa) = 0.02548637
#
# Stress axis : x y z
#
# Youngs Moduli (GPa) = 111.23406 127.11395 44.12866
#
# Poissons Ratio (x) = 0.21133 0.04893
# Poissons Ratio (y) = 0.18493 0.18730
# Poissons Ratio (z) = 0.12334 0.53954
#
# Static dielectric constant tensor:
#      x y z
#    x 2.025610 0.000000 0.000000 
#    y 0.000000 2.072360 0.000000 
#    z 0.000000 0.000000 2.339710 
# 
# From -- ./inp_files/4563.got.cif
#   From: 2010.05.17/outbox.cif.g08.bks.cpg/sg39_3_cif.got.tgz:4563.got - 2010.06.03 18:22:40.
