data_PCOD9362126
_publ_section_title
;
Structure prediction by ZEFSAII (Michael W. Deem and Ramdas Pophale) SiO2 
 PCOD9362126
Probable space group: A B M 2
;
_chemical_formula_sum "Si O2"
_cell_formula_units_Z 44
_cell_length_a 5.065467
_cell_length_b 15.172629
_cell_length_c 25.090581
_cell_angle_alpha 90.000000
_cell_angle_beta 90.000000
_cell_angle_gamma 90.000000
_cell_volume 1928.373022
_symmetry_space_group_name_H-M "A B M 2"
_symmetry_group_IT_number 39
_symmetry_cell_setting 'orthorhombic'
loop_
_space_group_symop_operation_xyz
x,y,z
-x,-y,z
-x,1/2+y,z
x,1/2-y,z
x,1/2+y,1/2+z
-x,1/2-y,1/2+z
-x,y,1/2+z
x,-y,1/2+z
loop_
_atom_site_type_symbol
_atom_site_label
_atom_site_fract_x
_atom_site_fract_y
_atom_site_fract_z
Si Si1 0.572242 0.896603 0.814830
Si Si2 0.354893 0.094166 0.695160
Si Si3 0.251047 0.063330 0.024064
Si Si4 0.845662 0.152386 0.635113
Si Si5 0.059296 0.105159 0.914055
Si Si6 0.741176 0.250000 0.864630
O O1 0.702692 0.887025 0.757043
O O2 0.761378 0.868813 0.863457
O O3 0.333240 0.828700 0.821089
O O4 0.500000 0.000000 0.821590
O O5 0.589173 0.153854 0.672532
O O6 0.088538 0.099027 0.661063
O O7 0.500000 0.000000 0.692268
O O8 0.254476 0.116641 0.078561
O O9 0.500000 0.000000 0.018267
O O10 0.207806 0.117692 0.969881
O O11 0.000000 0.000000 0.028145
O O12 0.954046 0.250000 0.627868
O O13 0.815868 0.171038 0.908150
O O14 0.000000 0.000000 0.909552
#
# Coordination Sequence:
#
# PCOD9362126 Si02
#       6
#     8   8   8   8   8   4
#     4  11  25  45  71 107 147 196 250 311 385 468
#     4  11  26  45  74 100 147 194 248 303 380 462
#     4  11  25  47  76 100 144 194 243 304 374 453
#     4  12  26  45  70 108 141 188 248 319 371 459
#     4  11  25  46  73 107 147 195 250 313 381 464
#     4  12  26  44  76 102 150 200 246 314 384 466
#
# _framework density 22.817160000000001
#
# number of rings (size 3 to 8) (size 9 to 14) (size 15 to 20)
#    0.000    0.727    1.818    4.909    8.909    0.000 
#    0.000    0.000    0.000    0.000    0.000    0.000 
#    0.000    0.000    0.000    0.000    0.000    0.000 
#
# Total GULP energy -122498.127102 kJ/mol
# GULP energy per Si atom -5568.096686 kJ/mol
# Density = 2.276523 g / cm^3
# Si number density = 22.817160 Si / 1000 Ang^3
#
#
#
# Elastic Constant Matrix: (Units=GPa)
#
#
# Indices 1 2 3 4 5 6 
#
# 1 60.5334 5.1800 4.8871 0.0000 0.0000 0.0000
# 2 5.1800 131.3193 23.7529 0.0000 0.0000 0.0000
# 3 4.8871 23.7529 143.7513 0.0000 0.0000 0.0000
# 4 0.0000 0.0000 0.0000 -43.7330 0.0000 0.0000
# 5 0.0000 0.0000 0.0000 0.0000 30.5965 0.0000
# 6 0.0000 0.0000 0.0000 0.0000 0.0000 5.0920
#
#
#
# Elastic Compliance Matrix: (Units=1/GPa)
#
#
# Indices 1 2 3 4 5 6 
#
# 1 0.016607 -0.000570 -0.000470 0.000000 0.000000 0.000000
# 2 -0.000570 0.007869 -0.001281 0.000000 0.000000 0.000000
# 3 -0.000470 -0.001281 0.007184 0.000000 0.000000 0.000000
# 4 0.000000 0.000000 0.000000 -0.022866 0.000000 0.000000
# 5 0.000000 0.000000 0.000000 0.000000 0.032683 0.000000
# 6 0.000000 0.000000 0.000000 0.000000 0.000000 0.196387
#
#
# Mechanical properties :
#
#
# Convention : Reuss Voigt Hill
#
# Bulk Modulus (GPa) = 37.01328 44.80489 40.90908
# Shear Modulus (GPa) = 19.87969 18.51001 19.19485
#
# Velocity S-wave (km/s) = 2.95491 2.85130 2.90357
# Velocity P-wave (km/s) = 5.28194 5.52440 5.40453
#
# Compressibility (1/GPa) = 0.02701733
#
# Stress axis : x y z
#
# Youngs Moduli (GPa) = 60.21713 127.07774 139.19622
#
# Poissons Ratio (x) = 0.07243 0.06548
# Poissons Ratio (y) = 0.03432 0.17830
# Poissons Ratio (z) = 0.02833 0.16277
#
# Static dielectric constant tensor:
#      x y z
#    x 1.930830 0.000000 0.000000 
#    y 0.000000 1.911380 0.000000 
#    z 0.000000 0.000000 1.853020 
# 
# From -- ./inp_files/16464.got.cif
#   From: 2010.05.17/outbox.cif.g08.bks.cpg/sg39_9_cif.got.tgz:16464.got - 2010.06.03 18:22:40.
