data_PCOD9362183
_publ_section_title
;
Structure prediction by ZEFSAII (Michael W. Deem and Ramdas Pophale) SiO2 
 PCOD9362183
Probable space group: A B M 2
;
_chemical_formula_sum "Si O2"
_cell_formula_units_Z 28
_cell_length_a 15.000000
_cell_length_b 9.000000
_cell_length_c 21.000000
_cell_angle_alpha 90.000000
_cell_angle_beta 90.000000
_cell_angle_gamma 90.000000
_cell_volume 2835.000000
_symmetry_space_group_name_H-M "A B M 2"
_symmetry_group_IT_number 39
_symmetry_cell_setting 'orthorhombic'
loop_
_space_group_symop_operation_xyz
x,y,z
-x,-y,z
-x,1/2+y,z
x,1/2-y,z
x,1/2+y,1/2+z
-x,1/2-y,1/2+z
-x,y,1/2+z
x,-y,1/2+z
loop_
_atom_site_type_symbol
_atom_site_label
_atom_site_fract_x
_atom_site_fract_y
_atom_site_fract_z
Si Si1 0.659777 0.080184 0.869710
Si Si2 0.274922 0.930069 0.735329
Si Si3 0.723729 0.429519 0.596493
Si Si4 0.868447 0.577449 0.405958
Si Si5 0.910619 0.072636 0.273797
Si Si6 0.090289 0.571308 0.541741
Si Si7 0.409964 0.426659 0.989667
O O1 0.626578 0.250000 0.873215
O O2 0.665238 0.030660 0.796328
O O3 0.762082 0.080106 0.894392
O O4 0.607319 0.977173 0.917750
O O5 0.263089 0.750000 0.738402
O O6 0.310504 0.973303 0.665993
O O7 0.178876 0.005734 0.743524
O O8 0.720179 0.250000 0.594631
O O9 0.826248 0.469642 0.585772
O O10 0.667934 0.482650 0.536231
O O11 0.899436 0.750000 0.404412
O O12 0.905218 0.482661 0.347138
O O13 0.891877 0.499424 0.472157
O O14 0.912968 0.250000 0.270048
O O15 0.000000 0.000000 0.245865
O O16 0.084248 0.750000 0.536732
O O17 0.000000 0.500000 0.566639
O O18 0.500000 0.500000 0.013024
O O19 0.414551 0.250000 0.992544
#
# Coordination Sequence:
#
# PCOD9362183 Si02
#       7
#     8   8   8   8   8   8   8
#     4   9  18  34  59  87 114 146 184 236 290 345
#     4   9  19  38  60  82 113 153 195 235 291 350
#     4   9  20  39  61  84 118 160 195 238 291 347
#     4  10  19  33  53  79 111 149 191 243 297 343
#     4  11  21  33  50  76 110 150 198 247 294 344
#     4  11  21  34  52  80 115 157 201 243 291 342
#     4  11  22  39  64  92 119 151 191 238 292 351
#
# _framework density 9.8765429999999999
#
# number of rings (size 3 to 8) (size 9 to 14) (size 15 to 20)
#    0.000    2.000    1.429    3.857    0.000    2.857 
#    0.000    5.000    0.000    1.714    0.000    0.000 
#    0.000    0.000    0.000    0.000    0.000    0.000 
#
# Total GULP energy -156268.535795 kJ/mol
# GULP energy per Si atom -5581.019136 kJ/mol
# Density = 0.985406 g / cm^3
# Si number density = 9.876543 Si / 1000 Ang^3
#
#
#
# Elastic Constant Matrix: (Units=GPa)
#
#
# Indices 1 2 3 4 5 6 
#
# 1 56.4190 16.8643 32.1003 0.0000 0.0000 0.0000
# 2 16.8643 66.4181 23.9572 0.0000 0.0000 0.0000
# 3 32.1003 23.9572 118.6586 0.0000 0.0000 0.0000
# 4 0.0000 0.0000 0.0000 18.6069 0.0000 0.0000
# 5 0.0000 0.0000 0.0000 0.0000 -4.5957 0.0000
# 6 0.0000 0.0000 0.0000 0.0000 0.0000 25.1408
#
#
#
# Elastic Compliance Matrix: (Units=1/GPa)
#
#
# Indices 1 2 3 4 5 6 
#
# 1 0.021747 -0.003667 -0.005143 0.000000 0.000000 0.000000
# 2 -0.003667 0.016857 -0.002411 0.000000 0.000000 0.000000
# 3 -0.005143 -0.002411 0.010306 0.000000 0.000000 0.000000
# 4 0.000000 0.000000 0.000000 0.053743 0.000000 0.000000
# 5 0.000000 0.000000 0.000000 0.000000 -0.217597 0.000000
# 6 0.000000 0.000000 0.000000 0.000000 0.000000 0.039776
#
#
# Mechanical properties :
#
#
# Convention : Reuss Voigt Hill
#
# Bulk Modulus (GPa) = 37.78234 43.03771 40.41002
# Shear Modulus (GPa) = -113.88530 19.06867 -47.40832
#
# Velocity S-wave (km/s) = -7.60129 3.11038 -4.90434
# Velocity P-wave (km/s) = 7.60727 5.89359 3.40119
#
# Compressibility (1/GPa) = 0.02646739
#
# Stress axis : x y z
#
# Youngs Moduli (GPa) = 45.98429 59.32261 97.03407
#
# Poissons Ratio (x) = 0.21752 0.49902
# Poissons Ratio (y) = 0.16861 0.23400
# Poissons Ratio (z) = 0.23648 0.14306
#
# Static dielectric constant tensor:
#      x y z
#    x 1.727770 0.000000 0.000000 
#    y 0.000000 1.661270 0.000000 
#    z 0.000000 0.000000 1.703170 
# 
# From -- ./inp_files/14742.got.cif
#   From: 2010.05.17/outbox.ucp.g08.bks.cvg/sg39_8_cif.got.tgz:14742.got - 2010.06.11 10:41:16.
