data_PCOD9362794
_publ_section_title
;
Structure prediction by ZEFSAII (Michael W. Deem and Ramdas Pophale) SiO2 
 PCOD9362794
Probable space group: A M A 2
;
_chemical_formula_sum "Si O2"
_cell_formula_units_Z 48
_cell_length_a 16.285496
_cell_length_b 12.067984
_cell_length_c 9.552821
_cell_angle_alpha 90.000000
_cell_angle_beta 90.000000
_cell_angle_gamma 90.000000
_cell_volume 1877.445574
_symmetry_space_group_name_H-M "A M A 2"
_symmetry_group_IT_number 40
_symmetry_cell_setting 'orthorhombic'
loop_
_space_group_symop_operation_xyz
x,y,z
-x,-y,z
1/2-x,y,z
1/2+x,-y,z
x,1/2+y,1/2+z
-x,1/2-y,1/2+z
1/2-x,1/2+y,1/2+z
1/2+x,1/2-y,1/2+z
loop_
_atom_site_type_symbol
_atom_site_label
_atom_site_fract_x
_atom_site_fract_y
_atom_site_fract_z
Si Si1 0.608088 0.736833 0.475670
Si Si2 0.917314 0.756150 0.028460
Si Si3 0.654710 0.547670 0.156655
Si Si4 0.656620 0.317523 0.266959
Si Si5 0.096277 0.530104 0.860502
Si Si6 0.400883 0.995401 0.048071
O O1 0.514722 0.735430 0.533621
O O2 0.659491 0.774278 0.608965
O O3 0.608073 0.835702 0.362826
O O4 0.629848 0.607393 0.453994
O O5 0.889620 0.665702 0.140794
O O6 0.894797 0.735558 0.865517
O O7 0.874927 0.876931 0.033211
O O8 0.750000 0.561627 0.191896
O O9 0.646887 0.509206 0.994127
O O10 0.620082 0.442765 0.244891
O O11 0.750000 0.324311 0.317857
O O12 0.118856 0.478037 0.711928
O O13 0.000000 0.500000 0.887249
O O14 0.500000 0.000000 0.032850
#
# Coordination Sequence:
#
# PCOD9362794 Si02
#       6
#     8   8   8   8   8   8
#     4  10  21  37  61  91 118 163 215 262 314 386
#     4  11  21  37  60  91 123 164 212 262 317 384
#     4  10  21  38  60  88 119 160 211 258 319 390
#     4  10  23  41  61  89 127 165 208 266 330 386
#     4  10  18  36  61  84 118 156 205 262 312 374
#     4   9  21  35  52  88 123 150 199 261 311 370
#
# _framework density 25.566652000000001
#
# number of rings (size 3 to 8) (size 9 to 14) (size 15 to 20)
#    0.000    2.000    1.667    1.500    4.667    1.333 
#    6.000    3.333    0.000    4.000    0.000    0.000 
#    0.000    0.000    0.000    0.000    0.000    0.000 
#
# Total GULP energy -133962.071491 kJ/mol
# GULP energy per Si atom -5581.752979 kJ/mol
# Density = 2.550846 g / cm^3
# Si number density = 25.566652 Si / 1000 Ang^3
#
#
#
# Elastic Constant Matrix: (Units=GPa)
#
#
# Indices 1 2 3 4 5 6 
#
# 1 69.6110 -8.5693 15.7926 0.0000 0.0000 0.0000
# 2 -8.5693 176.9005 25.9543 0.0000 0.0000 0.0000
# 3 15.7926 25.9543 50.9935 0.0000 0.0000 0.0000
# 4 0.0000 0.0000 0.0000 70.7147 0.0000 0.0000
# 5 0.0000 0.0000 0.0000 0.0000-6176.0081 0.0000
# 6 0.0000 0.0000 0.0000 0.0000 0.0000 14.3855
#
#
#
# Elastic Compliance Matrix: (Units=1/GPa)
#
#
# Indices 1 2 3 4 5 6 
#
# 1 0.015864 0.001610 -0.005732 0.000000 0.000000 0.000000
# 2 0.001610 0.006272 -0.003691 0.000000 0.000000 0.000000
# 3 -0.005732 -0.003691 0.023264 0.000000 0.000000 0.000000
# 4 0.000000 0.000000 0.000000 0.014141 0.000000 0.000000
# 5 0.000000 0.000000 0.000000 0.000000 -0.000162 0.000000
# 6 0.000000 0.000000 0.000000 0.000000 0.000000 0.069515
#
#
# Mechanical properties :
#
#
# Convention : Reuss Voigt Hill
#
# Bulk Modulus (GPa) = 33.58713 40.42890 37.00802
# Shear Modulus (GPa) = 32.37365 -1200.55977 -584.09306
#
# Velocity S-wave (km/s) = 3.56229 -21.69331 -15.13126
# Velocity P-wave (km/s) = 5.48503 24.73093 17.05188
#
# Compressibility (1/GPa) = 0.02977331
#
# Stress axis : x y z
#
# Youngs Moduli (GPa) = 63.03512 159.42901 42.98450
#
# Poissons Ratio (x) = -0.25660 0.24640
# Poissons Ratio (y) = -0.10146 0.15865
# Poissons Ratio (z) = 0.36134 0.58844
#
# Static dielectric constant tensor:
#      x y z
#    x 65.836450 0.000000 0.000000 
#    y 0.000000 2.204640 0.000000 
#    z 0.000000 0.000000 2.126860 
# 
# From -- ./inp_files/12877.got.cif
#   From: 2010.05.17/outbox.cif.g08.bks.cpg/sg40_7_cif.got.tgz:12877.got - 2010.06.03 18:35:42.
