data_PCOD9362035
_publ_section_title
;
Structure prediction by ZEFSAII (Michael W. Deem and Ramdas Pophale) SiO2 
 PCOD9362035
Probable space group: A B M 2
;
_chemical_formula_sum "Si O2"
_cell_formula_units_Z 48
_cell_length_a 9.488433
_cell_length_b 27.231022
_cell_length_c 8.340670
_cell_angle_alpha 90.000000
_cell_angle_beta 90.000000
_cell_angle_gamma 90.000000
_cell_volume 2155.060044
_symmetry_space_group_name_H-M "A B M 2"
_symmetry_group_IT_number 39
_symmetry_cell_setting 'orthorhombic'
loop_
_space_group_symop_operation_xyz
x,y,z
-x,-y,z
-x,1/2+y,z
x,1/2-y,z
x,1/2+y,1/2+z
-x,1/2-y,1/2+z
-x,y,1/2+z
x,-y,1/2+z
loop_
_atom_site_type_symbol
_atom_site_label
_atom_site_fract_x
_atom_site_fract_y
_atom_site_fract_z
Si Si1 0.295770 0.656603 0.270210
Si Si2 0.658145 0.553764 0.883331
Si Si3 0.197525 0.846419 0.783737
Si Si4 0.334332 0.553068 0.767413
Si Si5 0.452074 0.807268 0.588726
Si Si6 0.038246 0.306117 0.590646
O O1 0.263683 0.599895 0.305208
O O2 0.376634 0.677798 0.424457
O O3 0.407581 0.662092 0.125447
O O4 0.157318 0.686574 0.226574
O O5 0.494249 0.559037 0.830823
O O6 0.710571 0.500994 0.823302
O O7 0.663321 0.555850 0.074924
O O8 0.238207 0.902089 0.824672
O O9 0.339792 0.819365 0.728356
O O10 0.090825 0.841524 0.633716
O O11 0.117764 0.820055 0.928104
O O12 0.487959 0.750000 0.588678
O O13 0.988112 0.250000 0.587657
#
# Coordination Sequence:
#
# PCOD9362035 Si02
#       6
#     8   8   8   8   8   8
#     4  12  24  42  68 100 140 179 230 292 352 417
#     4  11  22  42  70 108 137 179 226 289 355 410
#     4  12  26  46  70 100 137 184 236 289 351 420
#     4  11  24  42  75 105 140 181 229 291 355 424
#     4  12  23  40  66 102 138 176 233 289 347 416
#     4  12  27  46  69  97 140 191 232 286 354 423
#
# _framework density 22.273160000000001
#
# number of rings (size 3 to 8) (size 9 to 14) (size 15 to 20)
#    0.000    0.333    3.333    7.000    4.667    0.000 
#    0.000    0.833    0.000    0.000    0.000    0.000 
#    0.000    0.000    0.000    0.000    0.000    0.000 
#
# Total GULP energy -134512.428747 kJ/mol
# GULP energy per Si atom -5604.684531 kJ/mol
# Density = 2.222247 g / cm^3
# Si number density = 22.273160 Si / 1000 Ang^3
#
#
#
# Elastic Constant Matrix: (Units=GPa)
#
#
# Indices 1 2 3 4 5 6 
#
# 1 69.0247 10.5183 5.9350 0.0000 0.0000 0.0000
# 2 10.5183 123.3368 9.4750 0.0000 0.0000 0.0000
# 3 5.9350 9.4750 69.7455 0.0000 0.0000 0.0000
# 4 0.0000 0.0000 0.0000 38.8238 0.0000 0.0000
# 5 0.0000 0.0000 0.0000 0.0000 20.8772 0.0000
# 6 0.0000 0.0000 0.0000 0.0000 0.0000 32.3312
#
#
#
# Elastic Compliance Matrix: (Units=1/GPa)
#
#
# Indices 1 2 3 4 5 6 
#
# 1 0.014761 -0.001175 -0.001096 0.000000 0.000000 0.000000
# 2 -0.001175 0.008287 -0.001026 0.000000 0.000000 0.000000
# 3 -0.001096 -0.001026 0.014571 0.000000 0.000000 0.000000
# 4 0.000000 0.000000 0.000000 0.025757 0.000000 0.000000
# 5 0.000000 0.000000 0.000000 0.000000 0.047899 0.000000
# 6 0.000000 0.000000 0.000000 0.000000 0.000000 0.030930
#
#
# Mechanical properties :
#
#
# Convention : Reuss Voigt Hill
#
# Bulk Modulus (GPa) = 32.23271 34.88483 33.55877
# Shear Modulus (GPa) = 31.41888 34.15169 32.78529
#
# Velocity S-wave (km/s) = 3.75989 3.92000 3.84078
# Velocity P-wave (km/s) = 5.77512 6.01538 5.89647
#
# Compressibility (1/GPa) = 0.03102438
#
# Stress axis : x y z
#
# Youngs Moduli (GPa) = 67.74686 120.67300 68.63178
#
# Poissons Ratio (x) = 0.14174 0.07525
# Poissons Ratio (y) = 0.07957 0.07040
# Poissons Ratio (z) = 0.07428 0.12379
#
# Static dielectric constant tensor:
#      x y z
#    x 1.792300 0.000000 0.000000 
#    y 0.000000 1.807460 0.000000 
#    z 0.000000 0.000000 1.877700 
# 
# From -- ./inp_files/2307.got.cif
#   From: 2010.05.17/outbox.cif.g08.bks.cpg/sg39_2_cif.got.tgz:2307.got - 2010.06.03 18:22:40.
