data_PCOD9362601
_publ_section_title
;
Structure prediction by ZEFSAII (Michael W. Deem and Ramdas Pophale) SiO2 
 PCOD9362601
Probable space group: A M A 2
;
_chemical_formula_sum "Si O2"
_cell_formula_units_Z 52
_cell_length_a 19.216134
_cell_length_b 7.502375
_cell_length_c 15.961476
_cell_angle_alpha 90.000000
_cell_angle_beta 90.000000
_cell_angle_gamma 90.000000
_cell_volume 2301.112417
_symmetry_space_group_name_H-M "A M A 2"
_symmetry_group_IT_number 40
_symmetry_cell_setting 'orthorhombic'
loop_
_space_group_symop_operation_xyz
x,y,z
-x,-y,z
1/2-x,y,z
1/2+x,-y,z
x,1/2+y,1/2+z
-x,1/2-y,1/2+z
1/2-x,1/2+y,1/2+z
1/2+x,1/2-y,1/2+z
loop_
_atom_site_type_symbol
_atom_site_label
_atom_site_fract_x
_atom_site_fract_y
_atom_site_fract_z
Si Si1 0.825816 0.196084 0.856750
Si Si2 0.085155 0.306640 0.704224
Si Si3 0.000000 0.000000 0.958322
Si Si4 0.132050 0.336216 0.536581
Si Si5 0.572052 0.270584 0.704412
Si Si6 0.327978 0.248673 0.056598
Si Si7 0.372287 0.696721 0.380351
O O1 0.750000 0.257499 0.827215
O O2 0.886620 0.236399 0.790775
O O3 0.827880 0.981750 0.866295
O O4 0.838952 0.255357 0.952987
O O5 0.130151 0.239712 0.625444
O O6 0.073886 0.516755 0.691172
O O7 0.123098 0.292048 0.792516
O O8 0.008831 0.217751 0.707745
O O9 0.050765 0.124207 0.904768
O O10 0.948391 0.118322 0.013874
O O11 0.167725 0.530432 0.549466
O O12 0.615488 0.195637 0.625639
O O13 0.250000 0.300388 0.080159
O O14 0.345995 0.302791 0.961317
#
# Coordination Sequence:
#
# PCOD9362601 Si02
#       7
#     8   8   4   8   8   8   8
#     4  10  20  36  53  75 102 138 172 203 249 308
#     4  10  19  33  52  83 104 127 168 214 262 291
#     4   8  14  28  50  74  96 134 170 206 258 298
#     4   9  16  29  51  73 100 131 171 215 246 296
#     4  10  20  33  55  77 105 133 167 212 253 307
#     4   9  17  32  50  72  98 136 173 204 247 304
#     4  10  18  31  53  75 102 131 170 216 250 296
#
# _framework density 22.597764999999999
#
# number of rings (size 3 to 8) (size 9 to 14) (size 15 to 20)
#    0.000    2.769    0.000    6.923    0.000    0.000 
#    0.000   10.769    0.000    3.692    0.000    0.000 
#    0.000    0.000    0.000    0.000    0.000    0.000 
#
# Total GULP energy -145077.486632 kJ/mol
# GULP energy per Si atom -5579.903332 kJ/mol
# Density = 2.254633 g / cm^3
# Si number density = 22.597765 Si / 1000 Ang^3
#
#
#
# Elastic Constant Matrix: (Units=GPa)
#
#
# Indices 1 2 3 4 5 6 
#
# 1 71.4965 -13.4888 18.1357 0.0000 0.0000 0.0000
# 2 -13.4888 36.0929 -1.5501 0.0000 0.0000 0.0000
# 3 18.1357 -1.5501 173.9196 0.0000 0.0000 0.0000
# 4 0.0000 0.0000 0.0000 23.0310 0.0000 0.0000
# 5 0.0000 0.0000 0.0000 0.0000 -341.0976 0.0000
# 6 0.0000 0.0000 0.0000 0.0000 0.0000 -9.7321
#
#
#
# Elastic Compliance Matrix: (Units=1/GPa)
#
#
# Indices 1 2 3 4 5 6 
#
# 1 0.015460 0.005711 -0.001561 0.000000 0.000000 0.000000
# 2 0.005711 0.029826 -0.000330 0.000000 0.000000 0.000000
# 3 -0.001561 -0.000330 0.005910 0.000000 0.000000 0.000000
# 4 0.000000 0.000000 0.000000 0.043420 0.000000 0.000000
# 5 0.000000 0.000000 0.000000 0.000000 -0.002932 0.000000
# 6 0.000000 0.000000 0.000000 0.000000 0.000000 -0.102752
#
#
# Mechanical properties :
#
#
# Convention : Reuss Voigt Hill
#
# Bulk Modulus (GPa) = 16.99643 31.96695 24.48169
# Shear Modulus (GPa) = 5531.14950 -46.99894 2742.07528
#
# Velocity S-wave (km/s) = 49.52744 -4.56544 34.87208
# Velocity P-wave (km/s) = 57.25522 3.68974 40.40140
#
# Compressibility (1/GPa) = 0.05883590
#
# Stress axis : x y z
#
# Youngs Moduli (GPa) = 64.68251 33.52739 169.21492
#
# Poissons Ratio (x) = -0.19147 0.26418
# Poissons Ratio (y) = -0.36939 0.05578
# Poissons Ratio (z) = 0.10098 0.01105
#
# Static dielectric constant tensor:
#      x y z
#    x 1.866070 0.000000 0.000000 
#    y 0.000000 1.871210 0.000000 
#    z 0.000000 0.000000 1.895910 
# 
# From -- ./inp_files/18164.got.cif
#   From: 2010.05.17/outbox.cif.g08.bks.cpg/sg40_10_cif.got.tgz:18164.got - 2010.06.03 18:35:42.
