data_PCOD9362481
_publ_section_title
;
Structure prediction by ZEFSAII (Michael W. Deem and Ramdas Pophale) SiO2 
 PCOD9362481
Probable space group: A M A 2
;
_chemical_formula_sum "Si O2"
_cell_formula_units_Z 64
_cell_length_a 8.185817
_cell_length_b 15.342933
_cell_length_c 28.383740
_cell_angle_alpha 90.000000
_cell_angle_beta 90.000000
_cell_angle_gamma 90.000000
_cell_volume 3564.839981
_symmetry_space_group_name_H-M "A M A 2"
_symmetry_group_IT_number 40
_symmetry_cell_setting 'orthorhombic'
loop_
_space_group_symop_operation_xyz
x,y,z
-x,-y,z
1/2-x,y,z
1/2+x,-y,z
x,1/2+y,1/2+z
-x,1/2-y,1/2+z
1/2-x,1/2+y,1/2+z
1/2+x,1/2-y,1/2+z
loop_
_atom_site_type_symbol
_atom_site_label
_atom_site_fract_x
_atom_site_fract_y
_atom_site_fract_z
Si Si1 0.554505 0.596674 0.875000
Si Si2 0.050064 0.777079 0.458679
Si Si3 0.055515 0.596705 0.767566
Si Si4 0.053827 0.276151 0.230286
Si Si5 0.445900 0.597143 0.312337
Si Si6 0.052488 0.902963 0.648985
Si Si7 0.053236 0.096094 0.920988
Si Si8 0.552717 0.097065 0.541197
O O1 0.500000 0.500000 0.889892
O O2 0.750000 0.598527 0.873349
O O3 0.499171 0.668122 0.912598
O O4 0.492227 0.611400 0.822139
O O5 0.250000 0.777182 0.459307
O O6 0.996482 0.677401 0.452281
O O7 0.995143 0.829499 0.504801
O O8 0.250000 0.597416 0.765092
O O9 0.990371 0.677992 0.737372
O O10 0.000000 0.500000 0.753756
O O11 0.250000 0.271271 0.225541
O O12 0.991348 0.330548 0.185488
O O13 0.015420 0.331632 0.276968
O O14 0.500000 0.500000 0.297794
O O15 0.250000 0.602249 0.311321
O O16 0.501389 0.609334 0.366570
O O17 0.250000 0.900897 0.648877
O O18 0.996094 0.889432 0.595072
O O19 0.000000 0.000000 0.663813
O O20 0.250000 0.097359 0.920266
O O21 0.000000 0.000000 0.936322
O O22 0.750000 0.098715 0.541391
O O23 0.500000 0.000000 0.526238
#
# Coordination Sequence:
#
# PCOD9362481 Si02
#       8
#     8   8   8   8   8   8   8   8
#     4  10  18  29  45  67  95 122 150 183 221 267
#     4   9  17  29  47  68  90 119 152 183 219 267
#     4  10  20  33  47  64  90 122 156 192 227 266
#     4  10  20  32  47  68  92 119 154 192 227 268
#     4  10  19  30  46  68  95 125 154 186 224 269
#     4   9  18  32  49  70  94 118 145 179 222 269
#     4   9  18  32  46  63  89 120 154 188 221 259
#     4   9  17  31  50  70  93 119 145 177 220 269
#
# _framework density 17.953119000000001
#
# number of rings (size 3 to 8) (size 9 to 14) (size 15 to 20)
#    0.000    2.500    0.000    3.375    0.000    4.000 
#    0.000    2.500    0.000    0.750    0.000    0.000 
#    0.000    0.000    0.000    0.000    0.000    0.000 
#
# Total GULP energy -178519.417466 kJ/mol
# GULP energy per Si atom -5578.731796 kJ/mol
# Density = 1.791226 g / cm^3
# Si number density = 17.953119 Si / 1000 Ang^3
#
#
#
# Elastic Constant Matrix: (Units=GPa)
#
#
# Indices 1 2 3 4 5 6 
#
# 1 10.9904 10.1208 9.1579 0.0000 0.0000 0.0000
# 2 10.1208 183.8354 97.1665 0.0000 0.0000 0.0000
# 3 9.1579 97.1665 80.9675 0.0000 0.0000 0.0000
# 4 0.0000 0.0000 0.0000 28.5255 0.0000 0.0000
# 5 0.0000 0.0000 0.0000 0.0000 14.7184 0.0000
# 6 0.0000 0.0000 0.0000 0.0000 0.0000 22.4894
#
#
#
# Elastic Compliance Matrix: (Units=1/GPa)
#
#
# Indices 1 2 3 4 5 6 
#
# 1 0.100570 0.001300 -0.012935 0.000000 0.000000 0.000000
# 2 0.001300 0.014891 -0.018018 0.000000 0.000000 0.000000
# 3 -0.012935 -0.018018 0.035436 0.000000 0.000000 0.000000
# 4 0.000000 0.000000 0.000000 0.035056 0.000000 0.000000
# 5 0.000000 0.000000 0.000000 0.000000 0.067942 0.000000
# 6 0.000000 0.000000 0.000000 0.000000 0.000000 0.044465
#
#
# Mechanical properties :
#
#
# Convention : Reuss Voigt Hill
#
# Bulk Modulus (GPa) = 10.91800 56.52040 33.71920
# Shear Modulus (GPa) = 12.88003 23.76987 18.32495
#
# Velocity S-wave (km/s) = 2.68139 3.64262 3.19832
# Velocity P-wave (km/s) = 3.95993 7.01728 5.69751
#
# Compressibility (1/GPa) = 0.09159189
#
# Stress axis : x y z
#
# Youngs Moduli (GPa) = 9.94331 67.15306 28.21975
#
# Poissons Ratio (x) = -0.08732 0.36504
# Poissons Ratio (y) = -0.01293 0.50846
# Poissons Ratio (z) = 0.12862 1.20994
#
# Static dielectric constant tensor:
#      x y z
#    x 1.631700 0.000000 0.000000 
#    y 0.000000 1.629760 0.000000 
#    z 0.000000 0.000000 1.612760 
# 
# From -- ./inp_files/26483.got.cif
#   From: 2010.05.17/outbox.cif.g08.bks.cpg/sg40_14_cif.got.tgz:26483.got - 2010.06.03 18:35:42.
