data_PCOD9362555
_publ_section_title
;
Structure prediction by ZEFSAII (Michael W. Deem and Ramdas Pophale) SiO2 
 PCOD9362555
Probable space group: A M A 2
;
_chemical_formula_sum "Si O2"
_cell_formula_units_Z 48
_cell_length_a 16.441996
_cell_length_b 9.209050
_cell_length_c 16.548044
_cell_angle_alpha 90.000000
_cell_angle_beta 90.000000
_cell_angle_gamma 90.000000
_cell_volume 2505.624784
_symmetry_space_group_name_H-M "A M A 2"
_symmetry_group_IT_number 40
_symmetry_cell_setting 'orthorhombic'
loop_
_space_group_symop_operation_xyz
x,y,z
-x,-y,z
1/2-x,y,z
1/2+x,-y,z
x,1/2+y,1/2+z
-x,1/2-y,1/2+z
1/2-x,1/2+y,1/2+z
1/2+x,1/2-y,1/2+z
loop_
_atom_site_type_symbol
_atom_site_label
_atom_site_fract_x
_atom_site_fract_y
_atom_site_fract_z
Si Si1 0.596202 0.484833 0.663560
Si Si2 0.650985 0.383719 0.909318
Si Si3 0.412684 0.577219 0.234172
Si Si4 0.343745 0.771275 0.747246
Si Si5 0.652199 0.749840 0.579972
Si Si6 0.846301 0.660007 0.820762
O O1 0.500000 0.500000 0.670067
O O2 0.615028 0.315287 0.673682
O O3 0.628912 0.580086 0.589402
O O4 0.639504 0.561266 0.740725
O O5 0.750000 0.381014 0.908167
O O6 0.622207 0.287694 0.832885
O O7 0.628037 0.551382 0.892519
O O8 0.626768 0.316544 0.994383
O O9 0.500000 0.500000 0.234948
O O10 0.352139 0.442389 0.241870
O O11 0.392872 0.663704 0.151806
O O12 0.397202 0.694793 0.304784
O O13 0.250000 0.729721 0.744142
O O14 0.750000 0.764701 0.589974
O O15 0.750000 0.693605 0.826758
#
# Coordination Sequence:
#
# PCOD9362555 Si02
#       6
#     8   8   8   8   8   8
#     4  10  18  30  51  77 106 138 173 211 256 315
#     4   8  17  33  56  78  98 128 177 222 261 312
#     4  11  21  33  50  78 109 137 174 220 264 312
#     4  10  18  32  52  76 100 132 174 217 256 308
#     4  10  19  36  56  76 103 141 177 216 265 319
#     4   9  17  34  56  77 100 140 185 222 261 314
#
# _framework density 19.156898000000002
#
# number of rings (size 3 to 8) (size 9 to 14) (size 15 to 20)
#    0.000    2.333    0.000    7.000    0.000    0.000 
#    0.000    7.500    0.000    4.000    0.000    0.000 
#    0.000    0.000    0.000    0.000    0.000    0.000 
#
# Total GULP energy -133752.491952 kJ/mol
# GULP energy per Si atom -5573.020498 kJ/mol
# Density = 1.911330 g / cm^3
# Si number density = 19.156898 Si / 1000 Ang^3
#
#
#
# Elastic Constant Matrix: (Units=GPa)
#
#
# Indices 1 2 3 4 5 6 
#
# 1 51.0590 -8.8607 8.4805 0.0000 0.0000 0.0000
# 2 -8.8607 100.1765 44.1815 0.0000 0.0000 0.0000
# 3 8.4805 44.1815 81.7756 0.0000 0.0000 0.0000
# 4 0.0000 0.0000 0.0000 35.3798 0.0000 0.0000
# 5 0.0000 0.0000 0.0000 0.0000 -55.3521 0.0000
# 6 0.0000 0.0000 0.0000 0.0000 0.0000 15.6284
#
#
#
# Elastic Compliance Matrix: (Units=1/GPa)
#
#
# Indices 1 2 3 4 5 6 
#
# 1 0.020915 0.003685 -0.004160 0.000000 0.000000 0.000000
# 2 0.003685 0.013754 -0.007813 0.000000 0.000000 0.000000
# 3 -0.004160 -0.007813 0.016881 0.000000 0.000000 0.000000
# 4 0.000000 0.000000 0.000000 0.028265 0.000000 0.000000
# 5 0.000000 0.000000 0.000000 0.000000 -0.018066 0.000000
# 6 0.000000 0.000000 0.000000 0.000000 0.000000 0.063986
#
#
# Mechanical properties :
#
#
# Convention : Reuss Voigt Hill
#
# Bulk Modulus (GPa) = 28.59246 35.62377 32.10811
# Shear Modulus (GPa) = 32.47374 11.74520 22.10947
#
# Velocity S-wave (km/s) = 4.12168 2.47878 3.40093
# Velocity P-wave (km/s) = 6.13260 5.17964 5.67616
#
# Compressibility (1/GPa) = 0.03497426
#
# Stress axis : x y z
#
# Youngs Moduli (GPa) = 47.81143 72.70507 59.23724
#
# Poissons Ratio (x) = -0.26789 0.24641
# Poissons Ratio (y) = -0.17617 0.46283
# Poissons Ratio (z) = 0.19888 0.56806
#
# Static dielectric constant tensor:
#      x y z
#    x 1.804280 0.000000 0.000000 
#    y 0.000000 1.707840 0.000000 
#    z 0.000000 0.000000 1.676160 
# 
# From -- ./inp_files/20539.got.cif
#   From: 2010.05.17/outbox.cif.g08.bks.cpg/sg40_11_cif.got.tgz:20539.got - 2010.06.03 18:35:42.
