data_PCOD9362414
_publ_section_title
;
Structure prediction by ZEFSAII (Michael W. Deem and Ramdas Pophale) SiO2 
 PCOD9362414
Probable space group: A M A 2
;
_chemical_formula_sum "Si O2"
_cell_formula_units_Z 64
_cell_length_a 9.016583
_cell_length_b 27.423845
_cell_length_c 18.520449
_cell_angle_alpha 90.000000
_cell_angle_beta 90.000000
_cell_angle_gamma 90.000000
_cell_volume 4579.539842
_symmetry_space_group_name_H-M "A M A 2"
_symmetry_group_IT_number 40
_symmetry_cell_setting 'orthorhombic'
loop_
_space_group_symop_operation_xyz
x,y,z
-x,-y,z
1/2-x,y,z
1/2+x,-y,z
x,1/2+y,1/2+z
-x,1/2-y,1/2+z
1/2-x,1/2+y,1/2+z
1/2+x,1/2-y,1/2+z
loop_
_atom_site_type_symbol
_atom_site_label
_atom_site_fract_x
_atom_site_fract_y
_atom_site_fract_z
Si Si1 0.574075 0.244424 0.410610
Si Si2 0.920498 0.299791 0.688591
Si Si3 0.072002 0.948921 0.568590
Si Si4 0.570484 0.150438 0.646267
Si Si5 0.427890 0.851868 0.315939
Si Si6 0.071449 0.448690 0.900430
Si Si7 0.579881 0.701734 0.286945
Si Si8 0.427014 0.242486 0.566043
O O1 0.750000 0.246394 0.423354
O O2 0.540380 0.192608 0.371438
O O3 0.522919 0.286019 0.354434
O O4 0.487247 0.248063 0.485259
O O5 0.750000 0.311087 0.671173
O O6 0.921147 0.250423 0.737155
O O7 0.993442 0.339832 0.740509
O O8 0.011718 0.285500 0.617604
O O9 0.250000 0.953474 0.571577
O O10 0.029343 0.902540 0.616588
O O11 0.031165 0.939693 0.484545
O O12 0.000000 0.000000 0.590733
O O13 0.750000 0.156446 0.639454
O O14 0.533828 0.159990 0.730349
O O15 0.493296 0.192298 0.598875
O O16 0.250000 0.852097 0.305490
O O17 0.473785 0.902788 0.351875
O O18 0.250000 0.452464 0.897167
O O19 0.000000 0.500000 0.878575
O O20 0.750000 0.693693 0.310427
O O21 0.250000 0.241176 0.568099
#
# Coordination Sequence:
#
# PCOD9362414 Si02
#       8
#     8   8   8   8   8   8   8   8
#     4  10  18  28  42  59  82 110 138 169 207 247
#     4   9  17  29  43  59  81 107 135 168 206 247
#     4   9  17  29  43  60  83 111 141 174 209 241
#     4   9  17  30  45  59  81 112 142 172 209 247
#     4   9  17  29  44  60  80 109 142 174 208 245
#     4   9  17  28  41  58  82 110 141 175 208 241
#     4   8  15  27  41  58  79 104 135 169 203 242
#     4  11  20  28  41  61  84 109 140 173 203 242
#
# _framework density 13.975203
#
# number of rings (size 3 to 8) (size 9 to 14) (size 15 to 20)
#    0.000    2.750    0.000    3.375    0.000    6.500 
#    0.000    2.500    0.000    0.000    0.000    0.000 
#    0.000    1.000    0.000    6.250    0.000    4.250 
#
# Total GULP energy -178278.478494 kJ/mol
# GULP energy per Si atom -5571.202453 kJ/mol
# Density = 1.394340 g / cm^3
# Si number density = 13.975203 Si / 1000 Ang^3
#
#
#
# Elastic Constant Matrix: (Units=GPa)
#
#
# Indices 1 2 3 4 5 6 
#
# 1 55.1033 35.9135 52.2295 0.0000 0.0000 0.0000
# 2 35.9135 99.4465 59.7563 0.0000 0.0000 0.0000
# 3 52.2295 59.7563 93.8628 0.0000 0.0000 0.0000
# 4 0.0000 0.0000 0.0000 26.8819 0.0000 0.0000
# 5 0.0000 0.0000 0.0000 0.0000 23.3198 0.0000
# 6 0.0000 0.0000 0.0000 0.0000 0.0000 20.1578
#
#
#
# Elastic Compliance Matrix: (Units=1/GPa)
#
#
# Indices 1 2 3 4 5 6 
#
# 1 0.038573 -0.001672 -0.020399 0.000000 0.000000 0.000000
# 2 -0.001672 0.016358 -0.009484 0.000000 0.000000 0.000000
# 3 -0.020399 -0.009484 0.028042 0.000000 0.000000 0.000000
# 4 0.000000 0.000000 0.000000 0.037200 0.000000 0.000000
# 5 0.000000 0.000000 0.000000 0.000000 0.042882 0.000000
# 6 0.000000 0.000000 0.000000 0.000000 0.000000 0.049609
#
#
# Mechanical properties :
#
#
# Convention : Reuss Voigt Hill
#
# Bulk Modulus (GPa) = 50.34380 60.46789 55.40585
# Shear Modulus (GPa) = 17.70573 20.77278 19.23926
#
# Velocity S-wave (km/s) = 3.56327 3.85957 3.71438
# Velocity P-wave (km/s) = 7.28224 7.95133 7.62413
#
# Compressibility (1/GPa) = 0.01986342
#
# Stress axis : x y z
#
# Youngs Moduli (GPa) = 25.92506 61.13139 35.66050
#
# Poissons Ratio (x) = 0.10224 0.72743
# Poissons Ratio (y) = 0.04336 0.33819
# Poissons Ratio (z) = 0.52884 0.57974
#
# Static dielectric constant tensor:
#      x y z
#    x 1.468450 0.000000 0.000000 
#    y 0.000000 1.444860 0.000000 
#    z 0.000000 0.000000 1.454060 
# 
# From -- ./inp_files/15866.got.cif
#   From: 2010.05.17/outbox.cif.g08.bks.cpg/sg40_8_cif.got.tgz:15866.got - 2010.06.03 18:35:42.
