data_PCOD9362696
_publ_section_title
;
Structure prediction by ZEFSAII (Michael W. Deem and Ramdas Pophale) SiO2 
 PCOD9362696
Probable space group: A M A 2
;
_chemical_formula_sum "Si O2"
_cell_formula_units_Z 64
_cell_length_a 8.005259
_cell_length_b 29.137711
_cell_length_c 12.981181
_cell_angle_alpha 90.000000
_cell_angle_beta 90.000000
_cell_angle_gamma 90.000000
_cell_volume 3027.924377
_symmetry_space_group_name_H-M "A M A 2"
_symmetry_group_IT_number 40
_symmetry_cell_setting 'orthorhombic'
loop_
_space_group_symop_operation_xyz
x,y,z
-x,-y,z
1/2-x,y,z
1/2+x,-y,z
x,1/2+y,1/2+z
-x,1/2-y,1/2+z
1/2-x,1/2+y,1/2+z
1/2+x,1/2-y,1/2+z
loop_
_atom_site_type_symbol
_atom_site_label
_atom_site_fract_x
_atom_site_fract_y
_atom_site_fract_z
Si Si1 0.545519 0.911105 0.437000
Si Si2 0.451872 0.878354 0.837686
Si Si3 0.560424 0.933272 0.217435
Si Si4 0.953511 0.209488 0.949751
Si Si5 0.053309 0.834226 0.166501
Si Si6 0.943844 0.548195 0.494740
Si Si7 0.047244 0.192380 0.380431
Si Si8 0.449232 0.552233 0.157445
O O1 0.750000 0.912053 0.434084
O O2 0.488265 0.937112 0.332586
O O3 0.496414 0.857253 0.426911
O O4 0.488239 0.934045 0.542875
O O5 0.250000 0.876178 0.838962
O O6 0.509082 0.826215 0.860412
O O7 0.518028 0.908626 0.934637
O O8 0.498021 0.908226 0.737942
O O9 0.750000 0.950295 0.217383
O O10 0.552940 0.878933 0.194592
O O11 0.473031 0.952170 0.116484
O O12 0.750000 0.210297 0.947527
O O13 0.007883 0.261995 0.939637
O O14 0.999551 0.188500 0.060184
O O15 0.250000 0.847448 0.157543
O O16 0.026560 0.802975 0.265919
O O17 0.750000 0.551662 0.477601
O O18 0.000000 0.500000 0.449411
O O19 0.250000 0.191833 0.375246
O O20 0.500000 0.500000 0.184183
O O21 0.250000 0.552892 0.154246
#
# Coordination Sequence:
#
# PCOD9362696 Si02
#       8
#     8   8   8   8   8   8   8   8
#     4   8  18  36  57  81 112 147 188 235 288 345
#     4  10  21  39  58  81 113 151 191 235 289 349
#     4  10  19  35  58  82 109 145 185 229 285 346
#     4   9  18  34  57  81 112 152 190 231 290 349
#     4  10  18  33  54  79 111 148 185 233 288 340
#     4  11  22  36  55  81 114 145 182 230 284 342
#     4   9  18  35  57  82 112 153 193 236 292 350
#     4  11  23  40  60  83 113 153 199 247 295 351
#
# _framework density 21.136590999999999
#
# number of rings (size 3 to 8) (size 9 to 14) (size 15 to 20)
#    0.000    2.250    1.250    2.625    0.000    3.500 
#    0.000   10.625    0.000    0.000    0.000    0.000 
#    0.000    0.000    0.000    0.000    0.000    0.000 
#
# Total GULP energy -178439.983926 kJ/mol
# GULP energy per Si atom -5576.249498 kJ/mol
# Density = 2.108848 g / cm^3
# Si number density = 21.136591 Si / 1000 Ang^3
#
#
#
# Elastic Constant Matrix: (Units=GPa)
#
#
# Indices 1 2 3 4 5 6 
#
# 1 22.3495 -0.9068 -2.0438 0.0000 0.0000 0.0000
# 2 -0.9068 58.7937 13.7883 0.0000 0.0000 0.0000
# 3 -2.0438 13.7883 90.5732 0.0000 0.0000 0.0000
# 4 0.0000 0.0000 0.0000 29.1860 0.0000 0.0000
# 5 0.0000 0.0000 0.0000 0.0000 21.6436 0.0000
# 6 0.0000 0.0000 0.0000 0.0000 0.0000 17.6657
#
#
#
# Elastic Compliance Matrix: (Units=1/GPa)
#
#
# Indices 1 2 3 4 5 6 
#
# 1 0.044849 0.000471 0.000940 0.000000 0.000000 0.000000
# 2 0.000471 0.017643 -0.002675 0.000000 0.000000 0.000000
# 3 0.000940 -0.002675 0.011469 0.000000 0.000000 0.000000
# 4 0.000000 0.000000 0.000000 0.034263 0.000000 0.000000
# 5 0.000000 0.000000 0.000000 0.000000 0.046203 0.000000
# 6 0.000000 0.000000 0.000000 0.000000 0.000000 0.056607
#
#
# Mechanical properties :
#
#
# Convention : Reuss Voigt Hill
#
# Bulk Modulus (GPa) = 13.99896 21.48797 17.74347
# Shear Modulus (GPa) = 21.06390 24.42432 22.74411
#
# Velocity S-wave (km/s) = 3.16026 3.40302 3.28388
# Velocity P-wave (km/s) = 4.46697 5.06251 4.77404
#
# Compressibility (1/GPa) = 0.07143387
#
# Stress axis : x y z
#
# Youngs Moduli (GPa) = 22.29715 56.67871 87.18943
#
# Poissons Ratio (x) = -0.02671 -0.08198
# Poissons Ratio (y) = -0.01051 0.23326
# Poissons Ratio (z) = -0.02097 0.15163
#
# Static dielectric constant tensor:
#      x y z
#    x 1.748760 0.000000 0.000000 
#    y 0.000000 1.803450 0.000000 
#    z 0.000000 0.000000 1.782100 
# 
# From -- ./inp_files/10648.got.cif
#   From: 2010.05.17/outbox.cif.g08.bks.cpg/sg40_6_cif.got.tgz:10648.got - 2010.06.03 18:35:42.
