data_PCOD9362235
_publ_section_title
;
Structure prediction by ZEFSAII (Michael W. Deem and Ramdas Pophale) SiO2 
 PCOD9362235
Probable space group: A M A 2
;
_chemical_formula_sum "Si O2"
_cell_formula_units_Z 52
_cell_length_a 21.608204
_cell_length_b 7.028701
_cell_length_c 14.555220
_cell_angle_alpha 90.000000
_cell_angle_beta 90.000000
_cell_angle_gamma 90.000000
_cell_volume 2210.611955
_symmetry_space_group_name_H-M "A M A 2"
_symmetry_group_IT_number 40
_symmetry_cell_setting 'orthorhombic'
loop_
_space_group_symop_operation_xyz
x,y,z
-x,-y,z
1/2-x,y,z
1/2+x,-y,z
x,1/2+y,1/2+z
-x,1/2-y,1/2+z
1/2-x,1/2+y,1/2+z
1/2+x,1/2-y,1/2+z
loop_
_atom_site_type_symbol
_atom_site_label
_atom_site_fract_x
_atom_site_fract_y
_atom_site_fract_z
Si Si1 0.048981 0.278306 0.622260
Si Si2 0.176748 0.849421 0.477210
Si Si3 0.153737 0.305527 0.494620
Si Si4 0.819434 0.205283 0.788052
Si Si5 0.585525 0.162584 0.634111
Si Si6 0.145095 0.352555 0.775674
Si Si7 0.750000 0.694308 0.648686
O O1 0.084337 0.345298 0.529788
O O2 0.083144 0.348997 0.715278
O O3 0.975202 0.293767 0.629320
O O4 0.063378 0.051753 0.615736
O O5 0.250000 0.805221 0.475920
O O6 0.137172 0.771462 0.561577
O O7 0.143368 0.796359 0.381938
O O8 0.170608 0.078575 0.491252
O O9 0.171527 0.364690 0.392260
O O10 0.196923 0.377555 0.575892
O O11 0.750000 0.161985 0.754415
O O12 0.878577 0.147618 0.729602
O O13 0.824578 0.436383 0.781292
O O14 0.195391 0.234435 0.719207
#
# Coordination Sequence:
#
# PCOD9362235 Si02
#       7
#     8   8   8   8   8   8   4
#     4   9  21  39  55  84 100 159 187 229 263 334
#     4  10  17  33  54  86 106 144 176 243 270 324
#     4   9  17  31  60  78 108 137 194 220 274 320
#     4  11  20  36  55  90 111 145 173 242 277 334
#     4  10  22  37  56  75 123 142 190 220 281 330
#     4  10  19  33  61  81 113 136 191 225 279 319
#     4  10  14  30  52  82 106 138 166 232 254 338
#
# _framework density 23.522898000000001
#
# number of rings (size 3 to 8) (size 9 to 14) (size 15 to 20)
#    0.000    2.154    3.077    1.385    0.000    1.846 
#    1.385    6.154    0.000    0.000    0.000    0.000 
#    0.000    0.000    0.000    0.000    0.000    0.000 
#
# Total GULP energy -144738.470500 kJ/mol
# GULP energy per Si atom -5566.864250 kJ/mol
# Density = 2.346936 g / cm^3
# Si number density = 23.522898 Si / 1000 Ang^3
#
#
#
# Elastic Constant Matrix: (Units=GPa)
#
#
# Indices 1 2 3 4 5 6 
#
# 1 146.3620 -2.8027 52.7328 0.0000 0.0000 0.0000
# 2 -2.8027 74.5153 -21.8690 0.0000 0.0000 0.0000
# 3 52.7328 -21.8690 107.1708 0.0000 0.0000 0.0000
# 4 0.0000 0.0000 0.0000 11.7115 0.0000 0.0000
# 5 0.0000 0.0000 0.0000 0.0000 33.0100 0.0000
# 6 0.0000 0.0000 0.0000 0.0000 0.0000 14.3390
#
#
#
# Elastic Compliance Matrix: (Units=1/GPa)
#
#
# Indices 1 2 3 4 5 6 
#
# 1 0.008367 -0.000951 -0.004311 0.000000 0.000000 0.000000
# 2 -0.000951 0.014383 0.003403 0.000000 0.000000 0.000000
# 3 -0.004311 0.003403 0.012146 0.000000 0.000000 0.000000
# 4 0.000000 0.000000 0.000000 0.085386 0.000000 0.000000
# 5 0.000000 0.000000 0.000000 0.000000 0.030294 0.000000
# 6 0.000000 0.000000 0.000000 0.000000 0.000000 0.069740
#
#
# Mechanical properties :
#
#
# Convention : Reuss Voigt Hill
#
# Bulk Modulus (GPa) = 32.07299 42.68558 37.37928
# Shear Modulus (GPa) = 21.32854 31.81123 26.56988
#
# Velocity S-wave (km/s) = 3.01444 3.68142 3.36450
# Velocity P-wave (km/s) = 5.07742 6.02132 5.56940
#
# Compressibility (1/GPa) = 0.03117889
#
# Stress axis : x y z
#
# Youngs Moduli (GPa) = 119.51111 69.52684 82.32835
#
# Poissons Ratio (x) = 0.06609 0.35493
# Poissons Ratio (y) = 0.11360 -0.28013
# Poissons Ratio (z) = 0.51522 -0.23657
#
# Static dielectric constant tensor:
#      x y z
#    x 1.910780 0.000000 0.000000 
#    y 0.000000 2.104420 0.000000 
#    z 0.000000 0.000000 1.880890 
# 
# From -- ./inp_files/17753.got.cif
#   From: 2010.05.17/outbox.cif.g08.bks.cpg/sg40_9_cif.got.tgz:17753.got - 2010.06.03 18:35:42.
