data_PCOD9362466
_publ_section_title
;
Structure prediction by ZEFSAII (Michael W. Deem and Ramdas Pophale) SiO2 
 PCOD9362466
Probable space group: A M A 2
;
_chemical_formula_sum "Si O2"
_cell_formula_units_Z 64
_cell_length_a 8.672450
_cell_length_b 18.920300
_cell_length_c 26.984394
_cell_angle_alpha 90.000000
_cell_angle_beta 90.000000
_cell_angle_gamma 90.000000
_cell_volume 4427.743889
_symmetry_space_group_name_H-M "A M A 2"
_symmetry_group_IT_number 40
_symmetry_cell_setting 'orthorhombic'
loop_
_space_group_symop_operation_xyz
x,y,z
-x,-y,z
1/2-x,y,z
1/2+x,-y,z
x,1/2+y,1/2+z
-x,1/2-y,1/2+z
1/2-x,1/2+y,1/2+z
1/2+x,1/2-y,1/2+z
loop_
_atom_site_type_symbol
_atom_site_label
_atom_site_fract_x
_atom_site_fract_y
_atom_site_fract_z
Si Si1 0.433844 0.833591 0.184800
Si Si2 0.927634 0.295633 0.530336
Si Si3 0.436256 0.838942 0.478604
Si Si4 0.927925 0.703855 0.132119
Si Si5 0.565492 0.422058 0.772671
Si Si6 0.436782 0.578565 0.592143
Si Si7 0.434000 0.078245 0.573534
Si Si8 0.434266 0.577623 0.888359
O O1 0.250000 0.835734 0.181886
O O2 0.492789 0.754744 0.172134
O O3 0.492069 0.864230 0.236781
O O4 0.504127 0.885089 0.142595
O O5 0.750000 0.308352 0.515990
O O6 0.994265 0.240725 0.490723
O O7 0.927988 0.250289 0.581373
O O8 0.993375 0.370894 0.547013
O O9 0.250000 0.839400 0.481804
O O10 0.500014 0.889629 0.522090
O O11 0.491433 0.867437 0.426107
O O12 0.750000 0.690407 0.145060
O O13 0.012315 0.631836 0.116864
O O14 0.500000 0.500000 0.760315
O O15 0.750000 0.422999 0.766454
O O16 0.530077 0.408395 0.830573
O O17 0.500000 0.500000 0.588168
O O18 0.250000 0.579109 0.592890
O O19 0.250000 0.076502 0.570773
O O20 0.500000 0.000000 0.580771
O O21 0.500000 0.500000 0.900309
O O22 0.250000 0.577049 0.894295
#
# Coordination Sequence:
#
# PCOD9362466 Si02
#       8
#     8   8   8   8   8   8   8   8
#     4  11  20  30  45  64  85 113 147 178 213 257
#     4   7  14  27  42  58  79 108 138 170 207 249
#     4  10  18  30  46  62  83 114 148 180 217 258
#     4   9  17  31  46  62  85 112 142 177 216 254
#     4  10  20  33  46  61  84 113 145 182 220 256
#     4  10  18  29  43  61  86 114 145 178 213 253
#     4  11  20  30  44  64  89 117 149 181 214 254
#     4  10  20  32  45  62  84 111 144 182 220 257
#
# _framework density 14.454314
#
# number of rings (size 3 to 8) (size 9 to 14) (size 15 to 20)
#    0.000    2.250    0.000    6.375    0.000    1.500 
#    0.000    1.875    0.000    0.000    0.000    0.000 
#    0.000    1.000    0.000    5.250    0.000    4.875 
#
# Total GULP energy -178365.770107 kJ/mol
# GULP energy per Si atom -5573.930316 kJ/mol
# Density = 1.442142 g / cm^3
# Si number density = 14.454314 Si / 1000 Ang^3
#
#
#
# Elastic Constant Matrix: (Units=GPa)
#
#
# Indices 1 2 3 4 5 6 
#
# 1 85.3959 39.6514 32.9361 0.0000 0.0000 0.0000
# 2 39.6514 102.6953 42.6859 0.0000 0.0000 0.0000
# 3 32.9361 42.6859 61.8849 0.0000 0.0000 0.0000
# 4 0.0000 0.0000 0.0000 27.9531 0.0000 0.0000
# 5 0.0000 0.0000 0.0000 0.0000 18.0987 0.0000
# 6 0.0000 0.0000 0.0000 0.0000 0.0000 21.3035
#
#
#
# Elastic Compliance Matrix: (Units=1/GPa)
#
#
# Indices 1 2 3 4 5 6 
#
# 1 0.015637 -0.003615 -0.005829 0.000000 0.000000 0.000000
# 2 -0.003615 0.014487 -0.008069 0.000000 0.000000 0.000000
# 3 -0.005829 -0.008069 0.024827 0.000000 0.000000 0.000000
# 4 0.000000 0.000000 0.000000 0.035774 0.000000 0.000000
# 5 0.000000 0.000000 0.000000 0.000000 0.055253 0.000000
# 6 0.000000 0.000000 0.000000 0.000000 0.000000 0.046941
#
#
# Mechanical properties :
#
#
# Convention : Reuss Voigt Hill
#
# Bulk Modulus (GPa) = 50.18601 53.39143 51.78872
# Shear Modulus (GPa) = 21.31425 22.45121 21.88273
#
# Velocity S-wave (km/s) = 3.84421 3.94541 3.89514
# Velocity P-wave (km/s) = 7.38240 7.60087 7.49243
#
# Compressibility (1/GPa) = 0.01992587
#
# Stress axis : x y z
#
# Youngs Moduli (GPa) = 63.95241 69.02708 40.27900
#
# Poissons Ratio (x) = 0.24951 0.23478
# Poissons Ratio (y) = 0.23116 0.32501
# Poissons Ratio (z) = 0.37277 0.55697
#
# Static dielectric constant tensor:
#      x y z
#    x 1.487100 0.000000 0.000000 
#    y 0.000000 1.483390 0.000000 
#    z 0.000000 0.000000 1.467610 
# 
# From -- ./inp_files/25545.got.cif
#   From: 2010.05.17/outbox.cif.g08.bks.cpg/sg40_13_cif.got.tgz:25545.got - 2010.06.03 18:35:42.
