data_PCOD9362048
_publ_section_title
;
Structure prediction by ZEFSAII (Michael W. Deem and Ramdas Pophale) SiO2 
 PCOD9362048
Probable space group: A B M 2
;
_chemical_formula_sum "Si O2"
_cell_formula_units_Z 40
_cell_length_a 15.543150
_cell_length_b 9.027981
_cell_length_c 14.876834
_cell_angle_alpha 90.000000
_cell_angle_beta 90.000000
_cell_angle_gamma 90.000000
_cell_volume 2087.565888
_symmetry_space_group_name_H-M "A B M 2"
_symmetry_group_IT_number 39
_symmetry_cell_setting 'orthorhombic'
loop_
_space_group_symop_operation_xyz
x,y,z
-x,-y,z
-x,1/2+y,z
x,1/2-y,z
x,1/2+y,1/2+z
-x,1/2-y,1/2+z
-x,y,1/2+z
x,-y,1/2+z
loop_
_atom_site_type_symbol
_atom_site_label
_atom_site_fract_x
_atom_site_fract_y
_atom_site_fract_z
Si Si1 0.586313 0.920027 0.664900
Si Si2 0.413596 0.419764 0.884567
Si Si3 0.777018 0.069800 0.381694
Si Si4 0.773242 0.929682 0.672851
Si Si5 0.906253 0.571587 0.520808
O O1 0.582057 0.750000 0.635484
O O2 0.586690 0.921295 0.774730
O O3 0.679554 0.985672 0.640151
O O4 0.500000 0.000000 0.634801
O O5 0.500000 0.500000 0.914512
O O6 0.418363 0.250000 0.913270
O O7 0.319486 0.478858 0.910891
O O8 0.781114 0.250000 0.389200
O O9 0.786746 0.030240 0.276608
O O10 0.849987 0.992215 0.439189
O O11 0.766604 0.750000 0.671128
O O12 0.851496 0.971547 0.609297
O O13 0.912005 0.750000 0.516233
O O14 0.000000 0.500000 0.521815
#
# Coordination Sequence:
#
# PCOD9362048 Si02
#       5
#     8   8   8   8   8
#     4   8  13  25  46  73 102 135 170 205 246 296
#     4   8  14  25  46  74 105 138 172 208 249 297
#     4   9  18  36  58  80 107 141 177 216 260 309
#     4   8  17  35  57  77 105 142 175 209 258 312
#     4  11  23  39  57  78 103 134 173 222 272 320
#
# _framework density 19.161072000000001
#
# number of rings (size 3 to 8) (size 9 to 14) (size 15 to 20)
#    0.000    3.200    0.000    3.000    0.000    1.600 
#    0.000   10.000    0.000    4.800    0.000    0.000 
#    0.000    0.000    0.000    0.000    0.000    0.000 
#
# Total GULP energy -111489.860997 kJ/mol
# GULP energy per Si atom -5574.493050 kJ/mol
# Density = 1.911746 g / cm^3
# Si number density = 19.161072 Si / 1000 Ang^3
#
#
#
# Elastic Constant Matrix: (Units=GPa)
#
#
# Indices 1 2 3 4 5 6 
#
# 1 246.2962 69.3440 78.1596 0.0000 0.0000 0.0000
# 2 69.3440 41.7812 25.6285 0.0000 0.0000 0.0000
# 3 78.1596 25.6285 82.5403 0.0000 0.0000 0.0000
# 4 0.0000 0.0000 0.0000 11.3131 0.0000 0.0000
# 5 0.0000 0.0000 0.0000 0.0000 38.9192 0.0000
# 6 0.0000 0.0000 0.0000 0.0000 0.0000 32.0466
#
#
#
# Elastic Compliance Matrix: (Units=1/GPa)
#
#
# Indices 1 2 3 4 5 6 
#
# 1 0.008912 -0.011876 -0.004751 0.000000 0.000000 0.000000
# 2 -0.011876 0.045392 -0.002848 0.000000 0.000000 0.000000
# 3 -0.004751 -0.002848 0.017499 0.000000 0.000000 0.000000
# 4 0.000000 0.000000 0.000000 0.088393 0.000000 0.000000
# 5 0.000000 0.000000 0.000000 0.000000 0.025694 0.000000
# 6 0.000000 0.000000 0.000000 0.000000 0.000000 0.031205
#
#
# Mechanical properties :
#
#
# Convention : Reuss Voigt Hill
#
# Bulk Modulus (GPa) = 30.44025 79.65355 55.04690
# Shear Modulus (GPa) = 18.72692 29.62150 24.17421
#
# Velocity S-wave (km/s) = 3.12964 3.93609 3.55580
# Velocity P-wave (km/s) = 5.38336 7.89416 6.75642
#
# Compressibility (1/GPa) = 0.03285124
#
# Stress axis : x y z
#
# Youngs Moduli (GPa) = 112.21384 22.03025 57.14748
#
# Poissons Ratio (x) = 0.26163 0.27151
# Poissons Ratio (y) = 1.33267 0.16277
# Poissons Ratio (z) = 0.53314 0.06275
#
# Static dielectric constant tensor:
#      x y z
#    x 1.670840 0.000000 0.000000 
#    y 0.000000 1.656340 0.000000 
#    z 0.000000 0.000000 1.703600 
# 
# From -- ./inp_files/9045.got.cif
#   From: 2010.05.17/outbox.cif.g08.bks.cpg/sg39_5_cif.got.tgz:9045.got - 2010.06.03 18:22:40.
