data_PCOD9362061
_publ_section_title
;
Structure prediction by ZEFSAII (Michael W. Deem and Ramdas Pophale) SiO2 
 PCOD9362061
Probable space group: A B M 2
;
_chemical_formula_sum "Si O2"
_cell_formula_units_Z 64
_cell_length_a 14.031867
_cell_length_b 18.368411
_cell_length_c 12.157327
_cell_angle_alpha 90.000000
_cell_angle_beta 90.000000
_cell_angle_gamma 90.000000
_cell_volume 3133.467151
_symmetry_space_group_name_H-M "A B M 2"
_symmetry_group_IT_number 39
_symmetry_cell_setting 'orthorhombic'
loop_
_space_group_symop_operation_xyz
x,y,z
-x,-y,z
-x,1/2+y,z
x,1/2-y,z
x,1/2+y,1/2+z
-x,1/2-y,1/2+z
-x,y,1/2+z
x,-y,1/2+z
loop_
_atom_site_type_symbol
_atom_site_label
_atom_site_fract_x
_atom_site_fract_y
_atom_site_fract_z
Si Si1 0.709500 0.464601 0.168050
Si Si2 0.391705 0.166374 0.050529
Si Si3 0.323648 0.385795 0.280751
Si Si4 0.054690 0.330546 0.777167
Si Si5 0.733694 0.335124 0.337590
Si Si6 0.140451 0.667681 0.909897
Si Si7 0.440291 0.430272 0.478871
Si Si8 0.085703 0.552833 0.093869
O O1 0.675112 0.529797 0.244907
O O2 0.708418 0.389873 0.238442
O O3 0.644804 0.455560 0.059692
O O4 0.818151 0.485418 0.136440
O O5 0.417452 0.250000 0.032253
O O6 0.345120 0.157456 0.169727
O O7 0.484614 0.116824 0.047102
O O8 0.320649 0.145156 0.950277
O O9 0.223954 0.359467 0.330435
O O10 0.400114 0.382397 0.378890
O O11 0.063480 0.250000 0.723288
O O12 0.151393 0.340589 0.847511
O O13 0.048149 0.395703 0.691394
O O14 0.960270 0.329886 0.848395
O O15 0.712140 0.250000 0.312422
O O16 0.162760 0.750000 0.949133
O O17 0.125633 0.608490 0.003835
O O18 0.500000 0.500000 0.438186
O O19 0.000000 0.500000 0.057966
#
# Coordination Sequence:
#
# PCOD9362061 Si02
#       8
#     8   8   8   8   8   8   8   8
#     4  11  24  43  69  98 131 179 223 285 342 404
#     4  11  26  44  68 101 134 177 229 282 344 408
#     4  12  26  45  70  97 136 174 226 284 343 412
#     4   9  20  40  65  94 132 180 224 271 333 399
#     4   9  21  42  68 100 138 179 228 281 339 408
#     4  11  24  43  67  99 138 179 222 278 340 404
#     4  12  26  46  68  95 130 176 225 283 344 408
#     4  11  23  41  64  98 136 176 225 277 335 405
#
# _framework density 20.424659999999999
#
# number of rings (size 3 to 8) (size 9 to 14) (size 15 to 20)
#    0.000    1.250    2.500    2.250    3.500    6.500 
#    0.000    2.500    0.000    0.000    0.000    0.000 
#    0.000    0.000    0.000    0.000    0.000    0.000 
#
# Total GULP energy -178767.643003 kJ/mol
# GULP energy per Si atom -5586.488844 kJ/mol
# Density = 2.037817 g / cm^3
# Si number density = 20.424660 Si / 1000 Ang^3
#
#
#
# Elastic Constant Matrix: (Units=GPa)
#
#
# Indices 1 2 3 4 5 6 
#
# 1 57.0782 14.5819 9.2448 0.0000 0.0000 0.0000
# 2 14.5819 54.1179 0.5076 0.0000 0.0000 0.0000
# 3 9.2448 0.5076 46.6428 0.0000 0.0000 0.0000
# 4 0.0000 0.0000 0.0000 24.5515 0.0000 0.0000
# 5 0.0000 0.0000 0.0000 0.0000 28.9961 0.0000
# 6 0.0000 0.0000 0.0000 0.0000 0.0000 28.7888
#
#
#
# Elastic Compliance Matrix: (Units=1/GPa)
#
#
# Indices 1 2 3 4 5 6 
#
# 1 0.019466 -0.005210 -0.003802 0.000000 0.000000 0.000000
# 2 -0.005210 0.019874 0.000816 0.000000 0.000000 0.000000
# 3 -0.003802 0.000816 0.022184 0.000000 0.000000 0.000000
# 4 0.000000 0.000000 0.000000 0.040731 0.000000 0.000000
# 5 0.000000 0.000000 0.000000 0.000000 0.034487 0.000000
# 6 0.000000 0.000000 0.000000 0.000000 0.000000 0.034736
#
#
# Mechanical properties :
#
#
# Convention : Reuss Voigt Hill
#
# Bulk Modulus (GPa) = 22.15573 22.94527 22.55050
# Shear Modulus (GPa) = 24.64104 25.36758 25.00431
#
# Velocity S-wave (km/s) = 3.47715 3.52804 3.50268
# Velocity P-wave (km/s) = 5.19537 5.27774 5.23671
#
# Compressibility (1/GPa) = 0.04513505
#
# Stress axis : x y z
#
# Youngs Moduli (GPa) = 51.37042 50.31641 45.07724
#
# Poissons Ratio (x) = 0.26213 0.17137
# Poissons Ratio (y) = 0.26762 -0.03680
# Poissons Ratio (z) = 0.19529 -0.04107
#
# Static dielectric constant tensor:
#      x y z
#    x 1.704730 0.000000 0.000000 
#    y 0.000000 1.834220 0.000000 
#    z 0.000000 0.000000 1.700860 
# 
# From -- ./inp_files/6611.got.cif
#   From: 2010.05.17/outbox.cif.g08.bks.cpg/sg39_4_cif.got.tgz:6611.got - 2010.06.03 18:22:40.
