data_PCOD9362405
_publ_section_title
;
Structure prediction by ZEFSAII (Michael W. Deem and Ramdas Pophale) SiO2 
 PCOD9362405
Probable space group: A M A 2
;
_chemical_formula_sum "Si O2"
_cell_formula_units_Z 56
_cell_length_a 8.691000
_cell_length_b 22.749097
_cell_length_c 18.348650
_cell_angle_alpha 90.000000
_cell_angle_beta 90.000000
_cell_angle_gamma 90.000000
_cell_volume 3627.755665
_symmetry_space_group_name_H-M "A M A 2"
_symmetry_group_IT_number 40
_symmetry_cell_setting 'orthorhombic'
loop_
_space_group_symop_operation_xyz
x,y,z
-x,-y,z
1/2-x,y,z
1/2+x,-y,z
x,1/2+y,1/2+z
-x,1/2-y,1/2+z
1/2-x,1/2+y,1/2+z
1/2+x,1/2-y,1/2+z
loop_
_atom_site_type_symbol
_atom_site_label
_atom_site_fract_x
_atom_site_fract_y
_atom_site_fract_z
Si Si1 0.564857 0.845306 0.016470
Si Si2 0.067098 0.184208 0.172308
Si Si3 0.934356 0.310633 0.126118
Si Si4 0.932874 0.280807 0.968452
Si Si5 0.565388 0.434656 0.389709
Si Si6 0.433765 0.848079 0.769047
Si Si7 0.431914 0.279097 0.814882
O O1 0.750000 0.835735 0.013034
O O2 0.525271 0.854698 0.101720
O O3 0.485339 0.785793 0.987695
O O4 0.525694 0.898616 0.963249
O O5 0.250000 0.182007 0.183218
O O6 0.016966 0.249295 0.146169
O O7 0.984943 0.177852 0.249833
O O8 0.750000 0.303938 0.134243
O O9 0.997094 0.354203 0.187614
O O10 0.967074 0.319451 0.040605
O O11 0.750000 0.280904 0.956848
O O12 0.016285 0.299218 0.894621
O O13 0.500000 0.500000 0.391570
O O14 0.750000 0.435754 0.383240
O O15 0.495809 0.397768 0.322840
O O16 0.250000 0.848047 0.766426
O O17 0.490436 0.784650 0.799686
O O18 0.250000 0.270819 0.811909
#
# Coordination Sequence:
#
# PCOD9362405 Si02
#       7
#     8   8   8   8   8   8   8
#     4   9  18  31  46  61  84 116 148 186 228 264
#     4   9  16  27  42  61  83 112 148 181 217 266
#     4   9  17  28  42  62  86 114 146 182 220 265
#     4  10  18  27  43  65  89 118 152 182 217 266
#     4  11  22  35  49  67  89 118 155 195 231 267
#     4  11  20  31  46  63  85 117 152 187 227 269
#     4  11  19  27  41  63  91 121 149 181 221 265
#
# _framework density 15.436541
#
# number of rings (size 3 to 8) (size 9 to 14) (size 15 to 20)
#    0.000    2.000    1.429    6.000    0.000    2.857 
#    0.000    0.000    0.000    0.000    0.000    0.000 
#    0.000    1.143    0.000    7.714    0.000    5.571 
#
# Total GULP energy -156051.953184 kJ/mol
# GULP energy per Si atom -5573.284042 kJ/mol
# Density = 1.540141 g / cm^3
# Si number density = 15.436541 Si / 1000 Ang^3
#
#
#
# Elastic Constant Matrix: (Units=GPa)
#
#
# Indices 1 2 3 4 5 6 
#
# 1 65.5517 18.8610 48.1330 0.0000 0.0000 0.0000
# 2 18.8610 45.7506 40.6853 0.0000 0.0000 0.0000
# 3 48.1330 40.6853 159.8088 0.0000 0.0000 0.0000
# 4 0.0000 0.0000 0.0000 12.5492 0.0000 0.0000
# 5 0.0000 0.0000 0.0000 0.0000 27.2287 0.0000
# 6 0.0000 0.0000 0.0000 0.0000 0.0000 14.1882
#
#
#
# Elastic Compliance Matrix: (Units=1/GPa)
#
#
# Indices 1 2 3 4 5 6 
#
# 1 0.020072 -0.003747 -0.005092 0.000000 0.000000 0.000000
# 2 -0.003747 0.028954 -0.006243 0.000000 0.000000 0.000000
# 3 -0.005092 -0.006243 0.009380 0.000000 0.000000 0.000000
# 4 0.000000 0.000000 0.000000 0.079686 0.000000 0.000000
# 5 0.000000 0.000000 0.000000 0.000000 0.036726 0.000000
# 6 0.000000 0.000000 0.000000 0.000000 0.000000 0.070481
#
#
# Mechanical properties :
#
#
# Convention : Reuss Voigt Hill
#
# Bulk Modulus (GPa) = 35.40624 54.05220 44.72922
# Shear Modulus (GPa) = 17.55148 21.68868 19.62008
#
# Velocity S-wave (km/s) = 3.37561 3.75243 3.56900
# Velocity P-wave (km/s) = 6.17895 7.33935 6.78401
#
# Compressibility (1/GPa) = 0.02824361
#
# Stress axis : x y z
#
# Youngs Moduli (GPa) = 49.82110 34.53765 106.60606
#
# Poissons Ratio (x) = 0.12941 0.54279
# Poissons Ratio (y) = 0.18668 0.66551
# Poissons Ratio (z) = 0.25367 0.21561
#
# Static dielectric constant tensor:
#      x y z
#    x 1.514060 0.000000 0.000000 
#    y 0.000000 1.467340 0.000000 
#    z 0.000000 0.000000 1.581120 
# 
# From -- ./inp_files/19510.got.cif
#   From: 2010.05.17/outbox.cif.g08.bks.cpg/sg40_10_cif.got.tgz:19510.got - 2010.06.03 18:35:42.
