data_PCOD9362836
_publ_section_title
;
Structure prediction by ZEFSAII (Michael W. Deem and Ramdas Pophale) SiO2 
 PCOD9362836
Probable space group: A M A 2
;
_chemical_formula_sum "Si O2"
_cell_formula_units_Z 48
_cell_length_a 20.663262
_cell_length_b 19.323960
_cell_length_c 5.240225
_cell_angle_alpha 90.000000
_cell_angle_beta 90.000000
_cell_angle_gamma 90.000000
_cell_volume 2092.401135
_symmetry_space_group_name_H-M "A M A 2"
_symmetry_group_IT_number 40
_symmetry_cell_setting 'orthorhombic'
loop_
_space_group_symop_operation_xyz
x,y,z
-x,-y,z
1/2-x,y,z
1/2+x,-y,z
x,1/2+y,1/2+z
-x,1/2-y,1/2+z
1/2-x,1/2+y,1/2+z
1/2+x,1/2-y,1/2+z
loop_
_atom_site_type_symbol
_atom_site_label
_atom_site_fract_x
_atom_site_fract_y
_atom_site_fract_z
Si Si1 0.500000 0.000000 0.175421
Si Si2 0.640111 0.289835 0.755855
Si Si3 0.250000 0.164081 0.551523
Si Si4 0.629264 0.561755 0.516774
Si Si5 0.150549 0.089945 0.881249
Si Si6 0.116708 0.354719 0.026476
Si Si7 0.463159 0.121659 0.528513
O O1 0.460180 0.052076 0.357705
O O2 0.552213 0.043359 0.019522
O O3 0.692788 0.280245 0.974304
O O4 0.669195 0.353018 0.590077
O O5 0.632516 0.225218 0.570422
O O6 0.573617 0.316408 0.881159
O O7 0.193935 0.107893 0.639233
O O8 0.660236 0.486004 0.492709
O O9 0.639068 0.607595 0.768473
O O10 0.645307 0.604254 0.266050
O O11 0.077066 0.105213 0.785658
O O12 0.038561 0.361261 0.047823
#
# Coordination Sequence:
#
# PCOD9362836 Si02
#       7
#     4   8   4   8   8   8   8
#     4  10  18  40  62 104 138 182 216 272 344 426
#     4  11  25  44  69 100 137 187 241 290 359 426
#     4  10  26  46  74  94 134 184 260 302 348 410
#     4  11  23  42  66 100 141 182 222 285 351 426
#     4  11  22  44  72  95 132 186 245 290 350 420
#     4  11  27  40  67 106 152 177 223 288 371 433
#     4  10  22  36  68 101 143 178 228 284 358 435
#
# _framework density 22.940151
#
# number of rings (size 3 to 8) (size 9 to 14) (size 15 to 20)
#    0.000    1.333    1.667    3.500   11.667    0.667 
#    0.000    1.667    0.000    0.000    0.000    0.000 
#    0.000    0.000    0.000    0.000    0.000    0.000 
#
# Total GULP energy -133685.035048 kJ/mol
# GULP energy per Si atom -5570.209794 kJ/mol
# Density = 2.288794 g / cm^3
# Si number density = 22.940151 Si / 1000 Ang^3
#
#
#
# Elastic Constant Matrix: (Units=GPa)
#
#
# Indices 1 2 3 4 5 6 
#
# 1 49.7390 23.0924 10.7279 0.0000 0.0000 0.0000
# 2 23.0924 155.7716 70.0289 0.0000 0.0000 0.0000
# 3 10.7279 70.0289 109.2631 0.0000 0.0000 0.0000
# 4 0.0000 0.0000 0.0000 48.8412 0.0000 0.0000
# 5 0.0000 0.0000 0.0000 0.0000 -60.8093 0.0000
# 6 0.0000 0.0000 0.0000 0.0000 0.0000 1.5023
#
#
#
# Elastic Compliance Matrix: (Units=1/GPa)
#
#
# Indices 1 2 3 4 5 6 
#
# 1 0.021592 -0.003158 -0.000096 0.000000 0.000000 0.000000
# 2 -0.003158 0.009480 -0.005766 0.000000 0.000000 0.000000
# 3 -0.000096 -0.005766 0.012857 0.000000 0.000000 0.000000
# 4 0.000000 0.000000 0.000000 0.020475 0.000000 0.000000
# 5 0.000000 0.000000 0.000000 0.000000 -0.016445 0.000000
# 6 0.000000 0.000000 0.000000 0.000000 0.000000 0.665659
#
#
# Mechanical properties :
#
#
# Convention : Reuss Voigt Hill
#
# Bulk Modulus (GPa) = 38.62581 58.05244 48.33912
# Shear Modulus (GPa) = 6.75414 11.96848 9.36131
#
# Velocity S-wave (km/s) = 1.71774 2.28661 2.02228
# Velocity P-wave (km/s) = 4.56162 5.68616 5.15465
#
# Compressibility (1/GPa) = 0.02588943
#
# Stress axis : x y z
#
# Youngs Moduli (GPa) = 46.31413 105.48711 77.77822
#
# Poissons Ratio (x) = 0.33309 0.00748
# Poissons Ratio (y) = 0.14624 0.44845
# Poissons Ratio (z) = 0.00445 0.60822
#
# Static dielectric constant tensor:
#      x y z
#    x 1.874960 0.000000 0.000000 
#    y 0.000000 1.871360 0.000000 
#    z 0.000000 0.000000 1.960010 
# 
# From -- ./inp_files/2746.got.cif
#   From: 2010.05.17/outbox.cif.g08.bks.cpg/sg40_2_cif.got.tgz:2746.got - 2010.06.03 18:35:42.
