data_PCOD9362914
_publ_section_title
;
Structure prediction by ZEFSAII (Michael W. Deem and Ramdas Pophale) SiO2 
 PCOD9362914
Probable space group: A M A 2
;
_chemical_formula_sum "Si O2"
_cell_formula_units_Z 64
_cell_length_a 7.829552
_cell_length_b 21.156473
_cell_length_c 20.432250
_cell_angle_alpha 90.000000
_cell_angle_beta 90.000000
_cell_angle_gamma 90.000000
_cell_volume 3384.514466
_symmetry_space_group_name_H-M "A M A 2"
_symmetry_group_IT_number 40
_symmetry_cell_setting 'orthorhombic'
loop_
_space_group_symop_operation_xyz
x,y,z
-x,-y,z
1/2-x,y,z
1/2+x,-y,z
x,1/2+y,1/2+z
-x,1/2-y,1/2+z
1/2-x,1/2+y,1/2+z
1/2+x,1/2-y,1/2+z
loop_
_atom_site_type_symbol
_atom_site_label
_atom_site_fract_x
_atom_site_fract_y
_atom_site_fract_z
Si Si1 0.049148 0.751680 0.959860
Si Si2 0.048153 0.692496 0.593840
Si Si3 0.050891 0.392018 0.957882
Si Si4 0.959480 0.688625 0.180589
Si Si5 0.546746 0.069996 0.175076
Si Si6 0.955231 0.736089 0.316847
Si Si7 0.544330 0.569071 0.096968
Si Si8 0.043987 0.883736 0.313887
O O1 0.250000 0.737226 0.953303
O O2 0.987184 0.779681 0.890490
O O3 0.959888 0.683763 0.969386
O O4 0.025040 0.796496 0.021733
O O5 0.250000 0.700809 0.587733
O O6 0.984637 0.749148 0.640687
O O7 0.014144 0.625730 0.627779
O O8 0.250000 0.410099 0.954934
O O9 0.976862 0.404772 0.885451
O O10 0.974718 0.423271 0.022778
O O11 0.750000 0.688445 0.180843
O O12 0.019003 0.695955 0.255351
O O13 0.016875 0.626180 0.142616
O O14 0.750000 0.075083 0.178326
O O15 0.478606 0.081190 0.249193
O O16 0.500000 0.000000 0.152613
O O17 0.750000 0.731061 0.315852
O O18 0.001236 0.809631 0.306264
O O19 0.500000 0.500000 0.122393
O O20 0.750000 0.574966 0.093451
O O21 0.250000 0.889380 0.315915
#
# Coordination Sequence:
#
# PCOD9362914 Si02
#       8
#     8   8   8   8   8   8   8   8
#     4  10  19  30  50  81 109 131 168 221 265 308
#     4  11  20  35  58  78 102 140 178 219 266 319
#     4   9  17  32  50  71 104 144 178 207 253 312
#     4   9  17  32  54  76  99 134 176 212 258 312
#     4  11  23  37  52  77 109 143 180 222 267 316
#     4   9  17  31  52  77 104 135 171 212 260 313
#     4  10  20  34  50  72 102 138 176 214 254 304
#     4   9  18  31  49  74 105 138 173 214 253 300
#
# _framework density 18.909652999999999
#
# number of rings (size 3 to 8) (size 9 to 14) (size 15 to 20)
#    0.000    2.250    2.500    1.125    0.000    2.000 
#    0.000    0.625    0.000    0.750    0.000    1.750 
#    0.000    0.000    0.000    0.000    0.000    0.000 
#
# Total GULP energy -178526.262460 kJ/mol
# GULP energy per Si atom -5578.945702 kJ/mol
# Density = 1.886661 g / cm^3
# Si number density = 18.909653 Si / 1000 Ang^3
#
#
#
# Elastic Constant Matrix: (Units=GPa)
#
#
# Indices 1 2 3 4 5 6 
#
# 1 18.0289 -13.3381 5.4392 0.0000 0.0000 0.0000
# 2 -13.3381 95.5042 61.8467 0.0000 0.0000 0.0000
# 3 5.4392 61.8467 125.0313 0.0000 0.0000 0.0000
# 4 0.0000 0.0000 0.0000 22.2383 0.0000 0.0000
# 5 0.0000 0.0000 0.0000 0.0000 12.2238 0.0000
# 6 0.0000 0.0000 0.0000 0.0000 0.0000 17.3492
#
#
#
# Elastic Compliance Matrix: (Units=1/GPa)
#
#
# Indices 1 2 3 4 5 6 
#
# 1 0.072284 0.017849 -0.011974 0.000000 0.000000 0.000000
# 2 0.017849 0.019813 -0.010577 0.000000 0.000000 0.000000
# 3 -0.011974 -0.010577 0.013751 0.000000 0.000000 0.000000
# 4 0.000000 0.000000 0.000000 0.044967 0.000000 0.000000
# 5 0.000000 0.000000 0.000000 0.000000 0.081808 0.000000
# 6 0.000000 0.000000 0.000000 0.000000 0.000000 0.057640
#
#
# Mechanical properties :
#
#
# Convention : Reuss Voigt Hill
#
# Bulk Modulus (GPa) = 10.36864 38.49554 24.43209
# Shear Modulus (GPa) = 15.06872 22.67005 18.86939
#
# Velocity S-wave (km/s) = 2.82597 3.46621 3.16234
# Velocity P-wave (km/s) = 4.01787 6.03501 5.12663
#
# Compressibility (1/GPa) = 0.09644466
#
# Stress axis : x y z
#
# Youngs Moduli (GPa) = 13.83434 50.47203 72.72331
#
# Poissons Ratio (x) = -0.90088 0.87076
# Poissons Ratio (y) = -0.24693 0.76919
# Poissons Ratio (z) = 0.16565 0.53384
#
# Static dielectric constant tensor:
#      x y z
#    x 1.686250 0.000000 0.000000 
#    y 0.000000 1.613300 0.000000 
#    z 0.000000 0.000000 1.703530 
# 
# From -- ./inp_files/22410.got.cif
#   From: 2010.05.17/outbox.cif.g08.bks.cpg/sg40_12_cif.got.tgz:22410.got - 2010.06.03 18:35:42.
