data_PCOD9362659
_publ_section_title
;
Structure prediction by ZEFSAII (Michael W. Deem and Ramdas Pophale) SiO2 
 PCOD9362659
Probable space group: A M A 2
;
_chemical_formula_sum "Si O2"
_cell_formula_units_Z 64
_cell_length_a 8.385028
_cell_length_b 25.872793
_cell_length_c 15.454530
_cell_angle_alpha 90.000000
_cell_angle_beta 90.000000
_cell_angle_gamma 90.000000
_cell_volume 3352.769005
_symmetry_space_group_name_H-M "A M A 2"
_symmetry_group_IT_number 40
_symmetry_cell_setting 'orthorhombic'
loop_
_space_group_symop_operation_xyz
x,y,z
-x,-y,z
1/2-x,y,z
1/2+x,-y,z
x,1/2+y,1/2+z
-x,1/2-y,1/2+z
1/2-x,1/2+y,1/2+z
1/2+x,1/2-y,1/2+z
loop_
_atom_site_type_symbol
_atom_site_label
_atom_site_fract_x
_atom_site_fract_y
_atom_site_fract_z
Si Si1 0.056592 0.234428 0.143180
Si Si2 0.942769 0.057045 0.541436
Si Si3 0.944717 0.607970 0.864212
Si Si4 0.060800 0.835067 0.859235
Si Si5 0.940523 0.558508 0.683335
Si Si6 0.939858 0.364981 0.537208
Si Si7 0.444214 0.349790 0.162685
Si Si8 0.060368 0.777459 0.337688
O O1 0.250000 0.232963 0.152169
O O2 0.008099 0.190914 0.075136
O O3 0.012216 0.293761 0.123239
O O4 0.980567 0.220814 0.235688
O O5 0.750000 0.057457 0.542001
O O6 0.995756 0.073188 0.444840
O O7 0.999044 0.101478 0.607388
O O8 0.000000 0.000000 0.563844
O O9 0.750000 0.608273 0.862731
O O10 0.999857 0.585732 0.772004
O O11 0.993818 0.667676 0.875815
O O12 0.250000 0.840463 0.859219
O O13 0.001989 0.849827 0.762842
O O14 0.017843 0.774751 0.872355
O O15 0.991515 0.867738 0.937919
O O16 0.750000 0.558351 0.686826
O O17 0.000000 0.500000 0.679220
O O18 0.992974 0.591465 0.600500
O O19 0.750000 0.366918 0.541843
O O20 0.250000 0.351146 0.163337
O O21 0.250000 0.772893 0.350295
#
# Coordination Sequence:
#
# PCOD9362659 Si02
#       8
#     8   8   8   8   8   8   8   8
#     4   9  18  33  54  81 111 145 186 228 279 343
#     4  10  20  37  58  80 108 144 189 234 277 331
#     4   9  19  33  55  83 115 152 187 225 279 341
#     4  10  21  37  55  81 116 153 191 238 290 344
#     4  11  22  39  58  83 117 156 195 239 289 345
#     4  11  22  36  58  87 114 150 195 241 291 348
#     4   8  17  35  58  78 105 147 188 228 281 337
#     4  10  18  32  54  83 115 150 188 225 277 341
#
# _framework density 19.088699999999999
#
# number of rings (size 3 to 8) (size 9 to 14) (size 15 to 20)
#    0.000    2.250    1.250    2.625    1.750    0.500 
#    0.000    5.625    0.000    1.500    0.000    0.000 
#    0.000    0.000    0.000    0.000    0.000    0.000 
#
# Total GULP energy -178615.194969 kJ/mol
# GULP energy per Si atom -5581.724843 kJ/mol
# Density = 1.904525 g / cm^3
# Si number density = 19.088700 Si / 1000 Ang^3
#
#
#
# Elastic Constant Matrix: (Units=GPa)
#
#
# Indices 1 2 3 4 5 6 
#
# 1 19.4709 13.5688 13.8976 0.0000 0.0000 0.0000
# 2 13.5688 126.1342 59.1946 0.0000 0.0000 0.0000
# 3 13.8976 59.1946 86.3407 0.0000 0.0000 0.0000
# 4 0.0000 0.0000 0.0000 22.2388 0.0000 0.0000
# 5 0.0000 0.0000 0.0000 0.0000 15.0541 0.0000
# 6 0.0000 0.0000 0.0000 0.0000 0.0000 25.0242
#
#
#
# Elastic Compliance Matrix: (Units=1/GPa)
#
#
# Indices 1 2 3 4 5 6 
#
# 1 0.058675 -0.002771 -0.007544 0.000000 0.000000 0.000000
# 2 -0.002771 0.011820 -0.007658 0.000000 0.000000 0.000000
# 3 -0.007544 -0.007658 0.018046 0.000000 0.000000 0.000000
# 4 0.000000 0.000000 0.000000 0.044966 0.000000 0.000000
# 5 0.000000 0.000000 0.000000 0.000000 0.066427 0.000000
# 6 0.000000 0.000000 0.000000 0.000000 0.000000 0.039961
#
#
# Mechanical properties :
#
#
# Convention : Reuss Voigt Hill
#
# Bulk Modulus (GPa) = 19.01342 45.02977 32.02159
# Shear Modulus (GPa) = 17.04310 22.14908 19.59609
#
# Velocity S-wave (km/s) = 2.99128 3.41005 3.20751
# Velocity P-wave (km/s) = 4.68108 6.25664 5.52531
#
# Compressibility (1/GPa) = 0.05259444
#
# Stress axis : x y z
#
# Youngs Moduli (GPa) = 17.04307 84.60345 55.41287
#
# Poissons Ratio (x) = 0.23446 0.41806
# Poissons Ratio (y) = 0.04723 0.42433
# Poissons Ratio (z) = 0.12858 0.64785
#
# Static dielectric constant tensor:
#      x y z
#    x 1.662030 0.000000 0.000000 
#    y 0.000000 1.647800 0.000000 
#    z 0.000000 0.000000 1.670600 
# 
# From -- ./inp_files/15663.got.cif
#   From: 2010.05.17/outbox.cif.g08.bks.cpg/sg40_8_cif.got.tgz:15663.got - 2010.06.03 18:35:42.
