data_PCOD9362042
_publ_section_title
;
Structure prediction by ZEFSAII (Michael W. Deem and Ramdas Pophale) SiO2 
 PCOD9362042
Probable space group: A B M 2
;
_chemical_formula_sum "Si O2"
_cell_formula_units_Z 40
_cell_length_a 6.677030
_cell_length_b 21.152555
_cell_length_c 13.035792
_cell_angle_alpha 90.000000
_cell_angle_beta 90.000000
_cell_angle_gamma 90.000000
_cell_volume 1841.126304
_symmetry_space_group_name_H-M "A B M 2"
_symmetry_group_IT_number 39
_symmetry_cell_setting 'orthorhombic'
loop_
_space_group_symop_operation_xyz
x,y,z
-x,-y,z
-x,1/2+y,z
x,1/2-y,z
x,1/2+y,1/2+z
-x,1/2-y,1/2+z
-x,y,1/2+z
x,-y,1/2+z
loop_
_atom_site_type_symbol
_atom_site_label
_atom_site_fract_x
_atom_site_fract_y
_atom_site_fract_z
Si Si1 0.719049 0.250000 0.754810
Si Si2 0.486916 0.250000 0.464923
Si Si3 0.944078 0.353702 0.265483
Si Si4 0.833865 0.957443 0.136969
Si Si5 0.334806 0.110478 0.942888
Si Si6 0.500000 0.500000 0.798467
Si Si7 0.676163 0.750000 0.658827
O O1 0.565236 0.250000 0.845866
O O2 0.567172 0.250000 0.659521
O O3 0.862957 0.190984 0.766576
O O4 0.585703 0.319704 0.471777
O O5 0.289155 0.250000 0.537016
O O6 0.863716 0.376052 0.375034
O O7 0.770343 0.311503 0.211909
O O8 0.019201 0.410697 0.197489
O O9 0.688238 0.988403 0.222248
O O10 0.704367 0.924204 0.049840
O O11 0.000000 0.000000 0.080928
O O12 0.463423 0.062378 0.869944
#
# Coordination Sequence:
#
# PCOD9362042 Si02
#       7
#     4   4   8   8   8   4   4
#     4  11  22  45  70 100 148 188 236 306 375 436
#     4  12  25  44  79 111 147 197 245 307 386 449
#     4  11  25  46  70 105 147 192 249 307 374 446
#     4  12  28  47  75 109 147 202 255 309 379 455
#     4  12  27  48  79 110 153 195 258 308 385 457
#     4  12  28  54  76 110 156 204 248 324 376 458
#     4  11  25  45  69 107 147 195 241 311 373 453
#
# _framework density 21.725833000000002
#
# number of rings (size 3 to 8) (size 9 to 14) (size 15 to 20)
#    0.000    0.400    4.000    3.600    8.400    2.400 
#    0.000    0.000    0.000    0.000    0.000    0.000 
#    0.000    0.000    0.000    0.000    0.000    0.000 
#
# Total GULP energy -111600.588767 kJ/mol
# GULP energy per Si atom -5580.029438 kJ/mol
# Density = 2.167638 g / cm^3
# Si number density = 21.725833 Si / 1000 Ang^3
#
#
#
# Elastic Constant Matrix: (Units=GPa)
#
#
# Indices 1 2 3 4 5 6 
#
# 1 77.5409 48.7245 22.7694 0.0000 0.0000 0.0000
# 2 48.7245 110.0151 46.7920 0.0000 0.0000 0.0000
# 3 22.7694 46.7920 98.6031 0.0000 0.0000 0.0000
# 4 0.0000 0.0000 0.0000 51.5327 0.0000 0.0000
# 5 0.0000 0.0000 0.0000 0.0000 21.7468 0.0000
# 6 0.0000 0.0000 0.0000 0.0000 0.0000-1264.9214
#
#
#
# Elastic Compliance Matrix: (Units=1/GPa)
#
#
# Indices 1 2 3 4 5 6 
#
# 1 0.017886 -0.007724 -0.000465 0.000000 0.000000 0.000000
# 2 -0.007724 0.014724 -0.005203 0.000000 0.000000 0.000000
# 3 -0.000465 -0.005203 0.012718 0.000000 0.000000 0.000000
# 4 0.000000 0.000000 0.000000 0.019405 0.000000 0.000000
# 5 0.000000 0.000000 0.000000 0.000000 0.045984 0.000000
# 6 0.000000 0.000000 0.000000 0.000000 0.000000 -0.000791
#
#
# Mechanical properties :
#
#
# Convention : Reuss Voigt Hill
#
# Bulk Modulus (GPa) = 53.92666 58.08120 56.00393
# Shear Modulus (GPa) = 34.99121 -227.13685 -96.07282
#
# Velocity S-wave (km/s) = 4.01756 -10.23591 -6.65707
# Velocity P-wave (km/s) = 6.81149 10.62576 5.76673
#
# Compressibility (1/GPa) = 0.01854370
#
# Stress axis : x y z
#
# Youngs Moduli (GPa) = 55.90814 67.91769 78.62657
#
# Poissons Ratio (x) = 0.52460 0.03656
# Poissons Ratio (y) = 0.43183 0.40913
# Poissons Ratio (z) = 0.02599 0.35341
#
# Static dielectric constant tensor:
#      x y z
#    x 1.859030 0.000000 0.000000 
#    y 0.000000 1.645650 0.000000 
#    z 0.000000 0.000000 1.754460 
# 
# From -- ./inp_files/7439.got.cif
#   From: 2010.05.17/outbox.cif.g08.bks.cpg/sg39_4_cif.got.tgz:7439.got - 2010.06.03 18:22:40.
