data_PCOD9362787
_publ_section_title
;
Structure prediction by ZEFSAII (Michael W. Deem and Ramdas Pophale) SiO2 
 PCOD9362787
Probable space group: A M A 2
;
_chemical_formula_sum "Si O2"
_cell_formula_units_Z 48
_cell_length_a 10.354986
_cell_length_b 8.573791
_cell_length_c 28.418839
_cell_angle_alpha 90.000000
_cell_angle_beta 90.000000
_cell_angle_gamma 90.000000
_cell_volume 2523.066750
_symmetry_space_group_name_H-M "A M A 2"
_symmetry_group_IT_number 40
_symmetry_cell_setting 'orthorhombic'
loop_
_space_group_symop_operation_xyz
x,y,z
-x,-y,z
1/2-x,y,z
1/2+x,-y,z
x,1/2+y,1/2+z
-x,1/2-y,1/2+z
1/2-x,1/2+y,1/2+z
1/2+x,1/2-y,1/2+z
loop_
_atom_site_type_symbol
_atom_site_label
_atom_site_fract_x
_atom_site_fract_y
_atom_site_fract_z
Si Si1 0.601804 0.139514 0.114400
Si Si2 0.250000 0.842408 0.947952
Si Si3 0.483357 0.811508 0.014410
Si Si4 0.250000 0.195750 0.344740
Si Si5 0.750000 0.169686 0.365508
Si Si6 0.102498 0.637222 0.204067
Si Si7 0.482492 0.186128 0.806794
Si Si8 0.250000 0.715949 0.469792
O O1 0.750000 0.082210 0.108418
O O2 0.564593 0.230566 0.066477
O O3 0.596148 0.246262 0.160326
O O4 0.500000 0.000000 0.119637
O O5 0.250000 0.792338 0.893813
O O6 0.250000 0.030687 0.955499
O O7 0.376084 0.779183 0.975002
O O8 0.500000 0.000000 0.015790
O O9 0.621926 0.748593 0.999397
O O10 0.379120 0.239160 0.316738
O O11 0.250000 0.012669 0.354650
O O12 0.623983 0.250137 0.342826
O O13 0.750000 0.193730 0.421082
O O14 0.250000 0.577550 0.207797
O O15 0.000000 0.500000 0.197149
O O16 0.067005 0.715974 0.253867
O O17 0.500000 0.000000 0.812104
#
# Coordination Sequence:
#
# PCOD9362787 Si02
#       8
#     8   4   8   4   4   8   8   4
#     4  10  21  38  61  93 127 160 200 253 308 362
#     4  10  18  36  57  84 113 163 210 245 299 364
#     4   9  18  33  57  86 115 155 207 255 290 351
#     4  12  26  38  63  94 129 163 200 265 327 362
#     4  12  24  42  59  94 133 157 204 269 319 370
#     4  10  23  43  65  91 121 157 205 255 302 365
#     4  11  23  43  66  89 119 170 215 252 301 377
#     4  10  20  34  59  82 117 161 212 255 295 368
#
# _framework density 19.024467999999999
#
# number of rings (size 3 to 8) (size 9 to 14) (size 15 to 20)
#    0.000    1.667    1.667    3.000    7.000    3.333 
#    0.000    1.667    0.000    0.000    0.000    0.000 
#    0.000    0.000    0.000    0.000    0.000    0.000 
#
# Total GULP energy -134070.586554 kJ/mol
# GULP energy per Si atom -5586.274440 kJ/mol
# Density = 1.898117 g / cm^3
# Si number density = 19.024468 Si / 1000 Ang^3
#
#
#
# Elastic Constant Matrix: (Units=GPa)
#
#
# Indices 1 2 3 4 5 6 
#
# 1 198.2189 36.2939 70.1773 0.0000 0.0000 0.0000
# 2 36.2939 42.0309 26.3012 0.0000 0.0000 0.0000
# 3 70.1773 26.3012 103.7400 0.0000 0.0000 0.0000
# 4 0.0000 0.0000 0.0000 18.3753 0.0000 0.0000
# 5 0.0000 0.0000 0.0000 0.0000 22.8043 0.0000
# 6 0.0000 0.0000 0.0000 0.0000 0.0000 32.8249
#
#
#
# Elastic Compliance Matrix: (Units=1/GPa)
#
#
# Indices 1 2 3 4 5 6 
#
# 1 0.007089 -0.003709 -0.003855 0.000000 0.000000 0.000000
# 2 -0.003709 0.030219 -0.005152 0.000000 0.000000 0.000000
# 3 -0.003855 -0.005152 0.013554 0.000000 0.000000 0.000000
# 4 0.000000 0.000000 0.000000 0.054421 0.000000 0.000000
# 5 0.000000 0.000000 0.000000 0.000000 0.043851 0.000000
# 6 0.000000 0.000000 0.000000 0.000000 0.000000 0.030465
#
#
# Mechanical properties :
#
#
# Convention : Reuss Voigt Hill
#
# Bulk Modulus (GPa) = 39.32595 67.72606 53.52601
# Shear Modulus (GPa) = 23.41840 28.88206 26.15023
#
# Velocity S-wave (km/s) = 3.51231 3.90058 3.71153
# Velocity P-wave (km/s) = 6.09628 7.48082 6.82376
#
# Compressibility (1/GPa) = 0.02542850
#
# Stress axis : x y z
#
# Youngs Moduli (GPa) = 141.06575 33.09196 73.78082
#
# Poissons Ratio (x) = 0.12274 0.28443
# Poissons Ratio (y) = 0.52320 0.38015
# Poissons Ratio (z) = 0.54383 0.17050
#
# Static dielectric constant tensor:
#      x y z
#    x 1.655840 0.000000 0.000000 
#    y 0.000000 1.643680 0.000000 
#    z 0.000000 0.000000 1.653840 
# 
# From -- ./inp_files/26209.got.cif
#   From: 2010.05.17/outbox.cif.g08.bks.cpg/sg40_14_cif.got.tgz:26209.got - 2010.06.03 18:35:42.
