data_PCOD9362368
_publ_section_title
;
Structure prediction by ZEFSAII (Michael W. Deem and Ramdas Pophale) SiO2 
 PCOD9362368
Probable space group: A M A 2
;
_chemical_formula_sum "Si O2"
_cell_formula_units_Z 52
_cell_length_a 23.838507
_cell_length_b 12.179423
_cell_length_c 7.510155
_cell_angle_alpha 90.000000
_cell_angle_beta 90.000000
_cell_angle_gamma 90.000000
_cell_volume 2180.492849
_symmetry_space_group_name_H-M "A M A 2"
_symmetry_group_IT_number 40
_symmetry_cell_setting 'orthorhombic'
loop_
_space_group_symop_operation_xyz
x,y,z
-x,-y,z
1/2-x,y,z
1/2+x,-y,z
x,1/2+y,1/2+z
-x,1/2-y,1/2+z
1/2-x,1/2+y,1/2+z
1/2+x,1/2-y,1/2+z
loop_
_atom_site_type_symbol
_atom_site_label
_atom_site_fract_x
_atom_site_fract_y
_atom_site_fract_z
Si Si1 0.127890 0.348555 0.382840
Si Si2 0.131150 0.866903 0.289576
Si Si3 0.865978 0.398998 0.761854
Si Si4 0.947457 0.810143 0.975083
Si Si5 0.250000 0.636654 0.572037
Si Si6 0.250000 0.260661 0.733658
Si Si7 0.750000 0.668144 0.336758
Si Si8 0.017605 0.390280 0.163042
O O1 0.111965 0.375862 0.584163
O O2 0.135261 0.215853 0.367289
O O3 0.190538 0.393860 0.343310
O O4 0.080397 0.384279 0.243851
O O5 0.097578 0.771835 0.387032
O O6 0.194993 0.828392 0.283905
O O7 0.125671 0.988770 0.368645
O O8 0.916618 0.379366 0.624956
O O9 0.807396 0.412668 0.652152
O O10 0.975958 0.884670 0.829632
O O11 0.991152 0.722571 0.056148
O O12 0.250000 0.653315 0.359493
O O13 0.250000 0.758416 0.660446
O O14 0.250000 0.256257 0.517930
O O15 0.000000 0.500000 0.060383
#
# Coordination Sequence:
#
# PCOD9362368 Si02
#       8
#     8   8   8   8   4   4   4   8
#     4   9  20  39  62  89 124 156 202 259 305 369
#     4  11  21  38  63  90 123 166 209 255 318 376
#     4  10  21  38  63  89 123 168 206 256 322 367
#     4  11  24  39  60  88 119 159 207 262 309 375
#     4  10  17  37  63  89 134 169 210 267 315 379
#     4  10  19  35  63  93 128 171 212 261 321 379
#     4   8  18  34  64  90 126 166 198 264 322 362
#     4  11  24  42  63  89 121 162 206 256 316 376
#
# _framework density 23.847821
#
# number of rings (size 3 to 8) (size 9 to 14) (size 15 to 20)
#    0.000    1.846    1.538    2.308    0.000    3.692 
#    0.000    0.769    0.000    5.538    0.000    0.000 
#    0.000    0.000    0.000    0.000    0.000    0.000 
#
# Total GULP energy -145378.902711 kJ/mol
# GULP energy per Si atom -5591.496258 kJ/mol
# Density = 2.379354 g / cm^3
# Si number density = 23.847821 Si / 1000 Ang^3
#
#
#
# Elastic Constant Matrix: (Units=GPa)
#
#
# Indices 1 2 3 4 5 6 
#
# 1 68.4872 29.3546 -1.8929 0.0000 0.0000 0.0000
# 2 29.3546 101.9466 6.7483 0.0000 0.0000 0.0000
# 3 -1.8929 6.7483 46.7639 0.0000 0.0000 0.0000
# 4 0.0000 0.0000 0.0000 12.0918 0.0000 0.0000
# 5 0.0000 0.0000 0.0000 0.0000 37.7073 0.0000
# 6 0.0000 0.0000 0.0000 0.0000 0.0000 -37.9352
#
#
#
# Elastic Compliance Matrix: (Units=1/GPa)
#
#
# Indices 1 2 3 4 5 6 
#
# 1 0.016746 -0.004914 0.001387 0.000000 0.000000 0.000000
# 2 -0.004914 0.011345 -0.001836 0.000000 0.000000 0.000000
# 3 0.001387 -0.001836 0.021705 0.000000 0.000000 0.000000
# 4 0.000000 0.000000 0.000000 0.082701 0.000000 0.000000
# 5 0.000000 0.000000 0.000000 0.000000 0.026520 0.000000
# 6 0.000000 0.000000 0.000000 0.000000 0.000000 -0.026361
#
#
# Mechanical properties :
#
#
# Convention : Reuss Voigt Hill
#
# Bulk Modulus (GPa) = 25.59470 31.73531 28.66500
# Shear Modulus (GPa) = 31.96826 14.57196 23.27011
#
# Velocity S-wave (km/s) = 3.66527 2.47460 3.12713
# Velocity P-wave (km/s) = 5.35426 4.63694 5.00846
#
# Compressibility (1/GPa) = 0.03907059
#
# Stress axis : x y z
#
# Youngs Moduli (GPa) = 59.71716 88.14136 46.07205
#
# Poissons Ratio (x) = 0.43309 -0.06390
# Poissons Ratio (y) = 0.29342 0.08459
# Poissons Ratio (z) = -0.08282 0.16184
#
# Static dielectric constant tensor:
#      x y z
#    x 1.869480 0.000000 0.000000 
#    y 0.000000 1.889570 0.000000 
#    z 0.000000 0.000000 1.925980 
# 
# From -- ./inp_files/9136.got.cif
#   From: 2010.05.17/outbox.cif.g08.bks.cpg/sg40_5_cif.got.tgz:9136.got - 2010.06.03 18:35:42.
