data_PCOD9362759
_publ_section_title
;
Structure prediction by ZEFSAII (Michael W. Deem and Ramdas Pophale) SiO2 
 PCOD9362759
Probable space group: A M A 2
;
_chemical_formula_sum "Si O2"
_cell_formula_units_Z 56
_cell_length_a 14.202659
_cell_length_b 15.264869
_cell_length_c 12.243806
_cell_angle_alpha 90.000000
_cell_angle_beta 90.000000
_cell_angle_gamma 90.000000
_cell_volume 2654.478311
_symmetry_space_group_name_H-M "A M A 2"
_symmetry_group_IT_number 40
_symmetry_cell_setting 'orthorhombic'
loop_
_space_group_symop_operation_xyz
x,y,z
-x,-y,z
1/2-x,y,z
1/2+x,-y,z
x,1/2+y,1/2+z
-x,1/2-y,1/2+z
1/2-x,1/2+y,1/2+z
1/2+x,1/2-y,1/2+z
loop_
_atom_site_type_symbol
_atom_site_label
_atom_site_fract_x
_atom_site_fract_y
_atom_site_fract_z
Si Si1 0.568896 0.334599 0.514910
Si Si2 0.610615 0.990078 0.175017
Si Si3 0.857763 0.871771 0.605612
Si Si4 0.363816 0.784833 0.703726
Si Si5 0.643051 0.869077 0.365549
Si Si6 0.519441 0.906273 0.801281
Si Si7 0.851779 0.171079 0.074342
O O1 0.618668 0.416151 0.579519
O O2 0.603388 0.250138 0.583886
O O3 0.579539 0.346459 0.385565
O O4 0.454070 0.338490 0.519117
O O5 0.645794 0.953044 0.289208
O O6 0.500000 0.000000 0.187923
O O7 0.650584 0.084425 0.147263
O O8 0.750000 0.903035 0.605920
O O9 0.900988 0.880469 0.483928
O O10 0.916593 0.920637 0.695689
O O11 0.857344 0.766865 0.628975
O O12 0.250000 0.794948 0.704477
O O13 0.394604 0.706540 0.786790
O O14 0.423784 0.864242 0.753107
O O15 0.750000 0.842214 0.390297
O O16 0.500000 0.000000 0.856825
O O17 0.750000 0.170848 0.012658
#
# Coordination Sequence:
#
# PCOD9362759 Si02
#       7
#     8   8   8   8   8   8   8
#     4  10  21  40  61  92 127 164 211 266 318 376
#     4   9  18  32  56  90 122 152 196 257 312 359
#     4  10  22  39  58  84 120 165 208 251 309 378
#     4  10  22  41  66  93 125 167 217 267 322 379
#     4   9  18  35  59  85 115 156 205 253 303 367
#     4  12  25  41  63  92 131 171 213 259 318 381
#     4  10  18  34  60  89 118 154 204 258 308 366
#
# _framework density 21.096423000000001
#
# number of rings (size 3 to 8) (size 9 to 14) (size 15 to 20)
#    0.000    2.000    1.429    2.571    0.000    4.000 
#    0.000    2.857    0.000    0.000    0.000    0.000 
#    0.000    0.000    0.000    0.000    0.000    0.000 
#
# Total GULP energy -155923.535293 kJ/mol
# GULP energy per Si atom -5568.697689 kJ/mol
# Density = 2.104841 g / cm^3
# Si number density = 21.096423 Si / 1000 Ang^3
#
#
#
# Elastic Constant Matrix: (Units=GPa)
#
#
# Indices 1 2 3 4 5 6 
#
# 1 63.4658 -2.3272 26.2961 0.0000 0.0000 0.0000
# 2 -2.3272 56.3026 20.6790 0.0000 0.0000 0.0000
# 3 26.2961 20.6790 114.9119 0.0000 0.0000 0.0000
# 4 0.0000 0.0000 0.0000 25.7885 0.0000 0.0000
# 5 0.0000 0.0000 0.0000 0.0000 103.8850 0.0000
# 6 0.0000 0.0000 0.0000 0.0000 0.0000 12.5114
#
#
#
# Elastic Compliance Matrix: (Units=1/GPa)
#
#
# Indices 1 2 3 4 5 6 
#
# 1 0.017699 0.002376 -0.004478 0.000000 0.000000 0.000000
# 2 0.002376 0.019337 -0.004024 0.000000 0.000000 0.000000
# 3 -0.004478 -0.004024 0.010451 0.000000 0.000000 0.000000
# 4 0.000000 0.000000 0.000000 0.038777 0.000000 0.000000
# 5 0.000000 0.000000 0.000000 0.000000 0.009626 0.000000
# 6 0.000000 0.000000 0.000000 0.000000 0.000000 0.079927
#
#
# Mechanical properties :
#
#
# Convention : Reuss Voigt Hill
#
# Bulk Modulus (GPa) = 28.37941 35.99733 32.18837
# Shear Modulus (GPa) = 25.02334 41.10581 33.06457
#
# Velocity S-wave (km/s) = 3.44778 4.41894 3.96322
# Velocity P-wave (km/s) = 5.41581 6.56782 6.01944
#
# Compressibility (1/GPa) = 0.03523681
#
# Stress axis : x y z
#
# Youngs Moduli (GPa) = 56.50055 51.71388 95.68411
#
# Poissons Ratio (x) = -0.12288 0.42845
# Poissons Ratio (y) = -0.13425 0.38499
# Poissons Ratio (z) = 0.25300 0.20807
#
# Static dielectric constant tensor:
#      x y z
#    x 1.787620 0.000000 0.000000 
#    y 0.000000 1.785100 0.000000 
#    z 0.000000 0.000000 1.804450 
# 
# From -- ./inp_files/12215.got.cif
#   From: 2010.05.17/outbox.cif.g08.bks.cpg/sg40_7_cif.got.tgz:12215.got - 2010.06.03 18:35:42.
