data_PCOD9362513
_publ_section_title
;
Structure prediction by ZEFSAII (Michael W. Deem and Ramdas Pophale) SiO2 
 PCOD9362513
Probable space group: A M A 2
;
_chemical_formula_sum "Si O2"
_cell_formula_units_Z 64
_cell_length_a 14.989218
_cell_length_b 9.554222
_cell_length_c 21.901926
_cell_angle_alpha 90.000000
_cell_angle_beta 90.000000
_cell_angle_gamma 90.000000
_cell_volume 3136.581752
_symmetry_space_group_name_H-M "A M A 2"
_symmetry_group_IT_number 40
_symmetry_cell_setting 'orthorhombic'
loop_
_space_group_symop_operation_xyz
x,y,z
-x,-y,z
1/2-x,y,z
1/2+x,-y,z
x,1/2+y,1/2+z
-x,1/2-y,1/2+z
1/2-x,1/2+y,1/2+z
1/2+x,1/2-y,1/2+z
loop_
_atom_site_type_symbol
_atom_site_label
_atom_site_fract_x
_atom_site_fract_y
_atom_site_fract_z
Si Si1 0.641058 0.923071 0.939160
Si Si2 0.143143 0.088274 0.578674
Si Si3 0.586446 0.902267 0.717348
Si Si4 0.405223 0.075265 0.136578
Si Si5 0.967365 0.343128 0.765030
Si Si6 0.350731 0.374530 0.544127
Si Si7 0.140787 0.793784 0.532046
Si Si8 0.647055 0.597735 0.322229
O O1 0.750000 0.918158 0.935282
O O2 0.612161 0.999443 0.877508
O O3 0.614355 0.771959 0.966496
O O4 0.610114 0.023115 0.994251
O O5 0.250000 0.088874 0.570221
O O6 0.127823 0.100814 0.650651
O O7 0.102287 0.227344 0.549653
O O8 0.109695 0.948937 0.546829
O O9 0.551455 0.751035 0.741021
O O10 0.500000 0.000000 0.711327
O O11 0.644496 0.990682 0.765094
O O12 0.403534 0.127818 0.205939
O O13 0.390930 0.201055 0.089538
O O14 0.500000 0.000000 0.130145
O O15 0.344919 0.951833 0.109261
O O16 0.913411 0.235433 0.808966
O O17 0.000000 0.500000 0.785251
O O18 0.250000 0.351199 0.522403
O O19 0.250000 0.788300 0.534183
O O20 0.750000 0.639607 0.333937
#
# Coordination Sequence:
#
# PCOD9362513 Si02
#       8
#     8   8   8   8   8   8   8   8
#     4   8  16  33  53  72  96 131 173 213 256 307
#     4  10  18  29  50  80 106 128 162 208 259 316
#     4  10  20  34  52  74 107 144 174 217 274 325
#     4  10  18  30  48  71  98 133 170 202 247 311
#     4  10  21  36  53  77 112 148 180 224 284 333
#     4   9  18  32  51  75 105 134 160 203 261 314
#     4   9  17  30  50  75 102 130 165 211 258 307
#     4  10  20  36  58  78 100 140 192 232 266 325
#
# _framework density 20.404378999999999
#
# number of rings (size 3 to 8) (size 9 to 14) (size 15 to 20)
#    0.000    2.500    0.000    4.500    0.000    2.000 
#    0.000   10.000    0.000    3.750    0.000    0.000 
#    0.000    0.000    0.000    0.000    0.000    0.000 
#
# Total GULP energy -178161.786986 kJ/mol
# GULP energy per Si atom -5567.555843 kJ/mol
# Density = 2.035794 g / cm^3
# Si number density = 20.404379 Si / 1000 Ang^3
#
#
#
# Elastic Constant Matrix: (Units=GPa)
#
#
# Indices 1 2 3 4 5 6 
#
# 1 35.2792 15.2992 7.4442 0.0000 0.0000 0.0000
# 2 15.2992 151.9462 28.9823 0.0000 0.0000 0.0000
# 3 7.4442 28.9823 67.7671 0.0000 0.0000 0.0000
# 4 0.0000 0.0000 0.0000 17.3162 0.0000 0.0000
# 5 0.0000 0.0000 0.0000 0.0000 8.3374 0.0000
# 6 0.0000 0.0000 0.0000 0.0000 0.0000 18.9614
#
#
#
# Elastic Compliance Matrix: (Units=1/GPa)
#
#
# Indices 1 2 3 4 5 6 
#
# 1 0.029932 -0.002599 -0.002177 0.000000 0.000000 0.000000
# 2 -0.002599 0.007391 -0.002876 0.000000 0.000000 0.000000
# 3 -0.002177 -0.002876 0.016225 0.000000 0.000000 0.000000
# 4 0.000000 0.000000 0.000000 0.057750 0.000000 0.000000
# 5 0.000000 0.000000 0.000000 0.000000 0.119942 0.000000
# 6 0.000000 0.000000 0.000000 0.000000 0.000000 0.052739
#
#
# Mechanical properties :
#
#
# Convention : Reuss Voigt Hill
#
# Bulk Modulus (GPa) = 26.14612 39.82710 32.98661
# Shear Modulus (GPa) = 16.02416 22.47411 19.24913
#
# Velocity S-wave (km/s) = 2.80541 3.32239 3.07479
# Velocity P-wave (km/s) = 4.83069 5.85482 5.36724
#
# Compressibility (1/GPa) = 0.03824659
#
# Stress axis : x y z
#
# Youngs Moduli (GPa) = 33.40960 135.29179 61.63187
#
# Poissons Ratio (x) = 0.35157 0.13415
# Poissons Ratio (y) = 0.08682 0.17723
# Poissons Ratio (z) = 0.07272 0.38906
#
# Static dielectric constant tensor:
#      x y z
#    x 1.762080 0.000000 0.000000 
#    y 0.000000 1.776440 0.000000 
#    z 0.000000 0.000000 1.756740 
# 
# From -- ./inp_files/24923.got.cif
#   From: 2010.05.17/outbox.cif.g08.bks.cpg/sg40_13_cif.got.tgz:24923.got - 2010.06.03 18:35:42.
