data_PCOD9362998
_publ_section_title
;
Structure prediction by ZEFSAII (Michael W. Deem and Ramdas Pophale) SiO2 
 PCOD9362998
Probable space group: A M A 2
;
_chemical_formula_sum "Si O2"
_cell_formula_units_Z 28
_cell_length_a 5.558179
_cell_length_b 22.103074
_cell_length_c 8.629766
_cell_angle_alpha 90.000000
_cell_angle_beta 90.000000
_cell_angle_gamma 90.000000
_cell_volume 1060.191277
_symmetry_space_group_name_H-M "A M A 2"
_symmetry_group_IT_number 40
_symmetry_cell_setting 'orthorhombic'
loop_
_space_group_symop_operation_xyz
x,y,z
-x,-y,z
1/2-x,y,z
1/2+x,-y,z
x,1/2+y,1/2+z
-x,1/2-y,1/2+z
1/2-x,1/2+y,1/2+z
1/2+x,1/2-y,1/2+z
loop_
_atom_site_type_symbol
_atom_site_label
_atom_site_fract_x
_atom_site_fract_y
_atom_site_fract_z
Si Si1 0.250000 0.366477 0.092700
Si Si2 0.250000 0.417740 0.579608
Si Si3 0.250000 0.061823 0.060400
Si Si4 0.750000 0.212065 0.974556
Si Si5 0.250000 0.500209 0.985042
Si Si6 0.250000 0.770318 0.344781
Si Si7 0.250000 0.114646 0.713362
O O1 0.505468 0.350638 0.169506
O O2 0.250000 0.438914 0.083080
O O3 0.250000 0.336238 0.924876
O O4 0.250000 0.489168 0.529252
O O5 0.515272 0.414318 0.648581
O O6 0.250000 0.361463 0.461098
O O7 0.250000 0.091598 0.889354
O O8 0.750000 0.222764 0.160295
O O9 0.499498 0.239466 0.906891
O O10 0.500000 0.500000 0.894972
O O11 0.250000 0.556266 0.100830
#
# Coordination Sequence:
#
# PCOD9362998 Si02
#       7
#     4   4   4   4   4   4   4
#     4  10  21  35  58  88 135 175 219 290 354 408
#     4  10  23  38  63  94 137 175 233 295 357 419
#     4  10  21  35  63 103 134 184 232 281 359 452
#     4  12  28  52  74 108 146 199 253 320 368 449
#     4   8  16  27  46  77 125 161 208 258 341 390
#     4  12  28  50  76 107 146 198 261 306 380 439
#     4  10  19  31  56  97 141 170 224 286 345 417
#
# _framework density 26.410329000000001
#
# number of rings (size 3 to 8) (size 9 to 14) (size 15 to 20)
#    0.000    1.714    0.000    3.429   12.000    6.857 
#    0.000    0.000   18.857    0.000    0.000    0.000 
#    0.000    0.000    0.000    0.000    0.000    0.000 
#
# Total GULP energy -78191.793113 kJ/mol
# GULP energy per Si atom -5585.128080 kJ/mol
# Density = 2.635022 g / cm^3
# Si number density = 26.410329 Si / 1000 Ang^3
#
#
#
# Elastic Constant Matrix: (Units=GPa)
#
#
# Indices 1 2 3 4 5 6 
#
# 1 342.2702 35.3360 54.5903 0.0000 0.0000 0.0000
# 2 35.3360 72.4883 27.6066 0.0000 0.0000 0.0000
# 3 54.5903 27.6066 167.1280 0.0000 0.0000 0.0000
# 4 0.0000 0.0000 0.0000 59.1048 0.0000 0.0000
# 5 0.0000 0.0000 0.0000 0.0000 -27.5807 0.0000
# 6 0.0000 0.0000 0.0000 0.0000 0.0000 17.8528
#
#
#
# Elastic Compliance Matrix: (Units=1/GPa)
#
#
# Indices 1 2 3 4 5 6 
#
# 1 0.003182 -0.001233 -0.000836 0.000000 0.000000 0.000000
# 2 -0.001233 0.015199 -0.002108 0.000000 0.000000 0.000000
# 3 -0.000836 -0.002108 0.006605 0.000000 0.000000 0.000000
# 4 0.000000 0.000000 0.000000 0.016919 0.000000 0.000000
# 5 0.000000 0.000000 0.000000 0.000000 -0.036257 0.000000
# 6 0.000000 0.000000 0.000000 0.000000 0.000000 0.056014
#
#
# Mechanical properties :
#
#
# Convention : Reuss Voigt Hill
#
# Bulk Modulus (GPa) = 60.12238 90.77247 75.44743
# Shear Modulus (GPa) = 66.17344 40.83228 53.50286
#
# Velocity S-wave (km/s) = 5.01102 3.93628 4.50581
# Velocity P-wave (km/s) = 7.50297 7.42319 7.46318
#
# Compressibility (1/GPa) = 0.01663274
#
# Stress axis : x y z
#
# Youngs Moduli (GPa) = 314.24188 65.79320 151.40906
#
# Poissons Ratio (x) = 0.08112 0.12655
# Poissons Ratio (y) = 0.38745 0.31915
# Poissons Ratio (z) = 0.26264 0.13869
#
# Static dielectric constant tensor:
#      x y z
#    x 2.113110 0.000000 0.000000 
#    y 0.000000 2.061010 0.000000 
#    z 0.000000 0.000000 1.987050 
# 
# From -- ./inp_files/3633.got.cif
#   From: 2010.05.17/outbox.cif.g08.bks.cpg/sg40_2_cif.got.tgz:3633.got - 2010.06.03 18:35:42.
