data_PCOD9362238
_publ_section_title
;
Structure prediction by ZEFSAII (Michael W. Deem and Ramdas Pophale) SiO2 
 PCOD9362238
Probable space group: A M A 2
;
_chemical_formula_sum "Si O2"
_cell_formula_units_Z 48
_cell_length_a 17.910729
_cell_length_b 14.375828
_cell_length_c 7.809755
_cell_angle_alpha 90.000000
_cell_angle_beta 90.000000
_cell_angle_gamma 90.000000
_cell_volume 2010.867896
_symmetry_space_group_name_H-M "A M A 2"
_symmetry_group_IT_number 40
_symmetry_cell_setting 'orthorhombic'
loop_
_space_group_symop_operation_xyz
x,y,z
-x,-y,z
1/2-x,y,z
1/2+x,-y,z
x,1/2+y,1/2+z
-x,1/2-y,1/2+z
1/2-x,1/2+y,1/2+z
1/2+x,1/2-y,1/2+z
loop_
_atom_site_type_symbol
_atom_site_label
_atom_site_fract_x
_atom_site_fract_y
_atom_site_fract_z
Si Si1 0.337171 0.264537 0.320560
Si Si2 0.335194 0.660304 0.189436
Si Si3 0.065616 0.107616 0.163874
Si Si4 0.336896 0.336172 0.864695
Si Si5 0.080517 0.999727 0.532370
Si Si6 0.898505 0.081353 0.033777
O O1 0.250000 0.271188 0.271133
O O2 0.337982 0.211265 0.504074
O O3 0.386753 0.200581 0.195228
O O4 0.374159 0.363511 0.365622
O O5 0.250000 0.650901 0.242431
O O6 0.369471 0.734164 0.321839
O O7 0.367752 0.560934 0.151087
O O8 0.068560 0.054962 0.350101
O O9 0.979956 0.117409 0.101484
O O10 0.099222 0.030234 0.035606
O O11 0.250000 0.332349 0.914687
O O12 0.340909 0.389506 0.682628
O O13 0.385702 0.399996 0.987566
O O14 0.000000 0.000000 0.616829
#
# Coordination Sequence:
#
# PCOD9362238 Si02
#       6
#     8   8   8   8   8   8
#     4   9  17  26  42  71 104 136 175 218 265 319
#     4   8  15  24  36  59  92 125 160 201 244 294
#     4   9  16  27  42  66 102 135 170 218 263 311
#     4   9  15  24  39  60  91 128 161 201 251 297
#     4  10  15  24  38  60  95 128 155 202 252 291
#     4   9  15  27  42  66 103 137 170 217 265 312
#
# _framework density 23.870289
#
# number of rings (size 3 to 8) (size 9 to 14) (size 15 to 20)
#    0.000    3.000    3.333    2.000    0.000    4.667 
#    0.000    0.000    0.000    0.000    0.000    7.000 
#    0.000   17.333    0.000   11.167    0.000    0.000 
#
# Total GULP energy -134070.379130 kJ/mol
# GULP energy per Si atom -5586.265797 kJ/mol
# Density = 2.381596 g / cm^3
# Si number density = 23.870289 Si / 1000 Ang^3
#
#
#
# Elastic Constant Matrix: (Units=GPa)
#
#
# Indices 1 2 3 4 5 6 
#
# 1 97.2651 79.0014 40.6266 0.0000 0.0000 0.0000
# 2 79.0014 180.2137 48.3800 0.0000 0.0000 0.0000
# 3 40.6266 48.3800 110.6059 0.0000 0.0000 0.0000
# 4 0.0000 0.0000 0.0000 21.9599 0.0000 0.0000
# 5 0.0000 0.0000 0.0000 0.0000 -28.7227 0.0000
# 6 0.0000 0.0000 0.0000 0.0000 0.0000 263.9102
#
#
#
# Elastic Compliance Matrix: (Units=1/GPa)
#
#
# Indices 1 2 3 4 5 6 
#
# 1 0.017015 -0.006551 -0.003385 0.000000 0.000000 0.000000
# 2 -0.006551 0.008809 -0.001447 0.000000 0.000000 0.000000
# 3 -0.003385 -0.001447 0.010917 0.000000 0.000000 0.000000
# 4 0.000000 0.000000 0.000000 0.045538 0.000000 0.000000
# 5 0.000000 0.000000 0.000000 0.000000 -0.034816 0.000000
# 6 0.000000 0.000000 0.000000 0.000000 0.000000 0.003789
#
#
# Mechanical properties :
#
#
# Convention : Reuss Voigt Hill
#
# Bulk Modulus (GPa) = 71.54501 80.45565 76.00033
# Shear Modulus (GPa) = 63.55144 66.10126 64.82635
#
# Velocity S-wave (km/s) = 5.16541 5.26801 5.21696
# Velocity P-wave (km/s) = 8.10017 8.41315 8.25814
#
# Compressibility (1/GPa) = 0.01397722
#
# Stress axis : x y z
#
# Youngs Moduli (GPa) = 58.77018 113.51977 91.59767
#
# Poissons Ratio (x) = 0.74361 0.31003
# Poissons Ratio (y) = 0.38497 0.13255
# Poissons Ratio (z) = 0.19892 0.16427
#
# Static dielectric constant tensor:
#      x y z
#    x 1.457300 0.000000 0.000000 
#    y 0.000000 1.949410 0.000000 
#    z 0.000000 0.000000 1.962810 
# 
# From -- ./inp_files/7422.got.cif
#   From: 2010.05.17/outbox.cif.g08.bks.cpg/sg40_4_cif.got.tgz:7422.got - 2010.06.03 18:35:42.
