data_PCOD9362325
_publ_section_title
;
Structure prediction by ZEFSAII (Michael W. Deem and Ramdas Pophale) SiO2 
 PCOD9362325
Probable space group: A M A 2
;
_chemical_formula_sum "Si O2"
_cell_formula_units_Z 40
_cell_length_a 14.491281
_cell_length_b 5.394046
_cell_length_c 24.733290
_cell_angle_alpha 90.000000
_cell_angle_beta 90.000000
_cell_angle_gamma 90.000000
_cell_volume 1933.318084
_symmetry_space_group_name_H-M "A M A 2"
_symmetry_group_IT_number 40
_symmetry_cell_setting 'orthorhombic'
loop_
_space_group_symop_operation_xyz
x,y,z
-x,-y,z
1/2-x,y,z
1/2+x,-y,z
x,1/2+y,1/2+z
-x,1/2-y,1/2+z
1/2-x,1/2+y,1/2+z
1/2+x,1/2-y,1/2+z
loop_
_atom_site_type_symbol
_atom_site_label
_atom_site_fract_x
_atom_site_fract_y
_atom_site_fract_z
Si Si1 0.144153 0.592771 0.644650
Si Si2 0.250000 0.516897 0.318342
Si Si3 0.388985 0.000933 0.478091
Si Si4 0.888861 0.499083 0.415033
Si Si5 0.750000 0.483629 0.748530
Si Si6 0.143775 0.592605 0.102494
O O1 0.250000 0.619086 0.621524
O O2 0.162809 0.534857 0.707409
O O3 0.100428 0.358804 0.615113
O O4 0.101420 0.858882 0.633382
O O5 0.161930 0.523315 0.358014
O O6 0.250000 0.259600 0.285588
O O7 0.250000 0.758790 0.280311
O O8 0.361986 0.739889 0.451207
O O9 0.500000 0.000000 0.480043
O O10 0.361460 0.241879 0.443373
O O11 0.356543 0.033674 0.539295
O O12 0.000000 0.500000 0.409287
O O13 0.250000 0.618883 0.122591
#
# Coordination Sequence:
#
# PCOD9362325 Si02
#       6
#     8   4   8   8   4   8
#     4   8  17  31  49  78 105 131 170 225 266 305
#     4  12  22  36  63  80 101 150 194 228 276 334
#     4  10  21  36  53  78 119 150 172 220 275 326
#     4  10  23  39  54  82 116 143 183 234 273 318
#     4  10  20  36  55  84 105 138 190 232 280 320
#     4  10  17  29  53  79 102 140 175 206 257 330
#
# _framework density 20.689819
#
# number of rings (size 3 to 8) (size 9 to 14) (size 15 to 20)
#    0.600    1.600    0.000    3.600    2.800    0.000 
#    0.000    0.000    0.000    7.200    0.000    0.000 
#    0.000    0.000    0.000    0.000    0.000    0.000 
#
# Total GULP energy -111590.329252 kJ/mol
# GULP energy per Si atom -5579.516463 kJ/mol
# Density = 2.064273 g / cm^3
# Si number density = 20.689819 Si / 1000 Ang^3
#
#
#
# Elastic Constant Matrix: (Units=GPa)
#
#
# Indices 1 2 3 4 5 6 
#
# 1 64.3389 18.6753 8.0494 0.0000 0.0000 0.0000
# 2 18.6753 189.0891 57.0778 0.0000 0.0000 0.0000
# 3 8.0494 57.0778 114.5430 0.0000 0.0000 0.0000
# 4 0.0000 0.0000 0.0000 53.3798 0.0000 0.0000
# 5 0.0000 0.0000 0.0000 0.0000 -932.8212 0.0000
# 6 0.0000 0.0000 0.0000 0.0000 0.0000 4.0686
#
#
#
# Elastic Compliance Matrix: (Units=1/GPa)
#
#
# Indices 1 2 3 4 5 6 
#
# 1 0.016017 -0.001462 -0.000397 0.000000 0.000000 0.000000
# 2 -0.001462 0.006358 -0.003066 0.000000 0.000000 0.000000
# 3 -0.000397 -0.003066 0.010286 0.000000 0.000000 0.000000
# 4 0.000000 0.000000 0.000000 0.018734 0.000000 0.000000
# 5 0.000000 0.000000 0.000000 0.000000 -0.001072 0.000000
# 6 0.000000 0.000000 0.000000 0.000000 0.000000 0.245787
#
#
# Mechanical properties :
#
#
# Convention : Reuss Voigt Hill
#
# Bulk Modulus (GPa) = 43.83751 59.50844 51.67298
# Shear Modulus (GPa) = 15.94576 -156.12999 -70.09212
#
# Velocity S-wave (km/s) = 2.77917 -8.69632 -5.82676
# Velocity P-wave (km/s) = 5.61537 8.48588 4.49876
#
# Compressibility (1/GPa) = 0.02281152
#
# Stress axis : x y z
#
# Youngs Moduli (GPa) = 62.43467 157.27484 97.22063
#
# Poissons Ratio (x) = 0.22994 0.03860
# Poissons Ratio (y) = 0.09128 0.29804
# Poissons Ratio (z) = 0.02479 0.48215
#
# Static dielectric constant tensor:
#      x y z
#    x 1.774400 0.000000 0.000000 
#    y 0.000000 1.787430 0.000000 
#    z 0.000000 0.000000 1.686150 
# 
# From -- ./inp_files/20926.got.cif
#   From: 2010.05.17/outbox.cif.g08.bks.cpg/sg40_11_cif.got.tgz:20926.got - 2010.06.03 18:35:42.
