data_PCOD9362271
_publ_section_title
;
Structure prediction by ZEFSAII (Michael W. Deem and Ramdas Pophale) SiO2 
 PCOD9362271
Probable space group: A M A 2
;
_chemical_formula_sum "Si O2"
_cell_formula_units_Z 44
_cell_length_a 16.461895
_cell_length_b 7.489433
_cell_length_c 14.028388
_cell_angle_alpha 90.000000
_cell_angle_beta 90.000000
_cell_angle_gamma 90.000000
_cell_volume 1729.563599
_symmetry_space_group_name_H-M "A M A 2"
_symmetry_group_IT_number 40
_symmetry_cell_setting 'orthorhombic'
loop_
_space_group_symop_operation_xyz
x,y,z
-x,-y,z
1/2-x,y,z
1/2+x,-y,z
x,1/2+y,1/2+z
-x,1/2-y,1/2+z
1/2-x,1/2+y,1/2+z
1/2+x,1/2-y,1/2+z
loop_
_atom_site_type_symbol
_atom_site_label
_atom_site_fract_x
_atom_site_fract_y
_atom_site_fract_z
Si Si1 0.500000 0.500000 0.819581
Si Si2 0.841642 0.793615 0.271504
Si Si3 0.602901 0.225286 0.471019
Si Si4 0.412891 0.572632 0.303506
Si Si5 0.834478 0.340245 0.997070
Si Si6 0.481095 0.713081 0.117864
O O1 0.577131 0.417185 0.761283
O O2 0.535999 0.640850 0.897566
O O3 0.750000 0.838527 0.234509
O O4 0.867885 0.590206 0.249397
O O5 0.834695 0.796933 0.386028
O O6 0.638930 0.363280 0.394455
O O7 0.656203 0.055768 0.500064
O O8 0.559639 0.298056 0.566019
O O9 0.500000 0.500000 0.340167
O O10 0.441001 0.715216 0.222862
O O11 0.750000 0.287063 0.042785
O O12 0.907713 0.245748 0.048153
O O13 0.500000 0.500000 0.107959
#
# Coordination Sequence:
#
# PCOD9362271 Si02
#       6
#     4   8   8   8   8   8
#     4  10  16  36  60  78 120 170 206 248 314 392
#     4  10  20  34  57  89 121 161 209 263 320 373
#     4  10  17  34  57  78 115 151 207 245 300 385
#     4  11  20  31  58  86 119 151 200 265 311 362
#     4   9  17  33  56  74 106 159 200 239 300 373
#     4   9  17  32  53  81 109 149 202 239 298 370
#
# _framework density 25.439943
#
# number of rings (size 3 to 8) (size 9 to 14) (size 15 to 20)
#    0.000    2.182    6.364    0.000    0.000    1.455 
#    0.000    0.000    6.000    2.182    0.000   15.273 
#    0.000    0.000    0.000    0.000    0.000    0.000 
#
# Total GULP energy -122561.011084 kJ/mol
# GULP energy per Si atom -5570.955049 kJ/mol
# Density = 2.538204 g / cm^3
# Si number density = 25.439943 Si / 1000 Ang^3
#
#
#
# Elastic Constant Matrix: (Units=GPa)
#
#
# Indices 1 2 3 4 5 6 
#
# 1 124.2548 25.0466 5.8612 0.0000 0.0000 0.0000
# 2 25.0466 80.2715 12.2850 0.0000 0.0000 0.0000
# 3 5.8612 12.2850 125.3045 0.0000 0.0000 0.0000
# 4 0.0000 0.0000 0.0000 22.9272 0.0000 0.0000
# 5 0.0000 0.0000 0.0000 0.0000 -38.9446 0.0000
# 6 0.0000 0.0000 0.0000 0.0000 0.0000 15.9859
#
#
#
# Elastic Compliance Matrix: (Units=1/GPa)
#
#
# Indices 1 2 3 4 5 6 
#
# 1 0.008591 -0.002659 -0.000141 0.000000 0.000000 0.000000
# 2 -0.002659 0.013470 -0.001196 0.000000 0.000000 0.000000
# 3 -0.000141 -0.001196 0.008104 0.000000 0.000000 0.000000
# 4 0.000000 0.000000 0.000000 0.043616 0.000000 0.000000
# 5 0.000000 0.000000 0.000000 0.000000 -0.025678 0.000000
# 6 0.000000 0.000000 0.000000 0.000000 0.000000 0.062555
#
#
# Mechanical properties :
#
#
# Convention : Reuss Voigt Hill
#
# Bulk Modulus (GPa) = 45.10017 46.24627 45.67322
# Shear Modulus (GPa) = 39.66904 19.10290 29.38597
#
# Velocity S-wave (km/s) = 3.95311 2.74323 3.40238
# Velocity P-wave (km/s) = 6.21310 5.31524 5.78163
#
# Compressibility (1/GPa) = 0.02217286
#
# Stress axis : x y z
#
# Youngs Moduli (GPa) = 116.40634 74.23666 123.38902
#
# Poissons Ratio (x) = 0.19739 0.01742
# Poissons Ratio (y) = 0.30951 0.14761
# Poissons Ratio (z) = 0.01643 0.08881
#
# Static dielectric constant tensor:
#      x y z
#    x 2.072000 0.000000 0.000000 
#    y 0.000000 2.239580 0.000000 
#    z 0.000000 0.000000 2.047270 
# 
# From -- ./inp_files/17543.got.cif
#   From: 2010.05.17/outbox.cif.g08.bks.cpg/sg40_9_cif.got.tgz:17543.got - 2010.06.03 18:35:42.
