data_PCOD9362978
_publ_section_title
;
Structure prediction by ZEFSAII (Michael W. Deem and Ramdas Pophale) SiO2 
 PCOD9362978
Probable space group: A M A 2
;
_chemical_formula_sum "Si O2"
_cell_formula_units_Z 48
_cell_length_a 20.948773
_cell_length_b 8.811619
_cell_length_c 8.755157
_cell_angle_alpha 90.000000
_cell_angle_beta 90.000000
_cell_angle_gamma 90.000000
_cell_volume 1616.137248
_symmetry_space_group_name_H-M "A M A 2"
_symmetry_group_IT_number 40
_symmetry_cell_setting 'orthorhombic'
loop_
_space_group_symop_operation_xyz
x,y,z
-x,-y,z
1/2-x,y,z
1/2+x,-y,z
x,1/2+y,1/2+z
-x,1/2-y,1/2+z
1/2-x,1/2+y,1/2+z
1/2+x,1/2-y,1/2+z
loop_
_atom_site_type_symbol
_atom_site_label
_atom_site_fract_x
_atom_site_fract_y
_atom_site_fract_z
Si Si1 0.750000 0.818114 0.306600
Si Si2 0.500000 0.000000 0.822777
Si Si3 0.389365 0.836547 0.075701
Si Si4 0.997366 0.833216 0.321304
Si Si5 0.376935 0.165023 0.095176
Si Si6 0.750000 0.241257 0.131151
Si Si7 0.115608 0.495722 0.084326
Si Si8 0.750000 0.500078 0.259610
O O1 0.688290 0.840329 0.198347
O O2 0.750000 0.867544 0.484685
O O3 0.750000 0.641883 0.366527
O O4 0.496523 0.832987 0.902790
O O5 0.440483 0.997937 0.707360
O O6 0.442175 0.834527 0.207056
O O7 0.317104 0.838754 0.138372
O O8 0.389849 0.663468 0.006487
O O9 0.388563 0.007115 0.003838
O O10 0.935813 0.832789 0.212378
O O11 0.000000 0.000000 0.401412
O O12 0.382789 0.327450 0.008127
O O13 0.750000 0.325902 0.300679
O O14 0.181756 0.488041 0.177203
#
# Coordination Sequence:
#
# PCOD9362978 Si02
#       8
#     4   4   8   8   8   4   8   4
#     4  10  19  31  51  80 106 139 177 222 276 321
#     4   8  12  20  36  64  88 112 156 196 246 292
#     4   9  16  28  48  74  97 132 175 209 255 321
#     4   8  14  24  42  72  90 126 166 210 248 300
#     4   9  16  28  48  74  97 132 175 209 255 321
#     4  10  19  31  51  80 106 139 177 222 276 321
#     4   8  14  24  42  66  94 118 162 212 244 294
#     4   8  16  30  46  66  98 130 168 208 254 316
#
# _framework density 29.700448999999999
#
# number of rings (size 3 to 8) (size 9 to 14) (size 15 to 20)
#    0.000    3.333    0.000    0.500    0.000    0.000 
#    0.000    0.000    0.000   36.000  195.000    0.000 
#    0.000    0.000    0.000    0.000    0.000    0.000 
#
# Total GULP energy -133813.390705 kJ/mol
# GULP energy per Si atom -5575.557946 kJ/mol
# Density = 2.963285 g / cm^3
# Si number density = 29.700449 Si / 1000 Ang^3
#
#
#
# Elastic Constant Matrix: (Units=GPa)
#
#
# Indices 1 2 3 4 5 6 
#
# 1 217.6371 40.7217 78.4528 0.0000 0.0000 0.0000
# 2 40.7217 325.9485 27.3928 0.0000 0.0000 0.0000
# 3 78.4528 27.3928 112.1101 0.0000 0.0000 0.0000
# 4 0.0000 0.0000 0.0000 25.1743 0.0000 0.0000
# 5 0.0000 0.0000 0.0000 0.0000 21.9181 0.0000
# 6 0.0000 0.0000 0.0000 0.0000 0.0000 46.5032
#
#
#
# Elastic Compliance Matrix: (Units=1/GPa)
#
#
# Indices 1 2 3 4 5 6 
#
# 1 0.006200 -0.000419 -0.004237 0.000000 0.000000 0.000000
# 2 -0.000419 0.003161 -0.000479 0.000000 0.000000 0.000000
# 3 -0.004237 -0.000479 0.012002 0.000000 0.000000 0.000000
# 4 0.000000 0.000000 0.000000 0.039723 0.000000 0.000000
# 5 0.000000 0.000000 0.000000 0.000000 0.045624 0.000000
# 6 0.000000 0.000000 0.000000 0.000000 0.000000 0.021504
#
#
# Mechanical properties :
#
#
# Convention : Reuss Voigt Hill
#
# Bulk Modulus (GPa) = 90.14314 105.42559 97.78436
# Shear Modulus (GPa) = 35.16649 52.66100 43.91374
#
# Velocity S-wave (km/s) = 3.44472 4.21535 3.84937
# Velocity P-wave (km/s) = 6.79986 7.69842 7.26305
#
# Compressibility (1/GPa) = 0.01109347
#
# Stress axis : x y z
#
# Youngs Moduli (GPa) = 161.28203 316.40100 83.32202
#
# Poissons Ratio (x) = 0.13244 0.35300
# Poissons Ratio (y) = 0.06751 0.03994
# Poissons Ratio (z) = 0.68329 0.15166
#
# Static dielectric constant tensor:
#      x y z
#    x 2.368820 0.000000 0.000000 
#    y 0.000000 2.512700 0.000000 
#    z 0.000000 0.000000 2.187760 
# 
# From -- ./inp_files/18115.got.cif
#   From: 2010.05.17/outbox.cif.g08.bks.cpg/sg40_10_cif.got.tgz:18115.got - 2010.06.03 18:35:42.
