data_PCOD9362261
_publ_section_title
;
Structure prediction by ZEFSAII (Michael W. Deem and Ramdas Pophale) SiO2 
 PCOD9362261
Probable space group: A M A 2
;
_chemical_formula_sum "Si O2"
_cell_formula_units_Z 44
_cell_length_a 9.271263
_cell_length_b 10.985202
_cell_length_c 23.267072
_cell_angle_alpha 90.000000
_cell_angle_beta 90.000000
_cell_angle_gamma 90.000000
_cell_volume 2369.674429
_symmetry_space_group_name_H-M "A M A 2"
_symmetry_group_IT_number 40
_symmetry_cell_setting 'orthorhombic'
loop_
_space_group_symop_operation_xyz
x,y,z
-x,-y,z
1/2-x,y,z
1/2+x,-y,z
x,1/2+y,1/2+z
-x,1/2-y,1/2+z
1/2-x,1/2+y,1/2+z
1/2+x,1/2-y,1/2+z
loop_
_atom_site_type_symbol
_atom_site_label
_atom_site_fract_x
_atom_site_fract_y
_atom_site_fract_z
Si Si1 0.411622 0.194561 0.338760
Si Si2 0.923463 0.372152 0.259630
Si Si3 0.925197 0.626369 0.536978
Si Si4 0.000000 0.000000 0.250433
Si Si5 0.077982 0.624640 0.969054
Si Si6 0.086704 0.302132 0.662617
O O1 0.250000 0.247998 0.342464
O O2 0.524401 0.289058 0.312485
O O3 0.410163 0.084951 0.292988
O O4 0.452252 0.146477 0.401488
O O5 0.750000 0.379496 0.258528
O O6 0.976701 0.307397 0.200390
O O7 0.000000 0.500000 0.264822
O O8 0.750000 0.609967 0.535782
O O9 0.959979 0.748858 0.501166
O O10 0.977100 0.654821 0.602376
O O11 0.000000 0.500000 0.517853
O O12 0.913081 0.087295 0.207806
O O13 0.250000 0.607718 0.975872
O O14 0.000000 0.500000 0.988159
O O15 0.250000 0.265804 0.648355
#
# Coordination Sequence:
#
# PCOD9362261 Si02
#       6
#     8   8   8   4   8   8
#     4  10  20  34  55  83 111 143 185 232 284 339
#     4  10  21  36  54  80 114 149 185 231 289 347
#     4  10  21  39  59  83 116 152 195 243 291 347
#     4  10  16  30  56  82 108 138 172 234 274 332
#     4  10  22  39  59  84 117 154 196 242 289 346
#     4   9  18  32  53  80 108 141 180 228 283 336
#
# _framework density 18.567951000000001
#
# number of rings (size 3 to 8) (size 9 to 14) (size 15 to 20)
#    0.000    2.182    1.818    1.091    0.000    3.636 
#    0.000    2.727    0.000    0.000    0.000    0.000 
#    0.000    0.000    0.000    0.000    0.000    0.000 
#
# Total GULP energy -122537.708098 kJ/mol
# GULP energy per Si atom -5569.895823 kJ/mol
# Density = 1.852569 g / cm^3
# Si number density = 18.567951 Si / 1000 Ang^3
#
#
#
# Elastic Constant Matrix: (Units=GPa)
#
#
# Indices 1 2 3 4 5 6 
#
# 1 53.6068 52.0980 21.9164 0.0000 0.0000 0.0000
# 2 52.0980 154.9109 59.0266 0.0000 0.0000 0.0000
# 3 21.9164 59.0266 100.1389 0.0000 0.0000 0.0000
# 4 0.0000 0.0000 0.0000 16.8531 0.0000 0.0000
# 5 0.0000 0.0000 0.0000 0.0000 20.1736 0.0000
# 6 0.0000 0.0000 0.0000 0.0000 0.0000 27.8790
#
#
#
# Elastic Compliance Matrix: (Units=1/GPa)
#
#
# Indices 1 2 3 4 5 6 
#
# 1 0.027754 -0.009053 -0.000738 0.000000 0.000000 0.000000
# 2 -0.009053 0.011278 -0.004666 0.000000 0.000000 0.000000
# 3 -0.000738 -0.004666 0.012898 0.000000 0.000000 0.000000
# 4 0.000000 0.000000 0.000000 0.059336 0.000000 0.000000
# 5 0.000000 0.000000 0.000000 0.000000 0.049570 0.000000
# 6 0.000000 0.000000 0.000000 0.000000 0.000000 0.035869
#
#
# Mechanical properties :
#
#
# Convention : Reuss Voigt Hill
#
# Bulk Modulus (GPa) = 43.44872 63.85985 53.65429
# Shear Modulus (GPa) = 21.43237 24.68885 23.06061
#
# Velocity S-wave (km/s) = 3.40114 3.65039 3.52797
# Velocity P-wave (km/s) = 6.23492 7.22733 6.74939
#
# Compressibility (1/GPa) = 0.02301564
#
# Stress axis : x y z
#
# Youngs Moduli (GPa) = 36.03082 88.66878 77.52948
#
# Poissons Ratio (x) = 0.80269 0.05723
# Poissons Ratio (y) = 0.32618 0.36179
# Poissons Ratio (z) = 0.02660 0.41377
#
# Static dielectric constant tensor:
#      x y z
#    x 1.643710 0.000000 0.000000 
#    y 0.000000 1.648110 0.000000 
#    z 0.000000 0.000000 1.653340 
# 
# From -- ./inp_files/23959.got.cif
#   From: 2010.05.17/outbox.cif.g08.bks.cpg/sg40_12_cif.got.tgz:23959.got - 2010.06.03 18:35:42.
