data_PCOD9362147
_publ_section_title
;
Structure prediction by ZEFSAII (Michael W. Deem and Ramdas Pophale) SiO2 
 PCOD9362147
Probable space group: A B M 2
;
_chemical_formula_sum "Si O2"
_cell_formula_units_Z 52
_cell_length_a 8.164895
_cell_length_b 16.280300
_cell_length_c 17.265553
_cell_angle_alpha 90.000000
_cell_angle_beta 90.000000
_cell_angle_gamma 90.000000
_cell_volume 2295.057129
_symmetry_space_group_name_H-M "A B M 2"
_symmetry_group_IT_number 39
_symmetry_cell_setting 'orthorhombic'
loop_
_space_group_symop_operation_xyz
x,y,z
-x,-y,z
-x,1/2+y,z
x,1/2-y,z
x,1/2+y,1/2+z
-x,1/2-y,1/2+z
-x,y,1/2+z
x,-y,1/2+z
loop_
_atom_site_type_symbol
_atom_site_label
_atom_site_fract_x
_atom_site_fract_y
_atom_site_fract_z
Si Si1 0.000000 0.000000 0.320101
Si Si2 0.325846 0.479596 0.416463
Si Si3 0.190351 0.514419 0.570267
Si Si4 0.824196 0.840513 0.786041
Si Si5 0.470393 0.652824 0.846669
Si Si6 0.686469 0.845063 0.179148
Si Si7 0.327694 0.162274 0.615805
O O1 0.840369 0.983353 0.370457
O O2 0.046376 0.914082 0.280065
O O3 0.500000 0.500000 0.375208
O O4 0.296434 0.532362 0.493100
O O5 0.372646 0.383117 0.420400
O O6 0.209846 0.583168 0.636920
O O7 0.260144 0.424533 0.589049
O O8 0.000000 0.500000 0.551586
O O9 0.889716 0.750000 0.808708
O O10 0.667587 0.862622 0.840312
O O11 0.743215 0.832820 0.702659
O O12 0.460600 0.750000 0.848386
O O13 0.376159 0.629997 0.765553
O O14 0.752828 0.750000 0.181521
O O15 0.522415 0.841726 0.127009
O O16 0.282971 0.250000 0.577551
#
# Coordination Sequence:
#
# PCOD9362147 Si02
#       7
#     4   8   8   8   8   8   8
#     4  12  24  40  66  98 132 174 214 280 336 388
#     4  12  25  43  63  94 133 175 225 267 328 407
#     4  12  26  41  61  96 136 179 220 273 335 397
#     4   9  20  40  67 103 134 165 218 278 333 399
#     4   9  20  41  70  99 130 173 224 278 335 394
#     4   9  20  42  70  98 126 169 227 277 329 395
#     4   9  20  40  67  96 128 168 218 272 332 398
#
# _framework density 22.657387
#
# number of rings (size 3 to 8) (size 9 to 14) (size 15 to 20)
#    0.000    1.846    2.308    3.231    3.231    1.846 
#    0.000    4.615    0.000    0.000    0.000    0.000 
#    0.000    0.000    0.000    0.000    0.000    0.000 
#
# Total GULP energy -144786.300531 kJ/mol
# GULP energy per Si atom -5568.703867 kJ/mol
# Density = 2.260582 g / cm^3
# Si number density = 22.657387 Si / 1000 Ang^3
#
#
#
# Elastic Constant Matrix: (Units=GPa)
#
#
# Indices 1 2 3 4 5 6 
#
# 1 106.4423 57.2776 32.1505 0.0000 0.0000 0.0000
# 2 57.2776 130.2202 36.6078 0.0000 0.0000 0.0000
# 3 32.1505 36.6078 43.0674 0.0000 0.0000 0.0000
# 4 0.0000 0.0000 0.0000 19.7859 0.0000 0.0000
# 5 0.0000 0.0000 0.0000 0.0000 32.8664 0.0000
# 6 0.0000 0.0000 0.0000 0.0000 0.0000 -1.6323
#
#
#
# Elastic Compliance Matrix: (Units=1/GPa)
#
#
# Indices 1 2 3 4 5 6 
#
# 1 0.013626 -0.004118 -0.006672 0.000000 0.000000 0.000000
# 2 -0.004118 0.011335 -0.006561 0.000000 0.000000 0.000000
# 3 -0.006672 -0.006561 0.033777 0.000000 0.000000 0.000000
# 4 0.000000 0.000000 0.000000 0.050541 0.000000 0.000000
# 5 0.000000 0.000000 0.000000 0.000000 0.030426 0.000000
# 6 0.000000 0.000000 0.000000 0.000000 0.000000 -0.612648
#
#
# Mechanical properties :
#
#
# Convention : Reuss Voigt Hill
#
# Bulk Modulus (GPa) = 41.60284 59.08906 50.34595
# Shear Modulus (GPa) = -11.62168 20.45029 4.41431
#
# Velocity S-wave (km/s) = -2.26725 3.00757 1.39732
# Velocity P-wave (km/s) = 3.39818 6.18034 4.98720
#
# Compressibility (1/GPa) = 0.02403682
#
# Stress axis : x y z
#
# Youngs Moduli (GPa) = 73.39067 88.22324 29.60617
#
# Poissons Ratio (x) = 0.36328 0.19752
# Poissons Ratio (y) = 0.30220 0.19424
# Poissons Ratio (z) = 0.48964 0.57882
#
# Static dielectric constant tensor:
#      x y z
#    x 1.817310 0.000000 0.000000 
#    y 0.000000 4.613120 0.000000 
#    z 0.000000 0.000000 1.920260 
# 
# From -- ./inp_files/13993.got.cif
#   From: 2010.05.17/outbox.cif.g08.bks.cpg/sg39_7_cif.got.tgz:13993.got - 2010.06.03 18:22:40.
