data_PCOD9362627
_publ_section_title
;
Structure prediction by ZEFSAII (Michael W. Deem and Ramdas Pophale) SiO2 
 PCOD9362627
Probable space group: A M A 2
;
_chemical_formula_sum "Si O2"
_cell_formula_units_Z 64
_cell_length_a 8.347316
_cell_length_b 31.322708
_cell_length_c 15.077698
_cell_angle_alpha 90.000000
_cell_angle_beta 90.000000
_cell_angle_gamma 90.000000
_cell_volume 3942.223086
_symmetry_space_group_name_H-M "A M A 2"
_symmetry_group_IT_number 40
_symmetry_cell_setting 'orthorhombic'
loop_
_space_group_symop_operation_xyz
x,y,z
-x,-y,z
1/2-x,y,z
1/2+x,-y,z
x,1/2+y,1/2+z
-x,1/2-y,1/2+z
1/2-x,1/2+y,1/2+z
1/2+x,1/2-y,1/2+z
loop_
_atom_site_type_symbol
_atom_site_label
_atom_site_fract_x
_atom_site_fract_y
_atom_site_fract_z
Si Si1 0.441663 0.547722 0.883360
Si Si2 0.941292 0.952367 0.180079
Si Si3 0.941791 0.631391 0.962651
Si Si4 0.555110 0.175875 0.283013
Si Si5 0.556413 0.774262 0.781631
Si Si6 0.443154 0.292652 0.475280
Si Si7 0.943476 0.131667 0.102167
Si Si8 0.943287 0.792935 0.582967
O O1 0.500000 0.500000 0.903638
O O2 0.250000 0.548630 0.882470
O O3 0.499534 0.557452 0.781663
O O4 0.503273 0.582640 0.953011
O O5 0.750000 0.952071 0.182160
O O6 0.999466 0.916875 0.110744
O O7 0.000000 0.000000 0.159101
O O8 0.750000 0.632414 0.964771
O O9 0.001425 0.652636 0.870929
O O10 0.004532 0.662843 0.038370
O O11 0.750000 0.174880 0.282753
O O12 0.506446 0.224810 0.283994
O O13 0.500848 0.153159 0.194046
O O14 0.750000 0.776206 0.783426
O O15 0.494075 0.793805 0.873015
O O16 0.503065 0.791257 0.685579
O O17 0.250000 0.291574 0.479925
O O18 0.497395 0.335671 0.525799
O O19 0.499184 0.249052 0.526372
O O20 0.750000 0.131223 0.100553
O O21 0.750000 0.790715 0.582874
#
# Coordination Sequence:
#
# PCOD9362627 Si02
#       8
#     8   8   8   8   8   8   8   8
#     4  10  20  33  49  72 102 132 165 203 247 297
#     4  10  20  32  48  72 100 130 164 203 245 294
#     4  11  20  31  50  73  99 133 171 208 248 294
#     4   9  16  27  46  69  95 130 168 201 241 289
#     4  10  19  34  50  67  97 136 172 208 249 292
#     4  10  20  32  49  72  98 130 169 210 250 292
#     4  10  18  32  50  69  98 135 168 202 248 297
#     4  10  20  33  49  70  99 134 170 207 249 296
#
# _framework density 16.234494999999999
#
# number of rings (size 3 to 8) (size 9 to 14) (size 15 to 20)
#    0.000    2.000    3.750    1.125    0.000    2.000 
#    0.000    0.625    0.000    0.000    0.000    0.875 
#    0.000    2.000    0.000    0.000    0.000    0.000 
#
# Total GULP energy -178401.406987 kJ/mol
# GULP energy per Si atom -5575.043968 kJ/mol
# Density = 1.619754 g / cm^3
# Si number density = 16.234495 Si / 1000 Ang^3
#
#
#
# Elastic Constant Matrix: (Units=GPa)
#
#
# Indices 1 2 3 4 5 6 
#
# 1 18.2800 17.2607 17.1158 0.0000 0.0000 0.0000
# 2 17.2607 133.0011 69.4736 0.0000 0.0000 0.0000
# 3 17.1158 69.4736 114.5062 0.0000 0.0000 0.0000
# 4 0.0000 0.0000 0.0000 21.9644 0.0000 0.0000
# 5 0.0000 0.0000 0.0000 0.0000 20.9066 0.0000
# 6 0.0000 0.0000 0.0000 0.0000 0.0000 19.6902
#
#
#
# Elastic Compliance Matrix: (Units=1/GPa)
#
#
# Indices 1 2 3 4 5 6 
#
# 1 0.065784 -0.004979 -0.006812 0.000000 0.000000 0.000000
# 2 -0.004979 0.011384 -0.006163 0.000000 0.000000 0.000000
# 3 -0.006812 -0.006163 0.013490 0.000000 0.000000 0.000000
# 4 0.000000 0.000000 0.000000 0.045528 0.000000 0.000000
# 5 0.000000 0.000000 0.000000 0.000000 0.047832 0.000000
# 6 0.000000 0.000000 0.000000 0.000000 0.000000 0.050787
#
#
# Mechanical properties :
#
#
# Convention : Reuss Voigt Hill
#
# Bulk Modulus (GPa) = 18.26456 52.60973 35.43714
# Shear Modulus (GPa) = 17.30322 23.30806 20.30564
#
# Velocity S-wave (km/s) = 3.26825 3.79319 3.54046
# Velocity P-wave (km/s) = 5.05142 7.18755 6.21199
#
# Compressibility (1/GPa) = 0.05475085
#
# Stress axis : x y z
#
# Youngs Moduli (GPa) = 15.20121 87.84245 74.12630
#
# Poissons Ratio (x) = 0.43736 0.50497
# Poissons Ratio (y) = 0.07569 0.45682
# Poissons Ratio (z) = 0.10355 0.54135
#
# Static dielectric constant tensor:
#      x y z
#    x 1.563110 0.000000 0.000000 
#    y 0.000000 1.552160 0.000000 
#    z 0.000000 0.000000 1.546930 
# 
# From -- ./inp_files/15860.got.cif
#   From: 2010.05.17/outbox.cif.g08.bks.cpg/sg40_8_cif.got.tgz:15860.got - 2010.06.03 18:35:42.
