data_PCOD9362834
_publ_section_title
;
Structure prediction by ZEFSAII (Michael W. Deem and Ramdas Pophale) SiO2 
 PCOD9362834
Probable space group: A M A 2
;
_chemical_formula_sum "Si O2"
_cell_formula_units_Z 60
_cell_length_a 15.562693
_cell_length_b 12.589243
_cell_length_c 12.815157
_cell_angle_alpha 90.000000
_cell_angle_beta 90.000000
_cell_angle_gamma 90.000000
_cell_volume 2510.777904
_symmetry_space_group_name_H-M "A M A 2"
_symmetry_group_IT_number 40
_symmetry_cell_setting 'orthorhombic'
loop_
_space_group_symop_operation_xyz
x,y,z
-x,-y,z
1/2-x,y,z
1/2+x,-y,z
x,1/2+y,1/2+z
-x,1/2-y,1/2+z
1/2-x,1/2+y,1/2+z
1/2+x,1/2-y,1/2+z
loop_
_atom_site_type_symbol
_atom_site_label
_atom_site_fract_x
_atom_site_fract_y
_atom_site_fract_z
Si Si1 0.607745 0.280506 0.179610
Si Si2 0.847189 0.541569 0.658753
Si Si3 0.105482 0.497525 0.208604
Si Si4 0.750000 0.778975 0.423504
Si Si5 0.046965 0.234827 0.907181
Si Si6 0.407485 0.774272 0.625582
Si Si7 0.612245 0.583640 0.434673
Si Si8 0.096899 0.617587 0.818184
O O1 0.652730 0.169802 0.159538
O O2 0.641978 0.397144 0.153506
O O3 0.598150 0.287505 0.303165
O O4 0.512116 0.273180 0.132053
O O5 0.750000 0.502338 0.669621
O O6 0.880859 0.518403 0.542135
O O7 0.901459 0.492935 0.754207
O O8 0.128869 0.389330 0.151168
O O9 0.130613 0.480990 0.329308
O O10 0.000000 0.500000 0.205410
O O11 0.676087 0.684554 0.436765
O O12 0.825681 0.866413 0.397358
O O13 0.980883 0.137868 0.923898
O O14 0.987976 0.338118 0.876666
O O15 0.107403 0.246106 0.006542
O O16 0.382291 0.697856 0.720484
#
# Coordination Sequence:
#
# PCOD9362834 Si02
#       8
#     8   8   8   4   8   8   8   8
#     4  10  22  40  55  86 129 157 199 258 314 361
#     4  12  25  41  59  92 126 172 212 255 309 377
#     4  10  19  38  61  90 119 155 194 258 315 370
#     4  10  18  40  60  88 124 158 210 252 300 382
#     4  10  20  39  62  94 118 156 204 262 322 368
#     4  10  19  37  64  94 119 153 209 259 317 368
#     4  11  20  36  67  92 117 156 213 256 307 371
#     4  10  22  39  63  91 127 163 203 263 311 377
#
# _framework density 23.896974
#
# number of rings (size 3 to 8) (size 9 to 14) (size 15 to 20)
#    0.000    1.600    8.000    0.000    1.867    2.133 
#    8.400    0.000    1.467    0.000    0.000    0.000 
#    0.000    0.000    0.000    0.000    0.000    0.000 
#
# Total GULP energy -167095.972024 kJ/mol
# GULP energy per Si atom -5569.865734 kJ/mol
# Density = 2.384258 g / cm^3
# Si number density = 23.896974 Si / 1000 Ang^3
#
#
#
# Elastic Constant Matrix: (Units=GPa)
#
#
# Indices 1 2 3 4 5 6 
#
# 1 34.7855 12.0381 6.4734 0.0000 0.0000 0.0000
# 2 12.0381 111.3219 9.3119 0.0000 0.0000 0.0000
# 3 6.4734 9.3119 87.4498 0.0000 0.0000 0.0000
# 4 0.0000 0.0000 0.0000 -5.8341 0.0000 0.0000
# 5 0.0000 0.0000 0.0000 0.0000 88.7908 0.0000
# 6 0.0000 0.0000 0.0000 0.0000 0.0000 404.9233
#
#
#
# Elastic Compliance Matrix: (Units=1/GPa)
#
#
# Indices 1 2 3 4 5 6 
#
# 1 0.030176 -0.003104 -0.001903 0.000000 0.000000 0.000000
# 2 -0.003104 0.009383 -0.000769 0.000000 0.000000 0.000000
# 3 -0.001903 -0.000769 0.011658 0.000000 0.000000 0.000000
# 4 0.000000 0.000000 0.000000 -0.171406 0.000000 0.000000
# 5 0.000000 0.000000 0.000000 0.000000 0.011262 0.000000
# 6 0.000000 0.000000 0.000000 0.000000 0.000000 0.002470
#
#
# Mechanical properties :
#
#
# Convention : Reuss Voigt Hill
#
# Bulk Modulus (GPa) = 25.21192 32.13379 28.67285
# Shear Modulus (GPa) = -61.21252 111.29159 25.03953
#
# Velocity S-wave (km/s) = -5.06663 6.83173 3.24050
# Velocity P-wave (km/s) = 4.86359 8.70092 5.10154
#
# Compressibility (1/GPa) = 0.03966378
#
# Stress axis : x y z
#
# Youngs Moduli (GPa) = 33.13892 106.57611 85.77846
#
# Poissons Ratio (x) = 0.33081 0.16326
# Poissons Ratio (y) = 0.10286 0.06599
# Poissons Ratio (z) = 0.06307 0.08199
#
# Static dielectric constant tensor:
#      x y z
#    x 1.832780 0.000000 0.000000 
#    y 0.000000 1.999440 0.000000 
#    z 0.000000 0.000000 1.929730 
# 
# From -- ./inp_files/17801.got.cif
#   From: 2010.05.17/outbox.cif.g08.bks.cpg/sg40_9_cif.got.tgz:17801.got - 2010.06.03 18:35:42.
