data_PCOD9362010
_publ_section_title
;
Structure prediction by ZEFSAII (Michael W. Deem and Ramdas Pophale) SiO2 
 PCOD9362010
Probable space group: A B M 2
;
_chemical_formula_sum "Si O2"
_cell_formula_units_Z 64
_cell_length_a 11.303554
_cell_length_b 31.330002
_cell_length_c 8.783316
_cell_angle_alpha 90.000000
_cell_angle_beta 90.000000
_cell_angle_gamma 90.000000
_cell_volume 3110.526773
_symmetry_space_group_name_H-M "A B M 2"
_symmetry_group_IT_number 39
_symmetry_cell_setting 'orthorhombic'
loop_
_space_group_symop_operation_xyz
x,y,z
-x,-y,z
-x,1/2+y,z
x,1/2-y,z
x,1/2+y,1/2+z
-x,1/2-y,1/2+z
-x,y,1/2+z
x,-y,1/2+z
loop_
_atom_site_type_symbol
_atom_site_label
_atom_site_fract_x
_atom_site_fract_y
_atom_site_fract_z
Si Si1 0.244261 0.592218 0.105330
Si Si2 0.758983 0.998718 0.742195
Si Si3 0.600979 0.966149 0.999963
Si Si4 0.450245 0.380252 0.830041
Si Si5 0.877166 0.700420 0.064912
Si Si6 0.665436 0.147889 0.620444
Si Si7 0.948806 0.649660 0.767146
Si Si8 0.832606 0.413051 0.773243
O O1 0.211639 0.543343 0.146440
O O2 0.363345 0.604684 0.194146
O O3 0.148339 0.625558 0.167068
O O4 0.246333 0.593554 0.924003
O O5 0.646647 0.024625 0.670288
O O6 0.853379 0.036590 0.753319
O O7 0.714926 0.978748 0.899980
O O8 0.546350 0.922059 0.940021
O O9 0.500000 0.000000 0.972849
O O10 0.564194 0.360863 0.745841
O O11 0.390814 0.348443 0.952383
O O12 0.881164 0.750000 0.026911
O O13 0.893310 0.670444 0.917066
O O14 0.753120 0.687583 0.144340
O O15 0.983550 0.686648 0.175512
O O16 0.757760 0.107844 0.635034
O O17 0.048838 0.613859 0.798850
#
# Coordination Sequence:
#
# PCOD9362010 Si02
#       8
#     8   8   8   8   8   8   8   8
#     4  11  23  41  61  94 132 179 229 267 320 392
#     4  11  22  35  54  86 129 175 225 272 311 364
#     4  11  22  33  52  83 122 172 228 271 306 357
#     4  11  23  37  62  90 133 176 217 262 321 386
#     4  11  24  46  74 102 129 159 215 279 341 415
#     4  11  23  40  66  97 131 174 214 264 332 390
#     4  11  23  43  72  98 126 171 214 274 343 398
#     4  11  22  41  61  90 136 172 228 277 318 382
#
# _framework density 20.575294
#
# number of rings (size 3 to 8) (size 9 to 14) (size 15 to 20)
#    0.000    1.000    5.000    2.250    3.500    0.500 
#    0.000    1.875    0.000    0.000    0.000    0.000 
#    0.000    0.000    0.000    0.000    0.000    0.000 
#
# Total GULP energy -178621.651396 kJ/mol
# GULP energy per Si atom -5581.926606 kJ/mol
# Density = 2.052846 g / cm^3
# Si number density = 20.575294 Si / 1000 Ang^3
#
#
#
# Elastic Constant Matrix: (Units=GPa)
#
#
# Indices 1 2 3 4 5 6 
#
# 1 76.8876 51.1088 29.4521 0.0000 0.0000 0.0000
# 2 51.1088 92.5251 21.2590 0.0000 0.0000 0.0000
# 3 29.4521 21.2590 91.5367 0.0000 0.0000 0.0000
# 4 0.0000 0.0000 0.0000 20.2559 0.0000 0.0000
# 5 0.0000 0.0000 0.0000 0.0000 28.0001 0.0000
# 6 0.0000 0.0000 0.0000 0.0000 0.0000 17.0684
#
#
#
# Elastic Compliance Matrix: (Units=1/GPa)
#
#
# Indices 1 2 3 4 5 6 
#
# 1 0.022204 -0.011222 -0.004538 0.000000 0.000000 0.000000
# 2 -0.011222 0.017089 -0.000358 0.000000 0.000000 0.000000
# 3 -0.004538 -0.000358 0.012468 0.000000 0.000000 0.000000
# 4 0.000000 0.000000 0.000000 0.049368 0.000000 0.000000
# 5 0.000000 0.000000 0.000000 0.000000 0.035714 0.000000
# 6 0.000000 0.000000 0.000000 0.000000 0.000000 0.058588
#
#
# Mechanical properties :
#
#
# Convention : Reuss Voigt Hill
#
# Bulk Modulus (GPa) = 51.21793 51.62102 51.41947
# Shear Modulus (GPa) = 21.35148 23.67351 22.51250
#
# Velocity S-wave (km/s) = 3.22487 3.39570 3.31139
# Velocity P-wave (km/s) = 6.23003 6.36535 6.29806
#
# Compressibility (1/GPa) = 0.01952441
#
# Stress axis : x y z
#
# Youngs Moduli (GPa) = 45.03704 58.51677 80.20665
#
# Poissons Ratio (x) = 0.65669 0.36396
# Poissons Ratio (y) = 0.50542 0.02872
# Poissons Ratio (z) = 0.20437 0.02095
#
# Static dielectric constant tensor:
#      x y z
#    x 1.767400 0.000000 0.000000 
#    y 0.000000 1.734980 0.000000 
#    z 0.000000 0.000000 1.775140 
# 
# From -- ./inp_files/2894.got.cif
#   From: 2010.05.17/outbox.cif.g08.bks.cpg/sg39_2_cif.got.tgz:2894.got - 2010.06.03 18:22:40.
