data_PCOD9362740
_publ_section_title
;
Structure prediction by ZEFSAII (Michael W. Deem and Ramdas Pophale) SiO2 
 PCOD9362740
Probable space group: A M A 2
;
_chemical_formula_sum "Si O2"
_cell_formula_units_Z 56
_cell_length_a 8.324155
_cell_length_b 16.018924
_cell_length_c 20.392052
_cell_angle_alpha 90.000000
_cell_angle_beta 90.000000
_cell_angle_gamma 90.000000
_cell_volume 2719.157911
_symmetry_space_group_name_H-M "A M A 2"
_symmetry_group_IT_number 40
_symmetry_cell_setting 'orthorhombic'
loop_
_space_group_symop_operation_xyz
x,y,z
-x,-y,z
1/2-x,y,z
1/2+x,-y,z
x,1/2+y,1/2+z
-x,1/2-y,1/2+z
1/2-x,1/2+y,1/2+z
1/2+x,1/2-y,1/2+z
loop_
_atom_site_type_symbol
_atom_site_label
_atom_site_fract_x
_atom_site_fract_y
_atom_site_fract_z
Si Si1 0.555986 0.094240 0.203190
Si Si2 0.932084 0.586653 0.448074
Si Si3 0.062298 0.244175 0.619496
Si Si4 0.566576 0.879549 0.817522
Si Si5 0.941565 0.684158 0.834708
Si Si6 0.935563 0.079886 0.681634
Si Si7 0.061800 0.264364 0.976053
O O1 0.750000 0.093410 0.204876
O O2 0.511258 0.165464 0.149254
O O3 0.497256 0.125213 0.275841
O O4 0.500000 0.000000 0.189128
O O5 0.750000 0.601214 0.470357
O O6 0.000000 0.500000 0.474879
O O7 0.941248 0.583705 0.369133
O O8 0.044115 0.665751 0.461201
O O9 0.250000 0.234189 0.637168
O O10 0.961274 0.169442 0.649809
O O11 0.038857 0.230093 0.542190
O O12 0.750000 0.892189 0.840269
O O13 0.537570 0.779994 0.812088
O O14 0.542213 0.916619 0.746663
O O15 0.750000 0.669328 0.839144
O O16 0.998530 0.686016 0.910918
O O17 0.750000 0.069222 0.696933
O O18 0.000000 0.000000 0.641491
O O19 0.250000 0.284444 0.986692
#
# Coordination Sequence:
#
# PCOD9362740 Si02
#       7
#     8   8   8   8   8   8   8
#     4  10  21  39  63  92 124 165 210 259 316 373
#     4  11  21  34  52  81 116 153 198 245 298 362
#     4  11  23  42  63  87 125 166 207 258 318 379
#     4  10  18  34  57  83 117 154 190 237 299 359
#     4   8  16  35  60  84 115 156 197 245 304 360
#     4  12  24  38  59  88 119 154 198 247 305 371
#     4  10  21  38  61  85 115 159 206 254 316 378
#
# _framework density 20.594611
#
# number of rings (size 3 to 8) (size 9 to 14) (size 15 to 20)
#    0.000    1.714    1.429    5.143    0.000    1.714 
#    0.000    3.571    0.000    1.714    0.000    0.000 
#    0.000    0.000    0.000    0.000    0.000    0.000 
#
# Total GULP energy -156122.134933 kJ/mol
# GULP energy per Si atom -5575.790533 kJ/mol
# Density = 2.054774 g / cm^3
# Si number density = 20.594611 Si / 1000 Ang^3
#
#
#
# Elastic Constant Matrix: (Units=GPa)
#
#
# Indices 1 2 3 4 5 6 
#
# 1 67.8153 22.2930 5.6378 0.0000 0.0000 0.0000
# 2 22.2930 85.8169 18.5583 0.0000 0.0000 0.0000
# 3 5.6378 18.5583 69.7441 0.0000 0.0000 0.0000
# 4 0.0000 0.0000 0.0000 2.3098 0.0000 0.0000
# 5 0.0000 0.0000 0.0000 0.0000 19.9469 0.0000
# 6 0.0000 0.0000 0.0000 0.0000 0.0000 27.2425
#
#
#
# Elastic Compliance Matrix: (Units=1/GPa)
#
#
# Indices 1 2 3 4 5 6 
#
# 1 0.016125 -0.004146 -0.000200 0.000000 0.000000 0.000000
# 2 -0.004146 0.013430 -0.003238 0.000000 0.000000 0.000000
# 3 -0.000200 -0.003238 0.015216 0.000000 0.000000 0.000000
# 4 0.000000 0.000000 0.000000 0.432943 0.000000 0.000000
# 5 0.000000 0.000000 0.000000 0.000000 0.050133 0.000000
# 6 0.000000 0.000000 0.000000 0.000000 0.000000 0.036707
#
#
# Mechanical properties :
#
#
# Convention : Reuss Voigt Hill
#
# Bulk Modulus (GPa) = 33.78099 35.15049 34.46574
# Shear Modulus (GPa) = 8.48045 21.69232 15.08638
#
# Velocity S-wave (km/s) = 2.03144 3.24898 2.70948
# Velocity P-wave (km/s) = 4.68410 5.58385 5.15365
#
# Compressibility (1/GPa) = 0.02960245
#
# Stress axis : x y z
#
# Youngs Moduli (GPa) = 62.01396 74.46030 65.72003
#
# Poissons Ratio (x) = 0.30868 0.01317
# Poissons Ratio (y) = 0.25709 0.21283
# Poissons Ratio (z) = 0.01243 0.24114
#
# Static dielectric constant tensor:
#      x y z
#    x 1.691780 0.000000 0.000000 
#    y 0.000000 1.793500 0.000000 
#    z 0.000000 0.000000 1.814340 
# 
# From -- ./inp_files/22149.got.cif
#   From: 2010.05.17/outbox.cif.g08.bks.cpg/sg40_12_cif.got.tgz:22149.got - 2010.06.03 18:35:42.
