data_PCOD9362919
_publ_section_title
;
Structure prediction by ZEFSAII (Michael W. Deem and Ramdas Pophale) SiO2 
 PCOD9362919
Probable space group: A M A 2
;
_chemical_formula_sum "Si O2"
_cell_formula_units_Z 64
_cell_length_a 8.705525
_cell_length_b 27.167025
_cell_length_c 19.105534
_cell_angle_alpha 90.000000
_cell_angle_beta 90.000000
_cell_angle_gamma 90.000000
_cell_volume 4518.520221
_symmetry_space_group_name_H-M "A M A 2"
_symmetry_group_IT_number 40
_symmetry_cell_setting 'orthorhombic'
loop_
_space_group_symop_operation_xyz
x,y,z
-x,-y,z
1/2-x,y,z
1/2+x,-y,z
x,1/2+y,1/2+z
-x,1/2-y,1/2+z
1/2-x,1/2+y,1/2+z
1/2+x,1/2-y,1/2+z
loop_
_atom_site_type_symbol
_atom_site_label
_atom_site_fract_x
_atom_site_fract_y
_atom_site_fract_z
Si Si1 0.434679 0.754500 0.964690
Si Si2 0.072115 0.800150 0.340489
Si Si3 0.936555 0.145235 0.205664
Si Si4 0.934439 0.147856 0.882253
Si Si5 0.435346 0.446605 0.469108
Si Si6 0.433740 0.053537 0.124029
Si Si7 0.427975 0.197358 0.753837
Si Si8 0.437659 0.255011 0.624022
O O1 0.250000 0.756087 0.966502
O O2 0.484497 0.711498 0.911804
O O3 0.488282 0.806374 0.930830
O O4 0.489614 0.749381 0.044314
O O5 0.250000 0.810101 0.356627
O O6 0.016263 0.840806 0.285042
O O7 0.066793 0.749301 0.295857
O O8 0.750000 0.141873 0.204448
O O9 0.979549 0.191730 0.156153
O O10 0.009738 0.095994 0.175863
O O11 0.750000 0.148746 0.883356
O O12 0.983659 0.096489 0.916188
O O13 0.988136 0.158747 0.803540
O O14 0.500000 0.500000 0.448954
O O15 0.250000 0.448353 0.472532
O O16 0.499170 0.435450 0.546641
O O17 0.250000 0.051388 0.120713
O O18 0.500000 0.000000 0.143906
O O19 0.250000 0.182915 0.747529
O O20 0.490039 0.212270 0.677451
O O21 0.250000 0.253662 0.625353
#
# Coordination Sequence:
#
# PCOD9362919 Si02
#       8
#     8   8   8   8   8   8   8   8
#     4   9  15  24  39  57  79 106 135 163 192 233
#     4   8  15  26  39  56  78 104 132 163 198 232
#     4   9  16  29  45  57  77 109 139 165 198 238
#     4   9  17  27  40  57  78 106 134 162 199 237
#     4  10  19  31  44  58  79 106 136 168 202 237
#     4  11  21  31  43  60  81 104 134 169 202 234
#     4   8  14  25  40  56  76 103 135 166 193 230
#     4   8  14  25  41  59  79 108 139 164 197 237
#
# _framework density 14.163930000000001
#
# number of rings (size 3 to 8) (size 9 to 14) (size 15 to 20)
#    0.000    3.000    0.000    4.500    0.000    3.500 
#    0.000    5.625    0.000    0.000    0.000    0.000 
#    0.000    1.000    0.000    6.500    0.000    5.250 
#
# Total GULP energy -178135.991026 kJ/mol
# GULP energy per Si atom -5566.749720 kJ/mol
# Density = 1.413169 g / cm^3
# Si number density = 14.163930 Si / 1000 Ang^3
#
#
#
# Elastic Constant Matrix: (Units=GPa)
#
#
# Indices 1 2 3 4 5 6 
#
# 1 28.7296 25.8904 25.4778 0.0000 0.0000 0.0000
# 2 25.8904 89.3940 61.7764 0.0000 0.0000 0.0000
# 3 25.4778 61.7764 118.8593 0.0000 0.0000 0.0000
# 4 0.0000 0.0000 0.0000 27.9336 0.0000 0.0000
# 5 0.0000 0.0000 0.0000 0.0000 20.4833 0.0000
# 6 0.0000 0.0000 0.0000 0.0000 0.0000 19.4342
#
#
#
# Elastic Compliance Matrix: (Units=1/GPa)
#
#
# Indices 1 2 3 4 5 6 
#
# 1 0.048839 -0.010783 -0.004864 0.000000 0.000000 0.000000
# 2 -0.010783 0.019837 -0.007999 0.000000 0.000000 0.000000
# 3 -0.004864 -0.007999 0.013613 0.000000 0.000000 0.000000
# 4 0.000000 0.000000 0.000000 0.035799 0.000000 0.000000
# 5 0.000000 0.000000 0.000000 0.000000 0.048820 0.000000
# 6 0.000000 0.000000 0.000000 0.000000 0.000000 0.051456
#
#
# Mechanical properties :
#
#
# Convention : Reuss Voigt Hill
#
# Bulk Modulus (GPa) = 28.57425 51.47468 40.02447
# Shear Modulus (GPa) = 18.02957 21.82610 19.92783
#
# Velocity S-wave (km/s) = 3.57167 3.92977 3.75499
# Velocity P-wave (km/s) = 6.10138 7.55061 6.86435
#
# Compressibility (1/GPa) = 0.03499654
#
# Stress axis : x y z
#
# Youngs Moduli (GPa) = 20.47562 50.41045 73.45770
#
# Poissons Ratio (x) = 0.54359 0.35730
# Poissons Ratio (y) = 0.22080 0.58757
# Poissons Ratio (z) = 0.09960 0.40322
#
# Static dielectric constant tensor:
#      x y z
#    x 1.482900 0.000000 0.000000 
#    y 0.000000 1.453700 0.000000 
#    z 0.000000 0.000000 1.477390 
# 
# From -- ./inp_files/19726.got.cif
#   From: 2010.05.17/outbox.cif.g08.bks.cpg/sg40_10_cif.got.tgz:19726.got - 2010.06.03 18:35:42.
