data_PCOD9362491
_publ_section_title
;
Structure prediction by ZEFSAII (Michael W. Deem and Ramdas Pophale) SiO2 
 PCOD9362491
Probable space group: A M A 2
;
_chemical_formula_sum "Si O2"
_cell_formula_units_Z 56
_cell_length_a 8.897292
_cell_length_b 18.872292
_cell_length_c 21.141358
_cell_angle_alpha 90.000000
_cell_angle_beta 90.000000
_cell_angle_gamma 90.000000
_cell_volume 3549.893891
_symmetry_space_group_name_H-M "A M A 2"
_symmetry_group_IT_number 40
_symmetry_cell_setting 'orthorhombic'
loop_
_space_group_symop_operation_xyz
x,y,z
-x,-y,z
1/2-x,y,z
1/2+x,-y,z
x,1/2+y,1/2+z
-x,1/2-y,1/2+z
1/2-x,1/2+y,1/2+z
1/2+x,1/2-y,1/2+z
loop_
_atom_site_type_symbol
_atom_site_label
_atom_site_fract_x
_atom_site_fract_y
_atom_site_fract_z
Si Si1 0.927801 0.648526 0.232710
Si Si2 0.429013 0.078128 0.611897
Si Si3 0.573000 0.280862 0.807598
Si Si4 0.427051 0.207812 0.926915
Si Si5 0.571561 0.576898 0.369164
Si Si6 0.571700 0.924582 0.364932
Si Si7 0.068864 0.850008 0.488762
O O1 0.750000 0.637695 0.219404
O O2 0.952320 0.732189 0.246524
O O3 0.962595 0.608186 0.298828
O O4 0.024526 0.618178 0.176006
O O5 0.250000 0.073404 0.605794
O O6 0.499242 0.118821 0.552189
O O7 0.500000 0.000000 0.614015
O O8 0.750000 0.268580 0.825148
O O9 0.468969 0.248474 0.862043
O O10 0.549381 0.364872 0.810591
O O11 0.250000 0.194876 0.930548
O O12 0.511522 0.133538 0.920211
O O13 0.468899 0.266594 0.979196
O O14 0.500000 0.500000 0.376112
O O15 0.750000 0.572195 0.373869
O O16 0.750000 0.932254 0.375250
O O17 0.497906 0.893025 0.428913
O O18 0.500000 0.000000 0.350062
O O19 0.250000 0.856794 0.488528
#
# Coordination Sequence:
#
# PCOD9362491 Si02
#       7
#     8   8   8   8   8   8   8
#     4   9  18  33  49  66  90 122 157 191 226 268
#     4  12  24  35  48  67  92 124 158 192 227 267
#     4   8  16  30  47  65  89 121 153 186 228 274
#     4   9  17  29  47  68  90 117 151 189 231 275
#     4  10  19  30  47  70  97 125 153 188 230 273
#     4  10  18  29  46  70  97 123 152 188 230 274
#     4  10  20  34  49  66  91 124 158 192 228 271
#
# _framework density 15.775119999999999
#
# number of rings (size 3 to 8) (size 9 to 14) (size 15 to 20)
#    0.000    2.286    0.000    4.714    0.000    6.286 
#    0.000    0.000    0.000    0.000    0.000    1.000 
#    0.000    2.286    0.000    0.000    0.000    0.000 
#
# Total GULP energy -156047.692294 kJ/mol
# GULP energy per Si atom -5573.131868 kJ/mol
# Density = 1.573922 g / cm^3
# Si number density = 15.775120 Si / 1000 Ang^3
#
#
#
# Elastic Constant Matrix: (Units=GPa)
#
#
# Indices 1 2 3 4 5 6 
#
# 1 78.6188 69.3964 42.3729 0.0000 0.0000 0.0000
# 2 69.3964 158.9885 56.3657 0.0000 0.0000 0.0000
# 3 42.3729 56.3657 60.4176 0.0000 0.0000 0.0000
# 4 0.0000 0.0000 0.0000 21.9639 0.0000 0.0000
# 5 0.0000 0.0000 0.0000 0.0000 22.1372 0.0000
# 6 0.0000 0.0000 0.0000 0.0000 0.0000 23.4739
#
#
#
# Elastic Compliance Matrix: (Units=1/GPa)
#
#
# Indices 1 2 3 4 5 6 
#
# 1 0.024680 -0.006927 -0.010846 0.000000 0.000000 0.000000
# 2 -0.006927 0.011343 -0.005724 0.000000 0.000000 0.000000
# 3 -0.010846 -0.005724 0.029498 0.000000 0.000000 0.000000
# 4 0.000000 0.000000 0.000000 0.045529 0.000000 0.000000
# 5 0.000000 0.000000 0.000000 0.000000 0.045173 0.000000
# 6 0.000000 0.000000 0.000000 0.000000 0.000000 0.042601
#
#
# Mechanical properties :
#
#
# Convention : Reuss Voigt Hill
#
# Bulk Modulus (GPa) = 53.97679 70.47721 62.22700
# Shear Modulus (GPa) = 19.84183 22.17432 21.00808
#
# Velocity S-wave (km/s) = 3.55038 3.75327 3.65324
# Velocity P-wave (km/s) = 7.14826 7.97219 7.57144
#
# Compressibility (1/GPa) = 0.01852648
#
# Stress axis : x y z
#
# Youngs Moduli (GPa) = 40.51867 88.16346 33.90050
#
# Poissons Ratio (x) = 0.61073 0.36769
# Poissons Ratio (y) = 0.28068 0.19403
# Poissons Ratio (z) = 0.43948 0.50461
#
# Static dielectric constant tensor:
#      x y z
#    x 1.526270 0.000000 0.000000 
#    y 0.000000 1.553830 0.000000 
#    z 0.000000 0.000000 1.504830 
# 
# From -- ./inp_files/19524.got.cif
#   From: 2010.05.17/outbox.cif.g08.bks.cpg/sg40_10_cif.got.tgz:19524.got - 2010.06.03 18:35:42.
