data_PCOD9362648
_publ_section_title
;
Structure prediction by ZEFSAII (Michael W. Deem and Ramdas Pophale) SiO2 
 PCOD9362648
Probable space group: A M A 2
;
_chemical_formula_sum "Si O2"
_cell_formula_units_Z 64
_cell_length_a 8.104249
_cell_length_b 29.535326
_cell_length_c 12.752120
_cell_angle_alpha 90.000000
_cell_angle_beta 90.000000
_cell_angle_gamma 90.000000
_cell_volume 3052.368308
_symmetry_space_group_name_H-M "A M A 2"
_symmetry_group_IT_number 40
_symmetry_cell_setting 'orthorhombic'
loop_
_space_group_symop_operation_xyz
x,y,z
-x,-y,z
1/2-x,y,z
1/2+x,-y,z
x,1/2+y,1/2+z
-x,1/2-y,1/2+z
1/2-x,1/2+y,1/2+z
1/2+x,1/2-y,1/2+z
loop_
_atom_site_type_symbol
_atom_site_label
_atom_site_fract_x
_atom_site_fract_y
_atom_site_fract_z
Si Si1 0.553788 0.333474 0.514120
Si Si2 0.943460 0.935074 0.937881
Si Si3 0.440025 0.638686 0.732424
Si Si4 0.948949 0.652025 0.134329
Si Si5 0.552598 0.050240 0.700391
Si Si6 0.936760 0.546989 0.657901
Si Si7 0.950293 0.278956 0.319176
Si Si8 0.440828 0.312883 0.912092
O O1 0.750000 0.326379 0.527524
O O2 0.534874 0.381340 0.455837
O O3 0.485515 0.334954 0.631472
O O4 0.491604 0.297403 0.432379
O O5 0.750000 0.945697 0.953643
O O6 0.995889 0.948045 0.821752
O O7 0.050940 0.955194 0.031586
O O8 0.250000 0.651329 0.751498
O O9 0.446730 0.587366 0.692990
O O10 0.541250 0.643937 0.837885
O O11 0.750000 0.649141 0.127075
O O12 0.006378 0.599471 0.153104
O O13 0.987938 0.687303 0.228509
O O14 0.012988 0.674656 0.025676
O O15 0.750000 0.051141 0.695978
O O16 0.500000 0.000000 0.658559
O O17 0.750000 0.556804 0.688089
O O18 0.000000 0.500000 0.701915
O O19 0.750000 0.281236 0.312083
O O20 0.003976 0.226730 0.333124
O O21 0.250000 0.300896 0.931592
#
# Coordination Sequence:
#
# PCOD9362648 Si02
#       8
#     8   8   8   8   8   8   8   8
#     4   8  16  31  54  83 114 150 187 232 287 347
#     4  10  18  32  53  81 120 159 194 240 298 358
#     4  10  21  38  60  86 118 156 202 246 297 353
#     4  10  23  42  62  87 123 160 203 257 311 368
#     4  11  22  36  56  84 116 158 205 254 310 370
#     4  11  21  35  56  84 119 157 201 249 302 360
#     4  10  20  37  62  89 117 155 197 240 302 366
#     4  10  23  41  61  86 120 161 201 248 307 364
#
# _framework density 20.967327000000001
#
# number of rings (size 3 to 8) (size 9 to 14) (size 15 to 20)
#    0.000    2.000    1.250    3.375    1.750    1.500 
#    0.000    1.250    0.000    1.500    0.000    0.000 
#    0.000    0.000    0.000    0.000    0.000    0.000 
#
# Total GULP energy -178261.041804 kJ/mol
# GULP energy per Si atom -5570.657556 kJ/mol
# Density = 2.091960 g / cm^3
# Si number density = 20.967327 Si / 1000 Ang^3
#
#
#
# Elastic Constant Matrix: (Units=GPa)
#
#
# Indices 1 2 3 4 5 6 
#
# 1 41.7318 11.9146 -6.6179 0.0000 0.0000 0.0000
# 2 11.9146 95.6478 47.9018 0.0000 0.0000 0.0000
# 3 -6.6179 47.9018 91.3209 0.0000 0.0000 0.0000
# 4 0.0000 0.0000 0.0000 -4.2303 0.0000 0.0000
# 5 0.0000 0.0000 0.0000 0.0000 14.5022 0.0000
# 6 0.0000 0.0000 0.0000 0.0000 0.0000 17.8480
#
#
#
# Elastic Compliance Matrix: (Units=1/GPa)
#
#
# Indices 1 2 3 4 5 6 
#
# 1 0.026388 -0.005757 0.004932 0.000000 0.000000 0.000000
# 2 -0.005757 0.015436 -0.008514 0.000000 0.000000 0.000000
# 3 0.004932 -0.008514 0.015774 0.000000 0.000000 0.000000
# 4 0.000000 0.000000 0.000000 -0.236390 0.000000 0.000000
# 5 0.000000 0.000000 0.000000 0.000000 0.068955 0.000000
# 6 0.000000 0.000000 0.000000 0.000000 0.000000 0.056029
#
#
# Mechanical properties :
#
#
# Convention : Reuss Voigt Hill
#
# Bulk Modulus (GPa) = 25.69361 37.23303 31.46332
# Shear Modulus (GPa) = -225.67112 17.32411 -104.17351
#
# Velocity S-wave (km/s) = -10.38574 2.87756 -7.05632
# Velocity P-wave (km/s) = 11.46897 5.36998 7.16591
#
# Compressibility (1/GPa) = 0.03892018
#
# Stress axis : x y z
#
# Youngs Moduli (GPa) = 37.89537 64.78268 63.39586
#
# Poissons Ratio (x) = 0.37297 -0.31269
# Poissons Ratio (y) = 0.21817 0.53976
# Poissons Ratio (z) = -0.18691 0.55157
#
# Static dielectric constant tensor:
#      x y z
#    x 1.741150 0.000000 0.000000 
#    y 0.000000 1.821850 0.000000 
#    z 0.000000 0.000000 1.747600 
# 
# From -- ./inp_files/10687.got.cif
#   From: 2010.05.17/outbox.cif.g08.bks.cpg/sg40_6_cif.got.tgz:10687.got - 2010.06.03 18:35:42.
