data_PCOD9362040
_publ_section_title
;
Structure prediction by ZEFSAII (Michael W. Deem and Ramdas Pophale) SiO2 
 PCOD9362040
Probable space group: A B M 2
;
_chemical_formula_sum "Si O2"
_cell_formula_units_Z 40
_cell_length_a 7.459321
_cell_length_b 9.647429
_cell_length_c 25.017369
_cell_angle_alpha 90.000000
_cell_angle_beta 90.000000
_cell_angle_gamma 90.000000
_cell_volume 1800.331673
_symmetry_space_group_name_H-M "A B M 2"
_symmetry_group_IT_number 39
_symmetry_cell_setting 'orthorhombic'
loop_
_space_group_symop_operation_xyz
x,y,z
-x,-y,z
-x,1/2+y,z
x,1/2-y,z
x,1/2+y,1/2+z
-x,1/2-y,1/2+z
-x,y,1/2+z
x,-y,1/2+z
loop_
_atom_site_type_symbol
_atom_site_label
_atom_site_fract_x
_atom_site_fract_y
_atom_site_fract_z
Si Si1 0.038654 0.750000 0.531390
Si Si2 0.338480 0.414051 0.391751
Si Si3 0.000000 0.000000 0.460054
Si Si4 0.690749 0.250000 0.090340
Si Si5 0.785676 0.022854 0.176699
Si Si6 0.312126 0.250000 0.124557
Si Si7 0.185886 0.586845 0.295695
O O1 0.087139 0.614979 0.498066
O O2 0.823479 0.750000 0.540524
O O3 0.133497 0.750000 0.588722
O O4 0.500000 0.500000 0.419179
O O5 0.376780 0.250000 0.383934
O O6 0.304530 0.501492 0.337438
O O7 0.153335 0.430510 0.424216
O O8 0.738346 0.379139 0.127723
O O9 0.478092 0.250000 0.083742
O O10 0.688008 0.880648 0.163333
O O11 0.741155 0.080379 0.235148
O O12 0.000000 0.000000 0.176015
O O13 0.161608 0.750000 0.310400
O O14 0.000000 0.500000 0.295337
#
# Coordination Sequence:
#
# PCOD9362040 Si02
#       7
#     4   8   4   4   8   4   8
#     4  12  26  48  74 102 138 188 242 310 368 420
#     4  12  28  49  78 111 147 187 241 299 368 442
#     4  12  28  50  78  98 144 186 244 308 374 428
#     4  12  24  46  69 105 142 183 239 290 355 426
#     4  11  22  43  70 103 148 191 233 285 353 424
#     4  12  26  42  75 103 142 191 241 294 353 430
#     4  11  24  42  74 109 149 196 241 289 357 437
#
# _framework density 22.218128
#
# number of rings (size 3 to 8) (size 9 to 14) (size 15 to 20)
#    0.000    0.400    5.000    3.000    8.400    3.200 
#    0.000    0.000    0.000    0.000    0.000    0.000 
#    0.000    0.000    0.000    0.000    0.000    0.000 
#
# Total GULP energy -111863.086021 kJ/mol
# GULP energy per Si atom -5593.154301 kJ/mol
# Density = 2.216756 g / cm^3
# Si number density = 22.218128 Si / 1000 Ang^3
#
#
#
# Elastic Constant Matrix: (Units=GPa)
#
#
# Indices 1 2 3 4 5 6 
#
# 1 87.9630 12.7918 1.9631 0.0000 0.0000 0.0000
# 2 12.7918 196.0017 29.1216 0.0000 0.0000 0.0000
# 3 1.9631 29.1216 58.5555 0.0000 0.0000 0.0000
# 4 0.0000 0.0000 0.0000 31.7662 0.0000 0.0000
# 5 0.0000 0.0000 0.0000 0.0000 8.5421 0.0000
# 6 0.0000 0.0000 0.0000 0.0000 0.0000 36.6461
#
#
#
# Elastic Compliance Matrix: (Units=1/GPa)
#
#
# Indices 1 2 3 4 5 6 
#
# 1 0.011477 -0.000747 -0.000013 0.000000 0.000000 0.000000
# 2 -0.000747 0.005558 -0.002739 0.000000 0.000000 0.000000
# 3 -0.000013 -0.002739 0.018440 0.000000 0.000000 0.000000
# 4 0.000000 0.000000 0.000000 0.031480 0.000000 0.000000
# 5 0.000000 0.000000 0.000000 0.000000 0.117067 0.000000
# 6 0.000000 0.000000 0.000000 0.000000 0.000000 0.027288
#
#
# Mechanical properties :
#
#
# Convention : Reuss Voigt Hill
#
# Bulk Modulus (GPa) = 35.11619 47.80815 41.46217
# Shear Modulus (GPa) = 21.94895 35.30045 28.62470
#
# Velocity S-wave (km/s) = 3.14647 3.99032 3.59325
# Velocity P-wave (km/s) = 5.38887 6.54175 5.99310
#
# Compressibility (1/GPa) = 0.02847689
#
# Stress axis : x y z
#
# Youngs Moduli (GPa) = 87.12806 179.93028 54.22858
#
# Poissons Ratio (x) = 0.13442 0.00072
# Poissons Ratio (y) = 0.06509 0.14853
# Poissons Ratio (z) = 0.00115 0.49283
#
# Static dielectric constant tensor:
#      x y z
#    x 1.876940 0.000000 0.000000 
#    y 0.000000 1.721360 0.000000 
#    z 0.000000 0.000000 1.769500 
# 
# From -- ./inp_files/15492.got.cif
#   From: 2010.05.17/outbox.cif.g08.bks.cpg/sg39_8_cif.got.tgz:15492.got - 2010.06.03 18:22:40.
