data_PCOD9362108
_publ_section_title
;
Structure prediction by ZEFSAII (Michael W. Deem and Ramdas Pophale) SiO2 
 PCOD9362108
Probable space group: A B M 2
;
_chemical_formula_sum "Si O2"
_cell_formula_units_Z 40
_cell_length_a 20.951844
_cell_length_b 9.509073
_cell_length_c 9.802007
_cell_angle_alpha 90.000000
_cell_angle_beta 90.000000
_cell_angle_gamma 90.000000
_cell_volume 1952.879478
_symmetry_space_group_name_H-M "A B M 2"
_symmetry_group_IT_number 39
_symmetry_cell_setting 'orthorhombic'
loop_
_space_group_symop_operation_xyz
x,y,z
-x,-y,z
-x,1/2+y,z
x,1/2-y,z
x,1/2+y,1/2+z
-x,1/2-y,1/2+z
-x,y,1/2+z
x,-y,1/2+z
loop_
_atom_site_type_symbol
_atom_site_label
_atom_site_fract_x
_atom_site_fract_y
_atom_site_fract_z
Si Si1 0.561363 0.750000 0.714990
Si Si2 0.262232 0.589319 0.543119
Si Si3 0.651653 0.493430 0.794770
Si Si4 0.437461 0.750000 0.902892
Si Si5 0.065620 0.085208 0.358671
Si Si6 0.858346 0.586129 0.637050
O O1 0.605745 0.616878 0.744865
O O2 0.499093 0.750000 0.807894
O O3 0.541005 0.750000 0.558428
O O4 0.238375 0.750000 0.539019
O O5 0.313698 0.574685 0.664703
O O6 0.295936 0.550936 0.400888
O O7 0.206351 0.480651 0.578554
O O8 0.607171 0.382631 0.871836
O O9 0.058145 0.250000 0.320907
O O10 0.090650 0.079874 0.513802
O O11 0.116470 0.007864 0.261457
O O12 0.000000 0.000000 0.345788
O O13 0.849755 0.750000 0.675609
#
# Coordination Sequence:
#
# PCOD9362108 Si02
#       6
#     4   8   8   4   8   8
#     4  12  28  46  72 102 134 178 223 282 344 412
#     4  12  26  44  69  98 136 178 228 282 342 410
#     4  12  26  45  69 100 134 178 224 282 347 407
#     4  12  28  46  72 100 140 172 229 282 340 416
#     4  11  24  44  69 102 143 185 231 282 340 404
#     4  11  26  43  69 104 138 182 233 287 342 401
#
# _framework density 20.482575000000001
#
# number of rings (size 3 to 8) (size 9 to 14) (size 15 to 20)
#    0.000    0.400    4.000    3.600    5.600    9.600 
#    0.000    0.000    0.000    0.000    0.000    0.000 
#    0.000    0.000    0.000    0.000    0.000    0.000 
#
# Total GULP energy -112001.812121 kJ/mol
# GULP energy per Si atom -5600.090606 kJ/mol
# Density = 2.043596 g / cm^3
# Si number density = 20.482575 Si / 1000 Ang^3
#
#
#
# Elastic Constant Matrix: (Units=GPa)
#
#
# Indices 1 2 3 4 5 6 
#
# 1 60.2140 20.3091 -10.9809 0.0000 0.0000 0.0000
# 2 20.3091 150.4099 21.3053 0.0000 0.0000 0.0000
# 3 -10.9809 21.3053 77.6091 0.0000 0.0000 0.0000
# 4 0.0000 0.0000 0.0000 28.0227 0.0000 0.0000
# 5 0.0000 0.0000 0.0000 0.0000 36.7434 0.0000
# 6 0.0000 0.0000 0.0000 0.0000 0.0000 39.3451
#
#
#
# Elastic Compliance Matrix: (Units=1/GPa)
#
#
# Indices 1 2 3 4 5 6 
#
# 1 0.018216 -0.002939 0.003384 0.000000 0.000000 0.000000
# 2 -0.002939 0.007392 -0.002445 0.000000 0.000000 0.000000
# 3 0.003384 -0.002445 0.014035 0.000000 0.000000 0.000000
# 4 0.000000 0.000000 0.000000 0.035685 0.000000 0.000000
# 5 0.000000 0.000000 0.000000 0.000000 0.027216 0.000000
# 6 0.000000 0.000000 0.000000 0.000000 0.000000 0.025416
#
#
# Mechanical properties :
#
#
# Convention : Reuss Voigt Hill
#
# Bulk Modulus (GPa) = 28.05596 38.83333 33.44465
# Shear Modulus (GPa) = 34.76073 37.99554 36.37814
#
# Velocity S-wave (km/s) = 4.12404 4.31166 4.21890
# Velocity P-wave (km/s) = 6.03359 6.61722 6.33213
#
# Compressibility (1/GPa) = 0.03564305
#
# Stress axis : x y z
#
# Youngs Moduli (GPa) = 54.89722 135.28759 71.24992
#
# Poissons Ratio (x) = 0.39760 -0.24112
# Poissons Ratio (y) = 0.16134 0.17421
# Poissons Ratio (z) = -0.18578 0.33078
#
# Static dielectric constant tensor:
#      x y z
#    x 1.689050 0.000000 0.000000 
#    y 0.000000 1.700070 0.000000 
#    z 0.000000 0.000000 1.706410 
# 
# From -- ./inp_files/4046.got.cif
#   From: 2010.05.17/outbox.cif.g08.bks.cpg/sg39_3_cif.got.tgz:4046.got - 2010.06.03 18:22:40.
