data_PCOD9362539
_publ_section_title
;
Structure prediction by ZEFSAII (Michael W. Deem and Ramdas Pophale) SiO2 
 PCOD9362539
Probable space group: A M A 2
;
_chemical_formula_sum "Si O2"
_cell_formula_units_Z 60
_cell_length_a 8.806713
_cell_length_b 14.711673
_cell_length_c 24.933810
_cell_angle_alpha 90.000000
_cell_angle_beta 90.000000
_cell_angle_gamma 90.000000
_cell_volume 3230.461372
_symmetry_space_group_name_H-M "A M A 2"
_symmetry_group_IT_number 40
_symmetry_cell_setting 'orthorhombic'
loop_
_space_group_symop_operation_xyz
x,y,z
-x,-y,z
1/2-x,y,z
1/2+x,-y,z
x,1/2+y,1/2+z
-x,1/2-y,1/2+z
1/2-x,1/2+y,1/2+z
1/2+x,1/2-y,1/2+z
loop_
_atom_site_type_symbol
_atom_site_label
_atom_site_fract_x
_atom_site_fract_y
_atom_site_fract_z
Si Si1 0.430683 0.598467 0.798630
Si Si2 0.429476 0.791532 0.208029
Si Si3 0.569345 0.703695 0.898160
Si Si4 0.566133 0.398631 0.999912
Si Si5 0.573723 0.824573 0.611427
Si Si6 0.930428 0.911199 0.879645
Si Si7 0.582981 0.634130 0.268282
Si Si8 0.000000 0.000000 0.680454
O O1 0.500000 0.500000 0.811043
O O2 0.250000 0.595371 0.802053
O O3 0.484121 0.629204 0.739264
O O4 0.496626 0.668843 0.842532
O O5 0.250000 0.810808 0.205162
O O6 0.489625 0.754066 0.150632
O O7 0.459792 0.704472 0.246009
O O8 0.750000 0.686130 0.896289
O O9 0.492428 0.649079 0.946301
O O10 0.547450 0.811964 0.905551
O O11 0.500000 0.500000 0.003048
O O12 0.750000 0.402638 0.000518
O O13 0.510563 0.342799 0.052412
O O14 0.750000 0.801000 0.604959
O O15 0.566860 0.921446 0.642547
O O16 0.750000 0.923277 0.870636
O O17 0.022122 0.903603 0.823881
O O18 0.000000 0.000000 0.908195
O O19 0.750000 0.677171 0.275037
O O20 0.597176 0.557413 0.222865
#
# Coordination Sequence:
#
# PCOD9362539 Si02
#       8
#     8   8   8   8   8   8   8   4
#     4  12  24  39  61  88 118 157 201 247 297 354
#     4  10  20  36  55  80 117 153 189 234 287 343
#     4  11  24  42  60  83 117 157 197 247 299 351
#     4  11  22  39  61  87 117 155 200 246 294 350
#     4   9  19  34  54  81 117 156 190 231 285 342
#     4  11  23  37  57  81 115 151 191 238 292 351
#     4  11  20  29  49  78 113 151 187 222 274 337
#     4  10  18  30  48  78 120 154 186 224 276 338
#
# _framework density 18.573198999999999
#
# number of rings (size 3 to 8) (size 9 to 14) (size 15 to 20)
#    0.000    1.333    2.667    4.000    0.000    2.667 
#    0.000    2.000    0.000    0.800    0.000    1.867 
#    0.000    0.000    0.000    0.000    0.000    0.000 
#
# Total GULP energy -167287.555364 kJ/mol
# GULP energy per Si atom -5576.251845 kJ/mol
# Density = 1.853093 g / cm^3
# Si number density = 18.573199 Si / 1000 Ang^3
#
#
#
# Elastic Constant Matrix: (Units=GPa)
#
#
# Indices 1 2 3 4 5 6 
#
# 1 93.2019 33.3444 29.4840 0.0000 0.0000 0.0000
# 2 33.3444 78.8711 28.7098 0.0000 0.0000 0.0000
# 3 29.4840 28.7098 102.3631 0.0000 0.0000 0.0000
# 4 0.0000 0.0000 0.0000 25.5275 0.0000 0.0000
# 5 0.0000 0.0000 0.0000 0.0000 -0.3763 0.0000
# 6 0.0000 0.0000 0.0000 0.0000 0.0000 24.5296
#
#
#
# Elastic Compliance Matrix: (Units=1/GPa)
#
#
# Indices 1 2 3 4 5 6 
#
# 1 0.013187 -0.004669 -0.002489 0.000000 0.000000 0.000000
# 2 -0.004669 0.015774 -0.003079 0.000000 0.000000 0.000000
# 3 -0.002489 -0.003079 0.011350 0.000000 0.000000 0.000000
# 4 0.000000 0.000000 0.000000 0.039173 0.000000 0.000000
# 5 0.000000 0.000000 0.000000 0.000000 -2.657643 0.000000
# 6 0.000000 0.000000 0.000000 0.000000 0.000000 0.040767
#
#
# Mechanical properties :
#
#
# Convention : Reuss Voigt Hill
#
# Bulk Modulus (GPa) = 50.41283 50.83473 50.62378
# Shear Modulus (GPa) = -1.99179 22.12935 10.06878
#
# Velocity S-wave (km/s) = -1.03669 3.45551 2.33086
# Velocity P-wave (km/s) = 5.07629 6.58408 5.87872
#
# Compressibility (1/GPa) = 0.01983622
#
# Stress axis : x y z
#
# Youngs Moduli (GPa) = 75.83113 63.39631 88.10872
#
# Poissons Ratio (x) = 0.29601 0.21928
# Poissons Ratio (y) = 0.35407 0.27130
# Poissons Ratio (z) = 0.18873 0.19521
#
# Static dielectric constant tensor:
#      x y z
#    x 1.631720 0.000000 0.000000 
#    y 0.000000 1.671820 0.000000 
#    z 0.000000 0.000000 1.639670 
# 
# From -- ./inp_files/24176.got.cif
#   From: 2010.05.17/outbox.cif.g08.bks.cpg/sg40_13_cif.got.tgz:24176.got - 2010.06.03 18:35:42.
