data_PCOD9362967
_publ_section_title
;
Structure prediction by ZEFSAII (Michael W. Deem and Ramdas Pophale) SiO2 
 PCOD9362967
Probable space group: A M A 2
;
_chemical_formula_sum "Si O2"
_cell_formula_units_Z 52
_cell_length_a 9.484011
_cell_length_b 15.901046
_cell_length_c 19.812915
_cell_angle_alpha 90.000000
_cell_angle_beta 90.000000
_cell_angle_gamma 90.000000
_cell_volume 2987.900420
_symmetry_space_group_name_H-M "A M A 2"
_symmetry_group_IT_number 40
_symmetry_cell_setting 'orthorhombic'
loop_
_space_group_symop_operation_xyz
x,y,z
-x,-y,z
1/2-x,y,z
1/2+x,-y,z
x,1/2+y,1/2+z
-x,1/2-y,1/2+z
1/2-x,1/2+y,1/2+z
1/2+x,1/2-y,1/2+z
loop_
_atom_site_type_symbol
_atom_site_label
_atom_site_fract_x
_atom_site_fract_y
_atom_site_fract_z
Si Si1 0.500000 0.500000 0.796110
Si Si2 0.582492 0.086856 0.823450
Si Si3 0.084335 0.703696 0.429128
Si Si4 0.597482 0.341272 0.873507
Si Si5 0.084528 0.578104 0.547103
Si Si6 0.589524 0.622765 0.677711
Si Si7 0.406026 0.762451 0.733131
O O1 0.578026 0.435450 0.845988
O O2 0.580471 0.562338 0.743792
O O3 0.750000 0.076730 0.838135
O O4 0.505215 0.142301 0.880580
O O5 0.571710 0.141674 0.754718
O O6 0.500000 0.000000 0.818234
O O7 0.250000 0.702168 0.410916
O O8 0.069606 0.662164 0.502724
O O9 0.021759 0.796992 0.418474
O O10 0.750000 0.332130 0.907079
O O11 0.600555 0.287050 0.804458
O O12 0.250000 0.557973 0.552121
O O13 0.000000 0.500000 0.514465
O O14 0.015334 0.590623 0.620055
O O15 0.750000 0.623784 0.654070
O O16 0.530886 0.715259 0.695337
O O17 0.250000 0.751705 0.701055
#
# Coordination Sequence:
#
# PCOD9362967 Si02
#       7
#     4   8   8   8   8   8   8
#     4  10  20  32  52  82 112 136 174 212 264 312
#     4  10  19  31  50  74 100 133 169 211 256 303
#     4  10  21  35  50  72 102 138 177 216 257 307
#     4   9  18  32  51  74 103 138 171 212 260 308
#     4  11  23  36  51  73 103 138 176 213 256 308
#     4  11  21  32  51  76 104 137 171 209 257 312
#     4   8  17  32  47  68 101 133 163 203 256 305
#
# _framework density 17.403524000000001
#
# number of rings (size 3 to 8) (size 9 to 14) (size 15 to 20)
#    0.000    2.154    0.769    3.692    0.000   11.692 
#    0.000    0.000    0.000    0.000    2.000    0.000 
#    0.000    0.000    0.000    0.000    0.000    0.000 
#
# Total GULP energy -144779.999929 kJ/mol
# GULP energy per Si atom -5568.461536 kJ/mol
# Density = 1.736391 g / cm^3
# Si number density = 17.403524 Si / 1000 Ang^3
#
#
#
# Elastic Constant Matrix: (Units=GPa)
#
#
# Indices 1 2 3 4 5 6 
#
# 1 135.1742 51.8146 36.2419 0.0000 0.0000 0.0000
# 2 51.8146 94.3593 23.6426 0.0000 0.0000 0.0000
# 3 36.2419 23.6426 35.2901 0.0000 0.0000 0.0000
# 4 0.0000 0.0000 0.0000 21.4839 0.0000 0.0000
# 5 0.0000 0.0000 0.0000 0.0000 10.9053 0.0000
# 6 0.0000 0.0000 0.0000 0.0000 0.0000 -2.9505
#
#
#
# Elastic Compliance Matrix: (Units=1/GPa)
#
#
# Indices 1 2 3 4 5 6 
#
# 1 0.011325 -0.003971 -0.008970 0.000000 0.000000 0.000000
# 2 -0.003971 0.014128 -0.005387 0.000000 0.000000 0.000000
# 3 -0.008970 -0.005387 0.041157 0.000000 0.000000 0.000000
# 4 0.000000 0.000000 0.000000 0.046547 0.000000 0.000000
# 5 0.000000 0.000000 0.000000 0.000000 0.091699 0.000000
# 6 0.000000 0.000000 0.000000 0.000000 0.000000 -0.338925
#
#
# Mechanical properties :
#
#
# Convention : Reuss Voigt Hill
#
# Bulk Modulus (GPa) = 33.38396 54.24686 43.81541
# Shear Modulus (GPa) = -57.18959 16.09603 -20.54678
#
# Velocity S-wave (km/s) = -5.73866 3.04447 -3.43973
# Velocity P-wave (km/s) = 4.96847 6.60273 3.07493
#
# Compressibility (1/GPa) = 0.02995450
#
# Stress axis : x y z
#
# Youngs Moduli (GPa) = 88.29948 70.78019 24.29707
#
# Poissons Ratio (x) = 0.28109 0.21794
# Poissons Ratio (y) = 0.35067 0.13088
# Poissons Ratio (z) = 0.79204 0.38128
#
# Static dielectric constant tensor:
#      x y z
#    x 1.613880 0.000000 0.000000 
#    y 0.000000 1.640990 0.000000 
#    z 0.000000 0.000000 1.591200 
# 
# From -- ./inp_files/22064.got.cif
#   From: 2010.05.17/outbox.cif.g08.bks.cpg/sg40_12_cif.got.tgz:22064.got - 2010.06.03 18:35:42.
