data_PCOD9362986
_publ_section_title
;
Structure prediction by ZEFSAII (Michael W. Deem and Ramdas Pophale) SiO2 
 PCOD9362986
Probable space group: A M A 2
;
_chemical_formula_sum "Si O2"
_cell_formula_units_Z 64
_cell_length_a 7.669336
_cell_length_b 21.142486
_cell_length_c 20.155947
_cell_angle_alpha 90.000000
_cell_angle_beta 90.000000
_cell_angle_gamma 90.000000
_cell_volume 3268.263204
_symmetry_space_group_name_H-M "A M A 2"
_symmetry_group_IT_number 40
_symmetry_cell_setting 'orthorhombic'
loop_
_space_group_symop_operation_xyz
x,y,z
-x,-y,z
1/2-x,y,z
1/2+x,-y,z
x,1/2+y,1/2+z
-x,1/2-y,1/2+z
1/2-x,1/2+y,1/2+z
1/2+x,1/2-y,1/2+z
loop_
_atom_site_type_symbol
_atom_site_label
_atom_site_fract_x
_atom_site_fract_y
_atom_site_fract_z
Si Si1 0.963329 0.390215 0.837990
Si Si2 0.458496 0.757052 0.833870
Si Si3 0.547929 0.311773 0.059853
Si Si4 0.544862 0.306404 0.473258
Si Si5 0.544340 0.243139 0.188487
Si Si6 0.540636 0.430769 0.980356
Si Si7 0.950762 0.902109 0.194297
Si Si8 0.540450 0.430713 0.549890
O O1 0.750000 0.391615 0.835348
O O2 0.014297 0.316249 0.844414
O O3 0.024036 0.424374 0.904491
O O4 0.027833 0.416314 0.767017
O O5 0.250000 0.757506 0.833972
O O6 0.520279 0.799705 0.894637
O O7 0.521462 0.774237 0.760406
O O8 0.750000 0.326805 0.074341
O O9 0.472858 0.285328 0.128520
O O10 0.541754 0.254058 0.007942
O O11 0.470581 0.373679 0.025275
O O12 0.750000 0.301484 0.487957
O O13 0.478672 0.371545 0.505872
O O14 0.750000 0.231143 0.177068
O O15 0.454945 0.174435 0.189734
O O16 0.500000 0.500000 0.006648
O O17 0.750000 0.423177 0.976681
O O18 0.750000 0.923721 0.195537
O O19 0.030685 0.926110 0.125474
O O20 0.500000 0.500000 0.522568
O O21 0.750000 0.424720 0.553845
#
# Coordination Sequence:
#
# PCOD9362986 Si02
#       8
#     8   8   8   8   8   8   8   8
#     4   8  15  29  50  70 100 140 175 206 249 310
#     4  10  19  34  55  78 107 142 174 216 273 327
#     4  10  20  35  55  78 108 143 178 217 271 323
#     4  11  21  34  55  83 109 135 180 231 268 311
#     4  10  19  31  52  82 108 135 176 225 267 315
#     4  10  20  35  50  73 105 142 181 217 261 313
#     4   9  17  32  50  73 106 145 179 214 261 311
#     4  10  22  36  51  75 109 145 182 225 269 318
#
# _framework density 19.582267000000002
#
# number of rings (size 3 to 8) (size 9 to 14) (size 15 to 20)
#    0.000    2.250    2.500    1.875    0.000    3.000 
#    0.000    0.625    0.000    0.750    0.000    1.750 
#    0.000    0.000    0.000    0.000    0.000    0.000 
#
# Total GULP energy -178575.910656 kJ/mol
# GULP energy per Si atom -5580.497208 kJ/mol
# Density = 1.953770 g / cm^3
# Si number density = 19.582267 Si / 1000 Ang^3
#
#
#
# Elastic Constant Matrix: (Units=GPa)
#
#
# Indices 1 2 3 4 5 6 
#
# 1 40.2324 -10.6703 -11.5346 0.0000 0.0000 0.0000
# 2 -10.6703 106.7461 50.8553 0.0000 0.0000 0.0000
# 3 -11.5346 50.8553 108.6174 0.0000 0.0000 0.0000
# 4 0.0000 0.0000 0.0000 21.4365 0.0000 0.0000
# 5 0.0000 0.0000 0.0000 0.0000 12.5372 0.0000
# 6 0.0000 0.0000 0.0000 0.0000 0.0000 13.4365
#
#
#
# Elastic Compliance Matrix: (Units=1/GPa)
#
#
# Indices 1 2 3 4 5 6 
#
# 1 0.025858 0.001643 0.001977 0.000000 0.000000 0.000000
# 2 0.001643 0.012162 -0.005520 0.000000 0.000000 0.000000
# 3 0.001977 -0.005520 0.012001 0.000000 0.000000 0.000000
# 4 0.000000 0.000000 0.000000 0.046649 0.000000 0.000000
# 5 0.000000 0.000000 0.000000 0.000000 0.079763 0.000000
# 6 0.000000 0.000000 0.000000 0.000000 0.000000 0.074424
#
#
# Mechanical properties :
#
#
# Convention : Reuss Voigt Hill
#
# Bulk Modulus (GPa) = 21.63526 34.76632 28.20079
# Shear Modulus (GPa) = 18.51408 24.61171 21.56289
#
# Velocity S-wave (km/s) = 3.07815 3.54904 3.32195
# Velocity P-wave (km/s) = 4.86886 5.88105 5.39873
#
# Compressibility (1/GPa) = 0.04622084
#
# Stress axis : x y z
#
# Youngs Moduli (GPa) = 38.67261 82.22338 83.32658
#
# Poissons Ratio (x) = -0.13510 -0.16471
# Poissons Ratio (y) = -0.06354 0.45995
# Poissons Ratio (z) = -0.07644 0.45386
#
# Static dielectric constant tensor:
#      x y z
#    x 1.735180 0.000000 0.000000 
#    y 0.000000 1.679110 0.000000 
#    z 0.000000 0.000000 1.713330 
# 
# From -- ./inp_files/22428.got.cif
#   From: 2010.05.17/outbox.cif.g08.bks.cpg/sg40_12_cif.got.tgz:22428.got - 2010.06.03 18:35:42.
