data_PCOD9362603
_publ_section_title
;
Structure prediction by ZEFSAII (Michael W. Deem and Ramdas Pophale) SiO2 
 PCOD9362603
Probable space group: A M A 2
;
_chemical_formula_sum "Si O2"
_cell_formula_units_Z 56
_cell_length_a 17.610606
_cell_length_b 7.705499
_cell_length_c 18.466469
_cell_angle_alpha 90.000000
_cell_angle_beta 90.000000
_cell_angle_gamma 90.000000
_cell_volume 2505.872271
_symmetry_space_group_name_H-M "A M A 2"
_symmetry_group_IT_number 40
_symmetry_cell_setting 'orthorhombic'
loop_
_space_group_symop_operation_xyz
x,y,z
-x,-y,z
1/2-x,y,z
1/2+x,-y,z
x,1/2+y,1/2+z
-x,1/2-y,1/2+z
1/2-x,1/2+y,1/2+z
1/2+x,1/2-y,1/2+z
loop_
_atom_site_type_symbol
_atom_site_label
_atom_site_fract_x
_atom_site_fract_y
_atom_site_fract_z
Si Si1 0.909600 0.524335 0.104750
Si Si2 0.161014 0.476976 0.711560
Si Si3 0.659367 0.843208 0.906410
Si Si4 0.658980 0.394640 0.564707
Si Si5 0.053241 0.173904 0.304885
Si Si6 0.410271 0.533418 0.949314
Si Si7 0.409658 0.623465 0.260960
O O1 0.884710 0.720546 0.087915
O O2 0.887337 0.467985 0.185764
O O3 0.000000 0.500000 0.107462
O O4 0.880502 0.428189 0.030694
O O5 0.250000 0.496910 0.719230
O O6 0.140996 0.466836 0.626601
O O7 0.118298 0.637940 0.747237
O O8 0.133033 0.307765 0.751727
O O9 0.750000 0.833694 0.897833
O O10 0.627498 0.645630 0.919084
O O11 0.622892 0.938160 0.837703
O O12 0.640200 0.936951 0.982226
O O13 0.750000 0.360262 0.567158
O O14 0.089871 0.173870 0.384873
O O15 0.997782 0.323570 0.275871
O O16 0.000000 0.000000 0.304846
O O17 0.500000 0.500000 0.959744
#
# Coordination Sequence:
#
# PCOD9362603 Si02
#       7
#     8   8   8   8   8   8   8
#     4  10  21  34  55  80 108 140 175 222 269 314
#     4  10  19  33  56  81 104 137 177 218 261 314
#     4  10  18  31  53  77 103 142 183 214 257 322
#     4   9  20  36  54  76 108 145 179 212 266 328
#     4   9  16  29  49  77 105 129 167 217 259 300
#     4   9  15  31  52  74 101 135 175 216 256 305
#     4  11  20  32  55  83 107 133 180 228 262 304
#
# _framework density 22.347507
#
# number of rings (size 3 to 8) (size 9 to 14) (size 15 to 20)
#    0.000    2.286    4.286    1.286    0.000    1.143 
#    0.000    0.000    6.286    0.000    0.000    0.000 
#    0.000    0.000    0.000    0.000    0.000    0.000 
#
# Total GULP energy -156120.636672 kJ/mol
# GULP energy per Si atom -5575.737024 kJ/mol
# Density = 2.229664 g / cm^3
# Si number density = 22.347507 Si / 1000 Ang^3
#
#
#
# Elastic Constant Matrix: (Units=GPa)
#
#
# Indices 1 2 3 4 5 6 
#
# 1 25.4442 -7.9142 24.7613 0.0000 0.0000 0.0000
# 2 -7.9142 39.6139 24.8993 0.0000 0.0000 0.0000
# 3 24.7613 24.8993 213.6442 0.0000 0.0000 0.0000
# 4 0.0000 0.0000 0.0000 33.9663 0.0000 0.0000
# 5 0.0000 0.0000 0.0000 0.0000 30.3754 0.0000
# 6 0.0000 0.0000 0.0000 0.0000 0.0000 3.4606
#
#
#
# Elastic Compliance Matrix: (Units=1/GPa)
#
#
# Indices 1 2 3 4 5 6 
#
# 1 0.051554 0.015166 -0.007743 0.000000 0.000000 0.000000
# 2 0.015166 0.031701 -0.005452 0.000000 0.000000 0.000000
# 3 -0.007743 -0.005452 0.006213 0.000000 0.000000 0.000000
# 4 0.000000 0.000000 0.000000 0.029441 0.000000 0.000000
# 5 0.000000 0.000000 0.000000 0.000000 0.032921 0.000000
# 6 0.000000 0.000000 0.000000 0.000000 0.000000 0.288971
#
#
# Mechanical properties :
#
#
# Convention : Reuss Voigt Hill
#
# Bulk Modulus (GPa) = 10.70541 40.24390 25.47466
# Shear Modulus (GPa) = 10.68385 29.35751 20.02068
#
# Velocity S-wave (km/s) = 2.18887 3.62841 2.99637
# Velocity P-wave (km/s) = 3.34500 5.96667 4.83685
#
# Compressibility (1/GPa) = 0.09341069
#
# Stress axis : x y z
#
# Youngs Moduli (GPa) = 19.39716 31.54502 160.93997
#
# Poissons Ratio (x) = -0.47842 1.24610
# Poissons Ratio (y) = -0.29418 0.87750
# Poissons Ratio (z) = 0.15019 0.17199
#
# Static dielectric constant tensor:
#      x y z
#    x 1.801950 0.000000 0.000000 
#    y 0.000000 1.850960 0.000000 
#    z 0.000000 0.000000 1.912300 
# 
# From -- ./inp_files/21157.got.cif
#   From: 2010.05.17/outbox.cif.g08.bks.cpg/sg40_11_cif.got.tgz:21157.got - 2010.06.03 18:35:42.
