data_PCOD9362310
_publ_section_title
;
Structure prediction by ZEFSAII (Michael W. Deem and Ramdas Pophale) SiO2 
 PCOD9362310
Probable space group: A M A 2
;
_chemical_formula_sum "Si O2"
_cell_formula_units_Z 64
_cell_length_a 8.579759
_cell_length_b 31.354096
_cell_length_c 14.995181
_cell_angle_alpha 90.000000
_cell_angle_beta 90.000000
_cell_angle_gamma 90.000000
_cell_volume 4033.862448
_symmetry_space_group_name_H-M "A M A 2"
_symmetry_group_IT_number 40
_symmetry_cell_setting 'orthorhombic'
loop_
_space_group_symop_operation_xyz
x,y,z
-x,-y,z
1/2-x,y,z
1/2+x,-y,z
x,1/2+y,1/2+z
-x,1/2-y,1/2+z
1/2-x,1/2+y,1/2+z
1/2+x,1/2-y,1/2+z
loop_
_atom_site_type_symbol
_atom_site_label
_atom_site_fract_x
_atom_site_fract_y
_atom_site_fract_z
Si Si1 0.564445 0.546535 0.175040
Si Si2 0.930818 0.673923 0.270814
Si Si3 0.932418 0.775810 0.280533
Si Si4 0.559019 0.791030 0.481840
Si Si5 0.432498 0.130901 0.601244
Si Si6 0.438455 0.953405 0.881685
Si Si7 0.438240 0.367304 0.461802
Si Si8 0.437649 0.793932 0.090371
O O1 0.500000 0.500000 0.150665
O O2 0.750000 0.544794 0.175260
O O3 0.510224 0.584845 0.111969
O O4 0.513920 0.555391 0.278310
O O5 0.750000 0.661882 0.250792
O O6 0.942172 0.724647 0.273460
O O7 0.967714 0.656161 0.368104
O O8 0.038307 0.654420 0.195269
O O9 0.750000 0.787604 0.276063
O O10 0.991368 0.788133 0.378947
O O11 0.015888 0.793711 0.193420
O O12 0.750000 0.790187 0.482484
O O13 0.507979 0.834969 0.528512
O O14 0.508622 0.749385 0.539119
O O15 0.250000 0.124631 0.585852
O O16 0.250000 0.953796 0.882634
O O17 0.494296 0.915573 0.946467
O O18 0.500000 0.000000 0.905592
O O19 0.250000 0.369690 0.471911
O O20 0.496723 0.336181 0.539306
O O21 0.250000 0.793509 0.083796
#
# Coordination Sequence:
#
# PCOD9362310 Si02
#       8
#     8   8   8   8   8   8   8   8
#     4  10  19  32  49  70  97 126 158 193 235 284
#     4  10  17  28  46  66  91 127 163 194 230 278
#     4  10  19  32  48  66  93 128 163 198 237 278
#     4   9  18  31  47  66  93 128 160 191 236 289
#     4  11  20  30  46  70  96 127 163 196 234 280
#     4   9  17  29  45  66  91 122 155 187 227 278
#     4   9  16  29  48  66  89 127 164 186 225 286
#     4  10  18  31  49  68  91 123 162 199 233 277
#
# _framework density 15.865688
#
# number of rings (size 3 to 8) (size 9 to 14) (size 15 to 20)
#    0.000    2.250    3.750    0.750    0.000    0.500 
#    0.000    3.125    0.000    0.000    0.000    0.875 
#    0.000    4.000    0.000    0.000    0.000    0.000 
#
# Total GULP energy -178340.994157 kJ/mol
# GULP energy per Si atom -5573.156067 kJ/mol
# Density = 1.582958 g / cm^3
# Si number density = 15.865688 Si / 1000 Ang^3
#
#
#
# Elastic Constant Matrix: (Units=GPa)
#
#
# Indices 1 2 3 4 5 6 
#
# 1 9.7767 25.0500 10.2813 0.0000 0.0000 0.0000
# 2 25.0500 124.5297 63.1547 0.0000 0.0000 0.0000
# 3 10.2813 63.1547 84.6527 0.0000 0.0000 0.0000
# 4 0.0000 0.0000 0.0000 24.0989 0.0000 0.0000
# 5 0.0000 0.0000 0.0000 0.0000 18.7979 0.0000
# 6 0.0000 0.0000 0.0000 0.0000 0.0000 21.9815
#
#
#
# Elastic Compliance Matrix: (Units=1/GPa)
#
#
# Indices 1 2 3 4 5 6 
#
# 1 0.216160 -0.048529 0.009952 0.000000 0.000000 0.000000
# 2 -0.048529 0.023813 -0.011871 0.000000 0.000000 0.000000
# 3 0.009952 -0.011871 0.019461 0.000000 0.000000 0.000000
# 4 0.000000 0.000000 0.000000 0.041496 0.000000 0.000000
# 5 0.000000 0.000000 0.000000 0.000000 0.053197 0.000000
# 6 0.000000 0.000000 0.000000 0.000000 0.000000 0.045493
#
#
# Mechanical properties :
#
#
# Convention : Reuss Voigt Hill
#
# Bulk Modulus (GPa) = 6.30772 46.21457 26.26115
# Shear Modulus (GPa) = 9.03568 21.00720 15.02144
#
# Velocity S-wave (km/s) = 2.38903 3.64272 3.08033
# Velocity P-wave (km/s) = 3.40504 6.84722 5.40734
#
# Compressibility (1/GPa) = 0.15853593
#
# Stress axis : x y z
#
# Youngs Moduli (GPa) = 4.62621 41.99458 51.38518
#
# Poissons Ratio (x) = 2.03795 -0.51136
# Poissons Ratio (y) = 0.22450 0.61001
# Poissons Ratio (z) = -0.04604 0.49853
#
# Static dielectric constant tensor:
#      x y z
#    x 1.547750 0.000000 0.000000 
#    y 0.000000 1.544130 0.000000 
#    z 0.000000 0.000000 1.517530 
# 
# From -- ./inp_files/15863.got.cif
#   From: 2010.05.17/outbox.cif.g08.bks.cpg/sg40_8_cif.got.tgz:15863.got - 2010.06.03 18:35:42.
