data_PCOD9362421
_publ_section_title
;
Structure prediction by ZEFSAII (Michael W. Deem and Ramdas Pophale) SiO2 
 PCOD9362421
Probable space group: A M A 2
;
_chemical_formula_sum "Si O2"
_cell_formula_units_Z 64
_cell_length_a 8.665804
_cell_length_b 19.083722
_cell_length_c 27.171558
_cell_angle_alpha 90.000000
_cell_angle_beta 90.000000
_cell_angle_gamma 90.000000
_cell_volume 4493.517990
_symmetry_space_group_name_H-M "A M A 2"
_symmetry_group_IT_number 40
_symmetry_cell_setting 'orthorhombic'
loop_
_space_group_symop_operation_xyz
x,y,z
-x,-y,z
1/2-x,y,z
1/2+x,-y,z
x,1/2+y,1/2+z
-x,1/2-y,1/2+z
1/2-x,1/2+y,1/2+z
1/2+x,1/2-y,1/2+z
loop_
_atom_site_type_symbol
_atom_site_label
_atom_site_fract_x
_atom_site_fract_y
_atom_site_fract_z
Si Si1 0.563434 0.922385 0.436620
Si Si2 0.933476 0.841273 0.833619
Si Si3 0.064097 0.422350 0.427461
Si Si4 0.062279 0.658893 0.036503
Si Si5 0.064572 0.077697 0.735588
Si Si6 0.928416 0.289640 0.880440
Si Si7 0.071319 0.793397 0.984775
Si Si8 0.934258 0.078063 0.629128
O O1 0.750000 0.923080 0.435366
O O2 0.519137 0.890645 0.490059
O O3 0.512363 0.866835 0.394684
O O4 0.500000 0.000000 0.430358
O O5 0.750000 0.848436 0.839329
O O6 0.976463 0.870443 0.780046
O O7 0.012852 0.888895 0.875490
O O8 0.980982 0.761031 0.843853
O O9 0.250000 0.422894 0.428739
O O10 0.005051 0.368810 0.469988
O O11 0.000000 0.500000 0.432664
O O12 0.250000 0.659621 0.038559
O O13 0.994886 0.628227 0.086300
O O14 0.006201 0.737748 0.023587
O O15 0.250000 0.073673 0.731617
O O16 0.995409 0.099263 0.683013
O O17 0.000000 0.000000 0.746658
O O18 0.750000 0.294215 0.864558
O O19 0.928677 0.249177 0.933083
O O20 0.250000 0.804822 0.998706
O O21 0.750000 0.075190 0.629292
O O22 0.000000 0.000000 0.619835
#
# Coordination Sequence:
#
# PCOD9362421 Si02
#       8
#     8   8   8   8   8   8   8   8
#     4   9  17  27  41  61  84 112 142 170 202 241
#     4  10  19  29  43  62  81 106 140 173 206 243
#     4  10  18  28  42  61  85 112 140 168 201 240
#     4   9  16  29  45  59  79 108 140 170 202 239
#     4  10  20  32  44  59  80 106 137 171 205 240
#     4   8  15  28  42  57  80 109 138 167 202 242
#     4   7  13  26  42  57  77 107 137 164 196 237
#     4  11  21  31  43  60  81 106 137 171 206 240
#
# _framework density 14.242737
#
# number of rings (size 3 to 8) (size 9 to 14) (size 15 to 20)
#    0.000    2.750    0.000    6.000    0.000    5.000 
#    0.000    5.625    0.000    0.000    0.000    0.000 
#    0.000    1.000    0.000    9.000    0.000    5.375 
#
# Total GULP energy -178191.329807 kJ/mol
# GULP energy per Si atom -5568.479056 kJ/mol
# Density = 1.421032 g / cm^3
# Si number density = 14.242737 Si / 1000 Ang^3
#
#
#
# Elastic Constant Matrix: (Units=GPa)
#
#
# Indices 1 2 3 4 5 6 
#
# 1 42.9246 32.6906 33.5066 0.0000 0.0000 0.0000
# 2 32.6906 128.1994 67.4137 0.0000 0.0000 0.0000
# 3 33.5066 67.4137 94.0489 0.0000 0.0000 0.0000
# 4 0.0000 0.0000 0.0000 27.1746 0.0000 0.0000
# 5 0.0000 0.0000 0.0000 0.0000 1.0082 0.0000
# 6 0.0000 0.0000 0.0000 0.0000 0.0000 9.9723
#
#
#
# Elastic Compliance Matrix: (Units=1/GPa)
#
#
# Indices 1 2 3 4 5 6 
#
# 1 0.033283 -0.003614 -0.009267 0.000000 0.000000 0.000000
# 2 -0.003614 0.012912 -0.007967 0.000000 0.000000 0.000000
# 3 -0.009267 -0.007967 0.019645 0.000000 0.000000 0.000000
# 4 0.000000 0.000000 0.000000 0.036799 0.000000 0.000000
# 5 0.000000 0.000000 0.000000 0.000000 0.991915 0.000000
# 6 0.000000 0.000000 0.000000 0.000000 0.000000 0.100277
#
#
# Mechanical properties :
#
#
# Convention : Reuss Voigt Hill
#
# Bulk Modulus (GPa) = 41.42029 59.15497 50.28763
# Shear Modulus (GPa) = 4.01743 16.40183 10.20963
#
# Velocity S-wave (km/s) = 1.68131 3.39719 2.68027
# Velocity P-wave (km/s) = 5.73706 7.55060 6.70542
#
# Compressibility (1/GPa) = 0.02414275
#
# Stress axis : x y z
#
# Youngs Moduli (GPa) = 30.04551 77.45009 50.90257
#
# Poissons Ratio (x) = 0.27990 0.47172
# Poissons Ratio (y) = 0.10858 0.40556
# Poissons Ratio (z) = 0.27844 0.61708
#
# Static dielectric constant tensor:
#      x y z
#    x 1.499550 0.000000 0.000000 
#    y 0.000000 1.486480 0.000000 
#    z 0.000000 0.000000 1.454740 
# 
# From -- ./inp_files/25538.got.cif
#   From: 2010.05.17/outbox.cif.g08.bks.cpg/sg40_13_cif.got.tgz:25538.got - 2010.06.03 18:35:42.
