data_PCOD9362003
_publ_section_title
;
Structure prediction by ZEFSAII (Michael W. Deem and Ramdas Pophale) SiO2 
 PCOD9362003
Probable space group: A B M 2
;
_chemical_formula_sum "Si O2"
_cell_formula_units_Z 36
_cell_length_a 5.392492
_cell_length_b 21.822142
_cell_length_c 13.233998
_cell_angle_alpha 90.000000
_cell_angle_beta 90.000000
_cell_angle_gamma 90.000000
_cell_volume 1557.320325
_symmetry_space_group_name_H-M "A B M 2"
_symmetry_group_IT_number 39
_symmetry_cell_setting 'orthorhombic'
loop_
_space_group_symop_operation_xyz
x,y,z
-x,-y,z
-x,1/2+y,z
x,1/2-y,z
x,1/2+y,1/2+z
-x,1/2-y,1/2+z
-x,y,1/2+z
x,-y,1/2+z
loop_
_atom_site_type_symbol
_atom_site_label
_atom_site_fract_x
_atom_site_fract_y
_atom_site_fract_z
Si Si1 0.225602 0.860950 0.788920
Si Si2 0.453689 0.750000 0.221152
Si Si3 0.972717 0.927504 0.094883
Si Si4 0.469422 0.610482 0.976362
Si Si5 0.049783 0.750000 0.392879
Si Si6 0.546340 0.250000 0.513647
O O1 0.388270 0.811854 0.727376
O O2 0.069801 0.896127 0.704210
O O3 0.389458 0.905176 0.860761
O O4 0.076395 0.814167 0.862423
O O5 0.271321 0.750000 0.312453
O O6 0.363692 0.750000 0.108230
O O7 0.726348 0.914517 0.024833
O O8 0.000000 0.000000 0.107135
O O9 0.230229 0.905074 0.044643
O O10 0.502044 0.683609 0.968370
O O11 0.152610 0.750000 0.506921
#
# Coordination Sequence:
#
# PCOD9362003 Si02
#       6
#     8   4   8   8   4   4
#     4  11  25  43  73 108 153 194 246 312 381 449
#     4  11  21  39  67 109 146 192 234 302 383 461
#     4  12  29  52  76 108 148 207 264 305 366 446
#     4  12  26  47  79 112 152 195 245 317 382 453
#     4  11  22  43  67 118 154 188 245 301 398 471
#     4  12  21  42  74 109 152 184 235 307 389 446
#
# _framework density 23.116629
#
# number of rings (size 3 to 8) (size 9 to 14) (size 15 to 20)
#    0.000    0.444    4.444    4.000    0.000    2.667 
#    0.000    4.444    0.000    0.000    0.000    0.000 
#    0.000    0.000    0.000    0.000    0.000    0.000 
#
# Total GULP energy -100340.424520 kJ/mol
# GULP energy per Si atom -5574.468029 kJ/mol
# Density = 2.306401 g / cm^3
# Si number density = 23.116629 Si / 1000 Ang^3
#
#
#
# Elastic Constant Matrix: (Units=GPa)
#
#
# Indices 1 2 3 4 5 6 
#
# 1 144.7363 54.0765 39.9950 0.0000 0.0000 0.0000
# 2 54.0765 99.5281 20.8657 0.0000 0.0000 0.0000
# 3 39.9950 20.8657 64.6775 0.0000 0.0000 0.0000
# 4 0.0000 0.0000 0.0000 43.0401 0.0000 0.0000
# 5 0.0000 0.0000 0.0000 0.0000 34.2425 0.0000
# 6 0.0000 0.0000 0.0000 0.0000 0.0000 33.9208
#
#
#
# Elastic Compliance Matrix: (Units=1/GPa)
#
#
# Indices 1 2 3 4 5 6 
#
# 1 0.009829 -0.004361 -0.004671 0.000000 0.000000 0.000000
# 2 -0.004361 0.012711 -0.001404 0.000000 0.000000 0.000000
# 3 -0.004671 -0.001404 0.018803 0.000000 0.000000 0.000000
# 4 0.000000 0.000000 0.000000 0.023234 0.000000 0.000000
# 5 0.000000 0.000000 0.000000 0.000000 0.029203 0.000000
# 6 0.000000 0.000000 0.000000 0.000000 0.000000 0.029480
#
#
# Mechanical properties :
#
#
# Convention : Reuss Voigt Hill
#
# Bulk Modulus (GPa) = 48.85040 59.86851 54.35946
# Shear Modulus (GPa) = 33.12179 35.17435 34.14807
#
# Velocity S-wave (km/s) = 3.78936 3.90501 3.84762
# Velocity P-wave (km/s) = 6.35009 6.80344 6.58067
#
# Compressibility (1/GPa) = 0.02047066
#
# Stress axis : x y z
#
# Youngs Moduli (GPa) = 101.73565 78.66986 53.18346
#
# Poissons Ratio (x) = 0.34310 0.24843
# Poissons Ratio (y) = 0.44370 0.07466
# Poissons Ratio (z) = 0.47523 0.11045
#
# Static dielectric constant tensor:
#      x y z
#    x 2.016240 0.000000 0.000000 
#    y 0.000000 1.806600 0.000000 
#    z 0.000000 0.000000 1.925230 
# 
# From -- ./inp_files/7362.got.cif
#   From: 2010.05.17/outbox.cif.g08.bks.cpg/sg39_4_cif.got.tgz:7362.got - 2010.06.03 18:22:40.
