data_PCOD9362579
_publ_section_title
;
Structure prediction by ZEFSAII (Michael W. Deem and Ramdas Pophale) SiO2 
 PCOD9362579
Probable space group: A M A 2
;
_chemical_formula_sum "Si O2"
_cell_formula_units_Z 64
_cell_length_a 8.483072
_cell_length_b 19.308237
_cell_length_c 22.365131
_cell_angle_alpha 90.000000
_cell_angle_beta 90.000000
_cell_angle_gamma 90.000000
_cell_volume 3663.255585
_symmetry_space_group_name_H-M "A M A 2"
_symmetry_group_IT_number 40
_symmetry_cell_setting 'orthorhombic'
loop_
_space_group_symop_operation_xyz
x,y,z
-x,-y,z
1/2-x,y,z
1/2+x,-y,z
x,1/2+y,1/2+z
-x,1/2-y,1/2+z
1/2-x,1/2+y,1/2+z
1/2+x,1/2-y,1/2+z
loop_
_atom_site_type_symbol
_atom_site_label
_atom_site_fract_x
_atom_site_fract_y
_atom_site_fract_z
Si Si1 0.068793 0.925700 0.683060
Si Si2 0.567331 0.073136 0.827212
Si Si3 0.561896 0.074431 0.264143
Si Si4 0.558838 0.922583 0.011742
Si Si5 0.938597 0.365483 0.640816
Si Si6 0.067207 0.681331 0.410768
Si Si7 0.942717 0.217753 0.317127
Si Si8 0.438118 0.723598 0.188375
O O1 0.250000 0.921719 0.664491
O O2 0.062395 0.926863 0.755544
O O3 0.985427 0.853214 0.667565
O O4 0.000000 0.000000 0.662891
O O5 0.750000 0.083757 0.845277
O O6 0.452116 0.129360 0.854967
O O7 0.500000 0.000000 0.848302
O O8 0.750000 0.073708 0.263731
O O9 0.505242 0.092636 0.197256
O O10 0.509607 0.138806 0.305158
O O11 0.500000 0.000000 0.282850
O O12 0.750000 0.923822 0.008256
O O13 0.511199 0.899731 0.078448
O O14 0.500000 0.000000 0.998273
O O15 0.500151 0.863199 0.965714
O O16 0.750000 0.367276 0.643334
O O17 0.993664 0.286062 0.648686
O O18 0.250000 0.694596 0.425334
O O19 0.998911 0.750328 0.379791
O O20 0.750000 0.220940 0.318322
O O21 0.992844 0.259800 0.257010
O O22 0.250000 0.729262 0.188549
#
# Coordination Sequence:
#
# PCOD9362579 Si02
#       8
#     8   8   8   8   8   8   8   8
#     4  10  19  29  43  66  97 130 162 199 241 292
#     4  10  19  28  40  62  90 125 162 195 232 276
#     4  10  19  32  50  75  98 126 158 197 249 303
#     4  10  22  35  50  70  97 132 172 207 245 286
#     4  10  20  34  50  71  97 129 166 210 249 293
#     4  10  18  32  49  66  92 128 164 204 241 285
#     4   8  16  29  47  68  93 121 156 195 241 296
#     4  10  18  31  50  72  95 127 164 205 253 301
#
# _framework density 17.470797999999998
#
# number of rings (size 3 to 8) (size 9 to 14) (size 15 to 20)
#    0.000    2.250    1.250    3.375    0.000    4.500 
#    0.000    0.625    0.000    0.000    0.000    0.875 
#    0.000    2.000    0.000    0.000    0.000    0.125 
#
# Total GULP energy -178293.403482 kJ/mol
# GULP energy per Si atom -5571.668859 kJ/mol
# Density = 1.743103 g / cm^3
# Si number density = 17.470798 Si / 1000 Ang^3
#
#
#
# Elastic Constant Matrix: (Units=GPa)
#
#
# Indices 1 2 3 4 5 6 
#
# 1 28.1811 12.5715 7.6809 0.0000 0.0000 0.0000
# 2 12.5715 137.8692 44.2341 0.0000 0.0000 0.0000
# 3 7.6809 44.2341 67.5098 0.0000 0.0000 0.0000
# 4 0.0000 0.0000 0.0000 21.3024 0.0000 0.0000
# 5 0.0000 0.0000 0.0000 0.0000 7.1937 0.0000
# 6 0.0000 0.0000 0.0000 0.0000 0.0000 28.9063
#
#
#
# Elastic Compliance Matrix: (Units=1/GPa)
#
#
# Indices 1 2 3 4 5 6 
#
# 1 0.037334 -0.002585 -0.002554 0.000000 0.000000 0.000000
# 2 -0.002585 0.009363 -0.005841 0.000000 0.000000 0.000000
# 3 -0.002554 -0.005841 0.018930 0.000000 0.000000 0.000000
# 4 0.000000 0.000000 0.000000 0.046943 0.000000 0.000000
# 5 0.000000 0.000000 0.000000 0.000000 0.139011 0.000000
# 6 0.000000 0.000000 0.000000 0.000000 0.000000 0.034595
#
#
# Mechanical properties :
#
#
# Convention : Reuss Voigt Hill
#
# Bulk Modulus (GPa) = 22.90008 40.28145 31.59077
# Shear Modulus (GPa) = 15.49470 22.75206 19.12338
#
# Velocity S-wave (km/s) = 2.98130 3.61264 3.31205
# Velocity P-wave (km/s) = 4.99870 6.36460 5.72255
#
# Compressibility (1/GPa) = 0.04366796
#
# Stress axis : x y z
#
# Youngs Moduli (GPa) = 26.78527 106.80475 52.82556
#
# Poissons Ratio (x) = 0.27607 0.13492
# Poissons Ratio (y) = 0.06924 0.30854
# Poissons Ratio (z) = 0.06841 0.62381
#
# Static dielectric constant tensor:
#      x y z
#    x 1.608270 0.000000 0.000000 
#    y 0.000000 1.649360 0.000000 
#    z 0.000000 0.000000 1.598100 
# 
# From -- ./inp_files/22546.got.cif
#   From: 2010.05.17/outbox.cif.g08.bks.cpg/sg40_12_cif.got.tgz:22546.got - 2010.06.03 18:35:42.
