data_PCOD9362847
_publ_section_title
;
Structure prediction by ZEFSAII (Michael W. Deem and Ramdas Pophale) SiO2 
 PCOD9362847
Probable space group: A M A 2
;
_chemical_formula_sum "Si O2"
_cell_formula_units_Z 64
_cell_length_a 7.873276
_cell_length_b 19.378820
_cell_length_c 22.380979
_cell_angle_alpha 90.000000
_cell_angle_beta 90.000000
_cell_angle_gamma 90.000000
_cell_volume 3414.773359
_symmetry_space_group_name_H-M "A M A 2"
_symmetry_group_IT_number 40
_symmetry_cell_setting 'orthorhombic'
loop_
_space_group_symop_operation_xyz
x,y,z
-x,-y,z
1/2-x,y,z
1/2+x,-y,z
x,1/2+y,1/2+z
-x,1/2-y,1/2+z
1/2-x,1/2+y,1/2+z
1/2+x,1/2-y,1/2+z
loop_
_atom_site_type_symbol
_atom_site_label
_atom_site_fract_x
_atom_site_fract_y
_atom_site_fract_z
Si Si1 0.950910 0.574394 0.247400
Si Si2 0.453187 0.224839 0.744840
Si Si3 0.458684 0.280389 0.616375
Si Si4 0.455898 0.370622 0.794721
Si Si5 0.545821 0.574902 0.110278
Si Si6 0.546617 0.075662 0.167465
Si Si7 0.556418 0.314863 0.017964
Si Si8 0.051524 0.078764 0.424483
O O1 0.750000 0.573994 0.244587
O O2 0.016091 0.575001 0.178845
O O3 0.000000 0.500000 0.274710
O O4 0.002649 0.649776 0.270723
O O5 0.250000 0.228931 0.741773
O O6 0.514358 0.237787 0.676096
O O7 0.509685 0.291005 0.783523
O O8 0.250000 0.277238 0.615205
O O9 0.511350 0.358999 0.628783
O O10 0.521045 0.250352 0.553168
O O11 0.250000 0.372401 0.796897
O O12 0.513523 0.411814 0.735619
O O13 0.521183 0.403370 0.855452
O O14 0.500000 0.500000 0.085394
O O15 0.750000 0.585974 0.107849
O O16 0.447462 0.630567 0.072142
O O17 0.750000 0.080360 0.169481
O O18 0.500000 0.000000 0.146008
O O19 0.750000 0.296201 0.000812
O O20 0.473165 0.359136 0.964561
O O21 0.250000 0.081166 0.437984
O O22 0.000000 0.000000 0.436816
#
# Coordination Sequence:
#
# PCOD9362847 Si02
#       8
#     8   8   8   8   8   8   8   8
#     4  10  19  28  41  65  96 127 158 193 235 286
#     4   9  16  30  51  70  91 123 160 200 247 294
#     4   8  15  29  48  67  91 121 154 192 236 291
#     4   9  19  34  52  72  95 127 165 201 243 289
#     4  10  19  28  40  61  89 123 159 192 228 272
#     4   9  17  30  49  73  96 122 153 189 238 290
#     4  10  19  32  49  66  89 125 164 200 239 282
#     4  11  23  35  49  70  96 130 169 205 240 280
#
# _framework density 18.742094000000002
#
# number of rings (size 3 to 8) (size 9 to 14) (size 15 to 20)
#    0.000    2.500    1.250    3.375    0.000    5.000 
#    0.000    2.500    0.000    0.000    0.000    0.875 
#    0.000    4.000    0.000    0.000    0.000    0.125 
#
# Total GULP energy -178243.190535 kJ/mol
# GULP energy per Si atom -5570.099704 kJ/mol
# Density = 1.869944 g / cm^3
# Si number density = 18.742094 Si / 1000 Ang^3
#
#
#
# Elastic Constant Matrix: (Units=GPa)
#
#
# Indices 1 2 3 4 5 6 
#
# 1 24.8831 1.6720 1.7158 0.0000 0.0000 0.0000
# 2 1.6720 143.7604 37.6880 0.0000 0.0000 0.0000
# 3 1.7158 37.6880 64.8579 0.0000 0.0000 0.0000
# 4 0.0000 0.0000 0.0000 22.5712 0.0000 0.0000
# 5 0.0000 0.0000 0.0000 0.0000 15.5366 0.0000
# 6 0.0000 0.0000 0.0000 0.0000 0.0000 23.0613
#
#
#
# Elastic Compliance Matrix: (Units=1/GPa)
#
#
# Indices 1 2 3 4 5 6 
#
# 1 0.040267 -0.000223 -0.000936 0.000000 0.000000 0.000000
# 2 -0.000223 0.008207 -0.004763 0.000000 0.000000 0.000000
# 3 -0.000936 -0.004763 0.018211 0.000000 0.000000 0.000000
# 4 0.000000 0.000000 0.000000 0.044304 0.000000 0.000000
# 5 0.000000 0.000000 0.000000 0.000000 0.064364 0.000000
# 6 0.000000 0.000000 0.000000 0.000000 0.000000 0.043363
#
#
# Mechanical properties :
#
#
# Convention : Reuss Voigt Hill
#
# Bulk Modulus (GPa) = 18.23427 35.07257 26.65342
# Shear Modulus (GPa) = 20.09313 25.06219 22.57766
#
# Velocity S-wave (km/s) = 3.27782 3.66076 3.47457
# Velocity P-wave (km/s) = 4.90670 6.05162 5.50898
#
# Compressibility (1/GPa) = 0.05484178
#
# Stress axis : x y z
#
# Youngs Moduli (GPa) = 24.83394 121.84208 54.91203
#
# Poissons Ratio (x) = 0.02717 0.05138
# Poissons Ratio (y) = 0.00554 0.26156
# Poissons Ratio (z) = 0.02324 0.58037
#
# Static dielectric constant tensor:
#      x y z
#    x 1.668440 0.000000 0.000000 
#    y 0.000000 1.737230 0.000000 
#    z 0.000000 0.000000 1.651860 
# 
# From -- ./inp_files/22514.got.cif
#   From: 2010.05.17/outbox.cif.g08.bks.cpg/sg40_12_cif.got.tgz:22514.got - 2010.06.03 18:35:42.
