data_PCOD9362464
_publ_section_title
;
Structure prediction by ZEFSAII (Michael W. Deem and Ramdas Pophale) SiO2 
 PCOD9362464
Probable space group: A M A 2
;
_chemical_formula_sum "Si O2"
_cell_formula_units_Z 64
_cell_length_a 8.612110
_cell_length_b 19.393157
_cell_length_c 22.007549
_cell_angle_alpha 90.000000
_cell_angle_beta 90.000000
_cell_angle_gamma 90.000000
_cell_volume 3675.612833
_symmetry_space_group_name_H-M "A M A 2"
_symmetry_group_IT_number 40
_symmetry_cell_setting 'orthorhombic'
loop_
_space_group_symop_operation_xyz
x,y,z
-x,-y,z
1/2-x,y,z
1/2+x,-y,z
x,1/2+y,1/2+z
-x,1/2-y,1/2+z
1/2-x,1/2+y,1/2+z
1/2+x,1/2-y,1/2+z
loop_
_atom_site_type_symbol
_atom_site_label
_atom_site_fract_x
_atom_site_fract_y
_atom_site_fract_z
Si Si1 0.435036 0.424355 0.916140
Si Si2 0.069400 0.176863 0.515798
Si Si3 0.561983 0.634916 0.786725
Si Si4 0.937337 0.224415 0.737473
Si Si5 0.936188 0.073392 0.158090
Si Si6 0.561500 0.219173 0.109583
Si Si7 0.070852 0.927948 0.602104
Si Si8 0.072363 0.927052 0.748652
O O1 0.500000 0.500000 0.931927
O O2 0.250000 0.429415 0.916273
O O3 0.487787 0.401790 0.848674
O O4 0.484659 0.363890 0.962272
O O5 0.250000 0.182299 0.499969
O O6 0.012812 0.248939 0.544755
O O7 0.041596 0.128438 0.574280
O O8 0.750000 0.639757 0.786347
O O9 0.494880 0.711594 0.777823
O O10 0.514012 0.591569 0.727197
O O11 0.750000 0.222074 0.736000
O O12 0.994809 0.149466 0.761236
O O13 0.994686 0.241195 0.668800
O O14 0.750000 0.070527 0.157868
O O15 0.983356 0.139470 0.118292
O O16 0.000000 0.000000 0.138758
O O17 0.750000 0.224311 0.113084
O O18 0.250000 0.918313 0.582011
O O19 0.071369 0.927945 0.674903
O O20 0.000000 0.000000 0.581272
O O21 0.250000 0.927357 0.769659
O O22 0.000000 0.000000 0.768611
#
# Coordination Sequence:
#
# PCOD9362464 Si02
#       8
#     8   8   8   8   8   8   8   8
#     4  11  23  38  54  73 101 135 175 215 249 293
#     4  11  21  33  49  68  94 132 171 206 248 291
#     4   9  20  36  52  71  98 133 168 204 250 300
#     4  10  18  30  49  74  99 125 164 210 251 294
#     4   9  17  31  50  74  99 124 156 195 244 298
#     4   9  19  33  48  68  98 132 164 199 245 304
#     4  10  18  29  42  61  91 125 163 199 235 282
#     4   9  18  28  41  65  95 126 159 196 238 288
#
# _framework density 17.412063
#
# number of rings (size 3 to 8) (size 9 to 14) (size 15 to 20)
#    0.000    2.250    1.250    3.000    0.000    5.000 
#    0.000    0.000    0.000    0.000    0.000    0.875 
#    0.000    2.000    0.000    0.000    0.000    0.000 
#
# Total GULP energy -178280.296252 kJ/mol
# GULP energy per Si atom -5571.259258 kJ/mol
# Density = 1.737243 g / cm^3
# Si number density = 17.412063 Si / 1000 Ang^3
#
#
#
# Elastic Constant Matrix: (Units=GPa)
#
#
# Indices 1 2 3 4 5 6 
#
# 1 19.3454 18.0857 11.6617 0.0000 0.0000 0.0000
# 2 18.0857 139.7619 34.1685 0.0000 0.0000 0.0000
# 3 11.6617 34.1685 59.5729 0.0000 0.0000 0.0000
# 4 0.0000 0.0000 0.0000 13.7166 0.0000 0.0000
# 5 0.0000 0.0000 0.0000 0.0000 12.9535 0.0000
# 6 0.0000 0.0000 0.0000 0.0000 0.0000 26.3494
#
#
#
# Elastic Compliance Matrix: (Units=1/GPa)
#
#
# Indices 1 2 3 4 5 6 
#
# 1 0.062572 -0.005935 -0.008845 0.000000 0.000000 0.000000
# 2 -0.005935 0.008885 -0.003934 0.000000 0.000000 0.000000
# 3 -0.008845 -0.003934 0.020774 0.000000 0.000000 0.000000
# 4 0.000000 0.000000 0.000000 0.072905 0.000000 0.000000
# 5 0.000000 0.000000 0.000000 0.000000 0.077199 0.000000
# 6 0.000000 0.000000 0.000000 0.000000 0.000000 0.037952
#
#
# Mechanical properties :
#
#
# Convention : Reuss Voigt Hill
#
# Bulk Modulus (GPa) = 18.24708 38.50130 28.37419
# Shear Modulus (GPa) = 14.88177 20.92151 17.90164
#
# Velocity S-wave (km/s) = 2.92667 3.47010 3.20991
# Velocity P-wave (km/s) = 4.68218 6.18186 5.48353
#
# Compressibility (1/GPa) = 0.05480328
#
# Stress axis : x y z
#
# Youngs Moduli (GPa) = 15.98164 112.55166 48.13691
#
# Poissons Ratio (x) = 0.66795 0.42576
# Poissons Ratio (y) = 0.09485 0.18938
# Poissons Ratio (z) = 0.14136 0.44280
#
# Static dielectric constant tensor:
#      x y z
#    x 1.606810 0.000000 0.000000 
#    y 0.000000 1.647710 0.000000 
#    z 0.000000 0.000000 1.592610 
# 
# From -- ./inp_files/24376.got.cif
#   From: 2010.05.17/outbox.cif.g08.bks.cpg/sg40_13_cif.got.tgz:24376.got - 2010.06.03 18:35:42.
