data_PCOD9362874
_publ_section_title
;
Structure prediction by ZEFSAII (Michael W. Deem and Ramdas Pophale) SiO2 
 PCOD9362874
Probable space group: A M A 2
;
_chemical_formula_sum "Si O2"
_cell_formula_units_Z 64
_cell_length_a 9.764002
_cell_length_b 24.165711
_cell_length_c 13.709484
_cell_angle_alpha 90.000000
_cell_angle_beta 90.000000
_cell_angle_gamma 90.000000
_cell_volume 3234.808281
_symmetry_space_group_name_H-M "A M A 2"
_symmetry_group_IT_number 40
_symmetry_cell_setting 'orthorhombic'
loop_
_space_group_symop_operation_xyz
x,y,z
-x,-y,z
1/2-x,y,z
1/2+x,-y,z
x,1/2+y,1/2+z
-x,1/2-y,1/2+z
1/2-x,1/2+y,1/2+z
1/2+x,1/2-y,1/2+z
loop_
_atom_site_type_symbol
_atom_site_label
_atom_site_fract_x
_atom_site_fract_y
_atom_site_fract_z
Si Si1 0.408321 0.263308 0.470460
Si Si2 0.589322 0.673090 0.064225
Si Si3 0.588562 0.660395 0.282734
Si Si4 0.408787 0.445753 0.768174
Si Si5 0.901145 0.953218 0.001769
Si Si6 0.594049 0.950125 0.772255
Si Si7 0.589452 0.554280 0.996078
Si Si8 0.092412 0.368543 0.589146
O O1 0.250000 0.246158 0.459739
O O2 0.504137 0.211834 0.492906
O O3 0.442769 0.299557 0.374046
O O4 0.416996 0.304143 0.564490
O O5 0.750000 0.675433 0.038572
O O6 0.575341 0.689800 0.177609
O O7 0.547297 0.608694 0.055307
O O8 0.750000 0.643231 0.293034
O O9 0.490441 0.607123 0.275353
O O10 0.500000 0.500000 0.751911
O O11 0.250000 0.461068 0.753619
O O12 0.425165 0.430268 0.881554
O O13 0.436281 0.394458 0.695372
O O14 0.750000 0.953301 0.045470
O O15 0.888347 0.963539 0.887156
O O16 0.000000 0.000000 0.043428
O O17 0.982033 0.897197 0.019901
O O18 0.750000 0.946435 0.731522
O O19 0.500000 0.000000 0.731118
O O20 0.500000 0.500000 0.012733
O O21 0.750000 0.542858 0.015362
O O22 0.250000 0.384610 0.563193
#
# Coordination Sequence:
#
# PCOD9362874 Si02
#       8
#     8   8   8   8   8   8   8   8
#     4  10  22  39  59  83 115 154 193 236 288 345
#     4  10  23  41  63  89 116 148 188 238 292 344
#     4  10  21  40  61  84 117 153 193 245 299 349
#     4   9  18  32  52  79 111 146 189 233 282 336
#     4  10  19  29  45  72 107 147 189 230 276 332
#     4  10  20  33  53  82 115 155 197 238 288 346
#     4   9  19  38  61  85 112 144 182 233 287 339
#     4  10  19  32  51  76 109 151 192 233 279 333
#
# _framework density 19.784789
#
# number of rings (size 3 to 8) (size 9 to 14) (size 15 to 20)
#    0.000    2.250    1.250    1.125    0.000    6.000 
#    0.000    2.500    0.000    0.000    0.000    0.000 
#    0.000    0.000    0.000    0.000    0.000    0.000 
#
# Total GULP energy -178434.285000 kJ/mol
# GULP energy per Si atom -5576.071406 kJ/mol
# Density = 1.973976 g / cm^3
# Si number density = 19.784789 Si / 1000 Ang^3
#
#
#
# Elastic Constant Matrix: (Units=GPa)
#
#
# Indices 1 2 3 4 5 6 
#
# 1 105.2740 70.6803 27.0120 0.0000 0.0000 0.0000
# 2 70.6803 103.1926 36.1201 0.0000 0.0000 0.0000
# 3 27.0120 36.1201 92.5444 0.0000 0.0000 0.0000
# 4 0.0000 0.0000 0.0000 19.1293 0.0000 0.0000
# 5 0.0000 0.0000 0.0000 0.0000 13.2608 0.0000
# 6 0.0000 0.0000 0.0000 0.0000 0.0000 30.9816
#
#
#
# Elastic Compliance Matrix: (Units=1/GPa)
#
#
# Indices 1 2 3 4 5 6 
#
# 1 0.017606 -0.011884 -0.000501 0.000000 0.000000 0.000000
# 2 -0.011884 0.019245 -0.004043 0.000000 0.000000 0.000000
# 3 -0.000501 -0.004043 0.012530 0.000000 0.000000 0.000000
# 4 0.000000 0.000000 0.000000 0.052276 0.000000 0.000000
# 5 0.000000 0.000000 0.000000 0.000000 0.075410 0.000000
# 6 0.000000 0.000000 0.000000 0.000000 0.000000 0.032277
#
#
# Mechanical properties :
#
#
# Convention : Reuss Voigt Hill
#
# Bulk Modulus (GPa) = 60.50845 63.18177 61.84511
# Shear Modulus (GPa) = 20.18503 23.82092 22.00298
#
# Velocity S-wave (km/s) = 3.19757 3.47364 3.33846
# Velocity P-wave (km/s) = 6.65450 6.93484 6.79611
#
# Compressibility (1/GPa) = 0.01652662
#
# Stress axis : x y z
#
# Youngs Moduli (GPa) = 56.79793 51.96042 79.81068
#
# Poissons Ratio (x) = 0.61749 0.03996
# Poissons Ratio (y) = 0.67498 0.32266
# Poissons Ratio (z) = 0.02844 0.21006
#
# Static dielectric constant tensor:
#      x y z
#    x 1.704130 0.000000 0.000000 
#    y 0.000000 1.682480 0.000000 
#    z 0.000000 0.000000 1.740800 
# 
# From -- ./inp_files/15659.got.cif
#   From: 2010.05.17/outbox.cif.g08.bks.cpg/sg40_8_cif.got.tgz:15659.got - 2010.06.03 18:35:42.
