data_PCOD9362761
_publ_section_title
;
Structure prediction by ZEFSAII (Michael W. Deem and Ramdas Pophale) SiO2 
 PCOD9362761
Probable space group: A M A 2
;
_chemical_formula_sum "Si O2"
_cell_formula_units_Z 64
_cell_length_a 18.111632
_cell_length_b 8.889652
_cell_length_c 20.364411
_cell_angle_alpha 90.000000
_cell_angle_beta 90.000000
_cell_angle_gamma 90.000000
_cell_volume 3278.794509
_symmetry_space_group_name_H-M "A M A 2"
_symmetry_group_IT_number 40
_symmetry_cell_setting 'orthorhombic'
loop_
_space_group_symop_operation_xyz
x,y,z
-x,-y,z
1/2-x,y,z
1/2+x,-y,z
x,1/2+y,1/2+z
-x,1/2-y,1/2+z
1/2-x,1/2+y,1/2+z
1/2+x,1/2-y,1/2+z
loop_
_atom_site_type_symbol
_atom_site_label
_atom_site_fract_x
_atom_site_fract_y
_atom_site_fract_z
Si Si1 0.338449 0.503063 0.603280
Si Si2 0.166662 0.975107 0.725404
Si Si3 0.533017 0.169663 0.789929
Si Si4 0.026452 0.173727 0.429222
Si Si5 0.327958 0.951248 0.576081
Si Si6 0.428815 0.261936 0.679060
Si Si7 0.170196 0.745809 0.001606
Si Si8 0.456432 0.253233 0.060439
O O1 0.250000 0.534157 0.614727
O O2 0.376570 0.402244 0.660466
O O3 0.342466 0.403830 0.536615
O O4 0.396222 0.636201 0.588286
O O5 0.250000 0.001397 0.749738
O O6 0.117630 0.864705 0.769612
O O7 0.172390 0.908756 0.652124
O O8 0.122775 0.129135 0.708255
O O9 0.519539 0.247264 0.859240
O O10 0.492234 0.270087 0.734642
O O11 0.500000 0.000000 0.789756
O O12 0.111045 0.185228 0.451472
O O13 0.987611 0.270425 0.487618
O O14 0.000000 0.000000 0.427174
O O15 0.250000 0.892012 0.546625
O O16 0.406239 0.899597 0.550565
O O17 0.326229 0.128458 0.562437
O O18 0.477425 0.228127 0.612925
O O19 0.250000 0.747733 0.969294
#
# Coordination Sequence:
#
# PCOD9362761 Si02
#       8
#     8   8   8   8   8   8   8   8
#     4  11  23  38  61  96 133 164 205 266 319 376
#     4  10  19  37  65  93 123 161 207 262 311 374
#     4  10  25  41  63  88 126 165 218 262 312 378
#     4  12  25  41  63  91 128 171 212 263 322 382
#     4  10  18  34  61  94 124 154 204 258 316 381
#     4  11  21  38  64  94 124 161 207 262 317 373
#     4  10  21  37  61  91 124 162 206 258 313 382
#     4  12  23  36  64  96 126 163 208 262 324 372
#
# _framework density 19.519369999999999
#
# number of rings (size 3 to 8) (size 9 to 14) (size 15 to 20)
#    0.000    1.250    5.000    1.125    1.750    1.500 
#    0.000    0.000    0.000    6.000    0.000    0.000 
#    0.000    0.000    0.000    0.000    0.000    0.000 
#
# Total GULP energy -178194.971353 kJ/mol
# GULP energy per Si atom -5568.592855 kJ/mol
# Density = 1.947494 g / cm^3
# Si number density = 19.519370 Si / 1000 Ang^3
#
#
#
# Elastic Constant Matrix: (Units=GPa)
#
#
# Indices 1 2 3 4 5 6 
#
# 1 146.6216 35.4731 32.3995 0.0000 0.0000 0.0000
# 2 35.4731 64.1093 17.3576 0.0000 0.0000 0.0000
# 3 32.3995 17.3576 105.9068 0.0000 0.0000 0.0000
# 4 0.0000 0.0000 0.0000 28.9296 0.0000 0.0000
# 5 0.0000 0.0000 0.0000 0.0000 8.7709 0.0000
# 6 0.0000 0.0000 0.0000 0.0000 0.0000 28.4824
#
#
#
# Elastic Compliance Matrix: (Units=1/GPa)
#
#
# Indices 1 2 3 4 5 6 
#
# 1 0.008206 -0.004040 -0.001848 0.000000 0.000000 0.000000
# 2 -0.004040 0.018312 -0.001765 0.000000 0.000000 0.000000
# 3 -0.001848 -0.001765 0.010297 0.000000 0.000000 0.000000
# 4 0.000000 0.000000 0.000000 0.034567 0.000000 0.000000
# 5 0.000000 0.000000 0.000000 0.000000 0.114013 0.000000
# 6 0.000000 0.000000 0.000000 0.000000 0.000000 0.035109
#
#
# Mechanical properties :
#
#
# Convention : Reuss Voigt Hill
#
# Bulk Modulus (GPa) = 46.49531 54.12201 50.30866
# Shear Modulus (GPa) = 20.57774 28.66373 24.62074
#
# Velocity S-wave (km/s) = 3.25040 3.83623 3.55540
# Velocity P-wave (km/s) = 6.16106 6.88547 6.53331
#
# Compressibility (1/GPa) = 0.02150755
#
# Stress axis : x y z
#
# Youngs Moduli (GPa) = 121.85925 54.60939 97.11547
#
# Poissons Ratio (x) = 0.22064 0.17950
# Poissons Ratio (y) = 0.49234 0.17143
# Poissons Ratio (z) = 0.22523 0.09640
#
# Static dielectric constant tensor:
#      x y z
#    x 1.775330 0.000000 0.000000 
#    y 0.000000 1.756650 0.000000 
#    z 0.000000 0.000000 1.663580 
# 
# From -- ./inp_files/23400.got.cif
#   From: 2010.05.17/outbox.cif.g08.bks.cpg/sg40_12_cif.got.tgz:23400.got - 2010.06.03 18:35:42.
