data_PCOD9362622
_publ_section_title
;
Structure prediction by ZEFSAII (Michael W. Deem and Ramdas Pophale) SiO2 
 PCOD9362622
Probable space group: A M A 2
;
_chemical_formula_sum "Si O2"
_cell_formula_units_Z 64
_cell_length_a 20.473768
_cell_length_b 9.617461
_cell_length_c 18.637964
_cell_angle_alpha 90.000000
_cell_angle_beta 90.000000
_cell_angle_gamma 90.000000
_cell_volume 3669.920701
_symmetry_space_group_name_H-M "A M A 2"
_symmetry_group_IT_number 40
_symmetry_cell_setting 'orthorhombic'
loop_
_space_group_symop_operation_xyz
x,y,z
-x,-y,z
1/2-x,y,z
1/2+x,-y,z
x,1/2+y,1/2+z
-x,1/2-y,1/2+z
1/2-x,1/2+y,1/2+z
1/2+x,1/2-y,1/2+z
loop_
_atom_site_type_symbol
_atom_site_label
_atom_site_fract_x
_atom_site_fract_y
_atom_site_fract_z
Si Si1 0.675508 0.022807 0.065100
Si Si2 0.955942 0.362760 0.084354
Si Si3 0.822407 0.812379 0.651285
Si Si4 0.825072 0.626415 0.400546
Si Si5 0.075163 0.641083 0.919301
Si Si6 0.323685 0.156498 0.821531
Si Si7 0.546154 0.367299 0.553575
Si Si8 0.069558 0.816306 0.410864
O O1 0.750000 0.965900 0.070489
O O2 0.673137 0.159817 0.114964
O O3 0.614677 0.924207 0.083984
O O4 0.665157 0.066261 0.981439
O O5 0.888866 0.385876 0.126387
O O6 0.000000 0.500000 0.083276
O O7 0.002220 0.232203 0.104482
O O8 0.933932 0.326834 0.003524
O O9 0.750000 0.868129 0.629282
O O10 0.823702 0.814468 0.737123
O O11 0.750000 0.669729 0.396318
O O12 0.870677 0.757872 0.389054
O O13 0.836319 0.503259 0.343884
O O14 0.089258 0.477352 0.918988
O O15 0.005244 0.675105 0.884100
O O16 0.250000 0.188105 0.848878
O O17 0.379235 0.244470 0.859493
O O18 0.500000 0.500000 0.534112
O O19 0.565590 0.272231 0.484718
#
# Coordination Sequence:
#
# PCOD9362622 Si02
#       8
#     8   8   8   8   8   8   8   8
#     4  10  18  31  56  86 111 146 194 240 291 346
#     4  11  20  36  56  84 119 146 187 240 297 353
#     4  10  21  39  59  79 115 159 195 238 299 360
#     4  10  19  33  57  85 110 143 197 244 281 343
#     4  10  19  35  54  83 117 145 184 238 297 349
#     4  10  22  38  57  83 114 150 198 244 287 356
#     4  11  18  31  55  86 114 146 187 248 296 341
#     4  10  20  33  53  80 114 150 183 237 296 345
#
# _framework density 17.439069
#
# number of rings (size 3 to 8) (size 9 to 14) (size 15 to 20)
#    0.000    1.750    6.250    0.750    0.000    0.500 
#    2.250    3.125    0.000    0.000    0.000    0.000 
#    0.000    0.000    0.000    0.000    0.000    0.000 
#
# Total GULP energy -178210.389474 kJ/mol
# GULP energy per Si atom -5569.074671 kJ/mol
# Density = 1.739938 g / cm^3
# Si number density = 17.439069 Si / 1000 Ang^3
#
#
#
# Elastic Constant Matrix: (Units=GPa)
#
#
# Indices 1 2 3 4 5 6 
#
# 1 123.1737 52.3829 24.7870 0.0000 0.0000 0.0000
# 2 52.3829 75.4244 12.6907 0.0000 0.0000 0.0000
# 3 24.7870 12.6907 45.8095 0.0000 0.0000 0.0000
# 4 0.0000 0.0000 0.0000 16.2132 0.0000 0.0000
# 5 0.0000 0.0000 0.0000 0.0000 22.6827 0.0000
# 6 0.0000 0.0000 0.0000 0.0000 0.0000 29.2390
#
#
#
# Elastic Compliance Matrix: (Units=1/GPa)
#
#
# Indices 1 2 3 4 5 6 
#
# 1 0.012353 -0.007819 -0.004518 0.000000 0.000000 0.000000
# 2 -0.007819 0.018856 -0.000993 0.000000 0.000000 0.000000
# 3 -0.004518 -0.000993 0.024549 0.000000 0.000000 0.000000
# 4 0.000000 0.000000 0.000000 0.061678 0.000000 0.000000
# 5 0.000000 0.000000 0.000000 0.000000 0.044087 0.000000
# 6 0.000000 0.000000 0.000000 0.000000 0.000000 0.034201
#
#
# Mechanical properties :
#
#
# Convention : Reuss Voigt Hill
#
# Bulk Modulus (GPa) = 34.36630 47.12542 40.74586
# Shear Modulus (GPa) = 21.54403 23.93012 22.73708
#
# Velocity S-wave (km/s) = 3.51862 3.70836 3.61474
# Velocity P-wave (km/s) = 6.02137 6.73925 6.39040
#
# Compressibility (1/GPa) = 0.02909828
#
# Stress axis : x y z
#
# Youngs Moduli (GPa) = 80.95137 53.03400 40.73449
#
# Poissons Ratio (x) = 0.41468 0.18404
# Poissons Ratio (y) = 0.63297 0.04044
# Poissons Ratio (z) = 0.36574 0.05265
#
# Static dielectric constant tensor:
#      x y z
#    x 1.640350 0.000000 0.000000 
#    y 0.000000 1.608950 0.000000 
#    z 0.000000 0.000000 1.584900 
# 
# From -- ./inp_files/21392.got.cif
#   From: 2010.05.17/outbox.cif.g08.bks.cpg/sg40_11_cif.got.tgz:21392.got - 2010.06.03 18:35:42.
