data_PCOD9362766
_publ_section_title
;
Structure prediction by ZEFSAII (Michael W. Deem and Ramdas Pophale) SiO2 
 PCOD9362766
Probable space group: A M A 2
;
_chemical_formula_sum "Si O2"
_cell_formula_units_Z 48
_cell_length_a 15.980106
_cell_length_b 10.167070
_cell_length_c 15.722722
_cell_angle_alpha 90.000000
_cell_angle_beta 90.000000
_cell_angle_gamma 90.000000
_cell_volume 2554.484107
_symmetry_space_group_name_H-M "A M A 2"
_symmetry_group_IT_number 40
_symmetry_cell_setting 'orthorhombic'
loop_
_space_group_symop_operation_xyz
x,y,z
-x,-y,z
1/2-x,y,z
1/2+x,-y,z
x,1/2+y,1/2+z
-x,1/2-y,1/2+z
1/2-x,1/2+y,1/2+z
1/2+x,1/2-y,1/2+z
loop_
_atom_site_type_symbol
_atom_site_label
_atom_site_fract_x
_atom_site_fract_y
_atom_site_fract_z
Si Si1 0.842890 0.273592 0.563320
Si Si2 0.925186 0.607693 0.396885
Si Si3 0.615290 0.592352 0.212879
Si Si4 0.066838 0.174317 0.647673
Si Si5 0.492293 0.354750 0.962224
Si Si6 0.150076 0.429789 0.583017
O O1 0.750000 0.293064 0.527062
O O2 0.837900 0.184626 0.647035
O O3 0.903700 0.201382 0.496481
O O4 0.875895 0.417094 0.592348
O O5 0.869647 0.597259 0.312846
O O6 0.874460 0.596727 0.484680
O O7 0.000000 0.500000 0.395413
O O8 0.969618 0.748522 0.399698
O O9 0.519372 0.645990 0.198336
O O10 0.625030 0.441617 0.182783
O O11 0.103278 0.321598 0.641760
O O12 0.045760 0.140322 0.549681
O O13 0.500000 0.500000 0.925650
O O14 0.250000 0.418383 0.595826
#
# Coordination Sequence:
#
# PCOD9362766 Si02
#       6
#     8   8   8   8   8   8
#     4  10  20  35  57  81 111 147 185 226 273 327
#     4  11  20  35  59  82 112 143 182 234 281 323
#     4  10  19  35  56  86 107 139 186 228 278 327
#     4   9  17  33  57  77 108 137 186 226 256 329
#     4  10  18  35  54  82 109 142 190 227 267 331
#     4  10  22  37  56  83 112 147 187 224 273 333
#
# _framework density 18.790486999999999
#
# number of rings (size 3 to 8) (size 9 to 14) (size 15 to 20)
#    0.000    2.000    6.667    0.000    0.000    1.333 
#    3.000    0.000    0.000    1.000    0.000    0.000 
#    0.000    0.000    0.000    0.000    0.000    0.000 
#
# Total GULP energy -133646.477122 kJ/mol
# GULP energy per Si atom -5568.603213 kJ/mol
# Density = 1.874772 g / cm^3
# Si number density = 18.790487 Si / 1000 Ang^3
#
#
#
# Elastic Constant Matrix: (Units=GPa)
#
#
# Indices 1 2 3 4 5 6 
#
# 1 42.4249 34.1318 -2.5392 0.0000 0.0000 0.0000
# 2 34.1318 160.4312 11.5481 0.0000 0.0000 0.0000
# 3 -2.5392 11.5481 50.5209 0.0000 0.0000 0.0000
# 4 0.0000 0.0000 0.0000 15.1839 0.0000 0.0000
# 5 0.0000 0.0000 0.0000 0.0000 -86.7720 0.0000
# 6 0.0000 0.0000 0.0000 0.0000 0.0000 10.7057
#
#
#
# Elastic Compliance Matrix: (Units=1/GPa)
#
#
# Indices 1 2 3 4 5 6 
#
# 1 0.028851 -0.006347 0.002901 0.000000 0.000000 0.000000
# 2 -0.006347 0.007734 -0.002087 0.000000 0.000000 0.000000
# 3 0.002901 -0.002087 0.020417 0.000000 0.000000 0.000000
# 4 0.000000 0.000000 0.000000 0.065859 0.000000 0.000000
# 5 0.000000 0.000000 0.000000 0.000000 -0.011524 0.000000
# 6 0.000000 0.000000 0.000000 0.000000 0.000000 0.093408
#
#
# Mechanical properties :
#
#
# Convention : Reuss Voigt Hill
#
# Bulk Modulus (GPa) = 21.76962 37.73980 29.75471
# Shear Modulus (GPa) = 21.63369 1.83930 11.73650
#
# Velocity S-wave (km/s) = 3.39678 0.99044 2.50191
# Velocity P-wave (km/s) = 5.19565 4.62991 4.92092
#
# Compressibility (1/GPa) = 0.04593558
#
# Stress axis : x y z
#
# Youngs Moduli (GPa) = 34.66105 129.30421 48.97982
#
# Poissons Ratio (x) = 0.82067 -0.14208
# Poissons Ratio (y) = 0.21999 0.10221
# Poissons Ratio (z) = -0.10055 0.26983
#
# Static dielectric constant tensor:
#      x y z
#    x 1.861850 0.000000 0.000000 
#    y 0.000000 1.695480 0.000000 
#    z 0.000000 0.000000 1.616160 
# 
# From -- ./inp_files/20998.got.cif
#   From: 2010.05.17/outbox.cif.g08.bks.cpg/sg40_11_cif.got.tgz:20998.got - 2010.06.03 18:35:42.
