data_PCOD9362599
_publ_section_title
;
Structure prediction by ZEFSAII (Michael W. Deem and Ramdas Pophale) SiO2 
 PCOD9362599
Probable space group: A M A 2
;
_chemical_formula_sum "Si O2"
_cell_formula_units_Z 56
_cell_length_a 8.417690
_cell_length_b 14.505670
_cell_length_c 23.521104
_cell_angle_alpha 90.000000
_cell_angle_beta 90.000000
_cell_angle_gamma 90.000000
_cell_volume 2872.026370
_symmetry_space_group_name_H-M "A M A 2"
_symmetry_group_IT_number 40
_symmetry_cell_setting 'orthorhombic'
loop_
_space_group_symop_operation_xyz
x,y,z
-x,-y,z
1/2-x,y,z
1/2+x,-y,z
x,1/2+y,1/2+z
-x,1/2-y,1/2+z
1/2-x,1/2+y,1/2+z
1/2+x,1/2-y,1/2+z
loop_
_atom_site_type_symbol
_atom_site_label
_atom_site_fract_x
_atom_site_fract_y
_atom_site_fract_z
Si Si1 0.937821 0.335976 0.459540
Si Si2 0.562313 0.596088 0.873069
Si Si3 0.938973 0.706789 0.108716
Si Si4 0.939391 0.593601 0.571717
Si Si5 0.941558 0.395157 0.220773
Si Si6 0.557922 0.798228 0.836075
Si Si7 0.067338 0.143073 0.493101
O O1 0.750000 0.309326 0.462066
O O2 0.974699 0.355988 0.393824
O O3 0.973059 0.404859 0.510285
O O4 0.048499 0.250307 0.476285
O O5 0.500000 0.500000 0.848361
O O6 0.750000 0.597245 0.867018
O O7 0.500471 0.692821 0.846715
O O8 0.521328 0.597236 0.940243
O O9 0.750000 0.715555 0.106560
O O10 0.012054 0.809376 0.100730
O O11 0.995450 0.660934 0.166774
O O12 0.993011 0.642052 0.055767
O O13 0.750000 0.591283 0.565418
O O14 0.000000 0.500000 0.601492
O O15 0.750000 0.394270 0.219844
O O16 0.999270 0.346325 0.278968
O O17 0.000000 0.500000 0.218767
O O18 0.750000 0.793095 0.831866
O O19 0.250000 0.114095 0.494524
#
# Coordination Sequence:
#
# PCOD9362599 Si02
#       7
#     8   8   8   8   8   8   8
#     4   9  16  31  53  80 112 148 183 224 272 323
#     4  10  19  34  55  84 116 150 185 226 276 334
#     4  11  22  39  59  83 113 149 189 236 285 337
#     4  11  21  35  56  86 119 154 189 230 279 336
#     4  11  23  42  62  83 108 143 188 237 285 336
#     4   8  18  36  58  80 112 150 186 228 280 331
#     4  10  18  31  52  80 110 146 183 223 271 325
#
# _framework density 19.498427
#
# number of rings (size 3 to 8) (size 9 to 14) (size 15 to 20)
#    0.000    2.000    0.000    7.714    0.000    1.143 
#    0.000   13.571    0.000    1.714    0.000    0.000 
#    0.000    0.000    0.000    0.000    0.000    0.000 
#
# Total GULP energy -156116.599192 kJ/mol
# GULP energy per Si atom -5575.592828 kJ/mol
# Density = 1.945405 g / cm^3
# Si number density = 19.498427 Si / 1000 Ang^3
#
#
#
# Elastic Constant Matrix: (Units=GPa)
#
#
# Indices 1 2 3 4 5 6 
#
# 1 86.7850 12.5373 25.1392 0.0000 0.0000 0.0000
# 2 12.5373 115.9332 54.6668 0.0000 0.0000 0.0000
# 3 25.1392 54.6668 142.7960 0.0000 0.0000 0.0000
# 4 0.0000 0.0000 0.0000 11.2534 0.0000 0.0000
# 5 0.0000 0.0000 0.0000 0.0000 18.2107 0.0000
# 6 0.0000 0.0000 0.0000 0.0000 0.0000 21.3139
#
#
#
# Elastic Compliance Matrix: (Units=1/GPa)
#
#
# Indices 1 2 3 4 5 6 
#
# 1 0.012155 -0.000373 -0.001997 0.000000 0.000000 0.000000
# 2 -0.000373 0.010537 -0.003968 0.000000 0.000000 0.000000
# 3 -0.001997 -0.003968 0.008874 0.000000 0.000000 0.000000
# 4 0.000000 0.000000 0.000000 0.088862 0.000000 0.000000
# 5 0.000000 0.000000 0.000000 0.000000 0.054913 0.000000
# 6 0.000000 0.000000 0.000000 0.000000 0.000000 0.046918
#
#
# Mechanical properties :
#
#
# Convention : Reuss Voigt Hill
#
# Bulk Modulus (GPa) = 52.93937 58.91121 55.92529
# Shear Modulus (GPa) = 20.72692 27.03365 23.88028
#
# Velocity S-wave (km/s) = 3.26391 3.72755 3.50341
# Velocity P-wave (km/s) = 6.43535 6.98606 6.71635
#
# Compressibility (1/GPa) = 0.01888953
#
# Stress axis : x y z
#
# Youngs Moduli (GPa) = 82.26997 94.90195 112.69109
#
# Poissons Ratio (x) = 0.03537 0.22507
# Poissons Ratio (y) = 0.03066 0.44720
# Poissons Ratio (z) = 0.16431 0.37660
#
# Static dielectric constant tensor:
#      x y z
#    x 1.665640 0.000000 0.000000 
#    y 0.000000 1.732040 0.000000 
#    z 0.000000 0.000000 1.690230 
# 
# From -- ./inp_files/22166.got.cif
#   From: 2010.05.17/outbox.cif.g08.bks.cpg/sg40_12_cif.got.tgz:22166.got - 2010.06.03 18:35:42.
