data_PCOD9362632
_publ_section_title
;
Structure prediction by ZEFSAII (Michael W. Deem and Ramdas Pophale) SiO2 
 PCOD9362632
Probable space group: A M A 2
;
_chemical_formula_sum "Si O2"
_cell_formula_units_Z 64
_cell_length_a 9.095537
_cell_length_b 14.719519
_cell_length_c 24.867487
_cell_angle_alpha 90.000000
_cell_angle_beta 90.000000
_cell_angle_gamma 90.000000
_cell_volume 3329.307146
_symmetry_space_group_name_H-M "A M A 2"
_symmetry_group_IT_number 40
_symmetry_cell_setting 'orthorhombic'
loop_
_space_group_symop_operation_xyz
x,y,z
-x,-y,z
1/2-x,y,z
1/2+x,-y,z
x,1/2+y,1/2+z
-x,1/2-y,1/2+z
1/2-x,1/2+y,1/2+z
1/2+x,1/2-y,1/2+z
loop_
_atom_site_type_symbol
_atom_site_label
_atom_site_fract_x
_atom_site_fract_y
_atom_site_fract_z
Si Si1 0.574086 0.592108 0.657610
Si Si2 0.427015 0.197401 0.653716
Si Si3 0.416732 0.618776 0.769351
Si Si4 0.074833 0.405659 0.382625
Si Si5 0.923270 0.773467 0.446076
Si Si6 0.916758 0.164765 0.765304
Si Si7 0.921485 0.082575 0.379261
Si Si8 0.924854 0.403465 0.046103
O O1 0.500000 0.500000 0.633507
O O2 0.750000 0.583542 0.653673
O O3 0.532348 0.696244 0.640629
O O4 0.517111 0.594819 0.718926
O O5 0.250000 0.197388 0.658078
O O6 0.491978 0.159752 0.709928
O O7 0.472743 0.133842 0.604356
O O8 0.250000 0.582977 0.763615
O O9 0.406602 0.727181 0.773641
O O10 0.496143 0.589183 0.822950
O O11 0.250000 0.416463 0.378059
O O12 0.051940 0.330961 0.429593
O O13 0.024890 0.374723 0.322113
O O14 0.000000 0.500000 0.396126
O O15 0.750000 0.792265 0.431707
O O16 0.946656 0.819817 0.504124
O O17 0.037698 0.826352 0.409220
O O18 0.750000 0.129716 0.756574
O O19 0.750000 0.067192 0.374002
O O20 0.000000 0.000000 0.409905
O O21 0.750000 0.419585 0.047165
O O22 0.000000 0.500000 0.033762
#
# Coordination Sequence:
#
# PCOD9362632 Si02
#       8
#     8   8   8   8   8   8   8   8
#     4  10  19  32  50  76 112 151 193 234 282 338
#     4   9  20  37  57  84 116 152 195 238 288 347
#     4  10  18  32  51  74 109 149 191 232 280 338
#     4  10  21  38  59  86 118 153 192 235 288 349
#     4  10  21  41  62  81 113 151 190 239 292 344
#     4   9  18  34  56  81 114 154 193 234 285 337
#     4  12  23  33  50  78 111 147 188 231 284 342
#     4  10  22  41  65  88 114 150 191 242 297 348
#
# _framework density 19.223217999999999
#
# number of rings (size 3 to 8) (size 9 to 14) (size 15 to 20)
#    0.000    2.000    1.250    2.625    0.000    4.500 
#    0.000    3.125    0.000    0.000    0.000    0.000 
#    0.000    0.000    0.000    0.000    0.000    0.000 
#
# Total GULP energy -178263.346125 kJ/mol
# GULP energy per Si atom -5570.729566 kJ/mol
# Density = 1.917946 g / cm^3
# Si number density = 19.223218 Si / 1000 Ang^3
#
#
#
# Elastic Constant Matrix: (Units=GPa)
#
#
# Indices 1 2 3 4 5 6 
#
# 1 25.9733 26.7216 29.2810 0.0000 0.0000 0.0000
# 2 26.7216 114.2240 51.0212 0.0000 0.0000 0.0000
# 3 29.2810 51.0212 95.4417 0.0000 0.0000 0.0000
# 4 0.0000 0.0000 0.0000 82.2127 0.0000 0.0000
# 5 0.0000 0.0000 0.0000 0.0000 15.8352 0.0000
# 6 0.0000 0.0000 0.0000 0.0000 0.0000 25.8029
#
#
#
# Elastic Compliance Matrix: (Units=1/GPa)
#
#
# Indices 1 2 3 4 5 6 
#
# 1 0.064181 -0.008170 -0.015323 0.000000 0.000000 0.000000
# 2 -0.008170 0.012541 -0.004198 0.000000 0.000000 0.000000
# 3 -0.015323 -0.004198 0.017422 0.000000 0.000000 0.000000
# 4 0.000000 0.000000 0.000000 0.012164 0.000000 0.000000
# 5 0.000000 0.000000 0.000000 0.000000 0.063151 0.000000
# 6 0.000000 0.000000 0.000000 0.000000 0.000000 0.038755
#
#
# Mechanical properties :
#
#
# Convention : Reuss Voigt Hill
#
# Bulk Modulus (GPa) = 25.79766 49.96519 37.88142
# Shear Modulus (GPa) = 18.08217 33.34452 25.71334
#
# Velocity S-wave (km/s) = 3.07032 4.16937 3.66132
# Velocity P-wave (km/s) = 5.10081 7.01617 6.13372
#
# Compressibility (1/GPa) = 0.03876321
#
# Stress axis : x y z
#
# Youngs Moduli (GPa) = 15.58103 79.73831 57.39707
#
# Poissons Ratio (x) = 0.65147 0.87948
# Poissons Ratio (y) = 0.12730 0.24093
# Poissons Ratio (z) = 0.23874 0.33471
#
# Static dielectric constant tensor:
#      x y z
#    x 1.661530 0.000000 0.000000 
#    y 0.000000 1.332420 0.000000 
#    z 0.000000 0.000000 1.715450 
# 
# From -- ./inp_files/24317.got.cif
#   From: 2010.05.17/outbox.cif.g08.bks.cpg/sg40_13_cif.got.tgz:24317.got - 2010.06.03 18:35:42.
