data_PCOD9362140
_publ_section_title
;
Structure prediction by ZEFSAII (Michael W. Deem and Ramdas Pophale) SiO2 
 PCOD9362140
Probable space group: A B M 2
;
_chemical_formula_sum "Si O2"
_cell_formula_units_Z 28
_cell_length_a 6.518746
_cell_length_b 13.065363
_cell_length_c 13.592298
_cell_angle_alpha 90.000000
_cell_angle_beta 90.000000
_cell_angle_gamma 90.000000
_cell_volume 1157.653068
_symmetry_space_group_name_H-M "A B M 2"
_symmetry_group_IT_number 39
_symmetry_cell_setting 'orthorhombic'
loop_
_space_group_symop_operation_xyz
x,y,z
-x,-y,z
-x,1/2+y,z
x,1/2-y,z
x,1/2+y,1/2+z
-x,1/2-y,1/2+z
-x,y,1/2+z
x,-y,1/2+z
loop_
_atom_site_type_symbol
_atom_site_label
_atom_site_fract_x
_atom_site_fract_y
_atom_site_fract_z
Si Si1 0.500000 0.500000 0.292270
Si Si2 0.285506 0.415420 0.121628
Si Si3 0.786377 0.137640 0.416825
Si Si4 0.860488 0.364675 0.065150
O O1 0.410422 0.412205 0.220841
O O2 0.315737 0.550164 0.352774
O O3 0.054433 0.375405 0.139517
O O4 0.270213 0.535615 0.089347
O O5 0.342827 0.361333 0.019743
O O6 0.775622 0.250000 0.370586
O O7 0.016561 0.122261 0.460850
O O8 0.777076 0.250000 0.070773
#
# Coordination Sequence:
#
# PCOD9362140 Si02
#       4
#     4   8   8   8
#     4  12  22  34  64  96 122 156 200 264 310 354
#     4   9  19  38  60  86 123 164 202 251 305 370
#     4   9  20  39  59  86 124 161 202 249 304 366
#     4   8  17  39  62  81 117 166 203 242 296 360
#
# _framework density 24.186865000000001
#
# number of rings (size 3 to 8) (size 9 to 14) (size 15 to 20)
#    1.714    1.143    0.000    0.857    0.000    3.429 
#   10.286    4.286    0.000    0.000    0.000    0.000 
#    0.000    0.000    0.000    0.000    0.000    0.000 
#
# Total GULP energy -77943.451265 kJ/mol
# GULP energy per Si atom -5567.389376 kJ/mol
# Density = 2.413181 g / cm^3
# Si number density = 24.186865 Si / 1000 Ang^3
#
#
#
# Elastic Constant Matrix: (Units=GPa)
#
#
# Indices 1 2 3 4 5 6 
#
# 1 46.0172 17.9865 18.7944 0.0000 0.0000 0.0000
# 2 17.9865 145.9523 10.0867 0.0000 0.0000 0.0000
# 3 18.7944 10.0867 65.8154 0.0000 0.0000 0.0000
# 4 0.0000 0.0000 0.0000 -3.1722 0.0000 0.0000
# 5 0.0000 0.0000 0.0000 0.0000 26.4716 0.0000
# 6 0.0000 0.0000 0.0000 0.0000 0.0000 22.5093
#
#
#
# Elastic Compliance Matrix: (Units=1/GPa)
#
#
# Indices 1 2 3 4 5 6 
#
# 1 0.025595 -0.002677 -0.006899 0.000000 0.000000 0.000000
# 2 -0.002677 0.007205 -0.000340 0.000000 0.000000 0.000000
# 3 -0.006899 -0.000340 0.017216 0.000000 0.000000 0.000000
# 4 0.000000 0.000000 0.000000 -0.315234 0.000000 0.000000
# 5 0.000000 0.000000 0.000000 0.000000 0.037776 0.000000
# 6 0.000000 0.000000 0.000000 0.000000 0.000000 0.044426
#
#
# Mechanical properties :
#
#
# Convention : Reuss Voigt Hill
#
# Bulk Modulus (GPa) = 33.12943 39.05779 36.09361
# Shear Modulus (GPa) = -32.65368 23.22288 -4.71540
#
# Velocity S-wave (km/s) = -3.67830 3.10198 -1.39778
# Velocity P-wave (km/s) = 2.07674 5.38638 3.51428
#
# Compressibility (1/GPa) = 0.03018464
#
# Stress axis : x y z
#
# Youngs Moduli (GPa) = 39.06996 138.79284 58.08531
#
# Poissons Ratio (x) = 0.37161 0.40071
# Poissons Ratio (y) = 0.10461 0.01973
# Poissons Ratio (z) = 0.26953 0.04714
#
# Static dielectric constant tensor:
#      x y z
#    x 2.069710 0.000000 0.000000 
#    y 0.000000 1.930480 0.000000 
#    z 0.000000 0.000000 1.937830 
# 
# From -- ./inp_files/7930.got.cif
#   From: 2010.05.17/outbox.cif.g08.bks.cpg/sg39_4_cif.got.tgz:7930.got - 2010.06.03 18:22:40.
