data_PCOD9362166
_publ_section_title
;
Structure prediction by ZEFSAII (Michael W. Deem and Ramdas Pophale) SiO2 
 PCOD9362166
Probable space group: A B M 2
;
_chemical_formula_sum "Si O2"
_cell_formula_units_Z 32
_cell_length_a 14.491281
_cell_length_b 9.776669
_cell_length_c 9.173582
_cell_angle_alpha 90.000000
_cell_angle_beta 90.000000
_cell_angle_gamma 90.000000
_cell_volume 1299.680602
_symmetry_space_group_name_H-M "A B M 2"
_symmetry_group_IT_number 39
_symmetry_cell_setting 'orthorhombic'
loop_
_space_group_symop_operation_xyz
x,y,z
-x,-y,z
-x,1/2+y,z
x,1/2-y,z
x,1/2+y,1/2+z
-x,1/2-y,1/2+z
-x,y,1/2+z
x,-y,1/2+z
loop_
_atom_site_type_symbol
_atom_site_label
_atom_site_fract_x
_atom_site_fract_y
_atom_site_fract_z
Si Si1 0.874263 0.750000 0.734781
Si Si2 0.464008 0.250000 0.774455
Si Si3 0.661062 0.008322 0.416806
Si Si4 0.936268 0.250000 0.574384
Si Si5 0.208869 0.543905 0.679434
Si Si6 0.500000 0.500000 0.613246
O O1 0.814186 0.614999 0.706919
O O2 0.957439 0.750000 0.618200
O O3 0.915252 0.750000 0.900581
O O4 0.393108 0.371467 0.832699
O O5 0.530475 0.370856 0.705446
O O6 0.726651 0.918406 0.315378
O O7 0.730418 0.067685 0.536775
O O8 0.580568 0.936963 0.511922
O O9 0.885782 0.377792 0.651748
#
# Coordination Sequence:
#
# PCOD9362166 Si02
#       6
#     4   4   8   4   8   4
#     4  12  29  52  79 122 164 208 266 329 407 488
#     4  12  26  51  73 110 154 207 262 334 392 472
#     4  12  26  49  77 116 152 210 271 325 400 464
#     4  12  29  51  80 122 164 211 264 329 413 482
#     4  12  27  50  84 113 166 208 271 335 392 484
#     4  12  28  48  78 110 160 212 266 338 402 468
#
# _framework density 24.621434000000001
#
# number of rings (size 3 to 8) (size 9 to 14) (size 15 to 20)
#    0.000    0.000    5.000    3.750    3.500    3.000 
#    0.000    1.250    0.000    0.000    0.000    0.000 
#    0.000    0.000    0.000    0.000    0.000    0.000 
#
# Total GULP energy -89071.674509 kJ/mol
# GULP energy per Si atom -5566.979657 kJ/mol
# Density = 2.456539 g / cm^3
# Si number density = 24.621434 Si / 1000 Ang^3
#
#
#
# Elastic Constant Matrix: (Units=GPa)
#
#
# Indices 1 2 3 4 5 6 
#
# 1 106.2909 -3.3614 15.5388 0.0000 0.0000 0.0000
# 2 -3.3614 146.6948 14.4937 0.0000 0.0000 0.0000
# 3 15.5388 14.4937 105.4027 0.0000 0.0000 0.0000
# 4 0.0000 0.0000 0.0000 -11.6715 0.0000 0.0000
# 5 0.0000 0.0000 0.0000 0.0000 45.4829 0.0000
# 6 0.0000 0.0000 0.0000 0.0000 0.0000 60.0548
#
#
#
# Elastic Compliance Matrix: (Units=1/GPa)
#
#
# Indices 1 2 3 4 5 6 
#
# 1 0.009635 0.000366 -0.001471 0.000000 0.000000 0.000000
# 2 0.000366 0.006925 -0.001006 0.000000 0.000000 0.000000
# 3 -0.001471 -0.001006 0.009843 0.000000 0.000000 0.000000
# 4 0.000000 0.000000 0.000000 -0.085679 0.000000 0.000000
# 5 0.000000 0.000000 0.000000 0.000000 0.021986 0.000000
# 6 0.000000 0.000000 0.000000 0.000000 0.000000 0.016651
#
#
# Mechanical properties :
#
#
# Convention : Reuss Voigt Hill
#
# Bulk Modulus (GPa) = 45.08488 45.74785 45.41636
# Shear Modulus (GPa) = -554.07713 40.88772 -256.59470
#
# Velocity S-wave (km/s) = -15.01756 4.07954 -10.21970
# Velocity P-wave (km/s) = 16.80333 6.38835 10.98956
#
# Compressibility (1/GPa) = 0.02218038
#
# Stress axis : x y z
#
# Youngs Moduli (GPa) = 103.79122 144.41116 101.59922
#
# Poissons Ratio (x) = -0.05287 0.14942
# Poissons Ratio (y) = -0.03800 0.10223
# Poissons Ratio (z) = 0.15265 0.14530
#
# Static dielectric constant tensor:
#      x y z
#    x 1.893460 0.000000 0.000000 
#    y 0.000000 1.915680 0.000000 
#    z 0.000000 0.000000 2.073810 
# 
# From -- ./inp_files/3022.got.cif
#   From: 2010.05.17/outbox.cif.g08.bks.cpg/sg39_2_cif.got.tgz:3022.got - 2010.06.03 18:22:40.
