data_PCOD9362427
_publ_section_title
;
Structure prediction by ZEFSAII (Michael W. Deem and Ramdas Pophale) SiO2 
 PCOD9362427
Probable space group: A M A 2
;
_chemical_formula_sum "Si O2"
_cell_formula_units_Z 64
_cell_length_a 8.653849
_cell_length_b 27.059722
_cell_length_c 18.812677
_cell_angle_alpha 90.000000
_cell_angle_beta 90.000000
_cell_angle_gamma 90.000000
_cell_volume 4405.378648
_symmetry_space_group_name_H-M "A M A 2"
_symmetry_group_IT_number 40
_symmetry_cell_setting 'orthorhombic'
loop_
_space_group_symop_operation_xyz
x,y,z
-x,-y,z
1/2-x,y,z
1/2+x,-y,z
x,1/2+y,1/2+z
-x,1/2-y,1/2+z
1/2-x,1/2+y,1/2+z
1/2+x,1/2-y,1/2+z
loop_
_atom_site_type_symbol
_atom_site_label
_atom_site_fract_x
_atom_site_fract_y
_atom_site_fract_z
Si Si1 0.066289 0.205240 0.150130
Si Si2 0.433883 0.242654 0.775826
Si Si3 0.563981 0.743299 0.432985
Si Si4 0.065324 0.054332 0.778315
Si Si5 0.934245 0.800438 0.568100
Si Si6 0.064434 0.852308 0.028679
Si Si7 0.564372 0.053807 0.935143
Si Si8 0.065968 0.853745 0.694888
O O1 0.250000 0.211830 0.148338
O O2 0.005574 0.212349 0.229944
O O3 0.983029 0.250347 0.108905
O O4 0.016874 0.158124 0.103815
O O5 0.250000 0.242146 0.767699
O O6 0.482172 0.245875 0.857633
O O7 0.501357 0.191921 0.742138
O O8 0.750000 0.743094 0.423149
O O9 0.524510 0.788351 0.486581
O O10 0.523773 0.692311 0.474195
O O11 0.250000 0.053095 0.778649
O O12 0.004827 0.066330 0.857776
O O13 0.004013 0.095990 0.725307
O O14 0.000000 0.000000 0.760878
O O15 0.750000 0.806439 0.572820
O O16 0.016033 0.842828 0.613617
O O17 0.250000 0.850043 0.038750
O O18 0.024325 0.903795 0.991437
O O19 0.750000 0.051623 0.928566
O O20 0.500000 0.000000 0.954996
O O21 0.250000 0.854094 0.700679
#
# Coordination Sequence:
#
# PCOD9362427 Si02
#       8
#     8   8   8   8   8   8   8   8
#     4  10  18  28  43  61  83 110 142 179 215 254
#     4  11  20  29  43  63  88 116 147 179 213 256
#     4   9  17  29  44  62  86 114 145 179 215 255
#     4  11  21  33  47  64  87 114 147 183 219 255
#     4   9  17  30  45  61  84 112 141 175 214 255
#     4   9  18  31  45  60  83 115 146 178 216 255
#     4  10  19  31  46  64  88 116 146 182 220 255
#     4  11  20  31  46  63  86 115 148 181 215 255
#
# _framework density 14.527695
#
# number of rings (size 3 to 8) (size 9 to 14) (size 15 to 20)
#    0.000    2.000    0.000    9.000    0.000    4.500 
#    0.000    0.000    0.000    0.000    0.000    0.000 
#    0.000    1.000    0.000    7.000    0.000    4.875 
#
# Total GULP energy -178448.994095 kJ/mol
# GULP energy per Si atom -5576.531065 kJ/mol
# Density = 1.449463 g / cm^3
# Si number density = 14.527695 Si / 1000 Ang^3
#
#
#
# Elastic Constant Matrix: (Units=GPa)
#
#
# Indices 1 2 3 4 5 6 
#
# 1 67.6968 34.3113 36.6333 0.0000 0.0000 0.0000
# 2 34.3113 74.2425 44.3839 0.0000 0.0000 0.0000
# 3 36.6333 44.3839 87.7000 0.0000 0.0000 0.0000
# 4 0.0000 0.0000 0.0000 25.5308 0.0000 0.0000
# 5 0.0000 0.0000 0.0000 0.0000 -3.0638 0.0000
# 6 0.0000 0.0000 0.0000 0.0000 0.0000 23.5422
#
#
#
# Elastic Compliance Matrix: (Units=1/GPa)
#
#
# Indices 1 2 3 4 5 6 
#
# 1 0.021012 -0.006400 -0.005538 0.000000 0.000000 0.000000
# 2 -0.006400 0.021262 -0.008087 0.000000 0.000000 0.000000
# 3 -0.005538 -0.008087 0.017809 0.000000 0.000000 0.000000
# 4 0.000000 0.000000 0.000000 0.039168 0.000000 0.000000
# 5 0.000000 0.000000 0.000000 0.000000 -0.326389 0.000000
# 6 0.000000 0.000000 0.000000 0.000000 0.000000 0.042477
#
#
# Mechanical properties :
#
#
# Convention : Reuss Voigt Hill
#
# Bulk Modulus (GPa) = 49.91906 51.14405 50.53156
# Shear Modulus (GPa) = -36.24946 16.82255 -9.71345
#
# Velocity S-wave (km/s) = -5.00061 3.40658 -2.58857
# Velocity P-wave (km/s) = 1.04613 7.12418 5.09158
#
# Compressibility (1/GPa) = 0.02003243
#
# Stress axis : x y z
#
# Youngs Moduli (GPa) = 47.59083 47.03284 56.15280
#
# Poissons Ratio (x) = 0.30102 0.31098
# Poissons Ratio (y) = 0.30459 0.45410
# Poissons Ratio (z) = 0.26356 0.38035
#
# Static dielectric constant tensor:
#      x y z
#    x 1.483340 0.000000 0.000000 
#    y 0.000000 1.475690 0.000000 
#    z 0.000000 0.000000 1.493490 
# 
# From -- ./inp_files/19779.got.cif
#   From: 2010.05.17/outbox.cif.g08.bks.cpg/sg40_10_cif.got.tgz:19779.got - 2010.06.03 18:35:42.
