data_PCOD9362396
_publ_section_title
;
Structure prediction by ZEFSAII (Michael W. Deem and Ramdas Pophale) SiO2 
 PCOD9362396
Probable space group: A M A 2
;
_chemical_formula_sum "Si O2"
_cell_formula_units_Z 64
_cell_length_a 22.759138
_cell_length_b 10.059462
_cell_length_c 10.448135
_cell_angle_alpha 90.000000
_cell_angle_beta 90.000000
_cell_angle_gamma 90.000000
_cell_volume 2392.044965
_symmetry_space_group_name_H-M "A M A 2"
_symmetry_group_IT_number 40
_symmetry_cell_setting 'orthorhombic'
loop_
_space_group_symop_operation_xyz
x,y,z
-x,-y,z
1/2-x,y,z
1/2+x,-y,z
x,1/2+y,1/2+z
-x,1/2-y,1/2+z
1/2-x,1/2+y,1/2+z
1/2+x,1/2-y,1/2+z
loop_
_atom_site_type_symbol
_atom_site_label
_atom_site_fract_x
_atom_site_fract_y
_atom_site_fract_z
Si Si1 0.312986 0.524013 0.366410
Si Si2 0.813528 0.779410 0.111054
Si Si3 0.812997 0.767469 0.648784
Si Si4 0.186869 0.492770 0.830296
Si Si5 0.935677 0.736883 0.683113
Si Si6 0.934762 0.949049 0.904127
Si Si7 0.562762 0.771036 0.148184
Si Si8 0.561695 0.976945 0.356174
O O1 0.250000 0.452796 0.381949
O O2 0.313220 0.637913 0.478076
O O3 0.311568 0.598468 0.231282
O O4 0.377160 0.459622 0.383964
O O5 0.750000 0.710772 0.119988
O O6 0.874686 0.700837 0.125860
O O7 0.815493 0.890110 0.224065
O O8 0.750000 0.757159 0.579324
O O9 0.813043 0.644170 0.750050
O O10 0.878658 0.753178 0.593652
O O11 0.250000 0.500982 0.897311
O O12 0.126978 0.501432 0.910203
O O13 0.925341 0.827882 0.806876
O O14 0.940836 0.588658 0.741468
O O15 0.997590 0.783418 0.625379
O O16 0.933913 0.890631 0.045859
O O17 0.000000 0.000000 0.879123
O O18 0.560558 0.833261 0.289557
O O19 0.500000 0.000000 0.426705
#
# Coordination Sequence:
#
# PCOD9362396 Si02
#       8
#     8   8   8   8   8   8   8   8
#     4   8  14  24  37  54  76 100 129 167 205 236
#     4   8  13  21  35  56  78 100 127 160 198 236
#     4   8  13  21  33  51  75 100 126 160 201 237
#     4   8  12  17  27  46  71  94 116 146 186 227
#     4   9  16  25  39  59  82 107 134 165 200 239
#     4  10  18  27  42  62  83 109 138 167 203 246
#     4   9  16  27  43  61  82 107 135 167 201 241
#     4   8  13  22  36  53  74  99 126 156 189 226
#
# _framework density 26.755351000000001
#
# number of rings (size 3 to 8) (size 9 to 14) (size 15 to 20)
#    0.000    3.500    0.000    1.125    0.000    1.000 
#    0.000    0.000    0.000    3.000    0.000    0.000 
#    0.000    0.000    0.000   35.000    0.000   12.500 
#
# Total GULP energy -178433.052970 kJ/mol
# GULP energy per Si atom -5576.032905 kJ/mol
# Density = 2.669445 g / cm^3
# Si number density = 26.755351 Si / 1000 Ang^3
#
#
#
# Elastic Constant Matrix: (Units=GPa)
#
#
# Indices 1 2 3 4 5 6 
#
# 1 370.9720 14.6380 11.0008 0.0000 0.0000 0.0000
# 2 14.6380 67.6998 36.7816 0.0000 0.0000 0.0000
# 3 11.0008 36.7816 66.8973 0.0000 0.0000 0.0000
# 4 0.0000 0.0000 0.0000 61.4738 0.0000 0.0000
# 5 0.0000 0.0000 0.0000 0.0000 -5.2085 0.0000
# 6 0.0000 0.0000 0.0000 0.0000 0.0000 -54.1101
#
#
#
# Elastic Compliance Matrix: (Units=1/GPa)
#
#
# Indices 1 2 3 4 5 6 
#
# 1 0.002720 -0.000492 -0.000177 0.000000 0.000000 0.000000
# 2 -0.000492 0.021152 -0.011549 0.000000 0.000000 0.000000
# 3 -0.000177 -0.011549 0.021327 0.000000 0.000000 0.000000
# 4 0.000000 0.000000 0.000000 0.016267 0.000000 0.000000
# 5 0.000000 0.000000 0.000000 0.000000 -0.191995 0.000000
# 6 0.000000 0.000000 0.000000 0.000000 0.000000 -0.018481
#
#
# Mechanical properties :
#
#
# Convention : Reuss Voigt Hill
#
# Bulk Modulus (GPa) = 48.16048 70.04554 59.10301
# Shear Modulus (GPa) = -42.49817 29.97429 -6.26194
#
# Velocity S-wave (km/s) = -3.98980 3.35073 -1.53151
# Velocity P-wave (km/s) = 1.78472 6.41925 4.36013
#
# Compressibility (1/GPa) = 0.02076391
#
# Stress axis : x y z
#
# Youngs Moduli (GPa) = 367.60897 47.27659 46.88838
#
# Poissons Ratio (x) = 0.02327 0.00829
# Poissons Ratio (y) = 0.18092 0.54151
# Poissons Ratio (z) = 0.06497 0.54600
#
# Static dielectric constant tensor:
#      x y z
#    x 2.258450 0.000000 0.000000 
#    y 0.000000 2.071880 0.000000 
#    z 0.000000 0.000000 1.890540 
# 
# From -- ./inp_files/14031.got.cif
#   From: 2010.05.17/outbox.cif.g08.bks.cpg/sg40_8_cif.got.tgz:14031.got - 2010.06.03 18:35:42.
