data_PCOD9362340
_publ_section_title
;
Structure prediction by ZEFSAII (Michael W. Deem and Ramdas Pophale) SiO2 
 PCOD9362340
Probable space group: A M A 2
;
_chemical_formula_sum "Si O2"
_cell_formula_units_Z 64
_cell_length_a 18.432340
_cell_length_b 17.004348
_cell_length_c 12.209556
_cell_angle_alpha 90.000000
_cell_angle_beta 90.000000
_cell_angle_gamma 90.000000
_cell_volume 3826.840207
_symmetry_space_group_name_H-M "A M A 2"
_symmetry_group_IT_number 40
_symmetry_cell_setting 'orthorhombic'
loop_
_space_group_symop_operation_xyz
x,y,z
-x,-y,z
1/2-x,y,z
1/2+x,-y,z
x,1/2+y,1/2+z
-x,1/2-y,1/2+z
1/2-x,1/2+y,1/2+z
1/2+x,1/2-y,1/2+z
loop_
_atom_site_type_symbol
_atom_site_label
_atom_site_fract_x
_atom_site_fract_y
_atom_site_fract_z
Si Si1 0.834486 0.772305 0.272730
Si Si2 0.914383 0.522677 0.076471
Si Si3 0.086154 0.735441 0.113415
Si Si4 0.912771 0.989130 0.825544
Si Si5 0.663587 0.387109 0.958669
Si Si6 0.429959 0.187850 0.859955
Si Si7 0.902825 0.150424 0.928223
Si Si8 0.081647 0.793023 0.564750
O O1 0.750000 0.780839 0.245488
O O2 0.859510 0.848421 0.342644
O O3 0.846295 0.701238 0.358366
O O4 0.880093 0.749687 0.166557
O O5 0.888548 0.502572 0.200269
O O6 0.900535 0.614841 0.058862
O O7 0.000000 0.500000 0.071324
O O8 0.873589 0.468702 0.989226
O O9 0.088008 0.727248 0.243561
O O10 0.004685 0.709810 0.082830
O O11 0.138854 0.673907 0.053202
O O12 0.098265 0.818989 0.053101
O O13 0.897538 0.900262 0.861463
O O14 0.888228 0.059154 0.905167
O O15 0.000000 0.000000 0.822125
O O16 0.750000 0.393674 0.957712
O O17 0.517170 0.174102 0.878874
O O18 0.402702 0.243833 0.955958
#
# Coordination Sequence:
#
# PCOD9362340 Si02
#       8
#     8   8   8   8   8   8   8   8
#     4  10  20  35  52  76 109 144 180 215 265 331
#     4  11  18  31  53  81 107 137 180 233 272 308
#     4  10  17  32  53  79 105 141 178 221 271 322
#     4   9  15  29  48  76 105 132 166 214 262 305
#     4  10  21  35  54  79 109 145 183 225 273 327
#     4  10  18  30  52  79 105 135 173 221 273 315
#     4   9  17  29  52  75 104 137 177 216 262 316
#     4  11  20  32  54  80 109 140 179 225 272 322
#
# _framework density 16.723980999999998
#
# number of rings (size 3 to 8) (size 9 to 14) (size 15 to 20)
#    0.000    2.000    5.000    0.750    0.000    0.500 
#    0.000    1.875    0.000    1.500    0.000    3.500 
#    0.000    0.000    0.000    0.000    0.000    0.000 
#
# Total GULP energy -178278.708317 kJ/mol
# GULP energy per Si atom -5571.209635 kJ/mol
# Density = 1.668592 g / cm^3
# Si number density = 16.723981 Si / 1000 Ang^3
#
#
#
# Elastic Constant Matrix: (Units=GPa)
#
#
# Indices 1 2 3 4 5 6 
#
# 1 30.4581 24.1244 20.4938 0.0000 0.0000 0.0000
# 2 24.1244 147.8918 88.3732 0.0000 0.0000 0.0000
# 3 20.4938 88.3732 124.4028 0.0000 0.0000 0.0000
# 4 0.0000 0.0000 0.0000 24.5986 0.0000 0.0000
# 5 0.0000 0.0000 0.0000 0.0000 9.9145 0.0000
# 6 0.0000 0.0000 0.0000 0.0000 0.0000 112.7514
#
#
#
# Elastic Compliance Matrix: (Units=1/GPa)
#
#
# Indices 1 2 3 4 5 6 
#
# 1 0.038451 -0.004322 -0.003264 0.000000 0.000000 0.000000
# 2 -0.004322 0.012235 -0.007979 0.000000 0.000000 0.000000
# 3 -0.003264 -0.007979 0.014245 0.000000 0.000000 0.000000
# 4 0.000000 0.000000 0.000000 0.040653 0.000000 0.000000
# 5 0.000000 0.000000 0.000000 0.000000 0.100862 0.000000
# 6 0.000000 0.000000 0.000000 0.000000 0.000000 0.008869
#
#
# Mechanical properties :
#
#
# Convention : Reuss Voigt Hill
#
# Bulk Modulus (GPa) = 29.58585 63.19282 46.38934
# Shear Modulus (GPa) = 19.40151 40.77033 30.08592
#
# Velocity S-wave (km/s) = 3.40972 4.94280 4.24603
# Velocity P-wave (km/s) = 5.76461 8.39302 7.19977
#
# Compressibility (1/GPa) = 0.03379994
#
# Stress axis : x y z
#
# Youngs Moduli (GPa) = 26.00685 81.73430 70.20219
#
# Poissons Ratio (x) = 0.35322 0.22917
# Poissons Ratio (y) = 0.11239 0.56017
# Poissons Ratio (z) = 0.08490 0.65219
#
# Static dielectric constant tensor:
#      x y z
#    x 1.562920 0.000000 0.000000 
#    y 0.000000 1.582340 0.000000 
#    z 0.000000 0.000000 1.561890 
# 
# From -- ./inp_files/13198.got.cif
#   From: 2010.05.17/outbox.cif.g08.bks.cpg/sg40_7_cif.got.tgz:13198.got - 2010.06.03 18:35:42.
