data_PCOD9362861
_publ_section_title
;
Structure prediction by ZEFSAII (Michael W. Deem and Ramdas Pophale) SiO2 
 PCOD9362861
Probable space group: A M A 2
;
_chemical_formula_sum "Si O2"
_cell_formula_units_Z 64
_cell_length_a 8.784446
_cell_length_b 19.204685
_cell_length_c 22.083133
_cell_angle_alpha 90.000000
_cell_angle_beta 90.000000
_cell_angle_gamma 90.000000
_cell_volume 3725.480150
_symmetry_space_group_name_H-M "A M A 2"
_symmetry_group_IT_number 40
_symmetry_cell_setting 'orthorhombic'
loop_
_space_group_symop_operation_xyz
x,y,z
-x,-y,z
1/2-x,y,z
1/2+x,-y,z
x,1/2+y,1/2+z
-x,1/2-y,1/2+z
1/2-x,1/2+y,1/2+z
1/2+x,1/2-y,1/2+z
loop_
_atom_site_type_symbol
_atom_site_label
_atom_site_fract_x
_atom_site_fract_y
_atom_site_fract_z
Si Si1 0.924237 0.927211 0.620320
Si Si2 0.428525 0.318086 0.895668
Si Si3 0.932098 0.073545 0.035150
Si Si4 0.066172 0.858605 0.161616
Si Si5 0.075472 0.070840 0.474446
Si Si6 0.433635 0.923294 0.290998
Si Si7 0.568351 0.720824 0.109466
Si Si8 0.067964 0.780061 0.984138
O O1 0.750000 0.922931 0.641628
O O2 0.920690 0.931143 0.546913
O O3 0.010990 0.854719 0.631905
O O4 0.000000 0.000000 0.641097
O O5 0.250000 0.304738 0.888770
O O6 0.464781 0.370033 0.950878
O O7 0.483331 0.362802 0.837950
O O8 0.511654 0.249552 0.920066
O O9 0.750000 0.068436 0.034843
O O10 0.978843 0.095061 0.103491
O O11 0.974690 0.139359 0.993807
O O12 0.000000 0.000000 0.017449
O O13 0.250000 0.849572 0.159771
O O14 0.026160 0.897133 0.223680
O O15 0.990381 0.783276 0.152411
O O16 0.250000 0.080339 0.453312
O O17 0.000000 0.000000 0.451981
O O18 0.250000 0.928033 0.295693
O O19 0.500000 0.000000 0.302796
O O20 0.750000 0.720940 0.105329
O O21 0.499663 0.739988 0.043043
O O22 0.250000 0.772366 0.988177
#
# Coordination Sequence:
#
# PCOD9362861 Si02
#       8
#     8   8   8   8   8   8   8   8
#     4  10  19  30  45  67  98 132 165 202 248 300
#     4  11  21  32  48  71  99 133 174 214 252 297
#     4   9  18  31  51  75  99 127 161 201 252 306
#     4   9  19  36  53  71 101 137 171 210 255 305
#     4  10  19  29  43  62  91 130 167 202 243 289
#     4  10  22  37  53  75 104 139 179 219 257 299
#     4  11  20  31  50  75 100 129 169 214 258 307
#     4  10  20  34  49  70 100 135 168 204 255 311
#
# _framework density 17.178993999999999
#
# number of rings (size 3 to 8) (size 9 to 14) (size 15 to 20)
#    0.000    2.000    1.250    4.125    0.000    6.000 
#    0.000    0.000    0.000    0.000    0.000    0.875 
#    0.000    2.000    0.000    0.000    0.000    0.000 
#
# Total GULP energy -178408.165380 kJ/mol
# GULP energy per Si atom -5575.255168 kJ/mol
# Density = 1.713989 g / cm^3
# Si number density = 17.178994 Si / 1000 Ang^3
#
#
#
# Elastic Constant Matrix: (Units=GPa)
#
#
# Indices 1 2 3 4 5 6 
#
# 1 53.8389 37.6080 19.1591 0.0000 0.0000 0.0000
# 2 37.6080 146.0028 44.1537 0.0000 0.0000 0.0000
# 3 19.1591 44.1537 64.7562 0.0000 0.0000 0.0000
# 4 0.0000 0.0000 0.0000 69.2381 0.0000 0.0000
# 5 0.0000 0.0000 0.0000 0.0000 16.4617 0.0000
# 6 0.0000 0.0000 0.0000 0.0000 0.0000 31.1772
#
#
#
# Elastic Compliance Matrix: (Units=1/GPa)
#
#
# Indices 1 2 3 4 5 6 
#
# 1 0.023271 -0.004928 -0.003525 0.000000 0.000000 0.000000
# 2 -0.004928 0.009672 -0.005137 0.000000 0.000000 0.000000
# 3 -0.003525 -0.005137 0.019988 0.000000 0.000000 0.000000
# 4 0.000000 0.000000 0.000000 0.014443 0.000000 0.000000
# 5 0.000000 0.000000 0.000000 0.000000 0.060747 0.000000
# 6 0.000000 0.000000 0.000000 0.000000 0.000000 0.032075
#
#
# Mechanical properties :
#
#
# Convention : Reuss Voigt Hill
#
# Bulk Modulus (GPa) = 38.83306 51.82660 45.32983
# Shear Modulus (GPa) = 25.51557 34.28718 29.90138
#
# Velocity S-wave (km/s) = 3.85811 4.47237 4.17655
# Velocity P-wave (km/s) = 6.51926 7.54344 7.04997
#
# Compressibility (1/GPa) = 0.02575126
#
# Stress axis : x y z
#
# Youngs Moduli (GPa) = 42.97236 103.39061 50.03038
#
# Poissons Ratio (x) = 0.50953 0.17634
# Poissons Ratio (y) = 0.21178 0.25699
# Poissons Ratio (z) = 0.15147 0.53109
#
# Static dielectric constant tensor:
#      x y z
#    x 1.586300 0.000000 0.000000 
#    y 0.000000 1.345380 0.000000 
#    z 0.000000 0.000000 1.584370 
# 
# From -- ./inp_files/22417.got.cif
#   From: 2010.05.17/outbox.cif.g08.bks.cpg/sg40_12_cif.got.tgz:22417.got - 2010.06.03 18:35:42.
