data_PCOD9362408
_publ_section_title
;
Structure prediction by ZEFSAII (Michael W. Deem and Ramdas Pophale) SiO2 
 PCOD9362408
Probable space group: A M A 2
;
_chemical_formula_sum "Si O2"
_cell_formula_units_Z 64
_cell_length_a 7.736107
_cell_length_b 24.186975
_cell_length_c 19.873181
_cell_angle_alpha 90.000000
_cell_angle_beta 90.000000
_cell_angle_gamma 90.000000
_cell_volume 3718.531045
_symmetry_space_group_name_H-M "A M A 2"
_symmetry_group_IT_number 40
_symmetry_cell_setting 'orthorhombic'
loop_
_space_group_symop_operation_xyz
x,y,z
-x,-y,z
1/2-x,y,z
1/2+x,-y,z
x,1/2+y,1/2+z
-x,1/2-y,1/2+z
1/2-x,1/2+y,1/2+z
1/2+x,1/2-y,1/2+z
loop_
_atom_site_type_symbol
_atom_site_label
_atom_site_fract_x
_atom_site_fract_y
_atom_site_fract_z
Si Si1 0.961393 0.757518 0.314580
Si Si2 0.543886 0.884662 0.321672
Si Si3 0.957994 0.936623 0.460587
Si Si4 0.461480 0.773640 0.959620
Si Si5 0.453943 0.262203 0.166008
Si Si6 0.958587 0.334023 0.045151
Si Si7 0.455947 0.436292 0.678431
Si Si8 0.048988 0.843607 0.080417
O O1 0.750000 0.757438 0.315806
O O2 0.019959 0.821533 0.317778
O O3 0.018009 0.726694 0.382378
O O4 0.014848 0.732955 0.242755
O O5 0.750000 0.880263 0.330325
O O6 0.476501 0.917148 0.387006
O O7 0.513082 0.916149 0.252101
O O8 0.750000 0.932446 0.459288
O O9 0.020029 0.892295 0.515776
O O10 0.000000 0.000000 0.474035
O O11 0.250000 0.774993 0.960575
O O12 0.510951 0.715203 0.993955
O O13 0.524902 0.821862 0.009518
O O14 0.250000 0.249687 0.167294
O O15 0.482453 0.315020 0.118715
O O16 0.540481 0.209779 0.129391
O O17 0.750000 0.334312 0.046051
O O18 0.500000 0.500000 0.667371
O O19 0.250000 0.430551 0.677837
O O20 0.528408 0.395010 0.621196
O O21 0.250000 0.856640 0.067638
#
# Coordination Sequence:
#
# PCOD9362408 Si02
#       8
#     8   8   8   8   8   8   8   8
#     4   9  15  25  45  70  92 118 148 179 221 269
#     4  10  18  31  47  66  93 125 157 188 221 264
#     4  10  20  32  48  66  89 124 162 194 227 263
#     4   8  13  26  47  65  84 113 149 183 215 267
#     4  10  18  27  45  70  93 116 145 185 229 266
#     4   9  17  31  47  63  87 122 155 184 222 268
#     4  11  22  33  45  65  91 125 160 191 226 265
#     4   9  18  31  47  65  87 117 153 188 224 266
#
# _framework density 17.211096999999999
#
# number of rings (size 3 to 8) (size 9 to 14) (size 15 to 20)
#    0.000    2.500    2.500    1.875    0.000    2.500 
#    0.000    0.000    0.000    6.000    0.000    0.875 
#    0.000    4.000    0.000    0.000    0.000    0.000 
#
# Total GULP energy -178407.547776 kJ/mol
# GULP energy per Si atom -5575.235868 kJ/mol
# Density = 1.717192 g / cm^3
# Si number density = 17.211097 Si / 1000 Ang^3
#
#
#
# Elastic Constant Matrix: (Units=GPa)
#
#
# Indices 1 2 3 4 5 6 
#
# 1 23.1112 -3.1149 -3.3942 0.0000 0.0000 0.0000
# 2 -3.1149 113.0560 83.6403 0.0000 0.0000 0.0000
# 3 -3.3942 83.6403 158.5380 0.0000 0.0000 0.0000
# 4 0.0000 0.0000 0.0000 24.3890 0.0000 0.0000
# 5 0.0000 0.0000 0.0000 0.0000 12.0287 0.0000
# 6 0.0000 0.0000 0.0000 0.0000 0.0000 39.4066
#
#
#
# Elastic Compliance Matrix: (Units=1/GPa)
#
#
# Indices 1 2 3 4 5 6 
#
# 1 0.043453 0.000835 0.000490 0.000000 0.000000 0.000000
# 2 0.000835 0.014524 -0.007644 0.000000 0.000000 0.000000
# 3 0.000490 -0.007644 0.010351 0.000000 0.000000 0.000000
# 4 0.000000 0.000000 0.000000 0.041002 0.000000 0.000000
# 5 0.000000 0.000000 0.000000 0.000000 0.083135 0.000000
# 6 0.000000 0.000000 0.000000 0.000000 0.000000 0.025376
#
#
# Mechanical properties :
#
#
# Convention : Reuss Voigt Hill
#
# Bulk Modulus (GPa) = 17.95694 49.88529 33.92111
# Shear Modulus (GPa) = 20.07681 29.66980 24.87330
#
# Velocity S-wave (km/s) = 3.41912 4.15646 3.80569
# Velocity P-wave (km/s) = 5.10325 7.21680 6.25001
#
# Compressibility (1/GPa) = 0.05568878
#
# Stress axis : x y z
#
# Youngs Moduli (GPa) = 23.01311 68.85361 96.60827
#
# Poissons Ratio (x) = -0.05748 -0.04733
# Poissons Ratio (y) = -0.01921 0.73851
# Poissons Ratio (z) = -0.01127 0.52634
#
# Static dielectric constant tensor:
#      x y z
#    x 1.648220 0.000000 0.000000 
#    y 0.000000 1.565080 0.000000 
#    z 0.000000 0.000000 1.604590 
# 
# From -- ./inp_files/19705.got.cif
#   From: 2010.05.17/outbox.cif.g08.bks.cpg/sg40_10_cif.got.tgz:19705.got - 2010.06.03 18:35:42.
