data_PCOD9362534
_publ_section_title
;
Structure prediction by ZEFSAII (Michael W. Deem and Ramdas Pophale) SiO2 
 PCOD9362534
Probable space group: A M A 2
;
_chemical_formula_sum "Si O2"
_cell_formula_units_Z 64
_cell_length_a 8.671040
_cell_length_b 31.070284
_cell_length_c 14.846466
_cell_angle_alpha 90.000000
_cell_angle_beta 90.000000
_cell_angle_gamma 90.000000
_cell_volume 3999.811278
_symmetry_space_group_name_H-M "A M A 2"
_symmetry_group_IT_number 40
_symmetry_cell_setting 'orthorhombic'
loop_
_space_group_symop_operation_xyz
x,y,z
-x,-y,z
1/2-x,y,z
1/2+x,-y,z
x,1/2+y,1/2+z
-x,1/2-y,1/2+z
1/2-x,1/2+y,1/2+z
1/2+x,1/2-y,1/2+z
loop_
_atom_site_type_symbol
_atom_site_label
_atom_site_fract_x
_atom_site_fract_y
_atom_site_fract_z
Si Si1 0.571973 0.673755 0.490880
Si Si2 0.935423 0.707591 0.815418
Si Si3 0.932635 0.710670 0.204530
Si Si4 0.928344 0.276557 0.007608
Si Si5 0.064192 0.546866 0.401129
Si Si6 0.564096 0.546789 0.601909
Si Si7 0.569208 0.865184 0.816809
Si Si8 0.436351 0.366481 0.683379
O O1 0.750000 0.660369 0.471240
O O2 0.568814 0.724996 0.495703
O O3 0.461857 0.656557 0.413701
O O4 0.528310 0.655884 0.588165
O O5 0.750000 0.709162 0.812395
O O6 0.991699 0.665168 0.761592
O O7 0.994949 0.750467 0.764035
O O8 0.991165 0.705856 0.918036
O O9 0.750000 0.715854 0.207943
O O10 0.991836 0.713188 0.102257
O O11 0.979452 0.664864 0.247242
O O12 0.750000 0.290283 0.011201
O O13 0.250000 0.545362 0.407996
O O14 0.021800 0.585188 0.332606
O O15 0.000000 0.500000 0.375418
O O16 0.996656 0.556642 0.500792
O O17 0.500000 0.500000 0.626143
O O18 0.750000 0.545740 0.598206
O O19 0.512992 0.584272 0.670505
O O20 0.750000 0.863874 0.794923
O O21 0.250000 0.367554 0.691165
#
# Coordination Sequence:
#
# PCOD9362534 Si02
#       8
#     8   8   8   8   8   8   8   8
#     4  10  18  31  50  72 102 139 173 207 251 303
#     4  11  21  36  54  75 102 135 175 217 257 306
#     4  12  24  36  52  75 102 139 177 212 258 306
#     4  11  22  37  53  74 103 136 175 217 259 303
#     4  10  20  32  48  73 102 134 169 209 257 305
#     4  10  18  30  48  71 101 136 170 208 253 303
#     4  11  22  34  50  75 104 137 176 217 254 301
#     4   9  18  32  50  71  99 138 173 205 250 300
#
# _framework density 16.000755000000002
#
# number of rings (size 3 to 8) (size 9 to 14) (size 15 to 20)
#    0.000    1.500    3.750    3.750    0.000    2.000 
#    0.000    2.500    0.000    0.000    0.000    0.875 
#    0.000    4.000    0.000    0.000    0.000    0.000 
#
# Total GULP energy -178564.445439 kJ/mol
# GULP energy per Si atom -5580.138920 kJ/mol
# Density = 1.596434 g / cm^3
# Si number density = 16.000755 Si / 1000 Ang^3
#
#
#
# Elastic Constant Matrix: (Units=GPa)
#
#
# Indices 1 2 3 4 5 6 
#
# 1 67.5841 32.9446 25.9530 0.0000 0.0000 0.0000
# 2 32.9446 102.2359 45.2505 0.0000 0.0000 0.0000
# 3 25.9530 45.2505 84.1554 0.0000 0.0000 0.0000
# 4 0.0000 0.0000 0.0000 22.4017 0.0000 0.0000
# 5 0.0000 0.0000 0.0000 0.0000 16.6376 0.0000
# 6 0.0000 0.0000 0.0000 0.0000 0.0000 29.4657
#
#
#
# Elastic Compliance Matrix: (Units=1/GPa)
#
#
# Indices 1 2 3 4 5 6 
#
# 1 0.018198 -0.004436 -0.003227 0.000000 0.000000 0.000000
# 2 -0.004436 0.013917 -0.006115 0.000000 0.000000 0.000000
# 3 -0.003227 -0.006115 0.016166 0.000000 0.000000 0.000000
# 4 0.000000 0.000000 0.000000 0.044639 0.000000 0.000000
# 5 0.000000 0.000000 0.000000 0.000000 0.060105 0.000000
# 6 0.000000 0.000000 0.000000 0.000000 0.000000 0.033938
#
#
# Mechanical properties :
#
#
# Convention : Reuss Voigt Hill
#
# Bulk Modulus (GPa) = 48.25072 51.36353 49.80712
# Shear Modulus (GPa) = 22.58065 23.68949 23.13507
#
# Velocity S-wave (km/s) = 3.76070 3.85193 3.80659
# Velocity P-wave (km/s) = 7.00556 7.20788 7.10744
#
# Compressibility (1/GPa) = 0.02072508
#
# Stress axis : x y z
#
# Youngs Moduli (GPa) = 54.95153 71.85218 61.85731
#
# Poissons Ratio (x) = 0.31872 0.19961
# Poissons Ratio (y) = 0.24376 0.37829
# Poissons Ratio (z) = 0.17733 0.43941
#
# Static dielectric constant tensor:
#      x y z
#    x 1.545720 0.000000 0.000000 
#    y 0.000000 1.558980 0.000000 
#    z 0.000000 0.000000 1.514070 
# 
# From -- ./inp_files/15887.got.cif
#   From: 2010.05.17/outbox.cif.g08.bks.cpg/sg40_8_cif.got.tgz:15887.got - 2010.06.03 18:35:42.
