data_PCOD9362981
_publ_section_title
;
Structure prediction by ZEFSAII (Michael W. Deem and Ramdas Pophale) SiO2 
 PCOD9362981
Probable space group: A M A 2
;
_chemical_formula_sum "Si O2"
_cell_formula_units_Z 64
_cell_length_a 8.777655
_cell_length_b 14.745296
_cell_length_c 23.914046
_cell_angle_alpha 90.000000
_cell_angle_beta 90.000000
_cell_angle_gamma 90.000000
_cell_volume 3095.173957
_symmetry_space_group_name_H-M "A M A 2"
_symmetry_group_IT_number 40
_symmetry_cell_setting 'orthorhombic'
loop_
_space_group_symop_operation_xyz
x,y,z
-x,-y,z
1/2-x,y,z
1/2+x,-y,z
x,1/2+y,1/2+z
-x,1/2-y,1/2+z
1/2-x,1/2+y,1/2+z
1/2+x,1/2-y,1/2+z
loop_
_atom_site_type_symbol
_atom_site_label
_atom_site_fract_x
_atom_site_fract_y
_atom_site_fract_z
Si Si1 0.570377 0.734567 0.758740
Si Si2 0.571919 0.704939 0.566624
Si Si3 0.571799 0.197274 0.936551
Si Si4 0.069276 0.600291 0.666345
Si Si5 0.569069 0.598634 0.319991
Si Si6 0.576502 0.910810 0.329732
Si Si7 0.082382 0.383656 0.933654
Si Si8 0.574557 0.094646 0.565138
O O1 0.750000 0.740082 0.750415
O O2 0.495502 0.676564 0.708842
O O3 0.502170 0.831512 0.775299
O O4 0.525026 0.673211 0.811864
O O5 0.750000 0.703331 0.582599
O O6 0.562519 0.671482 0.502044
O O7 0.477310 0.638273 0.605792
O O8 0.512273 0.809263 0.574234
O O9 0.750000 0.228527 0.928728
O O10 0.541735 0.130648 0.884602
O O11 0.448355 0.276604 0.933455
O O12 0.250000 0.594658 0.672669
O O13 0.000000 0.500000 0.674888
O O14 0.500000 0.500000 0.312331
O O15 0.750000 0.598283 0.312167
O O16 0.750000 0.899499 0.313023
O O17 0.557315 0.917860 0.396259
O O18 0.500000 0.000000 0.304706
O O19 0.250000 0.404777 0.909762
O O20 0.078048 0.413203 0.997602
O O21 0.750000 0.102267 0.584623
O O22 0.500000 0.000000 0.586219
#
# Coordination Sequence:
#
# PCOD9362981 Si02
#       8
#     8   8   8   8   8   8   8   8
#     4  12  25  44  67  93 125 164 209 265 323 385
#     4  10  21  40  65  96 131 173 219 272 326 384
#     4   9  19  36  60  89 129 173 215 262 319 377
#     4  12  26  47  72  99 130 168 213 269 326 389
#     4  11  23  41  65  97 133 175 217 264 320 385
#     4  12  23  35  53  82 119 160 205 254 310 374
#     4  10  19  31  51  81 119 163 209 255 309 371
#     4  10  20  34  54  85 124 170 216 263 317 379
#
# _framework density 20.677351999999999
#
# number of rings (size 3 to 8) (size 9 to 14) (size 15 to 20)
#    0.000    1.250    1.250    5.625    0.000    4.000 
#    0.000    1.875    0.000    0.000    0.000    0.000 
#    0.000    0.000    0.000    0.000    0.000    0.000 
#
# Total GULP energy -178606.210628 kJ/mol
# GULP energy per Si atom -5581.444082 kJ/mol
# Density = 2.063029 g / cm^3
# Si number density = 20.677352 Si / 1000 Ang^3
#
#
#
# Elastic Constant Matrix: (Units=GPa)
#
#
# Indices 1 2 3 4 5 6 
#
# 1 163.5569 73.9105 46.2889 0.0000 0.0000 0.0000
# 2 73.9105 148.5017 40.0431 0.0000 0.0000 0.0000
# 3 46.2889 40.0431 67.8557 0.0000 0.0000 0.0000
# 4 0.0000 0.0000 0.0000 21.6846 0.0000 0.0000
# 5 0.0000 0.0000 0.0000 0.0000 31.3477 0.0000
# 6 0.0000 0.0000 0.0000 0.0000 0.0000 36.9821
#
#
#
# Elastic Compliance Matrix: (Units=1/GPa)
#
#
# Indices 1 2 3 4 5 6 
#
# 1 0.008726 -0.003256 -0.004031 0.000000 0.000000 0.000000
# 2 -0.003256 0.009223 -0.003222 0.000000 0.000000 0.000000
# 3 -0.004031 -0.003222 0.019388 0.000000 0.000000 0.000000
# 4 0.000000 0.000000 0.000000 0.046116 0.000000 0.000000
# 5 0.000000 0.000000 0.000000 0.000000 0.031900 0.000000
# 6 0.000000 0.000000 0.000000 0.000000 0.000000 0.027040
#
#
# Mechanical properties :
#
#
# Convention : Reuss Voigt Hill
#
# Bulk Modulus (GPa) = 61.27522 77.82213 69.54867
# Shear Modulus (GPa) = 29.61167 32.64766 31.12967
#
# Velocity S-wave (km/s) = 3.78839 3.97786 3.88428
# Velocity P-wave (km/s) = 6.98815 7.66915 7.33656
#
# Compressibility (1/GPa) = 0.01631981
#
# Stress axis : x y z
#
# Youngs Moduli (GPa) = 114.59396 108.42167 51.57742
#
# Poissons Ratio (x) = 0.35304 0.20793
# Poissons Ratio (y) = 0.37314 0.16616
# Poissons Ratio (z) = 0.46197 0.34929
#
# Static dielectric constant tensor:
#      x y z
#    x 1.705280 0.000000 0.000000 
#    y 0.000000 1.730150 0.000000 
#    z 0.000000 0.000000 1.804840 
# 
# From -- ./inp_files/24233.got.cif
#   From: 2010.05.17/outbox.cif.g08.bks.cpg/sg40_13_cif.got.tgz:24233.got - 2010.06.03 18:35:42.
