data_PCOD9362751
_publ_section_title
;
Structure prediction by ZEFSAII (Michael W. Deem and Ramdas Pophale) SiO2 
 PCOD9362751
Probable space group: A M A 2
;
_chemical_formula_sum "Si O2"
_cell_formula_units_Z 52
_cell_length_a 14.542472
_cell_length_b 9.671974
_cell_length_c 21.689084
_cell_angle_alpha 90.000000
_cell_angle_beta 90.000000
_cell_angle_gamma 90.000000
_cell_volume 3050.665337
_symmetry_space_group_name_H-M "A M A 2"
_symmetry_group_IT_number 40
_symmetry_cell_setting 'orthorhombic'
loop_
_space_group_symop_operation_xyz
x,y,z
-x,-y,z
1/2-x,y,z
1/2+x,-y,z
x,1/2+y,1/2+z
-x,1/2-y,1/2+z
1/2-x,1/2+y,1/2+z
1/2+x,1/2-y,1/2+z
loop_
_atom_site_type_symbol
_atom_site_label
_atom_site_fract_x
_atom_site_fract_y
_atom_site_fract_z
Si Si1 0.250000 0.227450 0.856781
Si Si2 0.408299 0.418134 0.061912
Si Si3 0.750000 0.074429 0.462725
Si Si4 0.750000 0.962356 0.330854
Si Si5 0.015923 0.661811 0.630640
Si Si6 0.064000 0.633920 0.767849
Si Si7 0.857979 0.371143 0.168905
Si Si8 0.435181 0.618866 0.304343
O O1 0.250000 0.281201 0.926252
O O2 0.250000 0.371605 0.817078
O O3 0.343097 0.148493 0.841750
O O4 0.500000 0.500000 0.044002
O O5 0.433412 0.261640 0.081818
O O6 0.371337 0.502563 0.121470
O O7 0.337260 0.431760 0.006721
O O8 0.750000 0.964753 0.405889
O O9 0.840386 0.894510 0.301751
O O10 0.072896 0.665604 0.694964
O O11 0.000000 0.500000 0.614351
O O12 0.919318 0.740941 0.645695
O O13 0.000000 0.500000 0.770785
O O14 0.002453 0.751017 0.798956
O O15 0.750000 0.337806 0.174537
O O16 0.899825 0.413373 0.234936
O O17 0.500000 0.500000 0.329525
#
# Coordination Sequence:
#
# PCOD9362751 Si02
#       8
#     4   8   4   4   8   8   8   8
#     4  10  22  38  56  82 112 152 196 237 291 328
#     4  10  20  38  60  86 113 147 197 239 278 335
#     4  10  22  38  60  84 106 154 208 240 270 320
#     4  10  22  36  58  84 110 152 204 235 281 328
#     4   9  20  34  53  87 120 147 180 226 305 352
#     4  10  18  35  57  84 117 147 190 236 283 351
#     4  10  18  34  59  85 116 151 188 235 286 344
#     4  11  21  35  57  86 122 152 182 234 300 355
#
# _framework density 17.045463000000002
#
# number of rings (size 3 to 8) (size 9 to 14) (size 15 to 20)
#    0.462    1.538    3.077    2.308    0.000    3.077 
#    4.154    0.769    0.000    3.692    0.000    0.000 
#    0.000    0.000    0.000    0.000    0.000    0.000 
#
# Total GULP energy -144881.353116 kJ/mol
# GULP energy per Si atom -5572.359735 kJ/mol
# Density = 1.700667 g / cm^3
# Si number density = 17.045463 Si / 1000 Ang^3
#
#
#
# Elastic Constant Matrix: (Units=GPa)
#
#
# Indices 1 2 3 4 5 6 
#
# 1 153.2635 36.8694 69.4011 0.0000 0.0000 0.0000
# 2 36.8694 88.4448 33.1300 0.0000 0.0000 0.0000
# 3 69.4011 33.1300 90.1747 0.0000 0.0000 0.0000
# 4 0.0000 0.0000 0.0000 14.7844 0.0000 0.0000
# 5 0.0000 0.0000 0.0000 0.0000 -99.5143 0.0000
# 6 0.0000 0.0000 0.0000 0.0000 0.0000 22.0057
#
#
#
# Elastic Compliance Matrix: (Units=1/GPa)
#
#
# Indices 1 2 3 4 5 6 
#
# 1 0.010188 -0.001519 -0.007283 0.000000 0.000000 0.000000
# 2 -0.001519 0.013337 -0.003731 0.000000 0.000000 0.000000
# 3 -0.007283 -0.003731 0.018065 0.000000 0.000000 0.000000
# 4 0.000000 0.000000 0.000000 0.067639 0.000000 0.000000
# 5 0.000000 0.000000 0.000000 0.000000 -0.010049 0.000000
# 6 0.000000 0.000000 0.000000 0.000000 0.000000 0.045443
#
#
# Mechanical properties :
#
#
# Convention : Reuss Voigt Hill
#
# Bulk Modulus (GPa) = 60.51462 67.85377 64.18419
# Shear Modulus (GPa) = 28.53919 0.28734 14.41327
#
# Velocity S-wave (km/s) = 4.09626 0.41102 2.91104
# Velocity P-wave (km/s) = 7.61258 6.33397 7.00252
#
# Compressibility (1/GPa) = 0.01652493
#
# Stress axis : x y z
#
# Youngs Moduli (GPa) = 98.15503 74.97788 55.35415
#
# Poissons Ratio (x) = 0.11389 0.40314
# Poissons Ratio (y) = 0.14909 0.20653
# Poissons Ratio (z) = 0.71485 0.27975
#
# Static dielectric constant tensor:
#      x y z
#    x 1.591870 0.000000 0.000000 
#    y 0.000000 1.565710 0.000000 
#    z 0.000000 0.000000 1.574750 
# 
# From -- ./inp_files/23096.got.cif
#   From: 2010.05.17/outbox.cif.g08.bks.cpg/sg40_12_cif.got.tgz:23096.got - 2010.06.03 18:35:42.
