data_PCOD9362559
_publ_section_title
;
Structure prediction by ZEFSAII (Michael W. Deem and Ramdas Pophale) SiO2 
 PCOD9362559
Probable space group: A M A 2
;
_chemical_formula_sum "Si O2"
_cell_formula_units_Z 56
_cell_length_a 8.627914
_cell_length_b 14.553298
_cell_length_c 23.516313
_cell_angle_alpha 90.000000
_cell_angle_beta 90.000000
_cell_angle_gamma 90.000000
_cell_volume 2952.816519
_symmetry_space_group_name_H-M "A M A 2"
_symmetry_group_IT_number 40
_symmetry_cell_setting 'orthorhombic'
loop_
_space_group_symop_operation_xyz
x,y,z
-x,-y,z
1/2-x,y,z
1/2+x,-y,z
x,1/2+y,1/2+z
-x,1/2-y,1/2+z
1/2-x,1/2+y,1/2+z
1/2+x,1/2-y,1/2+z
loop_
_atom_site_type_symbol
_atom_site_label
_atom_site_fract_x
_atom_site_fract_y
_atom_site_fract_z
Si Si1 0.062803 0.103353 0.834220
Si Si2 0.063260 0.203900 0.720177
Si Si3 0.434309 0.905699 0.182041
Si Si4 0.066672 0.666547 0.096658
Si Si5 0.929580 0.856039 0.063502
Si Si6 0.068515 0.594822 0.976157
Si Si7 0.436709 0.301664 0.447075
O O1 0.250000 0.101887 0.835061
O O2 0.007080 0.155837 0.777200
O O3 0.001227 0.156214 0.889436
O O4 0.000000 0.000000 0.834197
O O5 0.250000 0.209145 0.724941
O O6 0.009101 0.309093 0.709365
O O7 0.032490 0.145970 0.662375
O O8 0.250000 0.907133 0.185993
O O9 0.482256 0.903060 0.115665
O O10 0.500000 0.000000 0.207439
O O11 0.250000 0.697497 0.094584
O O12 0.954336 0.749388 0.079904
O O13 0.050344 0.596821 0.044928
O O14 0.750000 0.882255 0.062864
O O15 0.003252 0.860732 0.001001
O O16 0.250000 0.593705 0.963778
O O17 0.010679 0.694635 0.954565
O O18 0.000000 0.500000 0.953420
O O19 0.250000 0.302668 0.448111
#
# Coordination Sequence:
#
# PCOD9362559 Si02
#       7
#     8   8   8   8   8   8   8
#     4  11  23  40  60  82 105 138 182 230 278 327
#     4   8  17  35  57  77 107 145 179 216 265 317
#     4  10  19  34  55  82 114 148 181 219 266 323
#     4   8  15  31  51  74 107 146 178 212 259 313
#     4  10  18  30  51  80 108 139 177 220 267 319
#     4   9  18  31  52  80 111 143 177 215 263 319
#     4  10  21  39  57  77 108 147 186 230 276 324
#
# _framework density 18.964943999999999
#
# number of rings (size 3 to 8) (size 9 to 14) (size 15 to 20)
#    0.000    2.571    0.000    4.286    0.000    4.000 
#    0.000   10.714    0.000    3.429    0.000    0.000 
#    0.000    0.000    0.000    0.000    0.000    0.000 
#
# Total GULP energy -155957.614520 kJ/mol
# GULP energy per Si atom -5569.914804 kJ/mol
# Density = 1.892178 g / cm^3
# Si number density = 18.964944 Si / 1000 Ang^3
#
#
#
# Elastic Constant Matrix: (Units=GPa)
#
#
# Indices 1 2 3 4 5 6 
#
# 1 44.3553 27.2233 24.6274 0.0000 0.0000 0.0000
# 2 27.2233 116.2909 56.9158 0.0000 0.0000 0.0000
# 3 24.6274 56.9158 141.0261 0.0000 0.0000 0.0000
# 4 0.0000 0.0000 0.0000 8.7749 0.0000 0.0000
# 5 0.0000 0.0000 0.0000 0.0000 14.7942 0.0000
# 6 0.0000 0.0000 0.0000 0.0000 0.0000 27.2819
#
#
#
# Elastic Compliance Matrix: (Units=1/GPa)
#
#
# Indices 1 2 3 4 5 6 
#
# 1 0.027135 -0.005026 -0.002710 0.000000 0.000000 0.000000
# 2 -0.005026 0.011647 -0.003823 0.000000 0.000000 0.000000
# 3 -0.002710 -0.003823 0.009107 0.000000 0.000000 0.000000
# 4 0.000000 0.000000 0.000000 0.113961 0.000000 0.000000
# 5 0.000000 0.000000 0.000000 0.000000 0.067594 0.000000
# 6 0.000000 0.000000 0.000000 0.000000 0.000000 0.036654
#
#
# Mechanical properties :
#
#
# Convention : Reuss Voigt Hill
#
# Bulk Modulus (GPa) = 40.37003 57.68946 49.02975
# Shear Modulus (GPa) = 16.80833 23.03059 19.91946
#
# Velocity S-wave (km/s) = 2.98028 3.48857 3.24440
# Velocity P-wave (km/s) = 5.75983 6.83461 6.32011
#
# Compressibility (1/GPa) = 0.02477085
#
# Stress axis : x y z
#
# Youngs Moduli (GPa) = 36.85338 85.86235 109.80605
#
# Poissons Ratio (x) = 0.43151 0.29760
# Poissons Ratio (y) = 0.18521 0.41976
# Poissons Ratio (z) = 0.09988 0.32823
#
# Static dielectric constant tensor:
#      x y z
#    x 1.651940 0.000000 0.000000 
#    y 0.000000 1.693370 0.000000 
#    z 0.000000 0.000000 1.663030 
# 
# From -- ./inp_files/22176.got.cif
#   From: 2010.05.17/outbox.cif.g08.bks.cpg/sg40_12_cif.got.tgz:22176.got - 2010.06.03 18:35:42.
