data_PCOD9362571
_publ_section_title
;
Structure prediction by ZEFSAII (Michael W. Deem and Ramdas Pophale) SiO2 
 PCOD9362571
Probable space group: A M A 2
;
_chemical_formula_sum "Si O2"
_cell_formula_units_Z 60
_cell_length_a 17.500679
_cell_length_b 9.596566
_cell_length_c 15.020780
_cell_angle_alpha 90.000000
_cell_angle_beta 90.000000
_cell_angle_gamma 90.000000
_cell_volume 2522.686243
_symmetry_space_group_name_H-M "A M A 2"
_symmetry_group_IT_number 40
_symmetry_cell_setting 'orthorhombic'
loop_
_space_group_symop_operation_xyz
x,y,z
-x,-y,z
1/2-x,y,z
1/2+x,-y,z
x,1/2+y,1/2+z
-x,1/2-y,1/2+z
1/2-x,1/2+y,1/2+z
1/2+x,1/2-y,1/2+z
loop_
_atom_site_type_symbol
_atom_site_label
_atom_site_fract_x
_atom_site_fract_y
_atom_site_fract_z
Si Si1 0.336002 0.084671 0.941670
Si Si2 0.000000 0.000000 0.923140
Si Si3 0.165127 0.402988 0.948900
Si Si4 0.046763 0.268505 0.282433
Si Si5 0.662936 0.480794 0.761751
Si Si6 0.335821 0.503679 0.235919
Si Si7 0.056901 0.873334 0.134945
Si Si8 0.572872 0.908679 0.575897
O O1 0.250000 0.032874 0.967424
O O2 0.415576 0.011985 0.967433
O O3 0.343006 0.242702 0.975346
O O4 0.336962 0.073476 0.833438
O O5 0.990495 0.140054 0.861479
O O6 0.250000 0.451012 0.975424
O O7 0.161890 0.409995 0.842579
O O8 0.105654 0.505812 0.993431
O O9 0.103053 0.136560 0.295148
O O10 0.104653 0.377706 0.237649
O O11 0.981208 0.211111 0.218238
O O12 0.750000 0.428415 0.752553
O O13 0.633549 0.555089 0.672256
O O14 0.250000 0.454267 0.220155
O O15 0.363925 0.595450 0.153901
O O16 0.056034 0.753317 0.060310
O O17 0.000000 0.000000 0.118627
O O18 0.500000 0.000000 0.604809
#
# Coordination Sequence:
#
# PCOD9362571 Si02
#       8
#     8   4   8   8   8   8   8   8
#     4   9  19  35  58  91 127 167 219 277 330 386
#     4  10  18  30  60  88 126 164 212 262 334 390
#     4  10  22  39  58  86 127 168 211 262 322 394
#     4  10  18  33  57  88 120 157 203 265 321 377
#     4  10  21  37  61  90 125 160 207 269 332 384
#     4  10  19  33  59  90 121 158 210 267 323 378
#     4  10  21  38  63  91 126 160 211 271 321 372
#     4  12  23  37  61  89 124 167 213 259 317 394
#
# _framework density 23.78417
#
# number of rings (size 3 to 8) (size 9 to 14) (size 15 to 20)
#    0.000    1.867    1.333    4.000    0.933    5.333 
#    0.000    0.000    8.800    0.000    0.000    0.000 
#    0.000    0.000    0.000    0.000    0.000    0.000 
#
# Total GULP energy -167538.476122 kJ/mol
# GULP energy per Si atom -5584.615871 kJ/mol
# Density = 2.373004 g / cm^3
# Si number density = 23.784170 Si / 1000 Ang^3
#
#
#
# Elastic Constant Matrix: (Units=GPa)
#
#
# Indices 1 2 3 4 5 6 
#
# 1 158.9819 35.5810 28.1672 0.0000 0.0000 0.0000
# 2 35.5810 112.4989 8.8479 0.0000 0.0000 0.0000
# 3 28.1672 8.8479 54.3847 0.0000 0.0000 0.0000
# 4 0.0000 0.0000 0.0000 19.9221 0.0000 0.0000
# 5 0.0000 0.0000 0.0000 0.0000 32.7955 0.0000
# 6 0.0000 0.0000 0.0000 0.0000 0.0000 26.9313
#
#
#
# Elastic Compliance Matrix: (Units=1/GPa)
#
#
# Indices 1 2 3 4 5 6 
#
# 1 0.007367 -0.002056 -0.003481 0.000000 0.000000 0.000000
# 2 -0.002056 0.009578 -0.000493 0.000000 0.000000 0.000000
# 3 -0.003481 -0.000493 0.020271 0.000000 0.000000 0.000000
# 4 0.000000 0.000000 0.000000 0.050195 0.000000 0.000000
# 5 0.000000 0.000000 0.000000 0.000000 0.030492 0.000000
# 6 0.000000 0.000000 0.000000 0.000000 0.000000 0.037132
#
#
# Mechanical properties :
#
#
# Convention : Reuss Voigt Hill
#
# Bulk Modulus (GPa) = 39.75402 52.33976 46.04689
# Shear Modulus (GPa) = 28.49315 32.81440 30.65378
#
# Velocity S-wave (km/s) = 3.46495 3.71843 3.59392
# Velocity P-wave (km/s) = 5.72351 6.36314 6.05178
#
# Compressibility (1/GPa) = 0.02515469
#
# Stress axis : x y z
#
# Youngs Moduli (GPa) = 135.74124 104.40466 49.33228
#
# Poissons Ratio (x) = 0.21468 0.17173
# Poissons Ratio (y) = 0.27912 0.02434
# Poissons Ratio (z) = 0.47252 0.05150
#
# Static dielectric constant tensor:
#      x y z
#    x 1.907730 0.000000 0.000000 
#    y 0.000000 1.932420 0.000000 
#    z 0.000000 0.000000 1.958820 
# 
# From -- ./inp_files/21143.got.cif
#   From: 2010.05.17/outbox.cif.g08.bks.cpg/sg40_11_cif.got.tgz:21143.got - 2010.06.03 18:35:42.
