data_PCOD9362234
_publ_section_title
;
Structure prediction by ZEFSAII (Michael W. Deem and Ramdas Pophale) SiO2 
 PCOD9362234
Probable space group: A M A 2
;
_chemical_formula_sum "Si O2"
_cell_formula_units_Z 40
_cell_length_a 23.990061
_cell_length_b 14.282069
_cell_length_c 5.243691
_cell_angle_alpha 90.000000
_cell_angle_beta 90.000000
_cell_angle_gamma 90.000000
_cell_volume 1796.633821
_symmetry_space_group_name_H-M "A M A 2"
_symmetry_group_IT_number 40
_symmetry_cell_setting 'orthorhombic'
loop_
_space_group_symop_operation_xyz
x,y,z
-x,-y,z
1/2-x,y,z
1/2+x,-y,z
x,1/2+y,1/2+z
-x,1/2-y,1/2+z
1/2-x,1/2+y,1/2+z
1/2+x,1/2-y,1/2+z
loop_
_atom_site_type_symbol
_atom_site_label
_atom_site_fract_x
_atom_site_fract_y
_atom_site_fract_z
Si Si1 0.871536 0.589705 0.988030
Si Si2 0.250000 0.063205 0.866633
Si Si3 0.980728 0.696216 0.963906
Si Si4 0.368572 0.097479 0.779456
Si Si5 0.921968 0.412964 0.783064
Si Si6 0.250000 0.434585 0.865681
O O1 0.898706 0.518406 0.782554
O O2 0.809018 0.616963 0.908276
O O3 0.868865 0.515664 0.223590
O O4 0.916941 0.669538 0.018276
O O5 0.250000 0.013703 0.588659
O O6 0.307185 0.120406 0.877906
O O7 0.250000 0.987165 0.094024
O O8 0.007126 0.742302 0.214146
O O9 0.016893 0.603494 0.892698
O O10 0.383332 0.136468 0.499949
O O11 0.412515 0.121097 0.997775
#
# Coordination Sequence:
#
# PCOD9362234 Si02
#       6
#     8   4   8   8   8   4
#     4   9  22  38  64  90 113 155 199 254 295 350
#     4  10  14  30  48  97 115 142 170 264 298 348
#     4  12  27  41  59  86 129 166 201 241 301 360
#     4   9  18  31  61  85 118 138 198 238 305 330
#     4  10  20  38  59  88 114 152 198 249 290 353
#     4  10  18  32  62  89 117 138 204 250 300 346
#
# _framework density 22.263859
#
# number of rings (size 3 to 8) (size 9 to 14) (size 15 to 20)
#    1.200    0.800    2.000    1.800    2.800    0.000 
#    3.600    0.000    0.000    9.600    0.000    0.000 
#    0.000    0.000    0.000    0.000    0.000    0.000 
#
# Total GULP energy -111361.834342 kJ/mol
# GULP energy per Si atom -5568.091717 kJ/mol
# Density = 2.221319 g / cm^3
# Si number density = 22.263859 Si / 1000 Ang^3
#
#
#
# Elastic Constant Matrix: (Units=GPa)
#
#
# Indices 1 2 3 4 5 6 
#
# 1 173.1562 33.7681 22.1259 0.0000 0.0000 0.0000
# 2 33.7681 59.1206 16.6767 0.0000 0.0000 0.0000
# 3 22.1259 16.6767 134.1282 0.0000 0.0000 0.0000
# 4 0.0000 0.0000 0.0000 12.0560 0.0000 0.0000
# 5 0.0000 0.0000 0.0000 0.0000 26.8073 0.0000
# 6 0.0000 0.0000 0.0000 0.0000 0.0000 4.9927
#
#
#
# Elastic Compliance Matrix: (Units=1/GPa)
#
#
# Indices 1 2 3 4 5 6 
#
# 1 0.006551 -0.003562 -0.000638 0.000000 0.000000 0.000000
# 2 -0.003562 0.019466 -0.001833 0.000000 0.000000 0.000000
# 3 -0.000638 -0.001833 0.007789 0.000000 0.000000 0.000000
# 4 0.000000 0.000000 0.000000 0.082946 0.000000 0.000000
# 5 0.000000 0.000000 0.000000 0.000000 0.037303 0.000000
# 6 0.000000 0.000000 0.000000 0.000000 0.000000 0.200294
#
#
# Mechanical properties :
#
#
# Convention : Reuss Voigt Hill
#
# Bulk Modulus (GPa) = 45.99622 56.83850 51.41736
# Shear Modulus (GPa) = 13.38111 28.36014 20.87063
#
# Velocity S-wave (km/s) = 2.45424 3.57293 3.06506
# Velocity P-wave (km/s) = 5.36055 6.52733 5.97250
#
# Compressibility (1/GPa) = 0.02174092
#
# Stress axis : x y z
#
# Youngs Moduli (GPa) = 152.64194 51.37143 128.39209
#
# Poissons Ratio (x) = 0.18299 0.08189
# Poissons Ratio (y) = 0.54371 0.23531
# Poissons Ratio (z) = 0.09736 0.09415
#
# Static dielectric constant tensor:
#      x y z
#    x 1.887670 0.000000 0.000000 
#    y 0.000000 1.877880 0.000000 
#    z 0.000000 0.000000 1.800560 
# 
# From -- ./inp_files/2666.got.cif
#   From: 2010.05.17/outbox.cif.g08.bks.cpg/sg40_2_cif.got.tgz:2666.got - 2010.06.03 18:35:42.
