data_PCOD9362347
_publ_section_title
;
Structure prediction by ZEFSAII (Michael W. Deem and Ramdas Pophale) SiO2 
 PCOD9362347
Probable space group: A M A 2
;
_chemical_formula_sum "Si O2"
_cell_formula_units_Z 64
_cell_length_a 18.693942
_cell_length_b 16.756861
_cell_length_c 11.881210
_cell_angle_alpha 90.000000
_cell_angle_beta 90.000000
_cell_angle_gamma 90.000000
_cell_volume 3721.810272
_symmetry_space_group_name_H-M "A M A 2"
_symmetry_group_IT_number 40
_symmetry_cell_setting 'orthorhombic'
loop_
_space_group_symop_operation_xyz
x,y,z
-x,-y,z
1/2-x,y,z
1/2+x,-y,z
x,1/2+y,1/2+z
-x,1/2-y,1/2+z
1/2-x,1/2+y,1/2+z
1/2+x,1/2-y,1/2+z
loop_
_atom_site_type_symbol
_atom_site_label
_atom_site_fract_x
_atom_site_fract_y
_atom_site_fract_z
Si Si1 0.412787 0.228290 0.244160
Si Si2 0.835739 0.826322 0.650491
Si Si3 0.030759 0.324290 0.435928
Si Si4 0.333990 0.612131 0.900156
Si Si5 0.927087 0.666758 0.681414
Si Si6 0.052824 0.319587 0.051206
Si Si7 0.422770 0.456103 0.874210
Si Si8 0.537468 0.914209 0.739218
O O1 0.413250 0.293904 0.343114
O O2 0.367369 0.156830 0.293379
O O3 0.494127 0.196363 0.223295
O O4 0.391416 0.270042 0.127421
O O5 0.750000 0.826475 0.669283
O O6 0.849267 0.841290 0.517127
O O7 0.872775 0.742186 0.685956
O O8 0.879103 0.897589 0.713305
O O9 0.988265 0.245340 0.476021
O O10 0.980524 0.382575 0.364159
O O11 0.063865 0.357350 0.550671
O O12 0.250000 0.607660 0.888775
O O13 0.367911 0.525127 0.904211
O O14 0.907188 0.592684 0.760133
O O15 0.000954 0.359223 0.144498
O O16 0.077817 0.389836 0.971599
O O17 0.500000 0.500000 0.867709
O O18 0.500000 0.000000 0.726307
#
# Coordination Sequence:
#
# PCOD9362347 Si02
#       8
#     8   8   8   8   8   8   8   8
#     4  10  17  34  58  81 110 148 192 240 274 345
#     4  11  21  36  60  88 119 155 196 243 297 354
#     4  10  17  33  55  84 112 139 198 232 275 335
#     4  11  23  38  57  86 123 154 188 242 311 357
#     4  11  20  34  60  87 113 151 199 238 285 341
#     4  10  18  31  58  81 112 142 196 236 276 329
#     4  12  21  34  57  92 117 149 188 249 291 342
#     4  11  20  33  56  87 114 147 188 246 281 336
#
# _framework density 17.195931999999999
#
# number of rings (size 3 to 8) (size 9 to 14) (size 15 to 20)
#    0.000    1.250    7.500    1.875    0.000    1.000 
#    0.000    0.625    0.000    8.250    0.000    0.000 
#    0.000    0.000    0.000    0.000    0.000    0.000 
#
# Total GULP energy -178320.876295 kJ/mol
# GULP energy per Si atom -5572.527384 kJ/mol
# Density = 1.715679 g / cm^3
# Si number density = 17.195932 Si / 1000 Ang^3
#
#
#
# Elastic Constant Matrix: (Units=GPa)
#
#
# Indices 1 2 3 4 5 6 
#
# 1 77.3547 36.6619 19.0239 0.0000 0.0000 0.0000
# 2 36.6619 85.8521 27.0785 0.0000 0.0000 0.0000
# 3 19.0239 27.0785 88.3129 0.0000 0.0000 0.0000
# 4 0.0000 0.0000 0.0000 30.4674 0.0000 0.0000
# 5 0.0000 0.0000 0.0000 0.0000 14.5073 0.0000
# 6 0.0000 0.0000 0.0000 0.0000 0.0000 21.3482
#
#
#
# Elastic Compliance Matrix: (Units=1/GPa)
#
#
# Indices 1 2 3 4 5 6 
#
# 1 0.016393 -0.006517 -0.001533 0.000000 0.000000 0.000000
# 2 -0.006517 0.015486 -0.003344 0.000000 0.000000 0.000000
# 3 -0.001533 -0.003344 0.012679 0.000000 0.000000 0.000000
# 4 0.000000 0.000000 0.000000 0.032822 0.000000 0.000000
# 5 0.000000 0.000000 0.000000 0.000000 0.068931 0.000000
# 6 0.000000 0.000000 0.000000 0.000000 0.000000 0.046842
#
#
# Mechanical properties :
#
#
# Convention : Reuss Voigt Hill
#
# Bulk Modulus (GPa) = 45.93655 46.33869 46.13762
# Shear Modulus (GPa) = 22.40159 24.51494 23.45826
#
# Velocity S-wave (km/s) = 3.61325 3.77984 3.69748
# Velocity P-wave (km/s) = 6.64673 6.78642 6.71694
#
# Compressibility (1/GPa) = 0.02176916
#
# Stress axis : x y z
#
# Youngs Moduli (GPa) = 61.00103 64.57557 78.87001
#
# Poissons Ratio (x) = 0.42083 0.12092
# Poissons Ratio (y) = 0.39754 0.26377
# Poissons Ratio (z) = 0.09352 0.21597
#
# Static dielectric constant tensor:
#      x y z
#    x 1.591350 0.000000 0.000000 
#    y 0.000000 1.607090 0.000000 
#    z 0.000000 0.000000 1.619140 
# 
# From -- ./inp_files/13244.got.cif
#   From: 2010.05.17/outbox.cif.g08.bks.cpg/sg40_7_cif.got.tgz:13244.got - 2010.06.03 18:35:42.
