data_PCOD9362223
_publ_section_title
;
Structure prediction by ZEFSAII (Michael W. Deem and Ramdas Pophale) SiO2 
 PCOD9362223
Probable space group: A B M 2
;
_chemical_formula_sum "Si O2"
_cell_formula_units_Z 24
_cell_length_a 9.000000
_cell_length_b 18.000000
_cell_length_c 15.000000
_cell_angle_alpha 90.000000
_cell_angle_beta 90.000000
_cell_angle_gamma 90.000000
_cell_volume 2430.000000
_symmetry_space_group_name_H-M "A B M 2"
_symmetry_group_IT_number 39
_symmetry_cell_setting 'orthorhombic'
loop_
_space_group_symop_operation_xyz
x,y,z
-x,-y,z
-x,1/2+y,z
x,1/2-y,z
x,1/2+y,1/2+z
-x,1/2-y,1/2+z
-x,y,1/2+z
x,-y,1/2+z
loop_
_atom_site_type_symbol
_atom_site_label
_atom_site_fract_x
_atom_site_fract_y
_atom_site_fract_z
Si Si1 0.562723 0.586435 0.197840
Si Si2 0.687701 0.338763 0.087288
Si Si3 0.303831 0.338214 0.378790
Si Si4 0.942155 0.586437 0.694011
Si Si5 0.944915 0.161799 0.381482
Si Si6 0.809202 0.839084 0.081599
O O1 0.500000 0.500000 0.200585
O O2 0.436440 0.642547 0.161331
O O3 0.626932 0.613585 0.295724
O O4 0.684235 0.603815 0.119320
O O5 0.729235 0.250000 0.090915
O O6 0.814550 0.395867 0.121205
O O7 0.644493 0.352919 0.982447
O O8 0.331636 0.250000 0.360594
O O9 0.124398 0.348627 0.384980
O O10 0.897150 0.612645 0.794820
O O11 0.000000 0.500000 0.694189
O O12 0.066128 0.643399 0.656207
O O13 0.916912 0.250000 0.364534
O O14 0.870143 0.145820 0.479715
O O15 0.769340 0.750000 0.084635
#
# Coordination Sequence:
#
# PCOD9362223 Si02
#       6
#     8   8   8   8   8   8
#     4  12  26  44  67 103 146 182 226 282 359 421
#     4  11  24  43  67  99 137 182 232 284 343 420
#     4  10  21  42  71  97 130 184 238 287 341 409
#     4  12  24  40  64 103 141 177 227 290 356 412
#     4  10  21  40  71 102 130 177 239 290 340 409
#     4  11  22  43  73 100 131 184 240 287 339 413
#
# _framework density 9.8765429999999999
#
# number of rings (size 3 to 8) (size 9 to 14) (size 15 to 20)
#    0.000    1.000    3.333    4.000    0.000    2.667 
#    3.000    1.667    0.000    0.000    0.000    0.000 
#    0.000    0.000    0.000    0.000    0.000    0.000 
#
# Total GULP energy -133767.219163 kJ/mol
# GULP energy per Si atom -5573.634132 kJ/mol
# Density = 0.985406 g / cm^3
# Si number density = 9.876543 Si / 1000 Ang^3
#
#
#
# Elastic Constant Matrix: (Units=GPa)
#
#
# Indices 1 2 3 4 5 6 
#
# 1 61.2689 29.4296 34.7150 0.0000 0.0000 0.0000
# 2 29.4296 138.4284 82.3402 0.0000 0.0000 0.0000
# 3 34.7150 82.3402 191.5023 0.0000 0.0000 0.0000
# 4 0.0000 0.0000 0.0000 42.9719 0.0000 0.0000
# 5 0.0000 0.0000 0.0000 0.0000 47.5114 0.0000
# 6 0.0000 0.0000 0.0000 0.0000 0.0000 39.0738
#
#
#
# Elastic Compliance Matrix: (Units=1/GPa)
#
#
# Indices 1 2 3 4 5 6 
#
# 1 0.018891 -0.002659 -0.002281 0.000000 0.000000 0.000000
# 2 -0.002659 0.010081 -0.003852 0.000000 0.000000 0.000000
# 3 -0.002281 -0.003852 0.007292 0.000000 0.000000 0.000000
# 4 0.000000 0.000000 0.000000 0.023271 0.000000 0.000000
# 5 0.000000 0.000000 0.000000 0.000000 0.021048 0.000000
# 6 0.000000 0.000000 0.000000 0.000000 0.000000 0.025593
#
#
# Mechanical properties :
#
#
# Convention : Reuss Voigt Hill
#
# Bulk Modulus (GPa) = 53.53832 76.01881 64.77856
# Shear Modulus (GPa) = 38.46539 42.22573 40.34556
#
# Velocity S-wave (km/s) = 4.41762 4.62852 4.52430
# Velocity P-wave (km/s) = 7.29268 8.19343 7.75614
#
# Compressibility (1/GPa) = 0.01867821
#
# Stress axis : x y z
#
# Youngs Moduli (GPa) = 52.93419 99.19847 137.14083
#
# Poissons Ratio (x) = 0.26381 0.31283
# Poissons Ratio (y) = 0.14077 0.52831
# Poissons Ratio (z) = 0.12075 0.38215
#
# Static dielectric constant tensor:
#      x y z
#    x 1.867410 0.000000 0.000000 
#    y 0.000000 1.676550 0.000000 
#    z 0.000000 0.000000 1.690300 
# 
# From -- ./inp_files/8354.got.cif
#   From: 2010.05.17/outbox.ucp.g08.bks.cvg/sg39_5_cif.got.tgz:8354.got - 2010.06.11 10:41:16.
