data_PCOD9362840
_publ_section_title
;
Structure prediction by ZEFSAII (Michael W. Deem and Ramdas Pophale) SiO2 
 PCOD9362840
Probable space group: A M A 2
;
_chemical_formula_sum "Si O2"
_cell_formula_units_Z 40
_cell_length_a 12.641500
_cell_length_b 17.546841
_cell_length_c 7.102075
_cell_angle_alpha 90.000000
_cell_angle_beta 90.000000
_cell_angle_gamma 90.000000
_cell_volume 1575.370846
_symmetry_space_group_name_H-M "A M A 2"
_symmetry_group_IT_number 40
_symmetry_cell_setting 'orthorhombic'
loop_
_space_group_symop_operation_xyz
x,y,z
-x,-y,z
1/2-x,y,z
1/2+x,-y,z
x,1/2+y,1/2+z
-x,1/2-y,1/2+z
1/2-x,1/2+y,1/2+z
1/2+x,1/2-y,1/2+z
loop_
_atom_site_type_symbol
_atom_site_label
_atom_site_fract_x
_atom_site_fract_y
_atom_site_fract_z
Si Si1 0.250000 0.318981 0.703940
Si Si2 0.514937 0.834235 0.511272
Si Si3 0.061229 0.331426 0.403280
Si Si4 0.750000 0.513639 0.817915
Si Si5 0.250000 0.610090 0.132633
Si Si6 0.250000 0.680715 0.505562
Si Si7 0.074307 0.089389 0.163502
O O1 0.154141 0.320994 0.553394
O O2 0.250000 0.396834 0.819826
O O3 0.250000 0.251678 0.861687
O O4 0.502558 0.750266 0.423759
O O5 0.432426 0.843307 0.680758
O O6 0.637747 0.848725 0.579421
O O7 0.503139 0.894481 0.345012
O O8 0.994153 0.403096 0.478076
O O9 0.851055 0.480920 0.704013
O O10 0.750000 0.468333 0.016244
O O11 0.250000 0.609576 0.357800
O O12 0.151593 0.663840 0.641629
#
# Coordination Sequence:
#
# PCOD9362840 Si02
#       7
#     4   8   8   4   4   4   8
#     4  12  26  41  68 109 150 188 226 308 359 416
#     4  11  21  37  66 108 132 176 234 304 352 419
#     4  12  21  37  67 100 145 175 242 290 356 415
#     4   9  24  44  66 101 147 182 229 282 364 434
#     4  10  18  40  71 103 127 182 237 279 352 433
#     4  11  20  41  77 105 132 174 248 301 355 421
#     4  10  22  41  73  95 136 187 236 285 357 431
#
# _framework density 25.390846
#
# number of rings (size 3 to 8) (size 9 to 14) (size 15 to 20)
#    0.000    1.200    6.000    0.600    0.000    0.800 
#    0.000    2.000   17.600    4.800    0.000    0.000 
#    0.000    0.000    0.000    0.000    0.000    0.000 
#
# Total GULP energy -111730.295341 kJ/mol
# GULP energy per Si atom -5586.514767 kJ/mol
# Density = 2.533306 g / cm^3
# Si number density = 25.390846 Si / 1000 Ang^3
#
#
#
# Elastic Constant Matrix: (Units=GPa)
#
#
# Indices 1 2 3 4 5 6 
#
# 1 72.3157 30.3166 23.2404 0.0000 0.0000 0.0000
# 2 30.3166 127.3340 48.5484 0.0000 0.0000 0.0000
# 3 23.2404 48.5484 152.3233 0.0000 0.0000 0.0000
# 4 0.0000 0.0000 0.0000 25.9352 0.0000 0.0000
# 5 0.0000 0.0000 0.0000 0.0000 46.2904 0.0000
# 6 0.0000 0.0000 0.0000 0.0000 0.0000 22.9639
#
#
#
# Elastic Compliance Matrix: (Units=1/GPa)
#
#
# Indices 1 2 3 4 5 6 
#
# 1 0.015606 -0.003196 -0.001362 0.000000 0.000000 0.000000
# 2 -0.003196 0.009594 -0.002570 0.000000 0.000000 0.000000
# 3 -0.001362 -0.002570 0.007592 0.000000 0.000000 0.000000
# 4 0.000000 0.000000 0.000000 0.038558 0.000000 0.000000
# 5 0.000000 0.000000 0.000000 0.000000 0.021603 0.000000
# 6 0.000000 0.000000 0.000000 0.000000 0.000000 0.043547
#
#
# Mechanical properties :
#
#
# Convention : Reuss Voigt Hill
#
# Bulk Modulus (GPa) = 53.95263 61.79818 57.87541
# Shear Modulus (GPa) = 31.86032 35.69574 33.77803
#
# Velocity S-wave (km/s) = 3.54615 3.75354 3.65132
# Velocity P-wave (km/s) = 6.16943 6.57092 6.37334
#
# Compressibility (1/GPa) = 0.01853478
#
# Stress axis : x y z
#
# Youngs Moduli (GPa) = 64.07788 104.22883 131.71710
#
# Poissons Ratio (x) = 0.33313 0.17945
# Poissons Ratio (y) = 0.20480 0.33854
# Poissons Ratio (z) = 0.08730 0.26789
#
# Static dielectric constant tensor:
#      x y z
#    x 2.187130 0.000000 0.000000 
#    y 0.000000 1.971540 0.000000 
#    z 0.000000 0.000000 1.926710 
# 
# From -- ./inp_files/7553.got.cif
#   From: 2010.05.17/outbox.cif.g08.bks.cpg/sg40_4_cif.got.tgz:7553.got - 2010.06.03 18:35:42.
