data_PCOD9362589
_publ_section_title
;
Structure prediction by ZEFSAII (Michael W. Deem and Ramdas Pophale) SiO2 
 PCOD9362589
Probable space group: A M A 2
;
_chemical_formula_sum "Si O2"
_cell_formula_units_Z 64
_cell_length_a 9.074702
_cell_length_b 23.618613
_cell_length_c 19.515012
_cell_angle_alpha 90.000000
_cell_angle_beta 90.000000
_cell_angle_gamma 90.000000
_cell_volume 4182.689105
_symmetry_space_group_name_H-M "A M A 2"
_symmetry_group_IT_number 40
_symmetry_cell_setting 'orthorhombic'
loop_
_space_group_symop_operation_xyz
x,y,z
-x,-y,z
1/2-x,y,z
1/2+x,-y,z
x,1/2+y,1/2+z
-x,1/2-y,1/2+z
1/2-x,1/2+y,1/2+z
1/2+x,1/2-y,1/2+z
loop_
_atom_site_type_symbol
_atom_site_label
_atom_site_fract_x
_atom_site_fract_y
_atom_site_fract_z
Si Si1 0.574207 0.666245 0.692360
Si Si2 0.925213 0.776798 0.067713
Si Si3 0.424913 0.340838 0.147161
Si Si4 0.573406 0.732023 0.274417
Si Si5 0.073938 0.249343 0.428430
Si Si6 0.574050 0.560472 0.785170
Si Si7 0.074227 0.060689 0.565185
Si Si8 0.926345 0.384293 0.917915
O O1 0.750000 0.673060 0.687777
O O2 0.501125 0.679111 0.619227
O O3 0.508896 0.713447 0.743956
O O4 0.541486 0.605160 0.724689
O O5 0.750000 0.784717 0.068056
O O6 0.955643 0.714403 0.100059
O O7 0.989840 0.776888 0.991706
O O8 0.250000 0.352460 0.142785
O O9 0.460205 0.320282 0.224211
O O10 0.514365 0.393704 0.119275
O O11 0.750000 0.742616 0.268809
O O12 0.538407 0.724748 0.354114
O O13 0.250000 0.253688 0.439717
O O14 0.037854 0.182302 0.424258
O O15 0.500000 0.500000 0.773628
O O16 0.750000 0.554417 0.790906
O O17 0.511038 0.587234 0.855237
O O18 0.250000 0.056010 0.570133
O O19 0.038409 0.084832 0.489336
O O20 0.000000 0.000000 0.574525
O O21 0.750000 0.388710 0.906044
#
# Coordination Sequence:
#
# PCOD9362589 Si02
#       8
#     8   8   8   8   8   8   8   8
#     4  10  20  33  49  71  97 128 167 208 249 293
#     4  10  20  32  50  73  99 130 164 203 248 294
#     4   9  18  32  48  69  95 126 162 201 241 287
#     4   9  18  32  51  73  99 130 161 198 249 295
#     4  10  18  31  51  75 103 133 163 198 243 297
#     4  11  23  35  50  71  97 133 173 210 247 291
#     4  11  22  34  48  68  94 131 170 205 242 281
#     4  10  20  33  49  70 100 135 169 203 240 286
#
# _framework density 15.301162
#
# number of rings (size 3 to 8) (size 9 to 14) (size 15 to 20)
#    0.000    2.000    2.500    2.625    0.000    6.500 
#    0.000    0.000    0.000    0.000    0.000    0.875 
#    0.000    4.000    0.000    0.000    0.000    0.000 
#
# Total GULP energy -178583.628667 kJ/mol
# GULP energy per Si atom -5580.738396 kJ/mol
# Density = 1.526634 g / cm^3
# Si number density = 15.301162 Si / 1000 Ang^3
#
#
#
# Elastic Constant Matrix: (Units=GPa)
#
#
# Indices 1 2 3 4 5 6 
#
# 1 51.4213 54.6597 65.7083 0.0000 0.0000 0.0000
# 2 54.6597 94.1545 73.6843 0.0000 0.0000 0.0000
# 3 65.7083 73.6843 147.3332 0.0000 0.0000 0.0000
# 4 0.0000 0.0000 0.0000 17.3694 0.0000 0.0000
# 5 0.0000 0.0000 0.0000 0.0000 25.3817 0.0000
# 6 0.0000 0.0000 0.0000 0.0000 0.0000 22.9082
#
#
#
# Elastic Compliance Matrix: (Units=1/GPa)
#
#
# Indices 1 2 3 4 5 6 
#
# 1 0.072334 -0.027515 -0.018499 0.000000 0.000000 0.000000
# 2 -0.027515 0.027917 -0.001691 0.000000 0.000000 0.000000
# 3 -0.018499 -0.001691 0.015883 0.000000 0.000000 0.000000
# 4 0.000000 0.000000 0.000000 0.057573 0.000000 0.000000
# 5 0.000000 0.000000 0.000000 0.000000 0.039398 0.000000
# 6 0.000000 0.000000 0.000000 0.000000 0.000000 0.043652
#
#
# Mechanical properties :
#
#
# Convention : Reuss Voigt Hill
#
# Bulk Modulus (GPa) = 48.25123 75.66817 61.95970
# Shear Modulus (GPa) = 13.92464 19.72231 16.82348
#
# Velocity S-wave (km/s) = 3.01996 3.59408 3.31945
# Velocity P-wave (km/s) = 6.61536 8.17209 7.43459
#
# Compressibility (1/GPa) = 0.02072486
#
# Stress axis : x y z
#
# Youngs Moduli (GPa) = 13.82480 35.81992 62.95990
#
# Poissons Ratio (x) = 0.98559 1.16469
# Poissons Ratio (y) = 0.38039 0.10645
# Poissons Ratio (z) = 0.25574 0.06056
#
# Static dielectric constant tensor:
#      x y z
#    x 1.506110 0.000000 0.000000 
#    y 0.000000 1.482340 0.000000 
#    z 0.000000 0.000000 1.506410 
# 
# From -- ./inp_files/19692.got.cif
#   From: 2010.05.17/outbox.cif.g08.bks.cpg/sg40_10_cif.got.tgz:19692.got - 2010.06.03 18:35:42.
