data_PCOD9362346
_publ_section_title
;
Structure prediction by ZEFSAII (Michael W. Deem and Ramdas Pophale) SiO2 
 PCOD9362346
Probable space group: A M A 2
;
_chemical_formula_sum "Si O2"
_cell_formula_units_Z 64
_cell_length_a 18.919804
_cell_length_b 20.866926
_cell_length_c 7.444548
_cell_angle_alpha 90.000000
_cell_angle_beta 90.000000
_cell_angle_gamma 90.000000
_cell_volume 2939.093778
_symmetry_space_group_name_H-M "A M A 2"
_symmetry_group_IT_number 40
_symmetry_cell_setting 'orthorhombic'
loop_
_space_group_symop_operation_xyz
x,y,z
-x,-y,z
1/2-x,y,z
1/2+x,-y,z
x,1/2+y,1/2+z
-x,1/2-y,1/2+z
1/2-x,1/2+y,1/2+z
1/2+x,1/2-y,1/2+z
loop_
_atom_site_type_symbol
_atom_site_label
_atom_site_fract_x
_atom_site_fract_y
_atom_site_fract_z
Si Si1 0.931555 0.655603 0.753430
Si Si2 0.829031 0.393732 0.683355
Si Si3 0.973861 0.650661 0.327867
Si Si4 0.330303 0.239429 0.642837
Si Si5 0.081067 0.986232 0.211149
Si Si6 0.578229 0.022058 0.773053
Si Si7 0.635640 0.397144 0.282003
Si Si8 0.929234 0.786114 0.311995
O O1 0.959459 0.654419 0.543826
O O2 0.874123 0.712150 0.771057
O O3 0.901397 0.584537 0.782628
O O4 0.002796 0.670928 0.863500
O O5 0.750000 0.383761 0.754950
O O6 0.868752 0.455254 0.765658
O O7 0.826944 0.405928 0.471763
O O8 0.878953 0.331836 0.698326
O O9 0.920533 0.598089 0.244221
O O10 0.963570 0.720383 0.241552
O O11 0.053597 0.624952 0.308124
O O12 0.250000 0.261870 0.622267
O O13 0.330205 0.164553 0.692994
O O14 0.376451 0.238586 0.463747
O O15 0.081949 0.984251 0.991790
O O16 0.000000 0.000000 0.261860
O O17 0.500000 0.000000 0.716282
O O18 0.631041 0.968334 0.697649
#
# Coordination Sequence:
#
# PCOD9362346 Si02
#       8
#     8   8   8   8   8   8   8   8
#     4  10  18  34  58  79 105 144 191 230 268 327
#     4  11  21  33  56  85 110 140 182 230 284 334
#     4   9  16  30  55  83 102 135 185 238 263 309
#     4  11  24  36  51  81 121 151 176 227 295 341
#     4   9  15  30  54  79 104 130 178 233 268 305
#     4   7  13  25  49  78 100 126 167 227 268 295
#     4  10  17  33  55  77 110 142 181 224 277 330
#     4  11  20  34  56  80 111 149 185 225 274 336
#
# _framework density 21.77542
#
# number of rings (size 3 to 8) (size 9 to 14) (size 15 to 20)
#    0.000    2.250    3.750    2.250    0.000    0.500 
#    0.000    0.000    8.250    2.250    0.000    0.000 
#    0.000    0.000    0.000    0.000    0.000    0.000 
#
# Total GULP energy -178358.273602 kJ/mol
# GULP energy per Si atom -5573.696050 kJ/mol
# Density = 2.172586 g / cm^3
# Si number density = 21.775420 Si / 1000 Ang^3
#
#
#
# Elastic Constant Matrix: (Units=GPa)
#
#
# Indices 1 2 3 4 5 6 
#
# 1 116.2019 44.9149 14.4658 0.0000 0.0000 0.0000
# 2 44.9149 141.7862 -10.0625 0.0000 0.0000 0.0000
# 3 14.4658 -10.0625 25.3851 0.0000 0.0000 0.0000
# 4 0.0000 0.0000 0.0000 15.8350 0.0000 0.0000
# 5 0.0000 0.0000 0.0000 0.0000 15.6365 0.0000
# 6 0.0000 0.0000 0.0000 0.0000 0.0000 20.2032
#
#
#
# Elastic Compliance Matrix: (Units=1/GPa)
#
#
# Indices 1 2 3 4 5 6 
#
# 1 0.011193 -0.004114 -0.008009 0.000000 0.000000 0.000000
# 2 -0.004114 0.008769 0.005820 0.000000 0.000000 0.000000
# 3 -0.008009 0.005820 0.046264 0.000000 0.000000 0.000000
# 4 0.000000 0.000000 0.000000 0.063151 0.000000 0.000000
# 5 0.000000 0.000000 0.000000 0.000000 0.063953 0.000000
# 6 0.000000 0.000000 0.000000 0.000000 0.000000 0.049497
#
#
# Mechanical properties :
#
#
# Convention : Reuss Voigt Hill
#
# Bulk Modulus (GPa) = 18.64940 42.44555 30.54747
# Shear Modulus (GPa) = 18.29442 25.93860 22.11651
#
# Velocity S-wave (km/s) = 2.90166 3.45510 3.19041
# Velocity P-wave (km/s) = 4.45075 5.95413 5.25647
#
# Compressibility (1/GPa) = 0.05362103
#
# Stress axis : x y z
#
# Youngs Moduli (GPa) = 89.34185 114.03537 21.61489
#
# Poissons Ratio (x) = 0.46915 0.17312
# Poissons Ratio (y) = 0.36756 -0.12581
# Poissons Ratio (z) = 0.71555 -0.66374
#
# Static dielectric constant tensor:
#      x y z
#    x 1.772830 0.000000 0.000000 
#    y 0.000000 1.865510 0.000000 
#    z 0.000000 0.000000 1.891460 
# 
# From -- ./inp_files/7808.got.cif
#   From: 2010.05.17/outbox.cif.g08.bks.cpg/sg40_4_cif.got.tgz:7808.got - 2010.06.03 18:35:42.
