data_PCOD9362714
_publ_section_title
;
Structure prediction by ZEFSAII (Michael W. Deem and Ramdas Pophale) SiO2 
 PCOD9362714
Probable space group: A M A 2
;
_chemical_formula_sum "Si O2"
_cell_formula_units_Z 64
_cell_length_a 17.057960
_cell_length_b 16.717481
_cell_length_c 12.597007
_cell_angle_alpha 90.000000
_cell_angle_beta 90.000000
_cell_angle_gamma 90.000000
_cell_volume 3592.239638
_symmetry_space_group_name_H-M "A M A 2"
_symmetry_group_IT_number 40
_symmetry_cell_setting 'orthorhombic'
loop_
_space_group_symop_operation_xyz
x,y,z
-x,-y,z
1/2-x,y,z
1/2+x,-y,z
x,1/2+y,1/2+z
-x,1/2-y,1/2+z
1/2-x,1/2+y,1/2+z
1/2+x,1/2-y,1/2+z
loop_
_atom_site_type_symbol
_atom_site_label
_atom_site_fract_x
_atom_site_fract_y
_atom_site_fract_z
Si Si1 0.654530 0.469111 0.734220
Si Si2 0.344678 0.714430 0.755268
Si Si3 0.844523 0.234224 0.993163
Si Si4 0.843193 0.516551 0.967225
Si Si5 0.405716 0.505434 0.298781
Si Si6 0.844657 0.550848 0.518636
Si Si7 0.412484 0.120642 0.617322
Si Si8 0.900632 0.633147 0.134613
O O1 0.750000 0.469679 0.732302
O O2 0.630141 0.376447 0.734731
O O3 0.631930 0.511289 0.844637
O O4 0.626942 0.513107 0.628603
O O5 0.250000 0.717342 0.751389
O O6 0.376486 0.779292 0.672569
O O7 0.368524 0.738138 0.875036
O O8 0.750000 0.236978 0.997332
O O9 0.870400 0.143048 0.009444
O O10 0.876837 0.295923 0.079673
O O11 0.750000 0.500708 0.972715
O O12 0.886845 0.446654 0.032177
O O13 0.861735 0.598926 0.027747
O O14 0.500000 0.500000 0.303883
O O15 0.372126 0.497893 0.415845
O O16 0.385677 0.584499 0.230743
O O17 0.377567 0.429497 0.228340
O O18 0.750000 0.550721 0.518818
O O19 0.506127 0.127142 0.620545
#
# Coordination Sequence:
#
# PCOD9362714 Si02
#       8
#     8   8   8   8   8   8   8   8
#     4   9  19  35  55  80 111 139 176 231 279 320
#     4  10  18  34  57  82 107 143 192 230 265 324
#     4  10  19  34  59  84 106 141 191 231 267 326
#     4  10  18  33  58  83 107 144 188 231 276 328
#     4   9  19  35  53  76 110 147 178 222 275 328
#     4  10  20  36  57  81 109 141 181 231 275 324
#     4  10  20  35  54  81 117 141 179 234 284 322
#     4  10  20  34  54  82 114 143 180 235 280 327
#
# _framework density 17.816182999999999
#
# number of rings (size 3 to 8) (size 9 to 14) (size 15 to 20)
#    0.000    2.250    2.500    1.875    0.000    2.500 
#    2.250    3.750    0.000    4.500    0.000    0.000 
#    0.000    0.000    0.000    0.000    0.000    0.000 
#
# Total GULP energy -178492.509406 kJ/mol
# GULP energy per Si atom -5577.890919 kJ/mol
# Density = 1.777563 g / cm^3
# Si number density = 17.816183 Si / 1000 Ang^3
#
#
#
# Elastic Constant Matrix: (Units=GPa)
#
#
# Indices 1 2 3 4 5 6 
#
# 1 15.3799 16.2753 23.4584 0.0000 0.0000 0.0000
# 2 16.2753 108.9125 86.3744 0.0000 0.0000 0.0000
# 3 23.4584 86.3744 163.6948 0.0000 0.0000 0.0000
# 4 0.0000 0.0000 0.0000 35.2815 0.0000 0.0000
# 5 0.0000 0.0000 0.0000 0.0000 -4.8912 0.0000
# 6 0.0000 0.0000 0.0000 0.0000 0.0000 14.9604
#
#
#
# Elastic Compliance Matrix: (Units=1/GPa)
#
#
# Indices 1 2 3 4 5 6 
#
# 1 0.084902 -0.005224 -0.009410 0.000000 0.000000 0.000000
# 2 -0.005224 0.016110 -0.007752 0.000000 0.000000 0.000000
# 3 -0.009410 -0.007752 0.011548 0.000000 0.000000 0.000000
# 4 0.000000 0.000000 0.000000 0.028343 0.000000 0.000000
# 5 0.000000 0.000000 0.000000 0.000000 -0.204450 0.000000
# 6 0.000000 0.000000 0.000000 0.000000 0.000000 0.066843
#
#
# Mechanical properties :
#
#
# Convention : Reuss Voigt Hill
#
# Bulk Modulus (GPa) = 14.75217 60.02261 37.38739
# Shear Modulus (GPa) = 70.75687 19.86208 45.30947
#
# Velocity S-wave (km/s) = 6.30882 3.34253 5.04845
# Velocity P-wave (km/s) = 7.83367 6.97566 7.41708
#
# Compressibility (1/GPa) = 0.06778666
#
# Stress axis : x y z
#
# Youngs Moduli (GPa) = 11.77833 62.07273 86.59638
#
# Poissons Ratio (x) = 0.32428 0.81490
# Poissons Ratio (y) = 0.06153 0.67129
# Poissons Ratio (z) = 0.11084 0.48118
#
# Static dielectric constant tensor:
#      x y z
#    x 1.600200 0.000000 0.000000 
#    y 0.000000 1.602650 0.000000 
#    z 0.000000 0.000000 1.606150 
# 
# From -- ./inp_files/13093.got.cif
#   From: 2010.05.17/outbox.cif.g08.bks.cpg/sg40_7_cif.got.tgz:13093.got - 2010.06.03 18:35:42.
