data_PCOD9362691
_publ_section_title
;
Structure prediction by ZEFSAII (Michael W. Deem and Ramdas Pophale) SiO2 
 PCOD9362691
Probable space group: A M A 2
;
_chemical_formula_sum "Si O2"
_cell_formula_units_Z 64
_cell_length_a 8.914700
_cell_length_b 30.833027
_cell_length_c 14.836210
_cell_angle_alpha 90.000000
_cell_angle_beta 90.000000
_cell_angle_gamma 90.000000
_cell_volume 4077.987291
_symmetry_space_group_name_H-M "A M A 2"
_symmetry_group_IT_number 40
_symmetry_cell_setting 'orthorhombic'
loop_
_space_group_symop_operation_xyz
x,y,z
-x,-y,z
1/2-x,y,z
1/2+x,-y,z
x,1/2+y,1/2+z
-x,1/2-y,1/2+z
1/2-x,1/2+y,1/2+z
1/2+x,1/2-y,1/2+z
loop_
_atom_site_type_symbol
_atom_site_label
_atom_site_fract_x
_atom_site_fract_y
_atom_site_fract_z
Si Si1 0.574565 0.370707 0.602150
Si Si2 0.073075 0.726105 0.926826
Si Si3 0.071376 0.453703 0.525996
Si Si4 0.919729 0.815425 0.920274
Si Si5 0.929986 0.204205 0.615108
Si Si6 0.074363 0.630878 0.235799
Si Si7 0.570087 0.546761 0.315054
Si Si8 0.932719 0.291536 0.723738
O O1 0.750000 0.379883 0.620753
O O2 0.487439 0.415292 0.588981
O O3 0.566833 0.345892 0.506663
O O4 0.517601 0.335470 0.674252
O O5 0.250000 0.717916 0.936605
O O6 0.022731 0.709797 0.828228
O O7 0.039324 0.777363 0.924832
O O8 0.986701 0.707707 0.012891
O O9 0.250000 0.456609 0.530347
O O10 0.030456 0.444402 0.420710
O O11 0.000000 0.500000 0.549039
O O12 0.750000 0.796438 0.922138
O O13 0.936357 0.842940 0.829994
O O14 0.750000 0.203001 0.618180
O O15 0.979636 0.247913 0.669867
O O16 0.996917 0.161835 0.662866
O O17 0.250000 0.624815 0.215094
O O18 0.995487 0.584982 0.253740
O O19 0.500000 0.500000 0.292752
O O20 0.750000 0.545239 0.308441
O O21 0.750000 0.291272 0.720429
#
# Coordination Sequence:
#
# PCOD9362691 Si02
#       8
#     8   8   8   8   8   8   8   8
#     4  10  18  33  51  70  98 137 173 207 252 301
#     4  11  21  34  50  72 100 134 175 216 253 297
#     4  10  20  32  48  73 102 133 168 207 252 302
#     4  10  19  30  48  72 102 136 171 208 252 297
#     4  11  21  36  52  72 101 137 174 211 256 304
#     4  11  21  33  50  76 104 136 175 213 253 303
#     4  10  20  33  50  73 103 137 170 209 256 305
#     4   9  19  33  50  70  98 134 171 207 252 302
#
# _framework density 15.694017000000001
#
# number of rings (size 3 to 8) (size 9 to 14) (size 15 to 20)
#    0.000    1.750    3.750    1.875    0.000    2.000 
#    0.000    1.250    0.000    0.000    0.000    0.875 
#    0.000    2.000    0.000    0.000    0.000    0.000 
#
# Total GULP energy -178551.536049 kJ/mol
# GULP energy per Si atom -5579.735502 kJ/mol
# Density = 1.565830 g / cm^3
# Si number density = 15.694017 Si / 1000 Ang^3
#
#
#
# Elastic Constant Matrix: (Units=GPa)
#
#
# Indices 1 2 3 4 5 6 
#
# 1 56.8593 51.4919 37.3502 0.0000 0.0000 0.0000
# 2 51.4919 131.1252 55.7686 0.0000 0.0000 0.0000
# 3 37.3502 55.7686 95.4931 0.0000 0.0000 0.0000
# 4 0.0000 0.0000 0.0000 21.3860 0.0000 0.0000
# 5 0.0000 0.0000 0.0000 0.0000 18.5901 0.0000
# 6 0.0000 0.0000 0.0000 0.0000 0.0000 29.7493
#
#
#
# Elastic Compliance Matrix: (Units=1/GPa)
#
#
# Indices 1 2 3 4 5 6 
#
# 1 0.030018 -0.009040 -0.006462 0.000000 0.000000 0.000000
# 2 -0.009040 0.012869 -0.003980 0.000000 0.000000 0.000000
# 3 -0.006462 -0.003980 0.015324 0.000000 0.000000 0.000000
# 4 0.000000 0.000000 0.000000 0.046760 0.000000 0.000000
# 5 0.000000 0.000000 0.000000 0.000000 0.053792 0.000000
# 6 0.000000 0.000000 0.000000 0.000000 0.000000 0.033614
#
#
# Mechanical properties :
#
#
# Convention : Reuss Voigt Hill
#
# Bulk Modulus (GPa) = 51.95309 63.63321 57.79315
# Shear Modulus (GPa) = 21.03005 23.20289 22.11647
#
# Velocity S-wave (km/s) = 3.66458 3.84924 3.75804
# Velocity P-wave (km/s) = 7.14711 7.77108 7.46562
#
# Compressibility (1/GPa) = 0.01924813
#
# Stress axis : x y z
#
# Youngs Moduli (GPa) = 33.31293 77.70772 65.25911
#
# Poissons Ratio (x) = 0.70246 0.42169
# Poissons Ratio (y) = 0.30114 0.25971
# Poissons Ratio (z) = 0.21526 0.30925
#
# Static dielectric constant tensor:
#      x y z
#    x 1.535110 0.000000 0.000000 
#    y 0.000000 1.506640 0.000000 
#    z 0.000000 0.000000 1.519790 
# 
# From -- ./inp_files/10588.got.cif
#   From: 2010.05.17/outbox.cif.g08.bks.cpg/sg40_6_cif.got.tgz:10588.got - 2010.06.03 18:35:42.
