data_PCOD9362554
_publ_section_title
;
Structure prediction by ZEFSAII (Michael W. Deem and Ramdas Pophale) SiO2 
 PCOD9362554
Probable space group: A M A 2
;
_chemical_formula_sum "Si O2"
_cell_formula_units_Z 64
_cell_length_a 15.567991
_cell_length_b 25.890263
_cell_length_c 8.894993
_cell_angle_alpha 90.000000
_cell_angle_beta 90.000000
_cell_angle_gamma 90.000000
_cell_volume 3585.210376
_symmetry_space_group_name_H-M "A M A 2"
_symmetry_group_IT_number 40
_symmetry_cell_setting 'orthorhombic'
loop_
_space_group_symop_operation_xyz
x,y,z
-x,-y,z
1/2-x,y,z
1/2+x,-y,z
x,1/2+y,1/2+z
-x,1/2-y,1/2+z
1/2-x,1/2+y,1/2+z
1/2+x,1/2-y,1/2+z
loop_
_atom_site_type_symbol
_atom_site_label
_atom_site_fract_x
_atom_site_fract_y
_atom_site_fract_z
Si Si1 0.060826 0.951132 0.731120
Si Si2 0.467156 0.903311 0.251083
Si Si3 0.509205 0.151998 0.569030
Si Si4 0.847783 0.707264 0.251190
Si Si5 0.652145 0.111392 0.980080
Si Si6 0.156421 0.586139 0.769732
Si Si7 0.845951 0.306463 0.948162
Si Si8 0.152242 0.979709 0.425631
O O1 0.010781 0.900087 0.670049
O O2 0.112934 0.934230 0.877908
O O3 0.124150 0.965878 0.593876
O O4 0.000000 0.000000 0.756740
O O5 0.475179 0.866825 0.397796
O O6 0.563324 0.915316 0.191063
O O7 0.415854 0.952962 0.314444
O O8 0.408748 0.880044 0.121503
O O9 0.585054 0.188778 0.626844
O O10 0.419013 0.181919 0.569689
O O11 0.750000 0.712241 0.192667
O O12 0.847409 0.661695 0.374566
O O13 0.870776 0.759877 0.337144
O O14 0.750000 0.099850 0.024881
O O15 0.250000 0.578480 0.691604
O O16 0.159886 0.641255 0.850711
O O17 0.150112 0.540654 0.893319
O O18 0.750000 0.295093 0.007652
O O19 0.250000 0.961576 0.398336
#
# Coordination Sequence:
#
# PCOD9362554 Si02
#       8
#     8   8   8   8   8   8   8   8
#     4  10  19  33  51  73 103 137 170 206 251 303
#     4  10  19  32  51  76 101 130 167 211 251 296
#     4   9  19  33  54  78 100 132 172 210 248 296
#     4   9  19  35  54  74 101 135 169 206 253 303
#     4  10  21  35  50  73 103 134 166 207 259 306
#     4   9  18  31  49  73  99 128 166 206 246 292
#     4   9  17  31  51  75 100 128 163 205 249 293
#     4  10  18  30  51  76 101 132 169 209 249 297
#
# _framework density 17.851113999999999
#
# number of rings (size 3 to 8) (size 9 to 14) (size 15 to 20)
#    0.000    2.500    0.000    3.375    0.000    6.500 
#    0.000    0.625    0.000    4.500    0.000    0.000 
#    0.000    0.000    0.000    0.000    0.000    0.000 
#
# Total GULP energy -178250.605677 kJ/mol
# GULP energy per Si atom -5570.331427 kJ/mol
# Density = 1.781048 g / cm^3
# Si number density = 17.851114 Si / 1000 Ang^3
#
#
#
# Elastic Constant Matrix: (Units=GPa)
#
#
# Indices 1 2 3 4 5 6 
#
# 1 149.3621 46.7944 33.5341 0.0000 0.0000 0.0000
# 2 46.7944 74.2641 5.7653 0.0000 0.0000 0.0000
# 3 33.5341 5.7653 32.7368 0.0000 0.0000 0.0000
# 4 0.0000 0.0000 0.0000 7.3692 0.0000 0.0000
# 5 0.0000 0.0000 0.0000 0.0000 26.1673 0.0000
# 6 0.0000 0.0000 0.0000 0.0000 0.0000 23.2279
#
#
#
# Elastic Compliance Matrix: (Units=1/GPa)
#
#
# Indices 1 2 3 4 5 6 
#
# 1 0.010848 -0.006055 -0.010045 0.000000 0.000000 0.000000
# 2 -0.006055 0.017032 0.003203 0.000000 0.000000 0.000000
# 3 -0.010045 0.003203 0.040273 0.000000 0.000000 0.000000
# 4 0.000000 0.000000 0.000000 0.135701 0.000000 0.000000
# 5 0.000000 0.000000 0.000000 0.000000 0.038216 0.000000
# 6 0.000000 0.000000 0.000000 0.000000 0.000000 0.043052
#
#
# Mechanical properties :
#
#
# Convention : Reuss Voigt Hill
#
# Bulk Modulus (GPa) = 23.60857 47.61674 35.61265
# Shear Modulus (GPa) = 15.38298 22.70415 19.04356
#
# Velocity S-wave (km/s) = 2.93872 3.57019 3.26973
# Velocity P-wave (km/s) = 4.97682 6.61266 5.85218
#
# Compressibility (1/GPa) = 0.04235751
#
# Stress axis : x y z
#
# Youngs Moduli (GPa) = 92.18652 58.71206 24.83080
#
# Poissons Ratio (x) = 0.35552 0.24943
# Poissons Ratio (y) = 0.55822 -0.07954
# Poissons Ratio (z) = 0.92605 -0.18807
#
# Static dielectric constant tensor:
#      x y z
#    x 1.672420 0.000000 0.000000 
#    y 0.000000 1.607820 0.000000 
#    z 0.000000 0.000000 1.575340 
# 
# From -- ./inp_files/6876.got.cif
#   From: 2010.05.17/outbox.cif.g08.bks.cpg/sg40_4_cif.got.tgz:6876.got - 2010.06.03 18:35:42.
