data_PCOD9362866
_publ_section_title
;
Structure prediction by ZEFSAII (Michael W. Deem and Ramdas Pophale) SiO2 
 PCOD9362866
Probable space group: A M A 2
;
_chemical_formula_sum "Si O2"
_cell_formula_units_Z 56
_cell_length_a 8.805751
_cell_length_b 14.032140
_cell_length_c 30.071833
_cell_angle_alpha 90.000000
_cell_angle_beta 90.000000
_cell_angle_gamma 90.000000
_cell_volume 3715.781864
_symmetry_space_group_name_H-M "A M A 2"
_symmetry_group_IT_number 40
_symmetry_cell_setting 'orthorhombic'
loop_
_space_group_symop_operation_xyz
x,y,z
-x,-y,z
1/2-x,y,z
1/2+x,-y,z
x,1/2+y,1/2+z
-x,1/2-y,1/2+z
1/2-x,1/2+y,1/2+z
1/2+x,1/2-y,1/2+z
loop_
_atom_site_type_symbol
_atom_site_label
_atom_site_fract_x
_atom_site_fract_y
_atom_site_fract_z
Si Si1 0.431937 0.606571 0.857390
Si Si2 0.067436 0.397421 0.131957
Si Si3 0.568821 0.106851 0.266528
Si Si4 0.432418 0.102563 0.089164
Si Si5 0.933438 0.705917 0.041140
Si Si6 0.568543 0.893619 0.456084
Si Si7 0.566640 0.294925 0.680829
O O1 0.500000 0.500000 0.858892
O O2 0.250000 0.602824 0.852055
O O3 0.506177 0.649103 0.813115
O O4 0.466904 0.646204 0.906526
O O5 0.250000 0.402879 0.132124
O O6 0.021812 0.362555 0.082407
O O7 0.025199 0.312178 0.165603
O O8 0.000000 0.500000 0.142356
O O9 0.750000 0.099816 0.268008
O O10 0.513371 0.168612 0.224967
O O11 0.500000 0.000000 0.261691
O O12 0.250000 0.097503 0.087982
O O13 0.478665 0.187416 0.055839
O O14 0.473997 0.137552 0.138920
O O15 0.500000 0.000000 0.079200
O O16 0.750000 0.703125 0.038131
O O17 0.004193 0.670071 0.995595
O O18 0.750000 0.901265 0.459543
O O19 0.500000 0.000000 0.459894
O O20 0.750000 0.299019 0.686170
#
# Coordination Sequence:
#
# PCOD9362866 Si02
#       7
#     8   8   8   8   8   8   8
#     4   9  17  29  43  61  87 116 145 177 216 260
#     4   9  18  31  46  64  89 119 149 182 217 255
#     4  11  20  29  44  66  90 117 148 180 217 261
#     4   9  18  31  46  64  88 118 150 183 218 256
#     4   9  18  31  45  64  90 119 149 180 217 259
#     4  10  19  29  44  66  90 118 149 180 216 259
#     4   9  18  32  46  63  89 119 149 180 217 258
#
# _framework density 15.070853
#
# number of rings (size 3 to 8) (size 9 to 14) (size 15 to 20)
#    0.000    2.571    0.000    5.571    0.000    6.286 
#    0.000    2.857    0.000    0.000    0.000    1.000 
#    0.000    6.857    0.000    0.000    0.000    0.000 
#
# Total GULP energy -156043.773844 kJ/mol
# GULP energy per Si atom -5572.991923 kJ/mol
# Density = 1.503655 g / cm^3
# Si number density = 15.070853 Si / 1000 Ang^3
#
#
#
# Elastic Constant Matrix: (Units=GPa)
#
#
# Indices 1 2 3 4 5 6 
#
# 1 53.9210 32.3013 55.4489 0.0000 0.0000 0.0000
# 2 32.3013 92.0186 63.6164 0.0000 0.0000 0.0000
# 3 55.4489 63.6164 154.7360 0.0000 0.0000 0.0000
# 4 0.0000 0.0000 0.0000 20.5661 0.0000 0.0000
# 5 0.0000 0.0000 0.0000 0.0000 28.9830 0.0000
# 6 0.0000 0.0000 0.0000 0.0000 0.0000 25.0828
#
#
#
# Elastic Compliance Matrix: (Units=1/GPa)
#
#
# Indices 1 2 3 4 5 6 
#
# 1 0.030600 -0.004416 -0.009150 0.000000 0.000000 0.000000
# 2 -0.004416 0.015820 -0.004922 0.000000 0.000000 0.000000
# 3 -0.009150 -0.004922 0.011765 0.000000 0.000000 0.000000
# 4 0.000000 0.000000 0.000000 0.048624 0.000000 0.000000
# 5 0.000000 0.000000 0.000000 0.000000 0.034503 0.000000
# 6 0.000000 0.000000 0.000000 0.000000 0.000000 0.039868
#
#
# Mechanical properties :
#
#
# Convention : Reuss Voigt Hill
#
# Bulk Modulus (GPa) = 47.14717 67.04542 57.09630
# Shear Modulus (GPa) = 22.20007 24.88033 23.54020
#
# Velocity S-wave (km/s) = 3.84219 4.06752 3.95646
# Velocity P-wave (km/s) = 7.14387 8.16352 7.67066
#
# Compressibility (1/GPa) = 0.02121018
#
# Stress axis : x y z
#
# Youngs Moduli (GPa) = 32.67959 63.21106 84.99865
#
# Poissons Ratio (x) = 0.27913 0.77773
# Poissons Ratio (y) = 0.14431 0.41834
# Poissons Ratio (z) = 0.29902 0.31110
#
# Static dielectric constant tensor:
#      x y z
#    x 1.503670 0.000000 0.000000 
#    y 0.000000 1.481020 0.000000 
#    z 0.000000 0.000000 1.518180 
# 
# From -- ./inp_files/26400.got.cif
#   From: 2010.05.17/outbox.cif.g08.bks.cpg/sg40_14_cif.got.tgz:26400.got - 2010.06.03 18:35:42.
