data_PCOD9362006
_publ_section_title
;
Structure prediction by ZEFSAII (Michael W. Deem and Ramdas Pophale) SiO2 
 PCOD9362006
Probable space group: A B M 2
;
_chemical_formula_sum "Si O2"
_cell_formula_units_Z 48
_cell_length_a 15.598844
_cell_length_b 9.723773
_cell_length_c 14.730477
_cell_angle_alpha 90.000000
_cell_angle_beta 90.000000
_cell_angle_gamma 90.000000
_cell_volume 2234.313126
_symmetry_space_group_name_H-M "A B M 2"
_symmetry_group_IT_number 39
_symmetry_cell_setting 'orthorhombic'
loop_
_space_group_symop_operation_xyz
x,y,z
-x,-y,z
-x,1/2+y,z
x,1/2-y,z
x,1/2+y,1/2+z
-x,1/2-y,1/2+z
-x,y,1/2+z
x,-y,1/2+z
loop_
_atom_site_type_symbol
_atom_site_label
_atom_site_fract_x
_atom_site_fract_y
_atom_site_fract_z
Si Si1 0.920142 0.587231 0.802220
Si Si2 0.451927 0.750000 0.966722
Si Si3 0.622904 0.750000 0.857172
Si Si4 0.634164 0.250000 0.152717
Si Si5 0.859840 0.597223 0.460219
Si Si6 0.285909 0.250000 0.201584
Si Si7 0.677119 0.444257 0.870644
Si Si8 0.784809 0.471006 0.147648
O O1 0.935331 0.750000 0.803929
O O2 0.904186 0.520608 0.901160
O O3 0.837046 0.556966 0.740270
O O4 0.000000 0.500000 0.763510
O O5 0.547668 0.750000 0.930614
O O6 0.402979 0.617930 0.925262
O O7 0.436345 0.750000 0.074058
O O8 0.591899 0.750000 0.752189
O O9 0.673597 0.608250 0.867255
O O10 0.699795 0.377301 0.142607
O O11 0.897386 0.750000 0.443706
O O12 0.763011 0.600149 0.421637
O O13 0.848752 0.569471 0.566117
O O14 0.321133 0.129552 0.273005
O O15 0.242541 0.371830 0.140473
#
# Coordination Sequence:
#
# PCOD9362006 Si02
#       8
#     8   4   4   4   8   4   8   8
#     4  12  27  45  68 104 147 185 229 289 363 419
#     4  11  24  46  66  99 137 183 217 298 365 415
#     4  12  25  40  70  97 141 179 228 286 360 428
#     4  12  21  47  72 104 134 185 240 289 349 429
#     4  12  22  43  72 101 137 184 236 291 341 415
#     4  11  22  37  70 104 134 175 239 287 336 400
#     4  11  21  42  68  96 138 179 229 280 351 419
#     4  12  23  43  74 105 135 183 244 290 339 421
#
# _framework density 21.483112999999999
#
# number of rings (size 3 to 8) (size 9 to 14) (size 15 to 20)
#    0.000    0.333    8.333    1.000    3.500    0.667 
#    0.000    8.333    0.000    0.000    0.000    0.000 
#    0.000    0.000    0.000    0.000    0.000    0.000 
#
# Total GULP energy -133680.851552 kJ/mol
# GULP energy per Si atom -5570.035481 kJ/mol
# Density = 2.143422 g / cm^3
# Si number density = 21.483113 Si / 1000 Ang^3
#
#
#
# Elastic Constant Matrix: (Units=GPa)
#
#
# Indices 1 2 3 4 5 6 
#
# 1 64.3048 23.6158 15.5353 0.0000 0.0000 0.0000
# 2 23.6158 234.3010 19.4964 0.0000 0.0000 0.0000
# 3 15.5353 19.4964 96.2388 0.0000 0.0000 0.0000
# 4 0.0000 0.0000 0.0000 19.9895 0.0000 0.0000
# 5 0.0000 0.0000 0.0000 0.0000 25.5632 0.0000
# 6 0.0000 0.0000 0.0000 0.0000 0.0000 20.7575
#
#
#
# Elastic Compliance Matrix: (Units=1/GPa)
#
#
# Indices 1 2 3 4 5 6 
#
# 1 0.016673 -0.001482 -0.002391 0.000000 0.000000 0.000000
# 2 -0.001482 0.004473 -0.000667 0.000000 0.000000 0.000000
# 3 -0.002391 -0.000667 0.010912 0.000000 0.000000 0.000000
# 4 0.000000 0.000000 0.000000 0.050026 0.000000 0.000000
# 5 0.000000 0.000000 0.000000 0.000000 0.039119 0.000000
# 6 0.000000 0.000000 0.000000 0.000000 0.000000 0.048175
#
#
# Mechanical properties :
#
#
# Convention : Reuss Voigt Hill
#
# Bulk Modulus (GPa) = 43.51986 56.90441 50.21213
# Shear Modulus (GPa) = 26.86487 35.67518 31.27002
#
# Velocity S-wave (km/s) = 3.54009 4.07949 3.81932
# Velocity P-wave (km/s) = 6.08370 6.98105 6.54776
#
# Compressibility (1/GPa) = 0.02297802
#
# Stress axis : x y z
#
# Youngs Moduli (GPa) = 59.97826 223.57165 91.64270
#
# Poissons Ratio (x) = 0.33122 0.21914
# Poissons Ratio (y) = 0.08886 0.06112
# Poissons Ratio (z) = 0.14342 0.14912
#
# Static dielectric constant tensor:
#      x y z
#    x 1.782500 0.000000 0.000000 
#    y 0.000000 1.769560 0.000000 
#    z 0.000000 0.000000 1.814160 
# 
# From -- ./inp_files/10109.got.cif
#   From: 2010.05.17/outbox.cif.g08.bks.cpg/sg39_6_cif.got.tgz:10109.got - 2010.06.03 18:22:40.
