data_PCOD9362189
_publ_section_title
;
Structure prediction by ZEFSAII (Michael W. Deem and Ramdas Pophale) SiO2 
 PCOD9362189
Probable space group: A B M 2
;
_chemical_formula_sum "Si O2"
_cell_formula_units_Z 32
_cell_length_a 24.000000
_cell_length_b 9.000000
_cell_length_c 15.000000
_cell_angle_alpha 90.000000
_cell_angle_beta 90.000000
_cell_angle_gamma 90.000000
_cell_volume 3240.000000
_symmetry_space_group_name_H-M "A B M 2"
_symmetry_group_IT_number 39
_symmetry_cell_setting 'orthorhombic'
loop_
_space_group_symop_operation_xyz
x,y,z
-x,-y,z
-x,1/2+y,z
x,1/2-y,z
x,1/2+y,1/2+z
-x,1/2-y,1/2+z
-x,y,1/2+z
x,-y,1/2+z
loop_
_atom_site_type_symbol
_atom_site_label
_atom_site_fract_x
_atom_site_fract_y
_atom_site_fract_z
Si Si1 0.443280 0.071863 0.784900
Si Si2 0.342146 0.919575 0.021743
Si Si3 0.445630 0.425168 0.089490
Si Si4 0.141028 0.928779 0.115722
Si Si5 0.941144 0.428126 0.478165
Si Si6 0.943050 0.573849 0.772518
Si Si7 0.257414 0.422699 0.681251
Si Si8 0.319089 0.570980 0.354329
O O1 0.449911 0.250000 0.779922
O O2 0.384165 0.040673 0.831118
O O3 0.500000 0.000000 0.823528
O O4 0.438509 0.003421 0.685619
O O5 0.360750 0.750000 0.006153
O O6 0.308177 0.923173 0.112863
O O7 0.392882 0.032185 0.031658
O O8 0.304862 0.980665 0.942239
O O9 0.500000 0.500000 0.048478
O O10 0.452311 0.250000 0.099738
O O11 0.141054 0.750000 0.099067
O O12 0.106819 0.958483 0.206082
O O13 0.203183 0.986068 0.133964
O O14 0.108574 0.008967 0.037035
O O15 0.944559 0.250000 0.485090
O O16 0.932506 0.471230 0.374582
O O17 0.000000 0.500000 0.506604
O O18 0.951559 0.750000 0.772759
O O19 0.000000 0.500000 0.740899
O O20 0.242978 0.250000 0.699680
O O21 0.280265 0.483193 0.773767
O O22 0.313835 0.750000 0.364315
#
# Coordination Sequence:
#
# PCOD9362189 Si02
#       8
#     8   8   8   8   8   8   8   8
#     4  10  19  34  57  84 115 147 182 227 285 343
#     4  11  22  39  60  84 113 150 192 238 287 340
#     4  11  21  35  58  86 115 148 185 230 286 346
#     4  10  20  36  59  83 109 151 195 232 280 335
#     4  10  20  35  55  84 118 150 183 230 280 333
#     4   9  19  34  54  81 113 147 183 223 275 332
#     4   9  20  40  60  78 112 154 191 233 285 338
#     4  10  21  39  60  82 111 151 193 235 286 345
#
# _framework density 9.8765429999999999
#
# number of rings (size 3 to 8) (size 9 to 14) (size 15 to 20)
#    0.000    2.000    1.250    3.375    0.000    4.500 
#    0.000    4.375    0.000    0.000    0.000    0.000 
#    0.000    0.000    0.000    0.000    0.000    0.000 
#
# Total GULP energy -178549.948641 kJ/mol
# GULP energy per Si atom -5579.685895 kJ/mol
# Density = 0.985406 g / cm^3
# Si number density = 9.876543 Si / 1000 Ang^3
#
#
#
# Elastic Constant Matrix: (Units=GPa)
#
#
# Indices 1 2 3 4 5 6 
#
# 1 41.5071 12.4065 -19.2349 0.0000 0.0000 0.0000
# 2 12.4065 42.4862 7.7799 0.0000 0.0000 0.0000
# 3 -19.2349 7.7799 40.5279 0.0000 0.0000 0.0000
# 4 0.0000 0.0000 0.0000 -0.9611 0.0000 0.0000
# 5 0.0000 0.0000 0.0000 0.0000 4.8552 0.0000
# 6 0.0000 0.0000 0.0000 0.0000 0.0000 18.5244
#
#
#
# Elastic Compliance Matrix: (Units=1/GPa)
#
#
# Indices 1 2 3 4 5 6 
#
# 1 0.038379 -0.015073 0.021109 0.000000 0.000000 0.000000
# 2 -0.015073 0.030314 -0.012973 0.000000 0.000000 0.000000
# 3 0.021109 -0.012973 0.037183 0.000000 0.000000 0.000000
# 4 0.000000 0.000000 0.000000 -1.040458 0.000000 0.000000
# 5 0.000000 0.000000 0.000000 0.000000 0.205966 0.000000
# 6 0.000000 0.000000 0.000000 0.000000 0.000000 0.053983
#
#
# Mechanical properties :
#
#
# Convention : Reuss Voigt Hill
#
# Bulk Modulus (GPa) = 10.86920 14.04712 12.45816
# Shear Modulus (GPa) = -7.93536 12.72166 2.39315
#
# Velocity S-wave (km/s) = -2.00649 2.54054 1.10189
# Velocity P-wave (km/s) = 0.38273 3.96643 2.81771
#
# Compressibility (1/GPa) = 0.09200311
#
# Stress axis : x y z
#
# Youngs Moduli (GPa) = 26.05558 32.98817 26.89399
#
# Poissons Ratio (x) = 0.49722 -0.56770
# Poissons Ratio (y) = 0.39272 0.34889
# Poissons Ratio (z) = -0.55000 0.42795
#
# Static dielectric constant tensor:
#      x y z
#    x 1.716520 0.000000 0.000000 
#    y 0.000000 1.667900 0.000000 
#    z 0.000000 0.000000 1.722600 
# 
# From -- ./inp_files/10550.got.cif
#   From: 2010.05.17/outbox.ucp.g08.bks.cvg/sg39_6_cif.got.tgz:10550.got - 2010.06.11 10:41:16.
