data_PCOD9362458
_publ_section_title
;
Structure prediction by ZEFSAII (Michael W. Deem and Ramdas Pophale) SiO2 
 PCOD9362458
Probable space group: A M A 2
;
_chemical_formula_sum "Si O2"
_cell_formula_units_Z 64
_cell_length_a 8.526069
_cell_length_b 23.898251
_cell_length_c 19.825554
_cell_angle_alpha 90.000000
_cell_angle_beta 90.000000
_cell_angle_gamma 90.000000
_cell_volume 4039.617948
_symmetry_space_group_name_H-M "A M A 2"
_symmetry_group_IT_number 40
_symmetry_cell_setting 'orthorhombic'
loop_
_space_group_symop_operation_xyz
x,y,z
-x,-y,z
1/2-x,y,z
1/2+x,-y,z
x,1/2+y,1/2+z
-x,1/2-y,1/2+z
1/2-x,1/2+y,1/2+z
1/2+x,1/2-y,1/2+z
loop_
_atom_site_type_symbol
_atom_site_label
_atom_site_fract_x
_atom_site_fract_y
_atom_site_fract_z
Si Si1 0.439171 0.751446 0.863830
Si Si2 0.441121 0.665500 0.586882
Si Si3 0.938303 0.118297 0.863619
Si Si4 0.563905 0.937428 0.726684
Si Si5 0.560638 0.157399 0.634819
Si Si6 0.561863 0.937940 0.999518
Si Si7 0.438835 0.776377 0.505395
Si Si8 0.440687 0.229620 0.215368
O O1 0.250000 0.751067 0.863741
O O2 0.489300 0.816700 0.866951
O O3 0.497351 0.720135 0.930239
O O4 0.494817 0.726626 0.792322
O O5 0.250000 0.665266 0.587441
O O6 0.493137 0.607001 0.555529
O O7 0.488390 0.716657 0.537752
O O8 0.493499 0.682734 0.661962
O O9 0.750000 0.116962 0.865897
O O10 0.993190 0.090545 0.794108
O O11 0.004990 0.084794 0.927219
O O12 0.750000 0.938976 0.733192
O O13 0.514673 0.898084 0.664449
O O14 0.500000 0.000000 0.719312
O O15 0.750000 0.152114 0.636925
O O16 0.514138 0.176325 0.559458
O O17 0.518903 0.209980 0.683271
O O18 0.750000 0.938725 0.999438
O O19 0.500000 0.000000 0.011433
O O20 0.250000 0.776136 0.503370
O O21 0.250000 0.227875 0.216258
#
# Coordination Sequence:
#
# PCOD9362458 Si02
#       8
#     8   8   8   8   8   8   8   8
#     4  10  18  28  48  73  99 127 156 197 240 285
#     4   8  15  28  47  67  89 121 161 198 233 283
#     4  11  21  34  48  68  99 133 166 200 237 280
#     4  12  24  36  51  70  96 130 168 206 240 285
#     4   9  17  33  52  70  95 127 161 199 244 287
#     4  11  21  33  48  68  94 128 167 204 239 282
#     4   9  17  30  50  71  96 127 159 195 238 291
#     4   8  14  28  48  69  92 122 157 195 242 288
#
# _framework density 15.843083
#
# number of rings (size 3 to 8) (size 9 to 14) (size 15 to 20)
#    0.000    2.250    2.500    3.750    0.000    1.000 
#    0.000    0.000    0.000    1.500    0.000    0.875 
#    0.000    4.000    0.000    0.000    0.000    0.000 
#
# Total GULP energy -178464.783204 kJ/mol
# GULP energy per Si atom -5577.024475 kJ/mol
# Density = 1.580702 g / cm^3
# Si number density = 15.843083 Si / 1000 Ang^3
#
#
#
# Elastic Constant Matrix: (Units=GPa)
#
#
# Indices 1 2 3 4 5 6 
#
# 1 26.9325 18.8053 18.1005 0.0000 0.0000 0.0000
# 2 18.8053 85.3287 61.8065 0.0000 0.0000 0.0000
# 3 18.1005 61.8065 144.2280 0.0000 0.0000 0.0000
# 4 0.0000 0.0000 0.0000 19.9893 0.0000 0.0000
# 5 0.0000 0.0000 0.0000 0.0000 22.1901 0.0000
# 6 0.0000 0.0000 0.0000 0.0000 0.0000 -1.7898
#
#
#
# Elastic Compliance Matrix: (Units=1/GPa)
#
#
# Indices 1 2 3 4 5 6 
#
# 1 0.044275 -0.008313 -0.001994 0.000000 0.000000 0.000000
# 2 -0.008313 0.018555 -0.006908 0.000000 0.000000 0.000000
# 3 -0.001994 -0.006908 0.010144 0.000000 0.000000 0.000000
# 4 0.000000 0.000000 0.000000 0.050027 0.000000 0.000000
# 5 0.000000 0.000000 0.000000 0.000000 0.045065 0.000000
# 6 0.000000 0.000000 0.000000 0.000000 0.000000 -0.558713
#
#
# Mechanical properties :
#
#
# Convention : Reuss Voigt Hill
#
# Bulk Modulus (GPa) = 25.94490 50.43487 38.18988
# Shear Modulus (GPa) = -14.56160 18.59638 2.01739
#
# Velocity S-wave (km/s) = -3.03498 3.42977 1.12966
# Velocity P-wave (km/s) = 2.03230 6.89837 5.08517
#
# Compressibility (1/GPa) = 0.03854322
#
# Stress axis : x y z
#
# Youngs Moduli (GPa) = 22.58632 53.89257 98.57893
#
# Poissons Ratio (x) = 0.44802 0.19656
# Poissons Ratio (y) = 0.18776 0.68102
# Poissons Ratio (z) = 0.04504 0.37231
#
# Static dielectric constant tensor:
#      x y z
#    x 1.539570 0.000000 0.000000 
#    y 0.000000 1.512290 0.000000 
#    z 0.000000 0.000000 1.536990 
# 
# From -- ./inp_files/19751.got.cif
#   From: 2010.05.17/outbox.cif.g08.bks.cpg/sg40_10_cif.got.tgz:19751.got - 2010.06.03 18:35:42.
