data_PCOD9362868
_publ_section_title
;
Structure prediction by ZEFSAII (Michael W. Deem and Ramdas Pophale) SiO2 
 PCOD9362868
Probable space group: A M A 2
;
_chemical_formula_sum "Si O2"
_cell_formula_units_Z 64
_cell_length_a 21.305996
_cell_length_b 23.451301
_cell_length_c 5.661910
_cell_angle_alpha 90.000000
_cell_angle_beta 90.000000
_cell_angle_gamma 90.000000
_cell_volume 2828.992159
_symmetry_space_group_name_H-M "A M A 2"
_symmetry_group_IT_number 40
_symmetry_cell_setting 'orthorhombic'
loop_
_space_group_symop_operation_xyz
x,y,z
-x,-y,z
1/2-x,y,z
1/2+x,-y,z
x,1/2+y,1/2+z
-x,1/2-y,1/2+z
1/2-x,1/2+y,1/2+z
1/2+x,1/2-y,1/2+z
loop_
_atom_site_type_symbol
_atom_site_label
_atom_site_fract_x
_atom_site_fract_y
_atom_site_fract_z
Si Si1 0.646186 0.533335 0.949940
Si Si2 0.991812 0.067072 0.449940
Si Si3 0.074809 0.735742 0.449937
Si Si4 0.429198 0.777588 0.949937
Si Si5 0.638013 0.381972 0.449940
Si Si6 0.520286 0.597188 0.449940
Si Si7 0.141282 0.980338 0.949940
Si Si8 0.320552 0.091506 0.449940
O O1 0.584100 0.572672 0.949940
O O2 0.674049 0.540246 0.690097
O O3 0.633976 0.464188 0.949940
O O4 0.674049 0.540246 0.209783
O O5 0.985281 0.908199 0.698147
O O6 0.985281 0.908199 0.201733
O O7 0.000000 0.000000 0.449941
O O8 0.100099 0.759703 0.699067
O O9 0.086285 0.668092 0.449940
O O10 0.000023 0.749336 0.449936
O O11 0.100099 0.759702 0.200806
O O12 0.440584 0.844967 0.949940
O O13 0.633687 0.451354 0.449940
O O14 0.670748 0.374231 0.707014
O O15 0.670748 0.374231 0.192866
O O16 0.570417 0.544867 0.449940
O O17 0.250000 0.067189 0.449940
#
# Coordination Sequence:
#
# PCOD9362868 Si02
#       8
#     8   8   8   8   8   8   8   8
#     4   8  16  28  41  62  97 129 153 186 233 294
#     4  10  19  29  44  69 100 132 169 203 248 302
#     4  10  21  36  50  69  98 136 179 214 253 306
#     4  10  21  35  51  70  98 138 180 218 251 292
#     4  10  19  33  52  72 103 133 162 206 257 309
#     4  10  19  31  46  67  96 125 164 210 245 288
#     4   8  16  29  45  68  93 123 155 192 244 294
#     4  10  19  31  49  75 104 132 165 205 259 323
#
# _framework density 22.622899
#
# number of rings (size 3 to 8) (size 9 to 14) (size 15 to 20)
#    0.000    2.500    0.000    2.250    0.000    6.000 
#    0.000    0.000    0.000    0.000    0.000    0.000 
#    0.000  180.000    0.000    0.000    0.000    0.000 
#
# Total GULP energy -178186.441808 kJ/mol
# GULP energy per Si atom -5568.326307 kJ/mol
# Density = 2.257141 g / cm^3
# Si number density = 22.622899 Si / 1000 Ang^3
#
#
#
# Elastic Constant Matrix: (Units=GPa)
#
#
# Indices 1 2 3 4 5 6 
#
# 1 37.0975 -3.6206 11.6427 0.0000 0.0000 0.0000
# 2 -3.6206 71.1271 47.1392 0.0000 0.0000 0.0000
# 3 11.6427 47.1392 317.4346 0.0000 0.0000 0.0000
# 4 0.0000 0.0000 0.0000 33.4372 0.0000 0.0000
# 5 0.0000 0.0000 0.0000 0.0000 -5.1011 0.0000
# 6 0.0000 0.0000 0.0000 0.0000 0.0000 5.3189
#
#
#
# Elastic Compliance Matrix: (Units=1/GPa)
#
#
# Indices 1 2 3 4 5 6 
#
# 1 0.027606 0.002303 -0.001354 0.000000 0.000000 0.000000
# 2 0.002303 0.015786 -0.002429 0.000000 0.000000 0.000000
# 3 -0.001354 -0.002429 0.003561 0.000000 0.000000 0.000000
# 4 0.000000 0.000000 0.000000 0.029907 0.000000 0.000000
# 5 0.000000 0.000000 0.000000 0.000000 -0.196036 0.000000
# 6 0.000000 0.000000 0.000000 0.000000 0.000000 0.188010
#
#
# Mechanical properties :
#
#
# Convention : Reuss Voigt Hill
#
# Bulk Modulus (GPa) = 22.73137 59.55354 41.14246
# Shear Modulus (GPa) = 57.83179 31.43084 44.63132
#
# Velocity S-wave (km/s) = 5.06151 3.73143 4.44648
# Velocity P-wave (km/s) = 6.65043 6.70420 6.67737
#
# Compressibility (1/GPa) = 0.04399206
#
# Stress axis : x y z
#
# Youngs Moduli (GPa) = 36.22417 63.34646 280.85140
#
# Poissons Ratio (x) = -0.14588 0.38041
# Poissons Ratio (y) = -0.08342 0.68211
# Poissons Ratio (z) = 0.04907 0.15385
#
# Static dielectric constant tensor:
#      x y z
#    x 1.922500 0.000000 0.000000 
#    y 0.000000 1.794460 0.000000 
#    z 0.000000 0.000000 1.957390 
# 
# From -- ./inp_files/3487.got.cif
#   From: 2010.05.17/outbox.cif.g08.bks.cpg/sg40_2_cif.got.tgz:3487.got - 2010.06.03 18:35:42.
