data_PCOD9362613
_publ_section_title
;
Structure prediction by ZEFSAII (Michael W. Deem and Ramdas Pophale) SiO2 
 PCOD9362613
Probable space group: A M A 2
;
_chemical_formula_sum "Si O2"
_cell_formula_units_Z 64
_cell_length_a 20.051009
_cell_length_b 9.389064
_cell_length_c 19.501811
_cell_angle_alpha 90.000000
_cell_angle_beta 90.000000
_cell_angle_gamma 90.000000
_cell_volume 3671.414971
_symmetry_space_group_name_H-M "A M A 2"
_symmetry_group_IT_number 40
_symmetry_cell_setting 'orthorhombic'
loop_
_space_group_symop_operation_xyz
x,y,z
-x,-y,z
1/2-x,y,z
1/2+x,-y,z
x,1/2+y,1/2+z
-x,1/2-y,1/2+z
1/2-x,1/2+y,1/2+z
1/2+x,1/2-y,1/2+z
loop_
_atom_site_type_symbol
_atom_site_label
_atom_site_fract_x
_atom_site_fract_y
_atom_site_fract_z
Si Si1 0.020488 0.712495 0.535440
Si Si2 0.828542 0.081671 0.869992
Si Si3 0.326503 0.694765 0.075410
Si Si4 0.888790 0.546455 0.515323
Si Si5 0.559840 0.888330 0.814252
Si Si6 0.827443 0.394842 0.915228
Si Si7 0.056676 0.888273 0.409490
Si Si8 0.454420 0.639313 0.158150
O O1 0.081107 0.602436 0.539032
O O2 0.041655 0.844758 0.488448
O O3 0.955653 0.639720 0.499767
O O4 0.993822 0.749841 0.610490
O O5 0.750000 0.069648 0.856506
O O6 0.846089 0.250537 0.873756
O O7 0.873771 0.984242 0.821824
O O8 0.845760 0.029409 0.947012
O O9 0.250000 0.675328 0.096790
O O10 0.346517 0.861791 0.069395
O O11 0.382081 0.622251 0.122689
O O12 0.333089 0.642394 0.996441
O O13 0.557236 0.759190 0.867900
O O14 0.553958 0.825861 0.737828
O O15 0.500000 0.000000 0.827080
O O16 0.750000 0.424716 0.901213
O O17 0.874560 0.527332 0.901374
O O18 0.000000 0.000000 0.387336
O O19 0.500000 0.500000 0.155267
#
# Coordination Sequence:
#
# PCOD9362613 Si02
#       8
#     8   8   8   8   8   8   8   8
#     4  10  18  31  55  80 109 144 185 237 284 324
#     4  10  19  35  58  81 112 150 183 226 283 337
#     4   9  17  33  56  80 110 147 184 229 285 337
#     4   9  16  30  52  82 108 139 187 230 270 337
#     4  11  23  38  54  80 113 149 194 233 274 342
#     4   9  19  34  55  84 112 139 179 231 285 333
#     4  12  21  33  56  82 111 142 180 234 289 323
#     4  10  21  36  54  79 108 147 193 235 278 341
#
# _framework density 17.431971000000001
#
# number of rings (size 3 to 8) (size 9 to 14) (size 15 to 20)
#    0.000    2.000    1.250    6.000    0.000    1.000 
#    4.500    0.000    0.000    0.750    0.000    0.000 
#    0.000    0.000    0.000    0.000    0.000    0.000 
#
# Total GULP energy -178394.527272 kJ/mol
# GULP energy per Si atom -5574.828977 kJ/mol
# Density = 1.739229 g / cm^3
# Si number density = 17.431971 Si / 1000 Ang^3
#
#
#
# Elastic Constant Matrix: (Units=GPa)
#
#
# Indices 1 2 3 4 5 6 
#
# 1 87.3207 51.1708 28.8195 0.0000 0.0000 0.0000
# 2 51.1708 81.2135 33.9160 0.0000 0.0000 0.0000
# 3 28.8195 33.9160 69.3518 0.0000 0.0000 0.0000
# 4 0.0000 0.0000 0.0000 16.5985 0.0000 0.0000
# 5 0.0000 0.0000 0.0000 0.0000 14.5983 0.0000
# 6 0.0000 0.0000 0.0000 0.0000 0.0000 33.0702
#
#
#
# Elastic Compliance Matrix: (Units=1/GPa)
#
#
# Indices 1 2 3 4 5 6 
#
# 1 0.018493 -0.010610 -0.002496 0.000000 0.000000 0.000000
# 2 -0.010610 0.021560 -0.006135 0.000000 0.000000 0.000000
# 3 -0.002496 -0.006135 0.018457 0.000000 0.000000 0.000000
# 4 0.000000 0.000000 0.000000 0.060246 0.000000 0.000000
# 5 0.000000 0.000000 0.000000 0.000000 0.068501 0.000000
# 6 0.000000 0.000000 0.000000 0.000000 0.000000 0.030239
#
#
# Mechanical properties :
#
#
# Convention : Reuss Voigt Hill
#
# Bulk Modulus (GPa) = 49.92930 51.74430 50.83680
# Shear Modulus (GPa) = 19.03639 21.11872 20.07756
#
# Velocity S-wave (km/s) = 3.30819 3.48443 3.39745
# Velocity P-wave (km/s) = 6.58002 6.77763 6.67956
#
# Compressibility (1/GPa) = 0.02002832
#
# Stress axis : x y z
#
# Youngs Moduli (GPa) = 54.07349 46.38168 54.18033
#
# Poissons Ratio (x) = 0.49210 0.13526
# Poissons Ratio (y) = 0.57370 0.33239
# Poissons Ratio (z) = 0.13499 0.28455
#
# Static dielectric constant tensor:
#      x y z
#    x 1.603210 0.000000 0.000000 
#    y 0.000000 1.605050 0.000000 
#    z 0.000000 0.000000 1.593260 
# 
# From -- ./inp_files/23590.got.cif
#   From: 2010.05.17/outbox.cif.g08.bks.cpg/sg40_12_cif.got.tgz:23590.got - 2010.06.03 18:35:42.
