data_PCOD9362716
_publ_section_title
;
Structure prediction by ZEFSAII (Michael W. Deem and Ramdas Pophale) SiO2 
 PCOD9362716
Probable space group: A M A 2
;
_chemical_formula_sum "Si O2"
_cell_formula_units_Z 64
_cell_length_a 7.715820
_cell_length_b 24.414930
_cell_length_c 16.023099
_cell_angle_alpha 90.000000
_cell_angle_beta 90.000000
_cell_angle_gamma 90.000000
_cell_volume 3018.450701
_symmetry_space_group_name_H-M "A M A 2"
_symmetry_group_IT_number 40
_symmetry_cell_setting 'orthorhombic'
loop_
_space_group_symop_operation_xyz
x,y,z
-x,-y,z
1/2-x,y,z
1/2+x,-y,z
x,1/2+y,1/2+z
-x,1/2-y,1/2+z
1/2-x,1/2+y,1/2+z
1/2+x,1/2-y,1/2+z
loop_
_atom_site_type_symbol
_atom_site_label
_atom_site_fract_x
_atom_site_fract_y
_atom_site_fract_z
Si Si1 0.956835 0.436149 0.146610
Si Si2 0.460027 0.255867 0.038954
Si Si3 0.953296 0.136450 0.805089
Si Si4 0.547099 0.876080 0.482350
Si Si5 0.537266 0.869578 0.298400
Si Si6 0.954001 0.361930 0.486832
Si Si7 0.538854 0.250893 0.734127
Si Si8 0.041488 0.063616 0.137425
O O1 0.750000 0.429628 0.146772
O O2 0.000000 0.500000 0.149163
O O3 0.021569 0.404293 0.228075
O O4 0.028027 0.408256 0.061800
O O5 0.250000 0.259709 0.034173
O O6 0.532112 0.311421 0.000383
O O7 0.522035 0.200222 0.994599
O O8 0.508570 0.251377 0.136558
O O9 0.750000 0.143189 0.818872
O O10 0.025655 0.196121 0.779418
O O11 0.026728 0.116894 0.893141
O O12 0.750000 0.890838 0.478871
O O13 0.474781 0.886648 0.390098
O O14 0.750000 0.869425 0.299733
O O15 0.483202 0.807519 0.276222
O O16 0.480304 0.909067 0.223675
O O17 0.750000 0.356831 0.504690
O O18 0.025830 0.401720 0.558237
O O19 0.750000 0.250283 0.735995
O O20 0.250000 0.068328 0.137882
O O21 0.000000 0.000000 0.131296
#
# Coordination Sequence:
#
# PCOD9362716 Si02
#       8
#     8   8   8   8   8   8   8   8
#     4  11  24  41  59  82 113 151 194 241 288 338
#     4  10  18  33  58  85 115 151 188 228 279 341
#     4  11  22  37  61  88 115 148 187 236 289 344
#     4  10  21  36  58  87 117 148 185 234 285 337
#     4   9  17  34  58  83 112 149 188 221 272 340
#     4  10  21  37  58  84 116 153 190 230 281 341
#     4   9  16  30  56  85 112 146 184 221 272 339
#     4  10  21  38  59  80 108 148 190 233 275 326
#
# _framework density 21.202931
#
# number of rings (size 3 to 8) (size 9 to 14) (size 15 to 20)
#    0.000    2.000    2.500    1.500    0.000    3.500 
#    0.000    1.875    0.000    1.500    0.000    0.000 
#    0.000    0.000    0.000    0.000    0.000    0.000 
#
# Total GULP energy -178778.911489 kJ/mol
# GULP energy per Si atom -5586.840984 kJ/mol
# Density = 2.115467 g / cm^3
# Si number density = 21.202931 Si / 1000 Ang^3
#
#
#
# Elastic Constant Matrix: (Units=GPa)
#
#
# Indices 1 2 3 4 5 6 
#
# 1 30.6601 -13.9303 -10.4698 0.0000 0.0000 0.0000
# 2 -13.9303 123.9542 56.8822 0.0000 0.0000 0.0000
# 3 -10.4698 56.8822 160.8016 0.0000 0.0000 0.0000
# 4 0.0000 0.0000 0.0000 1.6454 0.0000 0.0000
# 5 0.0000 0.0000 0.0000 0.0000 7.6170 0.0000
# 6 0.0000 0.0000 0.0000 0.0000 0.0000 19.1027
#
#
#
# Elastic Compliance Matrix: (Units=1/GPa)
#
#
# Indices 1 2 3 4 5 6 
#
# 1 0.034517 0.003400 0.001045 0.000000 0.000000 0.000000
# 2 0.003400 0.009966 -0.003304 0.000000 0.000000 0.000000
# 3 0.001045 -0.003304 0.007456 0.000000 0.000000 0.000000
# 4 0.000000 0.000000 0.000000 0.607761 0.000000 0.000000
# 5 0.000000 0.000000 0.000000 0.000000 0.131286 0.000000
# 6 0.000000 0.000000 0.000000 0.000000 0.000000 0.052349
#
#
# Mechanical properties :
#
#
# Convention : Reuss Voigt Hill
#
# Bulk Modulus (GPa) = 18.44355 42.26445 30.35400
# Shear Modulus (GPa) = 5.81987 24.53528 15.17757
#
# Velocity S-wave (km/s) = 1.65855 3.40540 2.67839
# Velocity P-wave (km/s) = 3.51926 5.95306 4.89000
#
# Compressibility (1/GPa) = 0.05421949
#
# Stress axis : x y z
#
# Youngs Moduli (GPa) = 28.97117 100.34393 134.12721
#
# Poissons Ratio (x) = -0.34114 -0.14014
# Poissons Ratio (y) = -0.09849 0.44315
# Poissons Ratio (z) = -0.03027 0.33153
#
# Static dielectric constant tensor:
#      x y z
#    x 1.783770 0.000000 0.000000 
#    y 0.000000 1.723540 0.000000 
#    z 0.000000 0.000000 1.767380 
# 
# From -- ./inp_files/15556.got.cif
#   From: 2010.05.17/outbox.cif.g08.bks.cpg/sg40_8_cif.got.tgz:15556.got - 2010.06.03 18:35:42.
