data_PCOD9362597
_publ_section_title
;
Structure prediction by ZEFSAII (Michael W. Deem and Ramdas Pophale) SiO2 
 PCOD9362597
Probable space group: A M A 2
;
_chemical_formula_sum "Si O2"
_cell_formula_units_Z 64
_cell_length_a 17.073581
_cell_length_b 8.553089
_cell_length_c 22.309204
_cell_angle_alpha 90.000000
_cell_angle_beta 90.000000
_cell_angle_gamma 90.000000
_cell_volume 3257.854507
_symmetry_space_group_name_H-M "A M A 2"
_symmetry_group_IT_number 40
_symmetry_cell_setting 'orthorhombic'
loop_
_space_group_symop_operation_xyz
x,y,z
-x,-y,z
1/2-x,y,z
1/2+x,-y,z
x,1/2+y,1/2+z
-x,1/2-y,1/2+z
1/2-x,1/2+y,1/2+z
1/2+x,1/2-y,1/2+z
loop_
_atom_site_type_symbol
_atom_site_label
_atom_site_fract_x
_atom_site_fract_y
_atom_site_fract_z
Si Si1 0.108735 0.733500 0.578680
Si Si2 0.339621 0.000110 0.983961
Si Si3 0.963639 0.779113 0.490475
Si Si4 0.944955 0.845436 0.885444
Si Si5 0.335781 0.064387 0.549340
Si Si6 0.659444 0.313419 0.181400
Si Si7 0.070147 0.884764 0.696143
Si Si8 0.035239 0.325826 0.767072
O O1 0.151895 0.591670 0.546828
O O2 0.089082 0.749351 0.648462
O O3 0.027437 0.748829 0.541901
O O4 0.161677 0.885927 0.569248
O O5 0.250000 0.957432 0.973748
O O6 0.373155 0.101327 0.928070
O O7 0.399659 0.858568 0.989722
O O8 0.909256 0.924105 0.505481
O O9 0.005354 0.771783 0.427171
O O10 0.925266 0.750543 0.825772
O O11 0.000000 0.000000 0.875074
O O12 0.250000 0.103132 0.524811
O O13 0.349819 0.168119 0.609205
O O14 0.750000 0.274608 0.193306
O O15 0.638574 0.489100 0.205511
O O16 0.597570 0.197453 0.212701
O O17 0.035592 0.795232 0.752729
O O18 0.000000 0.000000 0.672279
O O19 0.000000 0.500000 0.772827
#
# Coordination Sequence:
#
# PCOD9362597 Si02
#       8
#     8   8   8   8   8   8   8   8
#     4  10  18  31  52  79 108 142 176 213 260 318
#     4  10  21  35  52  79 109 139 178 224 270 317
#     4  10  19  33  53  76 104 141 179 217 264 318
#     4   9  20  37  55  72  99 142 189 223 260 321
#     4  10  19  32  53  83 112 139 175 219 265 316
#     4   9  19  36  58  81 109 146 183 218 267 328
#     4   9  18  34  56  79 107 145 188 219 253 318
#     4  11  22  36  56  83 109 138 179 231 280 326
#
# _framework density 19.644829999999999
#
# number of rings (size 3 to 8) (size 9 to 14) (size 15 to 20)
#    0.000    2.250    0.000    5.625    0.000    5.000 
#    0.000    1.250    0.000    4.500    0.000    0.000 
#    0.000    0.000    0.000    0.000    0.000    0.000 
#
# Total GULP energy -178305.056094 kJ/mol
# GULP energy per Si atom -5572.033003 kJ/mol
# Density = 1.960012 g / cm^3
# Si number density = 19.644830 Si / 1000 Ang^3
#
#
#
# Elastic Constant Matrix: (Units=GPa)
#
#
# Indices 1 2 3 4 5 6 
#
# 1 97.5444 9.4549 8.0732 0.0000 0.0000 0.0000
# 2 9.4549 41.1324 14.6494 0.0000 0.0000 0.0000
# 3 8.0732 14.6494 40.2582 0.0000 0.0000 0.0000
# 4 0.0000 0.0000 0.0000 24.9407 0.0000 0.0000
# 5 0.0000 0.0000 0.0000 0.0000 13.2254 0.0000
# 6 0.0000 0.0000 0.0000 0.0000 0.0000 10.7351
#
#
#
# Elastic Compliance Matrix: (Units=1/GPa)
#
#
# Indices 1 2 3 4 5 6 
#
# 1 0.010555 -0.001921 -0.001418 0.000000 0.000000 0.000000
# 2 -0.001921 0.028281 -0.009906 0.000000 0.000000 0.000000
# 3 -0.001418 -0.009906 0.028729 0.000000 0.000000 0.000000
# 4 0.000000 0.000000 0.000000 0.040095 0.000000 0.000000
# 5 0.000000 0.000000 0.000000 0.000000 0.075612 0.000000
# 6 0.000000 0.000000 0.000000 0.000000 0.000000 0.093152
#
#
# Mechanical properties :
#
#
# Convention : Reuss Voigt Hill
#
# Bulk Modulus (GPa) = 24.34539 27.03223 25.68881
# Shear Modulus (GPa) = 15.79247 19.56406 17.67827
#
# Velocity S-wave (km/s) = 2.83839 3.15919 3.00308
# Velocity P-wave (km/s) = 4.81265 5.20554 5.01295
#
# Compressibility (1/GPa) = 0.04107553
#
# Stress axis : x y z
#
# Youngs Moduli (GPa) = 94.73905 35.35883 34.80852
#
# Poissons Ratio (x) = 0.06794 0.04934
# Poissons Ratio (y) = 0.18204 0.34481
# Poissons Ratio (z) = 0.13430 0.35026
#
# Static dielectric constant tensor:
#      x y z
#    x 1.709650 0.000000 0.000000 
#    y 0.000000 1.754140 0.000000 
#    z 0.000000 0.000000 1.707750 
# 
# From -- ./inp_files/23354.got.cif
#   From: 2010.05.17/outbox.cif.g08.bks.cpg/sg40_12_cif.got.tgz:23354.got - 2010.06.03 18:35:42.
