data_PCOD9362303
_publ_section_title
;
Structure prediction by ZEFSAII (Michael W. Deem and Ramdas Pophale) SiO2 
 PCOD9362303
Probable space group: A M A 2
;
_chemical_formula_sum "Si O2"
_cell_formula_units_Z 48
_cell_length_a 8.878003
_cell_length_b 32.194597
_cell_length_c 8.977153
_cell_angle_alpha 90.000000
_cell_angle_beta 90.000000
_cell_angle_gamma 90.000000
_cell_volume 2565.883344
_symmetry_space_group_name_H-M "A M A 2"
_symmetry_group_IT_number 40
_symmetry_cell_setting 'orthorhombic'
loop_
_space_group_symop_operation_xyz
x,y,z
-x,-y,z
1/2-x,y,z
1/2+x,-y,z
x,1/2+y,1/2+z
-x,1/2-y,1/2+z
1/2-x,1/2+y,1/2+z
1/2+x,1/2-y,1/2+z
loop_
_atom_site_type_symbol
_atom_site_label
_atom_site_fract_x
_atom_site_fract_y
_atom_site_fract_z
Si Si1 0.428298 0.626832 0.388470
Si Si2 0.073860 0.786849 0.386477
Si Si3 0.926290 0.706850 0.532697
Si Si4 0.929727 0.541817 0.376764
Si Si5 0.928843 0.366490 0.033854
Si Si6 0.069138 0.041287 0.543049
O O1 0.250000 0.619891 0.403883
O O2 0.480802 0.667655 0.473671
O O3 0.514945 0.585568 0.442092
O O4 0.458434 0.633706 0.211807
O O5 0.250000 0.780309 0.419416
O O6 0.054104 0.788207 0.209218
O O7 0.981105 0.748832 0.454413
O O8 0.019590 0.830223 0.455538
O O9 0.750000 0.699893 0.501043
O O10 0.750000 0.539103 0.373470
O O11 0.000000 0.500000 0.446434
O O12 0.996043 0.542782 0.208067
O O13 0.750000 0.359393 0.013797
O O14 0.963428 0.413213 0.976605
O O15 0.250000 0.037358 0.557088
O O16 0.000000 0.000000 0.469343
#
# Coordination Sequence:
#
# PCOD9362303 Si02
#       6
#     8   8   8   8   8   8
#     4  10  20  35  55  81 110 141 180 223 267 316
#     4  11  24  39  57  81 107 138 177 219 264 319
#     4  11  24  40  57  80 108 137 174 219 266 320
#     4  10  17  27  46  74 108 144 180 220 265 310
#     4   9  19  34  53  79 110 141 177 221 265 314
#     4   9  16  27  45  73 107 141 179 222 265 311
#
# _framework density 18.707007999999998
#
# number of rings (size 3 to 8) (size 9 to 14) (size 15 to 20)
#    0.000    2.000    0.000    6.500    0.000   10.667 
#    0.000    0.000    0.000    1.000    0.000    2.333 
#    0.000    0.000    0.000    0.000    0.000    0.000 
#
# Total GULP energy -133951.483882 kJ/mol
# GULP energy per Si atom -5581.311828 kJ/mol
# Density = 1.866443 g / cm^3
# Si number density = 18.707008 Si / 1000 Ang^3
#
#
#
# Elastic Constant Matrix: (Units=GPa)
#
#
# Indices 1 2 3 4 5 6 
#
# 1 84.9005 50.5205 27.1544 0.0000 0.0000 0.0000
# 2 50.5205 134.3773 15.1557 0.0000 0.0000 0.0000
# 3 27.1544 15.1557 10.8495 0.0000 0.0000 0.0000
# 4 0.0000 0.0000 0.0000 16.5147 0.0000 0.0000
# 5 0.0000 0.0000 0.0000 0.0000 20.6438 0.0000
# 6 0.0000 0.0000 0.0000 0.0000 0.0000 42.8159
#
#
#
# Elastic Compliance Matrix: (Units=1/GPa)
#
#
# Indices 1 2 3 4 5 6 
#
# 1 0.064359 -0.007157 -0.151082 0.000000 0.000000 0.000000
# 2 -0.007157 0.009629 0.004461 0.000000 0.000000 0.000000
# 3 -0.151082 0.004461 0.464071 0.000000 0.000000 0.000000
# 4 0.000000 0.000000 0.000000 0.060552 0.000000 0.000000
# 5 0.000000 0.000000 0.000000 0.000000 0.048441 0.000000
# 6 0.000000 0.000000 0.000000 0.000000 0.000000 0.023356
#
#
# Mechanical properties :
#
#
# Convention : Reuss Voigt Hill
#
# Bulk Modulus (GPa) = 4.33833 46.19872 25.26852
# Shear Modulus (GPa) = 4.74025 25.14801 14.94413
#
# Velocity S-wave (km/s) = 1.59356 3.67046 2.82946
# Velocity P-wave (km/s) = 2.38957 6.53549 4.92050
#
# Compressibility (1/GPa) = 0.23050344
#
# Stress axis : x y z
#
# Youngs Moduli (GPa) = 15.53790 103.85032 2.15484
#
# Poissons Ratio (x) = 0.74322 0.32556
# Poissons Ratio (y) = 0.11120 -0.00961
# Poissons Ratio (z) = 2.34749 -0.46326
#
# Static dielectric constant tensor:
#      x y z
#    x 1.636120 0.000000 0.000000 
#    y 0.000000 1.677890 0.000000 
#    z 0.000000 0.000000 1.636060 
# 
# From -- ./inp_files/4638.got.cif
#   From: 2010.05.17/outbox.cif.g08.bks.cpg/sg40_3_cif.got.tgz:4638.got - 2010.06.03 18:35:42.
