data_PCOD9362170
_publ_section_title
;
Structure prediction by ZEFSAII (Michael W. Deem and Ramdas Pophale) SiO2 
 PCOD9362170
Probable space group: A B M 2
;
_chemical_formula_sum "Si O2"
_cell_formula_units_Z 28
_cell_length_a 18.000000
_cell_length_b 9.000000
_cell_length_c 21.000000
_cell_angle_alpha 90.000000
_cell_angle_beta 90.000000
_cell_angle_gamma 90.000000
_cell_volume 3402.000000
_symmetry_space_group_name_H-M "A B M 2"
_symmetry_group_IT_number 39
_symmetry_cell_setting 'orthorhombic'
loop_
_space_group_symop_operation_xyz
x,y,z
-x,-y,z
-x,1/2+y,z
x,1/2-y,z
x,1/2+y,1/2+z
-x,1/2-y,1/2+z
-x,y,1/2+z
x,-y,1/2+z
loop_
_atom_site_type_symbol
_atom_site_label
_atom_site_fract_x
_atom_site_fract_y
_atom_site_fract_z
Si Si1 0.312595 0.420927 0.288820
Si Si2 0.078550 0.427888 0.836859
Si Si3 0.140835 0.071412 0.975994
Si Si4 0.420372 0.426627 0.876474
Si Si5 0.286101 0.577856 0.932317
Si Si6 0.186489 0.427618 0.719463
Si Si7 0.078184 0.928582 0.103499
O O1 0.333391 0.250000 0.277689
O O2 0.382831 0.519659 0.309910
O O3 0.266932 0.424044 0.356262
O O4 0.262946 0.487490 0.233103
O O5 0.072007 0.250000 0.837073
O O6 0.104763 0.470612 0.907881
O O7 0.134149 0.465320 0.779651
O O8 0.000000 0.500000 0.823497
O O9 0.139550 0.250000 0.982039
O O10 0.224543 0.009700 0.971216
O O11 0.099671 0.995860 0.035058
O O12 0.500000 0.500000 0.882635
O O13 0.422589 0.250000 0.879820
O O14 0.365073 0.494884 0.929784
O O15 0.291516 0.750000 0.951546
O O16 0.199658 0.250000 0.720633
O O17 0.142142 0.463916 0.655126
O O18 0.071182 0.750000 0.099759
O O19 0.000000 0.000000 0.123907
#
# Coordination Sequence:
#
# PCOD9362170 Si02
#       7
#     8   8   8   8   8   8   8
#     4   9  18  30  49  76 103 133 169 210 254 305
#     4  10  20  31  47  69  91 120 161 206 258 311
#     4  11  21  35  54  73  99 135 172 217 266 316
#     4  10  17  28  47  76 114 146 173 210 258 309
#     4   9  18  31  49  76 104 133 170 210 255 306
#     4  10  20  36  53  71  98 133 171 216 266 315
#     4  11  24  39  54  73 102 138 178 225 273 322
#
# _framework density 8.2304530000000007
#
# number of rings (size 3 to 8) (size 9 to 14) (size 15 to 20)
#    0.857    1.143    1.429    3.429    0.000    4.000 
#    0.000    0.000    0.000    0.000    0.000    1.000 
#    0.000    6.857    0.000    0.000    0.000    0.000 
#
# Total GULP energy -155940.072758 kJ/mol
# GULP energy per Si atom -5569.288313 kJ/mol
# Density = 0.821172 g / cm^3
# Si number density = 8.230453 Si / 1000 Ang^3
#
#
#
# Elastic Constant Matrix: (Units=GPa)
#
#
# Indices 1 2 3 4 5 6 
#
# 1 49.7356 14.2235 -20.1627 0.0000 0.0000 0.0000
# 2 14.2235 55.8579 1.0874 0.0000 0.0000 0.0000
# 3 -20.1627 1.0874 28.6835 0.0000 0.0000 0.0000
# 4 0.0000 0.0000 0.0000 21.4891 0.0000 0.0000
# 5 0.0000 0.0000 0.0000 0.0000 19.4342 0.0000
# 6 0.0000 0.0000 0.0000 0.0000 0.0000 30.5821
#
#
#
# Elastic Compliance Matrix: (Units=1/GPa)
#
#
# Indices 1 2 3 4 5 6 
#
# 1 0.031708 -0.008514 0.022611 0.000000 0.000000 0.000000
# 2 -0.008514 0.020202 -0.006751 0.000000 0.000000 0.000000
# 3 0.022611 -0.006751 0.051013 0.000000 0.000000 0.000000
# 4 0.000000 0.000000 0.000000 0.046535 0.000000 0.000000
# 5 0.000000 0.000000 0.000000 0.000000 0.051456 0.000000
# 6 0.000000 0.000000 0.000000 0.000000 0.000000 0.032699
#
#
# Mechanical properties :
#
#
# Convention : Reuss Voigt Hill
#
# Bulk Modulus (GPa) = 8.50224 13.84149 11.17187
# Shear Modulus (GPa) = 19.37042 23.57633 21.47337
#
# Velocity S-wave (km/s) = 3.43410 3.78863 3.61571
# Velocity P-wave (km/s) = 4.57170 5.25026 4.92269
#
# Compressibility (1/GPa) = 0.11761601
#
# Stress axis : x y z
#
# Youngs Moduli (GPa) = 31.53801 49.50006 19.60269
#
# Poissons Ratio (x) = 0.42145 -0.44324
# Poissons Ratio (y) = 0.26852 0.13233
# Poissons Ratio (z) = -0.71312 0.33416
#
# Static dielectric constant tensor:
#      x y z
#    x 1.565140 0.000000 0.000000 
#    y 0.000000 1.546030 0.000000 
#    z 0.000000 0.000000 1.542330 
# 
# From -- ./inp_files/14949.got.cif
#   From: 2010.05.17/outbox.ucp.g08.bks.cvg/sg39_8_cif.got.tgz:14949.got - 2010.06.11 10:41:16.
