data_PCOD9362118
_publ_section_title
;
Structure prediction by ZEFSAII (Michael W. Deem and Ramdas Pophale) SiO2 
 PCOD9362118
Probable space group: A B M 2
;
_chemical_formula_sum "Si O2"
_cell_formula_units_Z 48
_cell_length_a 13.197592
_cell_length_b 17.410466
_cell_length_c 10.059261
_cell_angle_alpha 90.000000
_cell_angle_beta 90.000000
_cell_angle_gamma 90.000000
_cell_volume 2311.379037
_symmetry_space_group_name_H-M "A B M 2"
_symmetry_group_IT_number 39
_symmetry_cell_setting 'orthorhombic'
loop_
_space_group_symop_operation_xyz
x,y,z
-x,-y,z
-x,1/2+y,z
x,1/2-y,z
x,1/2+y,1/2+z
-x,1/2-y,1/2+z
-x,y,1/2+z
x,-y,1/2+z
loop_
_atom_site_type_symbol
_atom_site_label
_atom_site_fract_x
_atom_site_fract_y
_atom_site_fract_z
Si Si1 0.559113 0.080354 0.910730
Si Si2 0.787151 0.884638 0.795537
Si Si3 0.844775 0.662036 0.084598
Si Si4 0.792043 0.437132 0.835028
Si Si5 0.917655 0.661244 0.545366
Si Si6 0.433488 0.341143 0.690599
O O1 0.678490 0.068001 0.891746
O O2 0.517261 0.137136 0.798601
O O3 0.500000 0.000000 0.898335
O O4 0.539787 0.117652 0.053363
O O5 0.861387 0.848227 0.686311
O O6 0.673728 0.874380 0.741221
O O7 0.815777 0.973681 0.813554
O O8 0.795136 0.846895 0.940164
O O9 0.834917 0.750000 0.130479
O O10 0.799075 0.605841 0.194113
O O11 0.963923 0.644766 0.065232
O O12 0.866651 0.395033 0.938417
O O13 0.907197 0.750000 0.500615
O O14 0.424125 0.250000 0.672891
#
# Coordination Sequence:
#
# PCOD9362118 Si02
#       6
#     8   8   8   8   8   8
#     4  12  27  48  72 101 139 182 231 290 350 412
#     4  12  25  43  68 100 138 180 228 285 345 408
#     4  11  26  44  70 104 140 182 230 284 342 414
#     4  12  26  44  71 103 139 185 230 282 344 413
#     4  11  24  46  70  99 141 185 231 285 343 405
#     4  12  27  46  71 101 135 179 231 290 350 415
#
# _framework density 20.766822000000001
#
# number of rings (size 3 to 8) (size 9 to 14) (size 15 to 20)
#    0.000    0.333    3.333    5.000    2.333    8.667 
#    0.000    0.000    0.000    0.000    0.000    0.000 
#    0.000    0.000    0.000    0.000    0.000    0.000 
#
# Total GULP energy -134462.180099 kJ/mol
# GULP energy per Si atom -5602.590837 kJ/mol
# Density = 2.071956 g / cm^3
# Si number density = 20.766822 Si / 1000 Ang^3
#
#
#
# Elastic Constant Matrix: (Units=GPa)
#
#
# Indices 1 2 3 4 5 6 
#
# 1 28.0276 11.2838 -4.6607 0.0000 0.0000 0.0000
# 2 11.2838 79.5341 -8.3398 0.0000 0.0000 0.0000
# 3 -4.6607 -8.3398 76.8976 0.0000 0.0000 0.0000
# 4 0.0000 0.0000 0.0000 35.6353 0.0000 0.0000
# 5 0.0000 0.0000 0.0000 0.0000 37.0804 0.0000
# 6 0.0000 0.0000 0.0000 0.0000 0.0000 10.9906
#
#
#
# Elastic Compliance Matrix: (Units=1/GPa)
#
#
# Indices 1 2 3 4 5 6 
#
# 1 0.038070 -0.005218 0.001741 0.000000 0.000000 0.000000
# 2 -0.005218 0.013433 0.001141 0.000000 0.000000 0.000000
# 3 0.001741 0.001141 0.013234 0.000000 0.000000 0.000000
# 4 0.000000 0.000000 0.000000 0.028062 0.000000 0.000000
# 5 0.000000 0.000000 0.000000 0.000000 0.026968 0.000000
# 6 0.000000 0.000000 0.000000 0.000000 0.000000 0.090987
#
#
# Mechanical properties :
#
#
# Convention : Reuss Voigt Hill
#
# Bulk Modulus (GPa) = 16.64907 20.11399 18.38153
# Shear Modulus (GPa) = 21.23614 29.15300 25.19457
#
# Velocity S-wave (km/s) = 3.20128 3.75083 3.48690
# Velocity P-wave (km/s) = 4.65820 5.33526 5.00818
#
# Compressibility (1/GPa) = 0.06006340
#
# Stress axis : x y z
#
# Youngs Moduli (GPa) = 26.26767 74.44250 75.56552
#
# Poissons Ratio (x) = 0.38848 -0.13159
# Poissons Ratio (y) = 0.13708 -0.08619
# Poissons Ratio (z) = -0.04574 -0.08491
#
# Static dielectric constant tensor:
#      x y z
#    x 1.712680 0.000000 0.000000 
#    y 0.000000 1.717460 0.000000 
#    z 0.000000 0.000000 1.710980 
# 
# From -- ./inp_files/3216.got.cif
#   From: 2010.05.17/outbox.cif.g08.bks.cpg/sg39_2_cif.got.tgz:3216.got - 2010.06.03 18:22:40.
