data_PCOD9362121
_publ_section_title
;
Structure prediction by ZEFSAII (Michael W. Deem and Ramdas Pophale) SiO2 
 PCOD9362121
Probable space group: A B M 2
;
_chemical_formula_sum "Si O2"
_cell_formula_units_Z 48
_cell_length_a 5.101773
_cell_length_b 27.335475
_cell_length_c 13.815191
_cell_angle_alpha 90.000000
_cell_angle_beta 90.000000
_cell_angle_gamma 90.000000
_cell_volume 1926.658086
_symmetry_space_group_name_H-M "A B M 2"
_symmetry_group_IT_number 39
_symmetry_cell_setting 'orthorhombic'
loop_
_space_group_symop_operation_xyz
x,y,z
-x,-y,z
-x,1/2+y,z
x,1/2-y,z
x,1/2+y,1/2+z
-x,1/2-y,1/2+z
-x,y,1/2+z
x,-y,1/2+z
loop_
_atom_site_type_symbol
_atom_site_label
_atom_site_fract_x
_atom_site_fract_y
_atom_site_fract_z
Si Si1 0.299896 0.250000 0.911470
Si Si2 0.000000 0.000000 0.038391
Si Si3 0.500000 0.500000 0.160528
Si Si4 0.686327 0.590380 0.771250
Si Si5 0.338356 0.831725 0.826909
Si Si6 0.023059 0.393388 0.966572
Si Si7 0.964196 0.663329 0.150931
Si Si8 0.786308 0.250000 0.039568
O O1 0.413922 0.202000 0.856036
O O2 0.997690 0.250000 0.947622
O O3 0.487250 0.250000 0.005649
O O4 0.740861 0.981994 0.095165
O O5 0.909557 0.052187 0.990565
O O6 0.358371 0.537898 0.230101
O O7 0.418270 0.619509 0.769487
O O8 0.777818 0.594105 0.880956
O O9 0.876322 0.620541 0.702990
O O10 0.180812 0.854237 0.918015
O O11 0.177244 0.808081 0.739058
O O12 0.155370 0.364614 0.056710
O O13 0.153797 0.702932 0.102799
#
# Coordination Sequence:
#
# PCOD9362121 Si02
#       8
#     4   4   4   8   8   8   8   4
#     4  12  27  49  76 115 150 200 258 314 387 460
#     4  12  28  48  78 108 152 204 256 320 384 466
#     4  12  28  50  76 116 152 202 262 318 392 458
#     4  11  27  44  77 106 159 198 259 323 385 458
#     4  11  26  45  74 110 153 200 253 325 377 464
#     4  11  25  46  73 109 149 203 256 316 386 457
#     4  11  24  49  72 112 150 205 256 318 390 460
#     4  12  27  47  82 109 150 204 254 312 385 468
#
# _framework density 24.913605
#
# number of rings (size 3 to 8) (size 9 to 14) (size 15 to 20)
#    0.000    0.667    3.333    2.500   11.667    2.000 
#    0.000    0.000    0.000    0.000    0.000    0.000 
#    0.000    0.000    0.000    0.000    0.000    0.000 
#
# Total GULP energy -134023.543686 kJ/mol
# GULP energy per Si atom -5584.314320 kJ/mol
# Density = 2.485690 g / cm^3
# Si number density = 24.913605 Si / 1000 Ang^3
#
#
#
# Elastic Constant Matrix: (Units=GPa)
#
#
# Indices 1 2 3 4 5 6 
#
# 1 62.1875 1.4358 22.6852 0.0000 0.0000 0.0000
# 2 1.4358 110.4958 28.1059 0.0000 0.0000 0.0000
# 3 22.6852 28.1059 122.5386 0.0000 0.0000 0.0000
# 4 0.0000 0.0000 0.0000 45.3706 0.0000 0.0000
# 5 0.0000 0.0000 0.0000 0.0000 17.9847 0.0000
# 6 0.0000 0.0000 0.0000 0.0000 0.0000 35.8287
#
#
#
# Elastic Compliance Matrix: (Units=1/GPa)
#
#
# Indices 1 2 3 4 5 6 
#
# 1 0.017286 0.000626 -0.003344 0.000000 0.000000 0.000000
# 2 0.000626 0.009633 -0.002325 0.000000 0.000000 0.000000
# 3 -0.003344 -0.002325 0.009313 0.000000 0.000000 0.000000
# 4 0.000000 0.000000 0.000000 0.022041 0.000000 0.000000
# 5 0.000000 0.000000 0.000000 0.000000 0.055603 0.000000
# 6 0.000000 0.000000 0.000000 0.000000 0.000000 0.027911
#
#
# Mechanical properties :
#
#
# Convention : Reuss Voigt Hill
#
# Bulk Modulus (GPa) = 38.24694 44.40841 41.32768
# Shear Modulus (GPa) = 31.13555 36.03644 33.58599
#
# Velocity S-wave (km/s) = 3.53900 3.80736 3.67563
# Velocity P-wave (km/s) = 5.66432 6.09849 5.88541
#
# Compressibility (1/GPa) = 0.02614588
#
# Stress axis : x y z
#
# Youngs Moduli (GPa) = 57.85142 103.80450 107.37612
#
# Poissons Ratio (x) = -0.06497 0.35902
# Poissons Ratio (y) = -0.03621 0.24970
# Poissons Ratio (z) = 0.19343 0.24139
#
# Static dielectric constant tensor:
#      x y z
#    x 2.085560 0.000000 0.000000 
#    y 0.000000 2.171440 0.000000 
#    z 0.000000 0.000000 2.076610 
# 
# From -- ./inp_files/7601.got.cif
#   From: 2010.05.17/outbox.cif.g08.bks.cpg/sg39_4_cif.got.tgz:7601.got - 2010.06.03 18:22:40.
