data_PCOD9362636
_publ_section_title
;
Structure prediction by ZEFSAII (Michael W. Deem and Ramdas Pophale) SiO2 
 PCOD9362636
Probable space group: A M A 2
;
_chemical_formula_sum "Si O2"
_cell_formula_units_Z 64
_cell_length_a 7.827127
_cell_length_b 29.514976
_cell_length_c 13.494443
_cell_angle_alpha 90.000000
_cell_angle_beta 90.000000
_cell_angle_gamma 90.000000
_cell_volume 3117.452021
_symmetry_space_group_name_H-M "A M A 2"
_symmetry_group_IT_number 40
_symmetry_cell_setting 'orthorhombic'
loop_
_space_group_symop_operation_xyz
x,y,z
-x,-y,z
1/2-x,y,z
1/2+x,-y,z
x,1/2+y,1/2+z
-x,1/2-y,1/2+z
1/2-x,1/2+y,1/2+z
1/2+x,1/2-y,1/2+z
loop_
_atom_site_type_symbol
_atom_site_label
_atom_site_fract_x
_atom_site_fract_y
_atom_site_fract_z
Si Si1 0.953821 0.859512 0.443900
Si Si2 0.455683 0.552969 0.551681
Si Si3 0.447064 0.300206 0.300922
Si Si4 0.446677 0.216363 0.160304
Si Si5 0.040899 0.117411 0.228786
Si Si6 0.449504 0.742870 0.962733
Si Si7 0.545615 0.447138 0.330859
Si Si8 0.449461 0.378433 0.162814
O O1 0.750000 0.855553 0.432404
O O2 0.015233 0.885091 0.344229
O O3 0.023306 0.807583 0.448026
O O4 0.981438 0.882008 0.551313
O O5 0.500000 0.500000 0.561601
O O6 0.250000 0.556811 0.550098
O O7 0.518630 0.581227 0.646749
O O8 0.515071 0.568420 0.441206
O O9 0.250000 0.316030 0.316491
O O10 0.445931 0.250893 0.251020
O O11 0.528000 0.286180 0.404932
O O12 0.526123 0.336324 0.225908
O O13 0.250000 0.211019 0.127838
O O14 0.510726 0.167277 0.191041
O O15 0.543550 0.242813 0.075727
O O16 0.250000 0.115507 0.228985
O O17 0.250000 0.740475 0.933976
O O18 0.500000 0.500000 0.323976
O O19 0.750000 0.441890 0.327564
O O20 0.471645 0.420331 0.237301
O O21 0.250000 0.368913 0.147415
#
# Coordination Sequence:
#
# PCOD9362636 Si02
#       8
#     8   8   8   8   8   8   8   8
#     4  10  19  34  55  76 106 148 190 227 266 319
#     4   9  19  37  60  85 110 137 173 220 274 329
#     4   9  18  32  49  72 106 146 182 218 268 323
#     4  10  18  32  52  74 103 142 183 223 268 319
#     4   9  18  34  57  80 105 143 186 224 271 329
#     4  10  19  32  48  71 104 143 184 226 269 316
#     4  10  21  39  62  87 112 139 175 222 275 330
#     4  11  22  36  55  81 113 148 185 226 274 327
#
# _framework density 20.529585999999998
#
# number of rings (size 3 to 8) (size 9 to 14) (size 15 to 20)
#    0.000    2.250    2.500    0.750    1.750    0.500 
#    0.000    3.750    0.000    1.500    0.000    0.000 
#    0.000    0.000    0.000    0.000    0.000    0.000 
#
# Total GULP energy -178273.556616 kJ/mol
# GULP energy per Si atom -5571.048644 kJ/mol
# Density = 2.048286 g / cm^3
# Si number density = 20.529586 Si / 1000 Ang^3
#
#
#
# Elastic Constant Matrix: (Units=GPa)
#
#
# Indices 1 2 3 4 5 6 
#
# 1 21.7000 -8.1794 -3.4394 0.0000 0.0000 0.0000
# 2 -8.1794 62.4843 38.8214 0.0000 0.0000 0.0000
# 3 -3.4394 38.8214 119.1873 0.0000 0.0000 0.0000
# 4 0.0000 0.0000 0.0000 33.8216 0.0000 0.0000
# 5 0.0000 0.0000 0.0000 0.0000 14.5494 0.0000
# 6 0.0000 0.0000 0.0000 0.0000 0.0000 12.2812
#
#
#
# Elastic Compliance Matrix: (Units=1/GPa)
#
#
# Indices 1 2 3 4 5 6 
#
# 1 0.048541 0.006875 -0.000839 0.000000 0.000000 0.000000
# 2 0.006875 0.021038 -0.006654 0.000000 0.000000 0.000000
# 3 -0.000839 -0.006654 0.010533 0.000000 0.000000 0.000000
# 4 0.000000 0.000000 0.000000 0.029567 0.000000 0.000000
# 5 0.000000 0.000000 0.000000 0.000000 0.068732 0.000000
# 6 0.000000 0.000000 0.000000 0.000000 0.000000 0.081425
#
#
# Mechanical properties :
#
#
# Convention : Reuss Voigt Hill
#
# Bulk Modulus (GPa) = 12.67778 28.64186 20.65982
# Shear Modulus (GPa) = 17.39952 23.87503 20.63727
#
# Velocity S-wave (km/s) = 2.91440 3.41392 3.17400
# Velocity P-wave (km/s) = 4.18494 5.43337 4.84950
#
# Compressibility (1/GPa) = 0.07887813
#
# Stress axis : x y z
#
# Youngs Moduli (GPa) = 20.60093 47.53255 94.93684
#
# Poissons Ratio (x) = -0.32680 0.07962
# Poissons Ratio (y) = -0.14164 0.63172
# Poissons Ratio (z) = 0.01728 0.31629
#
# Static dielectric constant tensor:
#      x y z
#    x 1.761790 0.000000 0.000000 
#    y 0.000000 1.718660 0.000000 
#    z 0.000000 0.000000 1.801250 
# 
# From -- ./inp_files/10678.got.cif
#   From: 2010.05.17/outbox.cif.g08.bks.cpg/sg40_6_cif.got.tgz:10678.got - 2010.06.03 18:35:42.
