data_PCOD9362204
_publ_section_title
;
Structure prediction by ZEFSAII (Michael W. Deem and Ramdas Pophale) SiO2 
 PCOD9362204
Probable space group: A B M 2
;
_chemical_formula_sum "Si O2"
_cell_formula_units_Z 32
_cell_length_a 24.000000
_cell_length_b 9.000000
_cell_length_c 15.000000
_cell_angle_alpha 90.000000
_cell_angle_beta 90.000000
_cell_angle_gamma 90.000000
_cell_volume 3240.000000
_symmetry_space_group_name_H-M "A B M 2"
_symmetry_group_IT_number 39
_symmetry_cell_setting 'orthorhombic'
loop_
_space_group_symop_operation_xyz
x,y,z
-x,-y,z
-x,1/2+y,z
x,1/2-y,z
x,1/2+y,1/2+z
-x,1/2-y,1/2+z
-x,y,1/2+z
x,-y,1/2+z
loop_
_atom_site_type_symbol
_atom_site_label
_atom_site_fract_x
_atom_site_fract_y
_atom_site_fract_z
Si Si1 0.135343 0.577203 0.228710
Si Si2 0.555225 0.573381 0.304478
Si Si3 0.556747 0.427604 0.596564
Si Si4 0.733089 0.421594 0.208911
Si Si5 0.681642 0.574421 0.043032
Si Si6 0.942599 0.927925 0.570074
Si Si7 0.942244 0.573320 0.365356
Si Si8 0.675801 0.075227 0.868806
O O1 0.120374 0.750000 0.245215
O O2 0.201166 0.567397 0.222221
O O3 0.107180 0.531876 0.135546
O O4 0.108380 0.479934 0.305507
O O5 0.500000 0.500000 0.341469
O O6 0.548681 0.750000 0.304639
O O7 0.561745 0.526806 0.200923
O O8 0.610896 0.537206 0.356428
O O9 0.500000 0.500000 0.561142
O O10 0.550392 0.250000 0.592556
O O11 0.615970 0.464788 0.553340
O O12 0.715878 0.250000 0.224038
O O13 0.715399 0.475536 0.111962
O O14 0.703814 0.533833 0.276312
O O15 0.687639 0.750000 0.060366
O O16 0.700170 0.528472 0.944988
O O17 0.948633 0.750000 0.570457
O O18 0.933388 0.974391 0.467965
O O19 0.000000 0.000000 0.601910
O O20 0.947902 0.750000 0.362146
O O21 0.000000 0.500000 0.334011
O O22 0.681224 0.250000 0.889065
#
# Coordination Sequence:
#
# PCOD9362204 Si02
#       8
#     8   8   8   8   8   8   8   8
#     4  10  22  39  59  85 117 151 195 244 288 345
#     4   9  18  34  56  83 114 149 186 234 294 354
#     4   9  18  34  56  83 115 149 186 234 292 354
#     4  11  24  42  62  86 117 157 201 250 304 352
#     4  11  23  41  62  87 118 153 197 246 297 358
#     4   9  19  36  57  84 119 153 186 229 278 334
#     4  10  20  35  58  88 121 158 194 233 287 340
#     4  11  23  41  62  86 117 154 198 246 298 357
#
# _framework density 9.8765429999999999
#
# number of rings (size 3 to 8) (size 9 to 14) (size 15 to 20)
#    0.000    2.000    1.250    1.875    0.000    6.500 
#    0.000    3.750    0.000    0.000    0.000    0.000 
#    0.000    0.000    0.000    0.000    0.000    0.000 
#
# Total GULP energy -178627.994998 kJ/mol
# GULP energy per Si atom -5582.124844 kJ/mol
# Density = 0.985406 g / cm^3
# Si number density = 9.876543 Si / 1000 Ang^3
#
#
#
# Elastic Constant Matrix: (Units=GPa)
#
#
# Indices 1 2 3 4 5 6 
#
# 1 33.6014 23.1076 -1.4101 0.0000 0.0000 0.0000
# 2 23.1076 11.4624 11.6520 0.0000 0.0000 0.0000
# 3 -1.4101 11.6520 46.3816 0.0000 0.0000 0.0000
# 4 0.0000 0.0000 0.0000 24.8691 0.0000 0.0000
# 5 0.0000 0.0000 0.0000 0.0000 -748.9291 0.0000
# 6 0.0000 0.0000 0.0000 0.0000 0.0000 27.7708
#
#
#
# Elastic Compliance Matrix: (Units=1/GPa)
#
#
# Indices 1 2 3 4 5 6 
#
# 1 -0.032326 0.088860 -0.023306 0.000000 0.000000 0.000000
# 2 0.088860 -0.127100 0.034632 0.000000 0.000000 0.000000
# 3 -0.023306 0.034632 0.012151 0.000000 0.000000 0.000000
# 4 0.000000 0.000000 0.000000 0.040210 0.000000 0.000000
# 5 0.000000 0.000000 0.000000 0.000000 -0.001335 0.000000
# 6 0.000000 0.000000 0.000000 0.000000 0.000000 0.036009
#
#
# Mechanical properties :
#
#
# Convention : Reuss Voigt Hill
#
# Bulk Modulus (GPa) = 18.83382 17.57160 18.20271
# Shear Modulus (GPa) = -19.60305 -135.38479 -77.49392
#
# Velocity S-wave (km/s) = -3.15366 -8.28778 -6.27028
# Velocity P-wave (km/s) = 1.92496 9.09220 6.57167
#
# Compressibility (1/GPa) = 0.05309598
#
# Stress axis : x y z
#
# Youngs Moduli (GPa) = -30.93477 -7.86782 82.29452
#
# Poissons Ratio (x) = 0.69913 1.91798
# Poissons Ratio (y) = 2.74886 -2.85001
# Poissons Ratio (z) = -0.72097 0.27248
#
# Static dielectric constant tensor:
#      x y z
#    x 1.647030 0.000000 0.000000 
#    y 0.000000 1.654890 0.000000 
#    z 0.000000 0.000000 1.736280 
# 
# From -- ./inp_files/10564.got.cif
#   From: 2010.05.17/outbox.ucp.g08.bks.cvg/sg39_6_cif.got.tgz:10564.got - 2010.06.11 10:41:16.
