data_PCOD9362717
_publ_section_title
;
Structure prediction by ZEFSAII (Michael W. Deem and Ramdas Pophale) SiO2 
 PCOD9362717
Probable space group: A M A 2
;
_chemical_formula_sum "Si O2"
_cell_formula_units_Z 64
_cell_length_a 16.231209
_cell_length_b 12.397666
_cell_length_c 16.750103
_cell_angle_alpha 90.000000
_cell_angle_beta 90.000000
_cell_angle_gamma 90.000000
_cell_volume 3370.608285
_symmetry_space_group_name_H-M "A M A 2"
_symmetry_group_IT_number 40
_symmetry_cell_setting 'orthorhombic'
loop_
_space_group_symop_operation_xyz
x,y,z
-x,-y,z
1/2-x,y,z
1/2+x,-y,z
x,1/2+y,1/2+z
-x,1/2-y,1/2+z
1/2-x,1/2+y,1/2+z
1/2+x,1/2-y,1/2+z
loop_
_atom_site_type_symbol
_atom_site_label
_atom_site_fract_x
_atom_site_fract_y
_atom_site_fract_z
Si Si1 0.847767 0.358860 0.746000
Si Si2 0.655350 0.547406 0.507115
Si Si3 0.349824 0.368088 0.976640
Si Si4 0.150015 0.900839 0.291123
Si Si5 0.649708 0.732664 0.395408
Si Si6 0.650662 0.398808 0.035255
Si Si7 0.901356 0.209746 0.135424
Si Si8 0.416254 0.667510 0.573449
O O1 0.750000 0.363990 0.759525
O O2 0.879002 0.478654 0.767109
O O3 0.879797 0.269932 0.808650
O O4 0.863289 0.332240 0.654597
O O5 0.750000 0.512886 0.492696
O O6 0.623018 0.619186 0.433165
O O7 0.655644 0.630233 0.582082
O O8 0.601628 0.444595 0.529167
O O9 0.250000 0.359146 0.982479
O O10 0.370437 0.378090 0.883004
O O11 0.375482 0.478625 0.021096
O O12 0.391296 0.265961 0.017264
O O13 0.250000 0.897025 0.284077
O O14 0.112485 0.818608 0.227245
O O15 0.750000 0.726659 0.395525
O O16 0.627223 0.827129 0.457835
O O17 0.750000 0.398458 0.039048
O O18 0.617639 0.332261 0.110544
O O19 0.991415 0.179319 0.104487
#
# Coordination Sequence:
#
# PCOD9362717 Si02
#       8
#     8   8   8   8   8   8   8   8
#     4  10  18  33  58  86 114 148 194 247 290 340
#     4  10  19  35  59  82 110 152 198 242 282 342
#     4  10  21  39  62  89 118 152 198 251 299 348
#     4  10  19  36  63  88 112 146 200 256 289 337
#     4   8  15  30  55  85 107 135 189 243 281 326
#     4   9  17  35  61  85 110 148 199 243 284 348
#     4  11  22  36  55  86 119 155 196 238 295 355
#     4  12  24  36  53  88 128 156 183 238 310 364
#
# _framework density 18.987670999999999
#
# number of rings (size 3 to 8) (size 9 to 14) (size 15 to 20)
#    0.000    2.000    2.500    3.375    0.000    0.500 
#    4.500    2.500    0.000    3.000    0.000    0.000 
#    0.000    0.000    0.000    0.000    0.000    0.000 
#
# Total GULP energy -178618.032138 kJ/mol
# GULP energy per Si atom -5581.813504 kJ/mol
# Density = 1.894445 g / cm^3
# Si number density = 18.987671 Si / 1000 Ang^3
#
#
#
# Elastic Constant Matrix: (Units=GPa)
#
#
# Indices 1 2 3 4 5 6 
#
# 1 27.3768 23.9654 17.7638 0.0000 0.0000 0.0000
# 2 23.9654 124.3074 78.2809 0.0000 0.0000 0.0000
# 3 17.7638 78.2809 113.4542 0.0000 0.0000 0.0000
# 4 0.0000 0.0000 0.0000 33.4426 0.0000 0.0000
# 5 0.0000 0.0000 0.0000 0.0000 11.4740 0.0000
# 6 0.0000 0.0000 0.0000 0.0000 0.0000 -44.5316
#
#
#
# Elastic Compliance Matrix: (Units=1/GPa)
#
#
# Indices 1 2 3 4 5 6 
#
# 1 0.044159 -0.007355 -0.001839 0.000000 0.000000 0.000000
# 2 -0.007355 0.015451 -0.009509 0.000000 0.000000 0.000000
# 3 -0.001839 -0.009509 0.015663 0.000000 0.000000 0.000000
# 4 0.000000 0.000000 0.000000 0.029902 0.000000 0.000000
# 5 0.000000 0.000000 0.000000 0.000000 0.087153 0.000000
# 6 0.000000 0.000000 0.000000 0.000000 0.000000 -0.022456
#
#
# Mechanical properties :
#
#
# Convention : Reuss Voigt Hill
#
# Bulk Modulus (GPa) = 26.40873 56.12873 41.26873
# Shear Modulus (GPa) = 22.73740 9.75222 16.24481
#
# Velocity S-wave (km/s) = 3.46422 2.26875 2.92814
# Velocity P-wave (km/s) = 5.47171 6.04051 5.76313
#
# Compressibility (1/GPa) = 0.03786627
#
# Stress axis : x y z
#
# Youngs Moduli (GPa) = 22.64521 64.72133 63.84420
#
# Poissons Ratio (x) = 0.47606 0.11741
# Poissons Ratio (y) = 0.16657 0.60710
# Poissons Ratio (z) = 0.04165 0.61544
#
# Static dielectric constant tensor:
#      x y z
#    x 1.707950 0.000000 0.000000 
#    y 0.000000 1.646880 0.000000 
#    z 0.000000 0.000000 1.655950 
# 
# From -- ./inp_files/20791.got.cif
#   From: 2010.05.17/outbox.cif.g08.bks.cpg/sg40_11_cif.got.tgz:20791.got - 2010.06.03 18:35:42.
