data_PCOD9362856
_publ_section_title
;
Structure prediction by ZEFSAII (Michael W. Deem and Ramdas Pophale) SiO2 
 PCOD9362856
Probable space group: A M A 2
;
_chemical_formula_sum "Si O2"
_cell_formula_units_Z 64
_cell_length_a 13.638237
_cell_length_b 17.553404
_cell_length_c 10.076062
_cell_angle_alpha 90.000000
_cell_angle_beta 90.000000
_cell_angle_gamma 90.000000
_cell_volume 2412.183891
_symmetry_space_group_name_H-M "A M A 2"
_symmetry_group_IT_number 40
_symmetry_cell_setting 'orthorhombic'
loop_
_space_group_symop_operation_xyz
x,y,z
-x,-y,z
1/2-x,y,z
1/2+x,-y,z
x,1/2+y,1/2+z
-x,1/2-y,1/2+z
1/2-x,1/2+y,1/2+z
1/2+x,1/2-y,1/2+z
loop_
_atom_site_type_symbol
_atom_site_label
_atom_site_fract_x
_atom_site_fract_y
_atom_site_fract_z
Si Si1 0.440204 0.718605 0.072130
Si Si2 0.867467 0.993603 0.421007
Si Si3 0.136690 0.540302 0.502052
Si Si4 0.367535 0.077595 0.702062
Si Si5 0.363277 0.324240 0.271534
Si Si6 0.554572 0.618773 0.543211
Si Si7 0.862510 0.658784 0.976104
Si Si8 0.138506 0.659376 0.808097
O O1 0.426707 0.656813 0.187590
O O2 0.542214 0.712724 0.986077
O O3 0.416159 0.803984 0.116281
O O4 0.363651 0.688408 0.961725
O O5 0.750000 0.989054 0.416655
O O6 0.888171 0.082191 0.396331
O O7 0.896060 0.969473 0.570703
O O8 0.903239 0.926230 0.324323
O O9 0.250000 0.558326 0.518285
O O10 0.115810 0.537185 0.343189
O O11 0.111305 0.459447 0.568138
O O12 0.060853 0.602481 0.555431
O O13 0.250000 0.091817 0.697029
O O14 0.250000 0.319387 0.316573
O O15 0.420478 0.361400 0.390822
O O16 0.358977 0.366378 0.131531
O O17 0.399048 0.237578 0.241309
O O18 0.750000 0.685694 0.945495
O O19 0.250000 0.651471 0.760752
#
# Coordination Sequence:
#
# PCOD9362856 Si02
#       8
#     8   8   8   8   8   8   8   8
#     4  10  19  30  45  68 101 138 171 204 248 307
#     4   8  14  25  40  63  95 125 157 198 246 299
#     4  10  20  33  50  73 100 131 171 219 264 306
#     4   9  17  29  47  73 102 131 166 213 263 304
#     4   9  16  28  46  68  96 130 169 210 250 298
#     4  10  20  32  48  72 101 137 175 210 257 313
#     4  10  19  28  42  67  97 131 168 206 250 300
#     4   8  15  27  43  64  92 127 166 207 249 296
#
# _framework density 26.531972
#
# number of rings (size 3 to 8) (size 9 to 14) (size 15 to 20)
#    0.000    2.750    0.000    3.000    0.000    7.000 
#    0.000    0.000    0.000    0.000    0.000   10.500 
#    0.000   14.000    0.000    0.000    0.000    0.000 
#
# Total GULP energy -178760.517053 kJ/mol
# GULP energy per Si atom -5586.266158 kJ/mol
# Density = 2.647158 g / cm^3
# Si number density = 26.531972 Si / 1000 Ang^3
#
#
#
# Elastic Constant Matrix: (Units=GPa)
#
#
# Indices 1 2 3 4 5 6 
#
# 1 135.8109 10.0245 20.9564 0.0000 0.0000 0.0000
# 2 10.0245 155.4544 28.6458 0.0000 0.0000 0.0000
# 3 20.9564 28.6458 66.9214 0.0000 0.0000 0.0000
# 4 0.0000 0.0000 0.0000 40.4152 0.0000 0.0000
# 5 0.0000 0.0000 0.0000 0.0000 7.2850 0.0000
# 6 0.0000 0.0000 0.0000 0.0000 0.0000 26.9365
#
#
#
# Elastic Compliance Matrix: (Units=1/GPa)
#
#
# Indices 1 2 3 4 5 6 
#
# 1 0.007738 -0.000057 -0.002399 0.000000 0.000000 0.000000
# 2 -0.000057 0.006984 -0.002972 0.000000 0.000000 0.000000
# 3 -0.002399 -0.002972 0.016966 0.000000 0.000000 0.000000
# 4 0.000000 0.000000 0.000000 0.024743 0.000000 0.000000
# 5 0.000000 0.000000 0.000000 0.000000 0.137269 0.000000
# 6 0.000000 0.000000 0.000000 0.000000 0.000000 0.037124
#
#
# Mechanical properties :
#
#
# Convention : Reuss Voigt Hill
#
# Bulk Modulus (GPa) = 48.00061 53.04892 50.52477
# Shear Modulus (GPa) = 20.11081 34.83134 27.47107
#
# Velocity S-wave (km/s) = 2.75614 3.62720 3.22125
# Velocity P-wave (km/s) = 5.31595 6.13024 5.73756
#
# Compressibility (1/GPa) = 0.02083307
#
# Stress axis : x y z
#
# Youngs Moduli (GPa) = 129.24066 143.18393 58.94119
#
# Poissons Ratio (x) = 0.00816 0.14138
# Poissons Ratio (y) = 0.00736 0.17515
# Poissons Ratio (z) = 0.31000 0.42550
#
# Static dielectric constant tensor:
#      x y z
#    x 2.090980 0.000000 0.000000 
#    y 0.000000 2.113210 0.000000 
#    z 0.000000 0.000000 2.052880 
# 
# From -- ./inp_files/20863.got.cif
#   From: 2010.05.17/outbox.cif.g08.bks.cpg/sg40_11_cif.got.tgz:20863.got - 2010.06.03 18:35:42.
