data_PCOD9362900
_publ_section_title
;
Structure prediction by ZEFSAII (Michael W. Deem and Ramdas Pophale) SiO2 
 PCOD9362900
Probable space group: A M A 2
;
_chemical_formula_sum "Si O2"
_cell_formula_units_Z 64
_cell_length_a 8.510305
_cell_length_b 28.720028
_cell_length_c 15.135269
_cell_angle_alpha 90.000000
_cell_angle_beta 90.000000
_cell_angle_gamma 90.000000
_cell_volume 3699.304903
_symmetry_space_group_name_H-M "A M A 2"
_symmetry_group_IT_number 40
_symmetry_cell_setting 'orthorhombic'
loop_
_space_group_symop_operation_xyz
x,y,z
-x,-y,z
1/2-x,y,z
1/2+x,-y,z
x,1/2+y,1/2+z
-x,1/2-y,1/2+z
1/2-x,1/2+y,1/2+z
1/2+x,1/2-y,1/2+z
loop_
_atom_site_type_symbol
_atom_site_label
_atom_site_fract_x
_atom_site_fract_y
_atom_site_fract_z
Si Si1 0.437963 0.778340 0.551000
Si Si2 0.559938 0.280668 0.855838
Si Si3 0.939694 0.863818 0.227897
Si Si4 0.561948 0.948313 0.552483
Si Si5 0.058977 0.326326 0.352770
Si Si6 0.439763 0.051618 0.350526
Si Si7 0.562160 0.174579 0.052067
Si Si8 0.059931 0.365173 0.171469
O O1 0.250000 0.774484 0.555126
O O2 0.491017 0.791478 0.452106
O O3 0.508001 0.727552 0.570762
O O4 0.488214 0.818707 0.618021
O O5 0.750000 0.282211 0.862323
O O6 0.510122 0.318300 0.783756
O O7 0.515607 0.227514 0.833454
O O8 0.750000 0.863950 0.226432
O O9 0.993121 0.909407 0.281294
O O10 0.999569 0.858496 0.128717
O O11 0.750000 0.948882 0.553637
O O12 0.510656 0.936858 0.451422
O O13 0.501753 0.910064 0.620627
O O14 0.500000 0.000000 0.572574
O O15 0.250000 0.327611 0.353456
O O16 0.006066 0.337274 0.452443
O O17 0.006157 0.358874 0.272708
O O18 0.250000 0.051119 0.349708
O O19 0.500000 0.000000 0.329806
O O20 0.750000 0.173684 0.051802
O O21 0.250000 0.366713 0.170615
#
# Coordination Sequence:
#
# PCOD9362900 Si02
#       8
#     8   8   8   8   8   8   8   8
#     4  10  19  30  47  73 103 133 166 204 245 291
#     4   9  17  31  49  69  99 135 166 200 246 296
#     4  10  19  32  51  73  98 130 166 205 250 294
#     4  10  20  35  54  77 103 128 156 193 241 295
#     4   8  16  31  48  66  93 130 166 199 239 285
#     4   9  19  34  52  74 101 130 157 192 242 297
#     4  10  20  33  49  70  98 134 172 208 247 290
#     4  10  19  32  51  72  96 130 168 203 243 290
#
# _framework density 17.300547000000002
#
# number of rings (size 3 to 8) (size 9 to 14) (size 15 to 20)
#    0.000    2.500    0.000    3.375    0.000    5.500 
#    0.000    3.125    0.000    0.750    0.000    1.750 
#    0.000    0.000    0.000    0.000    0.000    0.000 
#
# Total GULP energy -178518.730868 kJ/mol
# GULP energy per Si atom -5578.710340 kJ/mol
# Density = 1.726117 g / cm^3
# Si number density = 17.300547 Si / 1000 Ang^3
#
#
#
# Elastic Constant Matrix: (Units=GPa)
#
#
# Indices 1 2 3 4 5 6 
#
# 1 13.6669 21.3699 25.7663 0.0000 0.0000 0.0000
# 2 21.3699 103.6530 107.8675 0.0000 0.0000 0.0000
# 3 25.7663 107.8675 154.4200 0.0000 0.0000 0.0000
# 4 0.0000 0.0000 0.0000 32.1369 0.0000 0.0000
# 5 0.0000 0.0000 0.0000 0.0000 26.0779 0.0000
# 6 0.0000 0.0000 0.0000 0.0000 0.0000 24.9909
#
#
#
# Elastic Compliance Matrix: (Units=1/GPa)
#
#
# Indices 1 2 3 4 5 6 
#
# 1 0.111532 -0.013284 -0.009330 0.000000 0.000000 0.000000
# 2 -0.013284 0.036913 -0.023568 0.000000 0.000000 0.000000
# 3 -0.009330 -0.023568 0.024496 0.000000 0.000000 0.000000
# 4 0.000000 0.000000 0.000000 0.031117 0.000000 0.000000
# 5 0.000000 0.000000 0.000000 0.000000 0.038347 0.000000
# 6 0.000000 0.000000 0.000000 0.000000 0.000000 0.040015
#
#
# Mechanical properties :
#
#
# Convention : Reuss Voigt Hill
#
# Bulk Modulus (GPa) = 12.41088 64.63858 38.52473
# Shear Modulus (GPa) = 12.44885 24.42355 18.43620
#
# Velocity S-wave (km/s) = 2.68538 3.76136 3.26796
# Velocity P-wave (km/s) = 4.09930 7.50380 6.04613
#
# Compressibility (1/GPa) = 0.08057446
#
# Stress axis : x y z
#
# Youngs Moduli (GPa) = 8.96604 27.09076 40.82308
#
# Poissons Ratio (x) = 0.35989 0.38090
# Poissons Ratio (y) = 0.11911 0.96213
# Poissons Ratio (z) = 0.08366 0.63848
#
# Static dielectric constant tensor:
#      x y z
#    x 1.593270 0.000000 0.000000 
#    y 0.000000 1.562740 0.000000 
#    z 0.000000 0.000000 1.600190 
# 
# From -- ./inp_files/15929.got.cif
#   From: 2010.05.17/outbox.cif.g08.bks.cpg/sg40_8_cif.got.tgz:15929.got - 2010.06.03 18:35:42.
