data_PCOD9362923
_publ_section_title
;
Structure prediction by ZEFSAII (Michael W. Deem and Ramdas Pophale) SiO2 
 PCOD9362923
Probable space group: A M A 2
;
_chemical_formula_sum "Si O2"
_cell_formula_units_Z 56
_cell_length_a 9.057899
_cell_length_b 19.349168
_cell_length_c 18.540001
_cell_angle_alpha 90.000000
_cell_angle_beta 90.000000
_cell_angle_gamma 90.000000
_cell_volume 3249.372663
_symmetry_space_group_name_H-M "A M A 2"
_symmetry_group_IT_number 40
_symmetry_cell_setting 'orthorhombic'
loop_
_space_group_symop_operation_xyz
x,y,z
-x,-y,z
1/2-x,y,z
1/2+x,-y,z
x,1/2+y,1/2+z
-x,1/2-y,1/2+z
1/2-x,1/2+y,1/2+z
1/2+x,1/2-y,1/2+z
loop_
_atom_site_type_symbol
_atom_site_label
_atom_site_fract_x
_atom_site_fract_y
_atom_site_fract_z
Si Si1 0.430132 0.208684 0.692090
Si Si2 0.574678 0.430985 0.826570
Si Si3 0.422055 0.934827 0.170441
Si Si4 0.919277 0.702765 0.828696
Si Si5 0.581837 0.841495 0.921929
Si Si6 0.078920 0.802406 0.068020
Si Si7 0.429513 0.074696 0.782255
O O1 0.250000 0.210062 0.691685
O O2 0.474072 0.264807 0.753044
O O3 0.480378 0.236587 0.614070
O O4 0.472054 0.133293 0.722835
O O5 0.500000 0.500000 0.858140
O O6 0.750000 0.436379 0.827594
O O7 0.510864 0.426131 0.744896
O O8 0.517349 0.359109 0.858783
O O9 0.250000 0.950001 0.185827
O O10 0.428054 0.866509 0.123209
O O11 0.500000 0.000000 0.132544
O O12 0.750000 0.677873 0.817872
O O13 0.915592 0.768089 0.881038
O O14 0.750000 0.861909 0.938735
O O15 0.525180 0.895415 0.861321
O O16 0.497716 0.827744 0.995577
O O17 0.250000 0.788126 0.051255
O O18 0.250000 0.070793 0.781988
O O19 0.500000 0.000000 0.769388
#
# Coordination Sequence:
#
# PCOD9362923 Si02
#       7
#     8   8   8   8   8   8   8
#     4   8  15  31  53  72  94 131 170 206 256 303
#     4  11  20  29  46  72  98 125 157 199 243 288
#     4  10  19  31  46  67  97 133 165 197 238 285
#     4   9  16  33  53  68  93 128 167 206 248 299
#     4   9  20  34  51  73 101 136 166 204 256 309
#     4  10  19  32  51  72  99 135 171 209 249 302
#     4   9  18  34  55  76 101 134 172 212 257 307
#
# _framework density 17.234095
#
# number of rings (size 3 to 8) (size 9 to 14) (size 15 to 20)
#    0.000    2.571    1.429    4.286    0.000    2.857 
#    0.000    5.714    0.000    0.857    0.000    4.000 
#    0.000    0.000    0.000    0.000    0.000    0.000 
#
# Total GULP energy -155893.815848 kJ/mol
# GULP energy per Si atom -5567.636280 kJ/mol
# Density = 1.719487 g / cm^3
# Si number density = 17.234095 Si / 1000 Ang^3
#
#
#
# Elastic Constant Matrix: (Units=GPa)
#
#
# Indices 1 2 3 4 5 6 
#
# 1 60.0073 30.0486 7.8930 0.0000 0.0000 0.0000
# 2 30.0486 110.9899 10.6093 0.0000 0.0000 0.0000
# 3 7.8930 10.6093 35.5783 0.0000 0.0000 0.0000
# 4 0.0000 0.0000 0.0000 11.9412 0.0000 0.0000
# 5 0.0000 0.0000 0.0000 0.0000 -71.7386 0.0000
# 6 0.0000 0.0000 0.0000 0.0000 0.0000 31.1264
#
#
#
# Elastic Compliance Matrix: (Units=1/GPa)
#
#
# Indices 1 2 3 4 5 6 
#
# 1 0.019553 -0.005022 -0.002840 0.000000 0.000000 0.000000
# 2 -0.005022 0.010564 -0.002036 0.000000 0.000000 0.000000
# 3 -0.002840 -0.002036 0.029344 0.000000 0.000000 0.000000
# 4 0.000000 0.000000 0.000000 0.083743 0.000000 0.000000
# 5 0.000000 0.000000 0.000000 0.000000 -0.013940 0.000000
# 6 0.000000 0.000000 0.000000 0.000000 0.000000 0.032127
#
#
# Mechanical properties :
#
#
# Convention : Reuss Voigt Hill
#
# Bulk Modulus (GPa) = 25.21142 33.74194 29.47668
# Shear Modulus (GPa) = 25.71873 4.80078 15.25975
#
# Velocity S-wave (km/s) = 3.86724 1.67083 2.97886
# Velocity P-wave (km/s) = 5.88229 4.83149 5.38259
#
# Compressibility (1/GPa) = 0.03966456
#
# Stress axis : x y z
#
# Youngs Moduli (GPa) = 51.14283 94.66014 34.07826
#
# Poissons Ratio (x) = 0.47540 0.09679
# Poissons Ratio (y) = 0.25685 0.06938
# Poissons Ratio (z) = 0.14526 0.19273
#
# Static dielectric constant tensor:
#      x y z
#    x 1.607380 0.000000 0.000000 
#    y 0.000000 1.638230 0.000000 
#    z 0.000000 0.000000 1.594640 
# 
# From -- ./inp_files/19482.got.cif
#   From: 2010.05.17/outbox.cif.g08.bks.cpg/sg40_10_cif.got.tgz:19482.got - 2010.06.03 18:35:42.
