data_PCOD9362380
_publ_section_title
;
Structure prediction by ZEFSAII (Michael W. Deem and Ramdas Pophale) SiO2 
 PCOD9362380
Probable space group: A M A 2
;
_chemical_formula_sum "Si O2"
_cell_formula_units_Z 64
_cell_length_a 8.836634
_cell_length_b 18.922205
_cell_length_c 27.103959
_cell_angle_alpha 90.000000
_cell_angle_beta 90.000000
_cell_angle_gamma 90.000000
_cell_volume 4532.015040
_symmetry_space_group_name_H-M "A M A 2"
_symmetry_group_IT_number 40
_symmetry_cell_setting 'orthorhombic'
loop_
_space_group_symop_operation_xyz
x,y,z
-x,-y,z
1/2-x,y,z
1/2+x,-y,z
x,1/2+y,1/2+z
-x,1/2-y,1/2+z
1/2-x,1/2+y,1/2+z
1/2+x,1/2-y,1/2+z
loop_
_atom_site_type_symbol
_atom_site_label
_atom_site_fract_x
_atom_site_fract_y
_atom_site_fract_z
Si Si1 0.069521 0.077107 0.105050
Si Si2 0.932941 0.422516 0.114506
Si Si3 0.075331 0.709213 0.056622
Si Si4 0.068614 0.162364 0.007526
Si Si5 0.575152 0.701976 0.659064
Si Si6 0.067029 0.077572 0.910815
Si Si7 0.931422 0.577870 0.304741
Si Si8 0.433275 0.661458 0.214549
O O1 0.250000 0.071959 0.103922
O O2 0.017305 0.111629 0.052746
O O3 0.019266 0.132287 0.147262
O O4 0.000000 0.000000 0.111365
O O5 0.750000 0.424734 0.112667
O O6 0.984189 0.368007 0.071716
O O7 0.972914 0.387978 0.167503
O O8 0.000000 0.500000 0.109783
O O9 0.250000 0.702983 0.041407
O O10 0.072545 0.751910 0.108578
O O11 0.989419 0.759025 0.018546
O O12 0.250000 0.163186 0.009259
O O13 0.023500 0.129624 0.955242
O O14 0.750000 0.682745 0.668366
O O15 0.524130 0.757991 0.700391
O O16 0.250000 0.073581 0.907524
O O17 0.997996 0.098778 0.858112
O O18 0.000000 0.000000 0.921867
O O19 0.750000 0.573408 0.306520
O O20 0.000000 0.500000 0.293917
O O21 0.987308 0.630787 0.262558
O O22 0.250000 0.659396 0.219676
#
# Coordination Sequence:
#
# PCOD9362380 Si02
#       8
#     8   8   8   8   8   8   8   8
#     4  10  18  27  40  60  85 110 139 171 203 241
#     4   9  17  27  40  60  83 109 139 168 200 239
#     4   8  15  27  41  57  79 106 135 166 200 240
#     4   9  18  29  42  60  80 106 139 172 205 242
#     4   8  15  28  43  58  79 107 136 167 203 242
#     4  10  19  31  44  59  81 107 138 173 207 241
#     4  11  21  31  43  60  82 108 140 174 208 242
#     4   9  17  30  45  60  81 109 140 171 206 245
#
# _framework density 14.121753
#
# number of rings (size 3 to 8) (size 9 to 14) (size 15 to 20)
#    0.000    2.750    0.000    4.875    0.000    4.000 
#    0.000    2.500    0.000    0.000    0.000    0.000 
#    0.000    1.000    0.000    7.000    0.000    5.125 
#
# Total GULP energy -178241.669190 kJ/mol
# GULP energy per Si atom -5570.052162 kJ/mol
# Density = 1.408961 g / cm^3
# Si number density = 14.121753 Si / 1000 Ang^3
#
#
#
# Elastic Constant Matrix: (Units=GPa)
#
#
# Indices 1 2 3 4 5 6 
#
# 1 44.9938 40.6537 35.8054 0.0000 0.0000 0.0000
# 2 40.6537 116.4124 61.1699 0.0000 0.0000 0.0000
# 3 35.8054 61.1699 90.2287 0.0000 0.0000 0.0000
# 4 0.0000 0.0000 0.0000 27.6666 0.0000 0.0000
# 5 0.0000 0.0000 0.0000 0.0000 44.5052 0.0000
# 6 0.0000 0.0000 0.0000 0.0000 0.0000 25.7706
#
#
#
# Elastic Compliance Matrix: (Units=1/GPa)
#
#
# Indices 1 2 3 4 5 6 
#
# 1 0.036758 -0.008034 -0.009140 0.000000 0.000000 0.000000
# 2 -0.008034 0.015099 -0.007048 0.000000 0.000000 0.000000
# 3 -0.009140 -0.007048 0.019488 0.000000 0.000000 0.000000
# 4 0.000000 0.000000 0.000000 0.036145 0.000000 0.000000
# 5 0.000000 0.000000 0.000000 0.000000 0.022469 0.000000
# 6 0.000000 0.000000 0.000000 0.000000 0.000000 0.038804
#
#
# Mechanical properties :
#
#
# Convention : Reuss Voigt Hill
#
# Bulk Modulus (GPa) = 43.66655 58.54366 51.10511
# Shear Modulus (GPa) = 22.23786 27.18887 24.71337
#
# Velocity S-wave (km/s) = 3.97258 4.39261 4.18786
# Velocity P-wave (km/s) = 7.21322 8.20201 7.72345
#
# Compressibility (1/GPa) = 0.02290082
#
# Stress axis : x y z
#
# Youngs Moduli (GPa) = 27.20521 66.22758 51.31244
#
# Poissons Ratio (x) = 0.53206 0.46900
# Poissons Ratio (y) = 0.21856 0.36168
# Poissons Ratio (z) = 0.24866 0.46680
#
# Static dielectric constant tensor:
#      x y z
#    x 1.472930 0.000000 0.000000 
#    y 0.000000 1.461700 0.000000 
#    z 0.000000 0.000000 1.457280 
# 
# From -- ./inp_files/25529.got.cif
#   From: 2010.05.17/outbox.cif.g08.bks.cpg/sg40_13_cif.got.tgz:25529.got - 2010.06.03 18:35:42.
