data_PCOD9362078
_publ_section_title
;
Structure prediction by ZEFSAII (Michael W. Deem and Ramdas Pophale) SiO2 
 PCOD9362078
Probable space group: A B M 2
;
_chemical_formula_sum "Si O2"
_cell_formula_units_Z 40
_cell_length_a 7.459668
_cell_length_b 22.005333
_cell_length_c 9.869006
_cell_angle_alpha 90.000000
_cell_angle_beta 90.000000
_cell_angle_gamma 90.000000
_cell_volume 1620.021794
_symmetry_space_group_name_H-M "A B M 2"
_symmetry_group_IT_number 39
_symmetry_cell_setting 'orthorhombic'
loop_
_space_group_symop_operation_xyz
x,y,z
-x,-y,z
-x,1/2+y,z
x,1/2-y,z
x,1/2+y,1/2+z
-x,1/2-y,1/2+z
-x,y,1/2+z
x,-y,1/2+z
loop_
_atom_site_type_symbol
_atom_site_label
_atom_site_fract_x
_atom_site_fract_y
_atom_site_fract_z
Si Si1 0.670111 0.599697 0.948500
Si Si2 0.066193 0.890877 0.088551
Si Si3 0.103645 0.681863 0.827691
Si Si4 0.576725 0.624558 0.223392
Si Si5 0.796111 0.498398 0.268102
O O1 0.590832 0.635563 0.820102
O O2 0.678497 0.534574 0.879561
O O3 0.531894 0.613291 0.067885
O O4 0.866620 0.604596 0.017790
O O5 0.164923 0.953606 0.136858
O O6 0.031472 0.855280 0.229829
O O7 0.151219 0.851371 0.968844
O O8 0.039647 0.750000 0.852691
O O9 0.287025 0.679526 0.743014
O O10 0.698111 0.562886 0.250774
O O11 0.000000 0.500000 0.322378
#
# Coordination Sequence:
#
# PCOD9362078 Si02
#       5
#     8   8   8   8   8
#     4  11  25  43  65 105 140 186 223 290 359 425
#     4  11  23  44  73 100 138 181 242 291 347 415
#     4  11  24  45  71 100 137 186 242 292 343 418
#     4  11  27  42  68 101 148 178 230 287 358 424
#     4  12  23  41  72 102 140 180 229 292 349 416
#
# _framework density 24.691023999999999
#
# number of rings (size 3 to 8) (size 9 to 14) (size 15 to 20)
#    0.000    0.800    6.000    1.200    8.400    1.600 
#    0.000    5.000    0.000    0.000    0.000    0.000 
#    0.000    0.000    0.000    0.000    0.000    0.000 
#
# Total GULP energy -111374.221127 kJ/mol
# GULP energy per Si atom -5568.711056 kJ/mol
# Density = 2.463483 g / cm^3
# Si number density = 24.691024 Si / 1000 Ang^3
#
#
#
# Elastic Constant Matrix: (Units=GPa)
#
#
# Indices 1 2 3 4 5 6 
#
# 1 106.7784 10.7673 26.4300 0.0000 0.0000 0.0000
# 2 10.7673 90.5919 36.3007 0.0000 0.0000 0.0000
# 3 26.4300 36.3007 161.4224 0.0000 0.0000 0.0000
# 4 0.0000 0.0000 0.0000 18.6624 0.0000 0.0000
# 5 0.0000 0.0000 0.0000 0.0000 11.6532 0.0000
# 6 0.0000 0.0000 0.0000 0.0000 0.0000 11.6550
#
#
#
# Elastic Compliance Matrix: (Units=1/GPa)
#
#
# Indices 1 2 3 4 5 6 
#
# 1 0.009788 -0.000573 -0.001474 0.000000 0.000000 0.000000
# 2 -0.000573 0.012165 -0.002642 0.000000 0.000000 0.000000
# 3 -0.001474 -0.002642 0.007030 0.000000 0.000000 0.000000
# 4 0.000000 0.000000 0.000000 0.053584 0.000000 0.000000
# 5 0.000000 0.000000 0.000000 0.000000 0.085813 0.000000
# 6 0.000000 0.000000 0.000000 0.000000 0.000000 0.085800
#
#
# Mechanical properties :
#
#
# Convention : Reuss Voigt Hill
#
# Bulk Modulus (GPa) = 51.00382 56.19873 53.60127
# Shear Modulus (GPa) = 18.51215 27.41376 22.96296
#
# Velocity S-wave (km/s) = 2.74113 3.33569 3.05292
# Velocity P-wave (km/s) = 5.54257 6.13563 5.84662
#
# Compressibility (1/GPa) = 0.01960638
#
# Stress axis : x y z
#
# Youngs Moduli (GPa) = 102.16865 82.20149 142.24046
#
# Poissons Ratio (x) = 0.04708 0.20963
# Poissons Ratio (y) = 0.05852 0.37579
# Poissons Ratio (z) = 0.15057 0.21717
#
# Static dielectric constant tensor:
#      x y z
#    x 2.152570 0.000000 0.000000 
#    y 0.000000 1.976990 0.000000 
#    z 0.000000 0.000000 2.050550 
# 
# From -- ./inp_files/2102.got.cif
#   From: 2010.05.17/outbox.cif.g08.bks.cpg/sg39_2_cif.got.tgz:2102.got - 2010.06.03 18:22:40.
