data_PCOD9362032
_publ_section_title
;
Structure prediction by ZEFSAII (Michael W. Deem and Ramdas Pophale) SiO2 
 PCOD9362032
Probable space group: A B M 2
;
_chemical_formula_sum "Si O2"
_cell_formula_units_Z 40
_cell_length_a 10.886506
_cell_length_b 19.414208
_cell_length_c 7.843318
_cell_angle_alpha 90.000000
_cell_angle_beta 90.000000
_cell_angle_gamma 90.000000
_cell_volume 1657.707941
_symmetry_space_group_name_H-M "A B M 2"
_symmetry_group_IT_number 39
_symmetry_cell_setting 'orthorhombic'
loop_
_space_group_symop_operation_xyz
x,y,z
-x,-y,z
-x,1/2+y,z
x,1/2-y,z
x,1/2+y,1/2+z
-x,1/2-y,1/2+z
-x,y,1/2+z
x,-y,1/2+z
loop_
_atom_site_type_symbol
_atom_site_label
_atom_site_fract_x
_atom_site_fract_y
_atom_site_fract_z
Si Si1 0.358299 0.982948 0.278220
Si Si2 0.745056 0.400224 0.596623
Si Si3 0.026927 0.580727 0.372801
Si Si4 0.202471 0.619398 0.067329
Si Si5 0.649220 0.250000 0.541385
Si Si6 0.638778 0.250000 0.131828
O O1 0.335276 0.933978 0.440590
O O2 0.293179 0.942657 0.122334
O O3 0.500000 0.000000 0.257280
O O4 0.294052 0.057260 0.262888
O O5 0.883499 0.416681 0.538526
O O6 0.713304 0.320024 0.605237
O O7 0.109983 0.618190 0.232323
O O8 0.000000 0.500000 0.336036
O O9 0.898943 0.615627 0.419536
O O10 0.290490 0.684344 0.058821
O O11 0.655308 0.250000 0.336028
O O12 0.505696 0.250000 0.592252
#
# Coordination Sequence:
#
# PCOD9362032 Si02
#       6
#     8   8   8   8   4   4
#     4  11  22  41  66 105 136 186 241 301 349 434
#     4  11  25  42  74 100 145 187 240 295 369 424
#     4  11  22  42  69 101 143 181 239 303 361 430
#     4  11  25  43  69 102 143 188 239 302 362 433
#     4  12  26  53  69 101 149 198 233 308 364 446
#     4  12  26  51  71 101 147 192 247 300 368 444
#
# _framework density 24.129704
#
# number of rings (size 3 to 8) (size 9 to 14) (size 15 to 20)
#    0.000    0.800    6.000    2.400    2.800    1.600 
#    3.600    0.000    0.000    0.000    0.000    0.000 
#    0.000    0.000    0.000    0.000    0.000    0.000 
#
# Total GULP energy -111966.671657 kJ/mol
# GULP energy per Si atom -5598.333583 kJ/mol
# Density = 2.407478 g / cm^3
# Si number density = 24.129704 Si / 1000 Ang^3
#
#
#
# Elastic Constant Matrix: (Units=GPa)
#
#
# Indices 1 2 3 4 5 6 
#
# 1 188.5121 54.9381 4.7061 0.0000 0.0000 0.0000
# 2 54.9381 176.0399 5.1450 0.0000 0.0000 0.0000
# 3 4.7061 5.1450 71.9719 0.0000 0.0000 0.0000
# 4 0.0000 0.0000 0.0000 12.2112 0.0000 0.0000
# 5 0.0000 0.0000 0.0000 0.0000 16.8848 0.0000
# 6 0.0000 0.0000 0.0000 0.0000 0.0000 39.0324
#
#
#
# Elastic Compliance Matrix: (Units=1/GPa)
#
#
# Indices 1 2 3 4 5 6 
#
# 1 0.005840 -0.001815 -0.000252 0.000000 0.000000 0.000000
# 2 -0.001815 0.006257 -0.000329 0.000000 0.000000 0.000000
# 3 -0.000252 -0.000329 0.013934 0.000000 0.000000 0.000000
# 4 0.000000 0.000000 0.000000 0.081892 0.000000 0.000000
# 5 0.000000 0.000000 0.000000 0.000000 0.059225 0.000000
# 6 0.000000 0.000000 0.000000 0.000000 0.000000 0.025620
#
#
# Mechanical properties :
#
#
# Convention : Reuss Voigt Hill
#
# Bulk Modulus (GPa) = 47.08277 62.90027 54.99152
# Shear Modulus (GPa) = 24.43325 38.40798 31.42062
#
# Velocity S-wave (km/s) = 3.18556 3.99398 3.61245
# Velocity P-wave (km/s) = 5.75197 6.88428 6.34344
#
# Compressibility (1/GPa) = 0.02123919
#
# Stress axis : x y z
#
# Youngs Moduli (GPa) = 171.23328 159.83109 71.76544
#
# Poissons Ratio (x) = 0.29012 0.01809
# Poissons Ratio (y) = 0.31082 0.02358
# Poissons Ratio (z) = 0.04317 0.05252
#
# Static dielectric constant tensor:
#      x y z
#    x 1.875850 0.000000 0.000000 
#    y 0.000000 1.978640 0.000000 
#    z 0.000000 0.000000 2.089420 
# 
# From -- ./inp_files/2560.got.cif
#   From: 2010.05.17/outbox.cif.g08.bks.cpg/sg39_2_cif.got.tgz:2560.got - 2010.06.03 18:22:40.
