data_PCOD9362562
_publ_section_title
;
Structure prediction by ZEFSAII (Michael W. Deem and Ramdas Pophale) SiO2 
 PCOD9362562
Probable space group: A M A 2
;
_chemical_formula_sum "Si O2"
_cell_formula_units_Z 64
_cell_length_a 18.890194
_cell_length_b 5.517478
_cell_length_c 29.364433
_cell_angle_alpha 90.000000
_cell_angle_beta 90.000000
_cell_angle_gamma 90.000000
_cell_volume 3060.544142
_symmetry_space_group_name_H-M "A M A 2"
_symmetry_group_IT_number 40
_symmetry_cell_setting 'orthorhombic'
loop_
_space_group_symop_operation_xyz
x,y,z
-x,-y,z
1/2-x,y,z
1/2+x,-y,z
x,1/2+y,1/2+z
-x,1/2-y,1/2+z
1/2-x,1/2+y,1/2+z
1/2+x,1/2-y,1/2+z
loop_
_atom_site_type_symbol
_atom_site_label
_atom_site_fract_x
_atom_site_fract_y
_atom_site_fract_z
Si Si1 0.170522 0.406161 0.263540
Si Si2 0.582386 0.798545 0.032329
Si Si3 0.085866 0.026866 0.680834
Si Si4 0.579503 0.798254 0.498036
Si Si5 0.931784 0.648852 0.404395
Si Si6 0.583338 0.972301 0.136494
Si Si7 0.426101 0.574084 0.814038
Si Si8 0.328533 0.183443 0.859443
O O1 0.250000 0.368370 0.245947
O O2 0.121780 0.560421 0.229862
O O3 0.127336 0.164949 0.275763
O O4 0.176658 0.529865 0.312863
O O5 0.613196 0.530440 0.022814
O O6 0.499766 0.747570 0.018532
O O7 0.588370 0.889045 0.084089
O O8 0.611605 0.028955 0.004400
O O9 0.111689 0.761139 0.663907
O O10 0.108582 0.256328 0.649551
O O11 0.000000 0.000000 0.682901
O O12 0.577992 0.846397 0.443871
O O13 0.948141 0.734590 0.353163
O O14 0.862486 0.484815 0.397882
O O15 0.000000 0.500000 0.420275
O O16 0.500000 0.000000 0.146586
O O17 0.500000 0.500000 0.792106
O O18 0.384150 0.386179 0.845381
O O19 0.250000 0.275857 0.870545
#
# Coordination Sequence:
#
# PCOD9362562 Si02
#       8
#     8   8   8   8   8   8   8   8
#     4  10  24  43  59  86 122 166 215 259 319 393
#     4  10  18  30  51  82 127 161 190 248 325 379
#     4  10  23  35  61  88 124 153 205 263 317 377
#     4  10  20  28  54  84 127 158 203 246 319 375
#     4  11  21  36  54  93 126 162 212 270 312 374
#     4  10  19  35  53  87 126 158 193 255 326 383
#     4  11  23  34  65  87 125 166 210 268 323 371
#     4  10  23  41  61  84 124 171 210 258 319 385
#
# _framework density 20.911314999999998
#
# number of rings (size 3 to 8) (size 9 to 14) (size 15 to 20)
#    0.000    1.750    3.750    1.125   10.500    1.000 
#    0.000    0.000    0.000    0.000    0.000    5.250 
#    0.000    0.000    0.000    0.000    0.000    0.000 
#
# Total GULP energy -178223.998172 kJ/mol
# GULP energy per Si atom -5569.499943 kJ/mol
# Density = 2.086372 g / cm^3
# Si number density = 20.911315 Si / 1000 Ang^3
#
#
#
# Elastic Constant Matrix: (Units=GPa)
#
#
# Indices 1 2 3 4 5 6 
#
# 1 71.1206 26.7080 13.7770 0.0000 0.0000 0.0000
# 2 26.7080 127.1985 33.0760 0.0000 0.0000 0.0000
# 3 13.7770 33.0760 84.6569 0.0000 0.0000 0.0000
# 4 0.0000 0.0000 0.0000 114.2276 0.0000 0.0000
# 5 0.0000 0.0000 0.0000 0.0000 -52.1882 0.0000
# 6 0.0000 0.0000 0.0000 0.0000 0.0000 -82.9807
#
#
#
# Elastic Compliance Matrix: (Units=1/GPa)
#
#
# Indices 1 2 3 4 5 6 
#
# 1 0.015409 -0.002875 -0.001384 0.000000 0.000000 0.000000
# 2 -0.002875 0.009287 -0.003161 0.000000 0.000000 0.000000
# 3 -0.001384 -0.003161 0.013273 0.000000 0.000000 0.000000
# 4 0.000000 0.000000 0.000000 0.008754 0.000000 0.000000
# 5 0.000000 0.000000 0.000000 0.000000 -0.019161 0.000000
# 6 0.000000 0.000000 0.000000 0.000000 0.000000 -0.012051
#
#
# Mechanical properties :
#
#
# Convention : Reuss Voigt Hill
#
# Bulk Modulus (GPa) = 43.23770 47.78868 45.51319
# Shear Modulus (GPa) = 131.37033 9.77273 70.57153
#
# Velocity S-wave (km/s) = 7.93467 2.16415 5.81561
# Velocity P-wave (km/s) = 10.23068 5.39883 8.17968
#
# Compressibility (1/GPa) = 0.02312796
#
# Stress axis : x y z
#
# Youngs Moduli (GPa) = 64.89903 107.67310 75.34352
#
# Poissons Ratio (x) = 0.30961 0.10429
# Poissons Ratio (y) = 0.18661 0.23814
# Poissons Ratio (z) = 0.08983 0.34032
#
# Static dielectric constant tensor:
#      x y z
#    x 1.735670 0.000000 0.000000 
#    y 0.000000 1.949470 0.000000 
#    z 0.000000 0.000000 1.785190 
# 
# From -- ./inp_files/25861.got.cif
#   From: 2010.05.17/outbox.cif.g08.bks.cpg/sg40_13_cif.got.tgz:25861.got - 2010.06.03 18:35:42.
