data_PCOD9362523
_publ_section_title
;
Structure prediction by ZEFSAII (Michael W. Deem and Ramdas Pophale) SiO2 
 PCOD9362523
Probable space group: A M A 2
;
_chemical_formula_sum "Si O2"
_cell_formula_units_Z 64
_cell_length_a 8.774745
_cell_length_b 14.589757
_cell_length_c 30.203197
_cell_angle_alpha 90.000000
_cell_angle_beta 90.000000
_cell_angle_gamma 90.000000
_cell_volume 3866.655482
_symmetry_space_group_name_H-M "A M A 2"
_symmetry_group_IT_number 40
_symmetry_cell_setting 'orthorhombic'
loop_
_space_group_symop_operation_xyz
x,y,z
-x,-y,z
1/2-x,y,z
1/2+x,-y,z
x,1/2+y,1/2+z
-x,1/2-y,1/2+z
1/2-x,1/2+y,1/2+z
1/2+x,1/2-y,1/2+z
loop_
_atom_site_type_symbol
_atom_site_label
_atom_site_fract_x
_atom_site_fract_y
_atom_site_fract_z
Si Si1 0.932416 0.102368 0.326670
Si Si2 0.433059 0.102491 0.503883
Si Si3 0.435737 0.703768 0.911555
Si Si4 0.578718 0.590434 0.512259
Si Si5 0.067800 0.602511 0.737311
Si Si6 0.432949 0.103359 0.137663
Si Si7 0.580089 0.590952 0.406879
Si Si8 0.929907 0.255307 0.561321
O O1 0.750000 0.100313 0.327378
O O2 0.999725 0.148529 0.370261
O O3 0.991235 0.146807 0.280522
O O4 0.000000 0.000000 0.326771
O O5 0.250000 0.098726 0.504641
O O6 0.478338 0.156072 0.458301
O O7 0.490401 0.161532 0.546090
O O8 0.500000 0.000000 0.503461
O O9 0.250000 0.705905 0.911342
O O10 0.491543 0.808234 0.904249
O O11 0.500000 0.500000 0.531265
O O12 0.750000 0.605316 0.529778
O O13 0.592896 0.578102 0.459880
O O14 0.470543 0.675130 0.521712
O O15 0.250000 0.599260 0.743588
O O16 0.035858 0.637865 0.687803
O O17 0.000000 0.500000 0.735620
O O18 0.250000 0.093875 0.132630
O O19 0.483421 0.182167 0.103083
O O20 0.500000 0.000000 0.132347
O O21 0.500000 0.500000 0.389118
O O22 0.750000 0.595335 0.387922
O O23 0.750000 0.239953 0.565716
#
# Coordination Sequence:
#
# PCOD9362523 Si02
#       8
#     8   8   8   8   8   8   8   8
#     4  11  21  32  49  75 102 132 169 208 251 300
#     4  11  23  39  54  71  97 131 172 215 256 298
#     4  10  20  36  53  72  99 132 171 209 248 295
#     4  10  18  30  45  67  95 128 164 202 241 286
#     4   9  16  30  49  70 100 134 164 201 248 297
#     4   9  19  32  49  75 105 136 169 202 244 298
#     4   9  18  32  48  68  95 127 162 201 241 287
#     4  11  21  33  49  72  99 132 169 206 247 297
#
# _framework density 16.551772
#
# number of rings (size 3 to 8) (size 9 to 14) (size 15 to 20)
#    0.000    2.000    1.250    4.125    0.000    5.500 
#    0.000    0.000    0.000    0.000    0.000    0.875 
#    0.000    4.000    0.000    0.000    0.000    0.000 
#
# Total GULP energy -178171.634675 kJ/mol
# GULP energy per Si atom -5567.863584 kJ/mol
# Density = 1.651410 g / cm^3
# Si number density = 16.551772 Si / 1000 Ang^3
#
#
#
# Elastic Constant Matrix: (Units=GPa)
#
#
# Indices 1 2 3 4 5 6 
#
# 1 39.9866 29.8776 28.9506 0.0000 0.0000 0.0000
# 2 29.8776 114.4510 43.5693 0.0000 0.0000 0.0000
# 3 28.9506 43.5693 95.5967 0.0000 0.0000 0.0000
# 4 0.0000 0.0000 0.0000 29.0981 0.0000 0.0000
# 5 0.0000 0.0000 0.0000 0.0000 17.5770 0.0000
# 6 0.0000 0.0000 0.0000 0.0000 0.0000 22.5976
#
#
#
# Elastic Compliance Matrix: (Units=1/GPa)
#
#
# Indices 1 2 3 4 5 6 
#
# 1 0.035365 -0.006237 -0.007867 0.000000 0.000000 0.000000
# 2 -0.006237 0.011672 -0.003431 0.000000 0.000000 0.000000
# 3 -0.007867 -0.003431 0.014407 0.000000 0.000000 0.000000
# 4 0.000000 0.000000 0.000000 0.034366 0.000000 0.000000
# 5 0.000000 0.000000 0.000000 0.000000 0.056892 0.000000
# 6 0.000000 0.000000 0.000000 0.000000 0.000000 0.044253
#
#
# Mechanical properties :
#
#
# Convention : Reuss Voigt Hill
#
# Bulk Modulus (GPa) = 37.91756 50.53657 44.22706
# Shear Modulus (GPa) = 20.76283 23.69700 22.22992
#
# Velocity S-wave (km/s) = 3.54562 3.78787 3.66875
# Velocity P-wave (km/s) = 6.30239 7.05190 6.68765
#
# Compressibility (1/GPa) = 0.02637301
#
# Stress axis : x y z
#
# Youngs Moduli (GPa) = 28.27686 85.67867 69.41230
#
# Poissons Ratio (x) = 0.53438 0.54608
# Poissons Ratio (y) = 0.17636 0.23813
# Poissons Ratio (z) = 0.22246 0.29393
#
# Static dielectric constant tensor:
#      x y z
#    x 1.578470 0.000000 0.000000 
#    y 0.000000 1.579990 0.000000 
#    z 0.000000 0.000000 1.598760 
# 
# From -- ./inp_files/26481.got.cif
#   From: 2010.05.17/outbox.cif.g08.bks.cpg/sg40_14_cif.got.tgz:26481.got - 2010.06.03 18:35:42.
