data_PCOD9362726
_publ_section_title
;
Structure prediction by ZEFSAII (Michael W. Deem and Ramdas Pophale) SiO2 
 PCOD9362726
Probable space group: A M A 2
;
_chemical_formula_sum "Si O2"
_cell_formula_units_Z 56
_cell_length_a 14.639207
_cell_length_b 14.733383
_cell_length_c 12.452012
_cell_angle_alpha 90.000000
_cell_angle_beta 90.000000
_cell_angle_gamma 90.000000
_cell_volume 2685.712750
_symmetry_space_group_name_H-M "A M A 2"
_symmetry_group_IT_number 40
_symmetry_cell_setting 'orthorhombic'
loop_
_space_group_symop_operation_xyz
x,y,z
-x,-y,z
1/2-x,y,z
1/2+x,-y,z
x,1/2+y,1/2+z
-x,1/2-y,1/2+z
1/2-x,1/2+y,1/2+z
1/2+x,1/2-y,1/2+z
loop_
_atom_site_type_symbol
_atom_site_label
_atom_site_fract_x
_atom_site_fract_y
_atom_site_fract_z
Si Si1 0.891732 0.994043 0.357070
Si Si2 0.148209 0.107283 0.578891
Si Si3 0.857071 0.385947 0.412946
Si Si4 0.856611 0.543092 0.261385
Si Si5 0.355800 0.810093 0.436437
Si Si6 0.966514 0.695212 0.156618
Si Si7 0.852923 0.366400 0.665572
O O1 0.864805 0.929906 0.457964
O O2 0.858946 0.948642 0.247770
O O3 0.858967 0.097135 0.371426
O O4 0.000000 0.000000 0.357549
O O5 0.250000 0.146257 0.589714
O O6 0.070227 0.174057 0.623424
O O7 0.142561 0.018124 0.653795
O O8 0.750000 0.386088 0.381626
O O9 0.891489 0.474445 0.352798
O O10 0.891455 0.284343 0.384292
O O11 0.864233 0.393936 0.541226
O O12 0.750000 0.571136 0.279754
O O13 0.924638 0.625703 0.242406
O O14 0.250000 0.793117 0.464649
O O15 0.411281 0.823382 0.545713
O O16 0.933508 0.795101 0.189943
O O17 0.750000 0.325984 0.676163
#
# Coordination Sequence:
#
# PCOD9362726 Si02
#       7
#     8   8   8   8   8   8   8
#     4  12  22  38  62  93 130 168 212 262 322 378
#     4  11  22  37  60  92 125 161 209 271 323 358
#     4   8  18  35  58  88 123 167 211 246 305 382
#     4  10  18  33  61  91 124 159 203 266 323 374
#     4  10  18  34  61  89 120 162 212 255 303 376
#     4  11  20  37  61  96 120 163 215 260 314 383
#     4  10  22  40  64  94 131 171 209 256 316 386
#
# _framework density 20.851075999999999
#
# number of rings (size 3 to 8) (size 9 to 14) (size 15 to 20)
#    0.000    1.714    2.857    3.857    0.000    1.143 
#    0.000    1.429    3.143    1.714    0.000    0.000 
#    0.000    0.000    0.000    0.000    0.000    0.000 
#
# Total GULP energy -156342.561418 kJ/mol
# GULP energy per Si atom -5583.662908 kJ/mol
# Density = 2.080362 g / cm^3
# Si number density = 20.851076 Si / 1000 Ang^3
#
#
#
# Elastic Constant Matrix: (Units=GPa)
#
#
# Indices 1 2 3 4 5 6 
#
# 1 123.5176 27.2361 10.5506 0.0000 0.0000 0.0000
# 2 27.2361 110.2071 55.1112 0.0000 0.0000 0.0000
# 3 10.5506 55.1112 69.3572 0.0000 0.0000 0.0000
# 4 0.0000 0.0000 0.0000 41.4939 0.0000 0.0000
# 5 0.0000 0.0000 0.0000 0.0000 13.9993 0.0000
# 6 0.0000 0.0000 0.0000 0.0000 0.0000 26.6880
#
#
#
# Elastic Compliance Matrix: (Units=1/GPa)
#
#
# Indices 1 2 3 4 5 6 
#
# 1 0.008579 -0.002435 0.000630 0.000000 0.000000 0.000000
# 2 -0.002435 0.015748 -0.012143 0.000000 0.000000 0.000000
# 3 0.000630 -0.012143 0.023971 0.000000 0.000000 0.000000
# 4 0.000000 0.000000 0.000000 0.024100 0.000000 0.000000
# 5 0.000000 0.000000 0.000000 0.000000 0.071432 0.000000
# 6 0.000000 0.000000 0.000000 0.000000 0.000000 0.037470
#
#
# Mechanical properties :
#
#
# Convention : Reuss Voigt Hill
#
# Bulk Modulus (GPa) = 49.01515 54.31974 51.66745
# Shear Modulus (GPa) = 23.14847 30.44852 26.79849
#
# Velocity S-wave (km/s) = 3.33555 3.82551 3.58890
# Velocity P-wave (km/s) = 6.19620 6.75430 6.48126
#
# Compressibility (1/GPa) = 0.02040185
#
# Stress axis : x y z
#
# Youngs Moduli (GPa) = 116.56124 63.50045 41.71717
#
# Poissons Ratio (x) = 0.15464 -0.02628
# Poissons Ratio (y) = 0.28386 0.50656
# Poissons Ratio (z) = -0.07343 0.77107
#
# Static dielectric constant tensor:
#      x y z
#    x 1.819840 0.000000 0.000000 
#    y 0.000000 1.771850 0.000000 
#    z 0.000000 0.000000 1.753100 
# 
# From -- ./inp_files/12234.got.cif
#   From: 2010.05.17/outbox.cif.g08.bks.cpg/sg40_7_cif.got.tgz:12234.got - 2010.06.03 18:35:42.
