data_PCOD9362961
_publ_section_title
;
Structure prediction by ZEFSAII (Michael W. Deem and Ramdas Pophale) SiO2 
 PCOD9362961
Probable space group: A M A 2
;
_chemical_formula_sum "Si O2"
_cell_formula_units_Z 64
_cell_length_a 7.850692
_cell_length_b 16.956987
_cell_length_c 23.014556
_cell_angle_alpha 90.000000
_cell_angle_beta 90.000000
_cell_angle_gamma 90.000000
_cell_volume 3063.791644
_symmetry_space_group_name_H-M "A M A 2"
_symmetry_group_IT_number 40
_symmetry_cell_setting 'orthorhombic'
loop_
_space_group_symop_operation_xyz
x,y,z
-x,-y,z
1/2-x,y,z
1/2+x,-y,z
x,1/2+y,1/2+z
-x,1/2-y,1/2+z
1/2-x,1/2+y,1/2+z
1/2+x,1/2-y,1/2+z
loop_
_atom_site_type_symbol
_atom_site_label
_atom_site_fract_x
_atom_site_fract_y
_atom_site_fract_z
Si Si1 0.453488 0.411730 0.947040
Si Si2 0.055768 0.583892 0.131294
Si Si3 0.454418 0.769728 0.974842
Si Si4 0.957781 0.717844 0.729287
Si Si5 0.455714 0.912365 0.891006
Si Si6 0.553470 0.109408 0.760045
Si Si7 0.953671 0.584198 0.815273
Si Si8 0.958508 0.245122 0.101175
O O1 0.500000 0.500000 0.970839
O O2 0.250000 0.410396 0.947951
O O3 0.507613 0.324409 0.968934
O O4 0.522422 0.411495 0.880645
O O5 0.250000 0.591552 0.115297
O O6 0.974187 0.664590 0.108380
O O7 0.000000 0.500000 0.108143
O O8 0.038719 0.581805 0.201318
O O9 0.250000 0.775755 0.972571
O O10 0.516929 0.835244 0.927763
O O11 0.514812 0.790407 0.040139
O O12 0.750000 0.726879 0.731567
O O13 0.014835 0.650308 0.772172
O O14 0.004234 0.704789 0.662033
O O15 0.040604 0.797121 0.752829
O O16 0.250000 0.906842 0.888236
O O17 0.518158 0.910304 0.823703
O O18 0.500000 0.000000 0.914681
O O19 0.750000 0.082984 0.756554
O O20 0.750000 0.591677 0.819724
O O21 0.000000 0.500000 0.790526
O O22 0.750000 0.246187 0.099798
#
# Coordination Sequence:
#
# PCOD9362961 Si02
#       8
#     8   8   8   8   8   8   8   8
#     4  10  20  34  53  80 109 139 170 207 254 308
#     4  10  19  32  50  74 101 131 161 197 245 299
#     4  10  20  37  56  75 101 137 177 218 257 299
#     4   9  17  32  52  74  98 129 164 202 249 302
#     4  10  22  36  53  76 104 137 174 214 260 307
#     4  10  19  31  49  76 103 130 162 202 251 304
#     4   9  18  31  49  73 102 130 160 199 249 302
#     4   8  17  33  52  70  94 129 168 205 247 295
#
# _framework density 20.889149
#
# number of rings (size 3 to 8) (size 9 to 14) (size 15 to 20)
#    0.000    2.500    0.000    3.000    0.000    4.000 
#    0.000    5.000    0.000    0.000    0.000    0.000 
#    0.000    0.000    0.000    0.000    0.000    0.000 
#
# Total GULP energy -178273.440781 kJ/mol
# GULP energy per Si atom -5571.045024 kJ/mol
# Density = 2.084160 g / cm^3
# Si number density = 20.889149 Si / 1000 Ang^3
#
#
#
# Elastic Constant Matrix: (Units=GPa)
#
#
# Indices 1 2 3 4 5 6 
#
# 1 23.6228 -7.3867 -1.7442 0.0000 0.0000 0.0000
# 2 -7.3867 92.7759 45.0972 0.0000 0.0000 0.0000
# 3 -1.7442 45.0972 103.3353 0.0000 0.0000 0.0000
# 4 0.0000 0.0000 0.0000 -5.7777 0.0000 0.0000
# 5 0.0000 0.0000 0.0000 0.0000 8.5219 0.0000
# 6 0.0000 0.0000 0.0000 0.0000 0.0000 27.6498
#
#
#
# Elastic Compliance Matrix: (Units=1/GPa)
#
#
# Indices 1 2 3 4 5 6 
#
# 1 0.043492 0.003942 -0.000986 0.000000 0.000000 0.000000
# 2 0.003942 0.014038 -0.006060 0.000000 0.000000 0.000000
# 3 -0.000986 -0.006060 0.012305 0.000000 0.000000 0.000000
# 4 0.000000 0.000000 0.000000 -0.173080 0.000000 0.000000
# 5 0.000000 0.000000 0.000000 0.000000 0.117345 0.000000
# 6 0.000000 0.000000 0.000000 0.000000 0.000000 0.036167
#
#
# Mechanical properties :
#
#
# Convention : Reuss Voigt Hill
#
# Bulk Modulus (GPa) = 15.71657 32.40741 24.06199
# Shear Modulus (GPa) = 64.36300 18.32997 41.34649
#
# Velocity S-wave (km/s) = 5.55685 2.96546 4.45379
# Velocity P-wave (km/s) = 6.97937 5.22235 6.16378
#
# Compressibility (1/GPa) = 0.06362711
#
# Stress axis : x y z
#
# Youngs Moduli (GPa) = 22.99281 71.23413 81.26602
#
# Poissons Ratio (x) = -0.28082 0.08015
# Poissons Ratio (y) = -0.09064 0.49247
# Poissons Ratio (z) = 0.02268 0.43168
#
# Static dielectric constant tensor:
#      x y z
#    x 1.743210 0.000000 0.000000 
#    y 0.000000 1.792320 0.000000 
#    z 0.000000 0.000000 1.776860 
# 
# From -- ./inp_files/24333.got.cif
#   From: 2010.05.17/outbox.cif.g08.bks.cpg/sg40_13_cif.got.tgz:24333.got - 2010.06.03 18:35:42.
