data_PCOD9362979
_publ_section_title
;
Structure prediction by ZEFSAII (Michael W. Deem and Ramdas Pophale) SiO2 
 PCOD9362979
Probable space group: A M A 2
;
_chemical_formula_sum "Si O2"
_cell_formula_units_Z 64
_cell_length_a 21.250117
_cell_length_b 14.654706
_cell_length_c 9.560270
_cell_angle_alpha 90.000000
_cell_angle_beta 90.000000
_cell_angle_gamma 90.000000
_cell_volume 2977.203997
_symmetry_space_group_name_H-M "A M A 2"
_symmetry_group_IT_number 40
_symmetry_cell_setting 'orthorhombic'
loop_
_space_group_symop_operation_xyz
x,y,z
-x,-y,z
1/2-x,y,z
1/2+x,-y,z
x,1/2+y,1/2+z
-x,1/2-y,1/2+z
1/2-x,1/2+y,1/2+z
1/2+x,1/2-y,1/2+z
loop_
_atom_site_type_symbol
_atom_site_label
_atom_site_fract_x
_atom_site_fract_y
_atom_site_fract_z
Si Si1 0.934894 0.349823 0.819510
Si Si2 0.319663 0.440000 0.066138
Si Si3 0.445537 0.869356 0.497679
Si Si4 0.426089 0.149460 0.997137
Si Si5 0.046151 0.871279 0.821120
Si Si6 0.677306 0.384191 0.274459
Si Si7 0.321349 0.187394 0.499878
Si Si8 0.818604 0.619827 0.353036
O O1 0.926777 0.377519 0.659244
O O2 0.943555 0.238952 0.823735
O O3 0.872058 0.367142 0.909533
O O4 0.996780 0.388717 0.894759
O O5 0.250000 0.441990 0.002106
O O6 0.379688 0.421220 0.971425
O O7 0.327315 0.526294 0.172857
O O8 0.319854 0.360670 0.185784
O O9 0.432377 0.760363 0.492241
O O10 0.463739 0.894507 0.658013
O O11 0.486283 0.110102 0.915420
O O12 0.365265 0.120503 0.909455
O O13 0.110718 0.916301 0.878208
O O14 0.750000 0.370499 0.310974
O O15 0.657370 0.308120 0.160963
O O16 0.250000 0.149423 0.495395
O O17 0.316944 0.287489 0.437889
O O18 0.750000 0.573133 0.380098
#
# Coordination Sequence:
#
# PCOD9362979 Si02
#       8
#     8   8   8   8   8   8   8   8
#     4   9  17  29  49  77 105 135 175 224 270 309
#     4   9  18  34  55  79 107 140 179 223 271 323
#     4   9  17  31  53  77 103 140 181 218 262 324
#     4  10  19  31  51  80 111 139 175 225 272 319
#     4   8  15  28  47  74 106 137 171 217 268 314
#     4  10  21  35  53  80 112 142 176 223 276 324
#     4   9  17  31  52  76 102 136 178 218 258 315
#     4   8  14  27  50  75  96 127 175 218 251 302
#
# _framework density 21.496679
#
# number of rings (size 3 to 8) (size 9 to 14) (size 15 to 20)
#    0.000    3.000    0.000    1.500    0.000    4.000 
#    0.000    6.875    0.000    8.250    0.000   10.500 
#    0.000    0.000    0.000    0.000    0.000    0.000 
#
# Total GULP energy -178313.062469 kJ/mol
# GULP energy per Si atom -5572.283202 kJ/mol
# Density = 2.144775 g / cm^3
# Si number density = 21.496679 Si / 1000 Ang^3
#
#
#
# Elastic Constant Matrix: (Units=GPa)
#
#
# Indices 1 2 3 4 5 6 
#
# 1 185.8071 -1.3251 101.9776 0.0000 0.0000 0.0000
# 2 -1.3251 45.4587 18.8938 0.0000 0.0000 0.0000
# 3 101.9776 18.8938 133.0150 0.0000 0.0000 0.0000
# 4 0.0000 0.0000 0.0000 13.3475 0.0000 0.0000
# 5 0.0000 0.0000 0.0000 0.0000 35.7622 0.0000
# 6 0.0000 0.0000 0.0000 0.0000 0.0000 10.3418
#
#
#
# Elastic Compliance Matrix: (Units=1/GPa)
#
#
# Indices 1 2 3 4 5 6 
#
# 1 0.009825 0.003631 -0.008048 0.000000 0.000000 0.000000
# 2 0.003631 0.024720 -0.006295 0.000000 0.000000 0.000000
# 3 -0.008048 -0.006295 0.014582 0.000000 0.000000 0.000000
# 4 0.000000 0.000000 0.000000 0.074920 0.000000 0.000000
# 5 0.000000 0.000000 0.000000 0.000000 0.027962 0.000000
# 6 0.000000 0.000000 0.000000 0.000000 0.000000 0.096695
#
#
# Mechanical properties :
#
#
# Convention : Reuss Voigt Hill
#
# Bulk Modulus (GPa) = 36.09676 67.04150 51.56913
# Shear Modulus (GPa) = 17.89771 28.20592 23.05181
#
# Velocity S-wave (km/s) = 2.88858 3.62623 3.27822
# Velocity P-wave (km/s) = 5.28710 6.98479 6.19438
#
# Compressibility (1/GPa) = 0.02770332
#
# Stress axis : x y z
#
# Youngs Moduli (GPa) = 101.78097 40.45245 68.57535
#
# Poissons Ratio (x) = -0.14690 0.55191
# Poissons Ratio (y) = -0.36961 0.43171
# Poissons Ratio (z) = 0.81916 0.25467
#
# Static dielectric constant tensor:
#      x y z
#    x 1.834130 0.000000 0.000000 
#    y 0.000000 1.889820 0.000000 
#    z 0.000000 0.000000 1.771180 
# 
# From -- ./inp_files/8475.got.cif
#   From: 2010.05.17/outbox.cif.g08.bks.cpg/sg40_5_cif.got.tgz:8475.got - 2010.06.03 18:35:42.
