data_PCOD9362637
_publ_section_title
;
Structure prediction by ZEFSAII (Michael W. Deem and Ramdas Pophale) SiO2 
 PCOD9362637
Probable space group: A M A 2
;
_chemical_formula_sum "Si O2"
_cell_formula_units_Z 56
_cell_length_a 25.491021
_cell_length_b 21.904204
_cell_length_c 5.138382
_cell_angle_alpha 90.000000
_cell_angle_beta 90.000000
_cell_angle_gamma 90.000000
_cell_volume 2869.069667
_symmetry_space_group_name_H-M "A M A 2"
_symmetry_group_IT_number 40
_symmetry_cell_setting 'orthorhombic'
loop_
_space_group_symop_operation_xyz
x,y,z
-x,-y,z
1/2-x,y,z
1/2+x,-y,z
x,1/2+y,1/2+z
-x,1/2-y,1/2+z
1/2-x,1/2+y,1/2+z
1/2+x,1/2-y,1/2+z
loop_
_atom_site_type_symbol
_atom_site_label
_atom_site_fract_x
_atom_site_fract_y
_atom_site_fract_z
Si Si1 0.971772 0.566861 0.672360
Si Si2 0.572455 0.244196 0.016346
Si Si3 0.463217 0.322189 0.016953
Si Si4 0.630977 0.518666 0.445472
Si Si5 0.311245 0.021402 0.433981
Si Si6 0.070756 0.606184 0.389167
Si Si7 0.623579 0.856760 0.381197
O O1 0.967161 0.606933 0.933611
O O2 0.914817 0.563995 0.536753
O O3 0.000000 0.500000 0.717142
O O4 0.011474 0.603150 0.482395
O O5 0.520283 0.288260 0.012396
O O6 0.564686 0.197730 0.780696
O O7 0.623350 0.287578 0.985515
O O8 0.569447 0.209061 0.284889
O O9 0.675479 0.512260 0.664000
O O10 0.597682 0.456637 0.465816
O O11 0.656233 0.513732 0.160008
O O12 0.250000 0.020845 0.494327
O O13 0.330317 0.092809 0.401956
O O14 0.101185 0.650441 0.588701
O O15 0.082495 0.613395 0.086786
#
# Coordination Sequence:
#
# PCOD9362637 Si02
#       7
#     8   8   8   8   8   8   8
#     4  10  20  35  53  79 116 155 188 219 261 331
#     4  10  20  33  49  73 106 145 184 220 255 314
#     4  10  21  32  49  74 107 149 183 211 257 311
#     4   9  20  33  50  78 106 141 174 221 272 328
#     4  10  20  36  55  79 105 133 179 236 292 333
#     4   9  18  29  49  74 107 141 179 209 253 322
#     4  10  18  32  52  75 104 142 177 224 276 317
#
# _framework density 19.518519999999999
#
# number of rings (size 3 to 8) (size 9 to 14) (size 15 to 20)
#    0.000    2.286    1.429    1.286    4.000    2.286 
#    0.000    7.857    0.000    0.000    0.000    6.000 
#    0.000    0.000    0.000    0.000    0.000    0.000 
#
# Total GULP energy -155924.822778 kJ/mol
# GULP energy per Si atom -5568.743671 kJ/mol
# Density = 1.947410 g / cm^3
# Si number density = 19.518520 Si / 1000 Ang^3
#
#
#
# Elastic Constant Matrix: (Units=GPa)
#
#
# Indices 1 2 3 4 5 6 
#
# 1 69.3437 12.0270 7.9320 0.0000 0.0000 0.0000
# 2 12.0270 56.9595 7.0684 0.0000 0.0000 0.0000
# 3 7.9320 7.0684 65.7362 0.0000 0.0000 0.0000
# 4 0.0000 0.0000 0.0000 18.9544 0.0000 0.0000
# 5 0.0000 0.0000 0.0000 0.0000 18.8841 0.0000
# 6 0.0000 0.0000 0.0000 0.0000 0.0000 17.4966
#
#
#
# Elastic Compliance Matrix: (Units=1/GPa)
#
#
# Indices 1 2 3 4 5 6 
#
# 1 0.015114 -0.003005 -0.001501 0.000000 0.000000 0.000000
# 2 -0.003005 0.018391 -0.001615 0.000000 0.000000 0.000000
# 3 -0.001501 -0.001615 0.015567 0.000000 0.000000 0.000000
# 4 0.000000 0.000000 0.000000 0.052758 0.000000 0.000000
# 5 0.000000 0.000000 0.000000 0.000000 0.052955 0.000000
# 6 0.000000 0.000000 0.000000 0.000000 0.000000 0.057154
#
#
# Mechanical properties :
#
#
# Convention : Reuss Voigt Hill
#
# Bulk Modulus (GPa) = 27.15113 27.34382 27.24747
# Shear Modulus (GPa) = 21.14549 22.06781 21.60665
#
# Velocity S-wave (km/s) = 3.29501 3.36610 3.33074
# Velocity P-wave (km/s) = 5.33073 5.39880 5.36488
#
# Compressibility (1/GPa) = 0.03683088
#
# Stress axis : x y z
#
# Youngs Moduli (GPa) = 66.16484 54.37367 64.23834
#
# Poissons Ratio (x) = 0.16340 0.09639
# Poissons Ratio (y) = 0.19883 0.10374
# Poissons Ratio (z) = 0.09928 0.08781
#
# Static dielectric constant tensor:
#      x y z
#    x 1.694280 0.000000 0.000000 
#    y 0.000000 1.799190 0.000000 
#    z 0.000000 0.000000 1.737400 
# 
# From -- ./inp_files/2779.got.cif
#   From: 2010.05.17/outbox.cif.g08.bks.cpg/sg40_2_cif.got.tgz:2779.got - 2010.06.03 18:35:42.
