data_PCOD9362790
_publ_section_title
;
Structure prediction by ZEFSAII (Michael W. Deem and Ramdas Pophale) SiO2 
 PCOD9362790
Probable space group: A M A 2
;
_chemical_formula_sum "Si O2"
_cell_formula_units_Z 64
_cell_length_a 18.934394
_cell_length_b 12.108521
_cell_length_c 16.410305
_cell_angle_alpha 90.000000
_cell_angle_beta 90.000000
_cell_angle_gamma 90.000000
_cell_volume 3762.349723
_symmetry_space_group_name_H-M "A M A 2"
_symmetry_group_IT_number 40
_symmetry_cell_setting 'orthorhombic'
loop_
_space_group_symop_operation_xyz
x,y,z
-x,-y,z
1/2-x,y,z
1/2+x,-y,z
x,1/2+y,1/2+z
-x,1/2-y,1/2+z
1/2-x,1/2+y,1/2+z
1/2+x,1/2-y,1/2+z
loop_
_atom_site_type_symbol
_atom_site_label
_atom_site_fract_x
_atom_site_fract_y
_atom_site_fract_z
Si Si1 0.582792 0.498906 0.551830
Si Si2 0.166993 0.159413 0.505429
Si Si3 0.665493 0.816803 0.802451
Si Si4 0.075420 0.325292 0.408842
Si Si5 0.420499 0.951351 0.562726
Si Si6 0.581722 0.536735 0.251829
Si Si7 0.915268 0.775896 0.965224
Si Si8 0.167183 0.333249 0.653728
O O1 0.500000 0.500000 0.572140
O O2 0.592671 0.572658 0.469912
O O3 0.601620 0.374563 0.528214
O O4 0.625407 0.560510 0.622281
O O5 0.250000 0.150572 0.487045
O O6 0.123424 0.222683 0.435634
O O7 0.158962 0.238130 0.584959
O O8 0.132220 0.042942 0.526914
O O9 0.750000 0.827974 0.798151
O O10 0.639535 0.782699 0.891465
O O11 0.643309 0.722677 0.737637
O O12 0.629272 0.932126 0.777276
O O13 0.089542 0.366270 0.317743
O O14 0.993212 0.298876 0.426928
O O15 0.404012 0.932345 0.658255
O O16 0.416404 0.839464 0.511738
O O17 0.500000 0.000000 0.558243
O O18 0.500000 0.500000 0.257554
O O19 0.250000 0.359629 0.659524
#
# Coordination Sequence:
#
# PCOD9362790 Si02
#       8
#     8   8   8   8   8   8   8   8
#     4   9  18  32  57  82 115 148 188 238 286 339
#     4  10  20  36  59  85 118 159 195 236 294 354
#     4  11  22  37  59  87 119 155 197 242 294 355
#     4  10  18  36  58  85 120 148 195 247 292 343
#     4  11  23  37  61  89 121 158 198 244 299 361
#     4  11  20  35  61  92 118 151 196 255 297 339
#     4  11  21  38  57  86 121 152 194 244 294 353
#     4   9  19  36  57  85 117 148 188 238 288 352
#
# _framework density 17.010645
#
# number of rings (size 3 to 8) (size 9 to 14) (size 15 to 20)
#    0.000    1.750    5.000    0.375    0.000    1.500 
#    0.000    1.875    0.000    0.000    0.000    0.000 
#    0.000    0.000    0.000    0.000    0.000    0.000 
#
# Total GULP energy -178577.738613 kJ/mol
# GULP energy per Si atom -5580.554332 kJ/mol
# Density = 1.697193 g / cm^3
# Si number density = 17.010645 Si / 1000 Ang^3
#
#
#
# Elastic Constant Matrix: (Units=GPa)
#
#
# Indices 1 2 3 4 5 6 
#
# 1 67.5994 53.2848 44.1629 0.0000 0.0000 0.0000
# 2 53.2848 123.1060 70.7287 0.0000 0.0000 0.0000
# 3 44.1629 70.7287 105.5116 0.0000 0.0000 0.0000
# 4 0.0000 0.0000 0.0000 27.8655 0.0000 0.0000
# 5 0.0000 0.0000 0.0000 0.0000 9.6833 0.0000
# 6 0.0000 0.0000 0.0000 0.0000 0.0000 31.0520
#
#
#
# Elastic Compliance Matrix: (Units=1/GPa)
#
#
# Indices 1 2 3 4 5 6 
#
# 1 0.023977 -0.007501 -0.005008 0.000000 0.000000 0.000000
# 2 -0.007501 0.015558 -0.007289 0.000000 0.000000 0.000000
# 3 -0.005008 -0.007289 0.016460 0.000000 0.000000 0.000000
# 4 0.000000 0.000000 0.000000 0.035887 0.000000 0.000000
# 5 0.000000 0.000000 0.000000 0.000000 0.103271 0.000000
# 6 0.000000 0.000000 0.000000 0.000000 0.000000 0.032204
#
#
# Mechanical properties :
#
#
# Convention : Reuss Voigt Hill
#
# Bulk Modulus (GPa) = 60.98001 70.28554 65.63277
# Shear Modulus (GPa) = 18.35407 22.25620 20.30513
#
# Velocity S-wave (km/s) = 3.28834 3.62106 3.45870
# Velocity P-wave (km/s) = 7.09532 7.67405 7.39035
#
# Compressibility (1/GPa) = 0.01639882
#
# Stress axis : x y z
#
# Youngs Moduli (GPa) = 41.70617 64.27608 60.75358
#
# Poissons Ratio (x) = 0.48215 0.30423
# Poissons Ratio (y) = 0.31285 0.44285
# Poissons Ratio (z) = 0.20885 0.46853
#
# Static dielectric constant tensor:
#      x y z
#    x 1.568880 0.000000 0.000000 
#    y 0.000000 1.554480 0.000000 
#    z 0.000000 0.000000 1.571490 
# 
# From -- ./inp_files/17877.got.cif
#   From: 2010.05.17/outbox.cif.g08.bks.cpg/sg40_9_cif.got.tgz:17877.got - 2010.06.03 18:35:42.
