data_PCOD9362005
_publ_section_title
;
Structure prediction by ZEFSAII (Michael W. Deem and Ramdas Pophale) SiO2 
 PCOD9362005
Probable space group: A B M 2
;
_chemical_formula_sum "Si O2"
_cell_formula_units_Z 32
_cell_length_a 8.757213
_cell_length_b 14.048787
_cell_length_c 13.220776
_cell_angle_alpha 90.000000
_cell_angle_beta 90.000000
_cell_angle_gamma 90.000000
_cell_volume 1626.528540
_symmetry_space_group_name_H-M "A B M 2"
_symmetry_group_IT_number 39
_symmetry_cell_setting 'orthorhombic'
loop_
_space_group_symop_operation_xyz
x,y,z
-x,-y,z
-x,1/2+y,z
x,1/2-y,z
x,1/2+y,1/2+z
-x,1/2-y,1/2+z
-x,y,1/2+z
x,-y,1/2+z
loop_
_atom_site_type_symbol
_atom_site_label
_atom_site_fract_x
_atom_site_fract_y
_atom_site_fract_z
Si Si1 0.198431 0.250000 0.693390
Si Si2 0.906660 0.750000 0.470604
Si Si3 0.589837 0.250000 0.858685
Si Si4 0.440398 0.250000 0.135002
Si Si5 0.597671 0.092500 0.468524
Si Si6 0.904649 0.407824 0.352844
O O1 0.099680 0.250000 0.591233
O O2 0.377827 0.250000 0.661744
O O3 0.156161 0.158006 0.761157
O O4 0.733727 0.750000 0.431631
O O5 0.990444 0.659061 0.423137
O O6 0.640226 0.250000 0.743099
O O7 0.488445 0.341812 0.885641
O O8 0.395768 0.340604 0.067100
O O9 0.759644 0.064937 0.421631
O O10 0.500000 0.000000 0.490941
O O11 0.000000 0.500000 0.319986
#
# Coordination Sequence:
#
# PCOD9362005 Si02
#       6
#     4   4   4   4   8   8
#     4  11  22  45  67  97 129 178 221 271 330 396
#     4  11  23  42  68  96 132 168 215 279 339 388
#     4  11  21  42  67  93 131 167 223 277 331 393
#     4  11  22  43  70  96 128 175 227 275 324 393
#     4  11  23  42  66  96 128 176 222 272 326 392
#     4  11  25  44  65  98 137 173 217 277 335 399
#
# _framework density 19.673801999999998
#
# number of rings (size 3 to 8) (size 9 to 14) (size 15 to 20)
#    0.000    1.000    5.000    3.750    0.000    6.000 
#    4.500    0.000    0.000    0.000    0.000    0.000 
#    0.000    0.000    0.000    0.000    0.000    0.000 
#
# Total GULP energy -89444.930423 kJ/mol
# GULP energy per Si atom -5590.308151 kJ/mol
# Density = 1.962902 g / cm^3
# Si number density = 19.673802 Si / 1000 Ang^3
#
#
#
# Elastic Constant Matrix: (Units=GPa)
#
#
# Indices 1 2 3 4 5 6 
#
# 1 86.0205 12.5227 8.1914 0.0000 0.0000 0.0000
# 2 12.5227 95.7019 22.9995 0.0000 0.0000 0.0000
# 3 8.1914 22.9995 134.4030 0.0000 0.0000 0.0000
# 4 0.0000 0.0000 0.0000 4.1307 0.0000 0.0000
# 5 0.0000 0.0000 0.0000 0.0000 22.7918 0.0000
# 6 0.0000 0.0000 0.0000 0.0000 0.0000 41.6953
#
#
#
# Elastic Compliance Matrix: (Units=1/GPa)
#
#
# Indices 1 2 3 4 5 6 
#
# 1 0.011880 -0.001440 -0.000478 0.000000 0.000000 0.000000
# 2 -0.001440 0.011072 -0.001807 0.000000 0.000000 0.000000
# 3 -0.000478 -0.001807 0.007779 0.000000 0.000000 0.000000
# 4 0.000000 0.000000 0.000000 0.242090 0.000000 0.000000
# 5 0.000000 0.000000 0.000000 0.000000 0.043875 0.000000
# 6 0.000000 0.000000 0.000000 0.000000 0.000000 0.023984
#
#
# Mechanical properties :
#
#
# Convention : Reuss Voigt Hill
#
# Bulk Modulus (GPa) = 42.95170 44.83917 43.89544
# Shear Modulus (GPa) = 14.04935 31.88434 22.96684
#
# Velocity S-wave (km/s) = 2.67519 4.03010 3.42040
# Velocity P-wave (km/s) = 5.60549 6.67056 6.16108
#
# Compressibility (1/GPa) = 0.02328196
#
# Stress axis : x y z
#
# Youngs Moduli (GPa) = 84.17352 90.32000 128.55737
#
# Poissons Ratio (x) = 0.13004 0.06141
# Poissons Ratio (y) = 0.12119 0.23229
# Poissons Ratio (z) = 0.04021 0.16320
#
# Static dielectric constant tensor:
#      x y z
#    x 1.718570 0.000000 0.000000 
#    y 0.000000 1.647120 0.000000 
#    z 0.000000 0.000000 1.672550 
# 
# From -- ./inp_files/4829.got.cif
#   From: 2010.05.17/outbox.cif.g08.bks.cpg/sg39_3_cif.got.tgz:4829.got - 2010.06.03 18:22:40.
