data_PCOD9362447
_publ_section_title
;
Structure prediction by ZEFSAII (Michael W. Deem and Ramdas Pophale) SiO2 
 PCOD9362447
Probable space group: A M A 2
;
_chemical_formula_sum "Si O2"
_cell_formula_units_Z 64
_cell_length_a 7.904054
_cell_length_b 21.191921
_cell_length_c 16.384203
_cell_angle_alpha 90.000000
_cell_angle_beta 90.000000
_cell_angle_gamma 90.000000
_cell_volume 2744.388212
_symmetry_space_group_name_H-M "A M A 2"
_symmetry_group_IT_number 40
_symmetry_cell_setting 'orthorhombic'
loop_
_space_group_symop_operation_xyz
x,y,z
-x,-y,z
1/2-x,y,z
1/2+x,-y,z
x,1/2+y,1/2+z
-x,1/2-y,1/2+z
1/2-x,1/2+y,1/2+z
1/2+x,1/2-y,1/2+z
loop_
_atom_site_type_symbol
_atom_site_label
_atom_site_fract_x
_atom_site_fract_y
_atom_site_fract_z
Si Si1 0.448519 0.430643 0.032940
Si Si2 0.447992 0.684621 0.246253
Si Si3 0.558625 0.744571 0.411244
Si Si4 0.546637 0.425674 0.516372
Si Si5 0.454312 0.072650 0.838069
Si Si6 0.550291 0.288997 0.077588
Si Si7 0.452993 0.573947 0.691820
Si Si8 0.445180 0.876247 0.365226
O O1 0.500000 0.500000 0.064071
O O2 0.250000 0.423621 0.047644
O O3 0.529595 0.365031 0.064776
O O4 0.478801 0.428216 0.934716
O O5 0.250000 0.678049 0.226553
O O6 0.461778 0.715825 0.334667
O O7 0.521272 0.615332 0.264486
O O8 0.520670 0.721596 0.168706
O O9 0.750000 0.719691 0.412201
O O10 0.477594 0.748429 0.501912
O O11 0.563016 0.818274 0.387467
O O12 0.500000 0.500000 0.516404
O O13 0.750000 0.420460 0.516582
O O14 0.485727 0.402893 0.427699
O O15 0.485610 0.399800 0.603621
O O16 0.250000 0.077032 0.838395
O O17 0.500000 0.000000 0.829846
O O18 0.750000 0.274480 0.073125
O O19 0.500000 0.500000 0.692757
O O20 0.250000 0.579909 0.695734
O O21 0.529778 0.603461 0.772682
O O22 0.250000 0.856087 0.376444
#
# Coordination Sequence:
#
# PCOD9362447 Si02
#       8
#     8   8   8   8   8   8   8   8
#     4  10  20  33  53  81 113 150 190 231 282 342
#     4  10  21  39  62  86 115 150 186 230 285 339
#     4  10  21  39  60  81 109 145 188 237 284 333
#     4   8  15  28  45  67 100 138 177 218 264 317
#     4   9  18  34  56  81 111 146 180 222 275 330
#     4   9  20  39  60  82 114 150 188 237 287 336
#     4  10  18  28  45  71 106 144 187 234 282 334
#     4  10  20  34  52  75 106 145 189 235 287 339
#
# _framework density 23.320315000000001
#
# number of rings (size 3 to 8) (size 9 to 14) (size 15 to 20)
#    0.000    2.500    0.000    1.875    0.000    5.000 
#    2.250    1.250    0.000    0.000    0.000    0.000 
#    0.000    0.000    0.000    0.000    0.000    0.000 
#
# Total GULP energy -178422.189681 kJ/mol
# GULP energy per Si atom -5575.693428 kJ/mol
# Density = 2.326724 g / cm^3
# Si number density = 23.320315 Si / 1000 Ang^3
#
#
#
# Elastic Constant Matrix: (Units=GPa)
#
#
# Indices 1 2 3 4 5 6 
#
# 1 41.8448 -0.9679 3.0723 0.0000 0.0000 0.0000
# 2 -0.9679 21.2835 9.3130 0.0000 0.0000 0.0000
# 3 3.0723 9.3130 160.1342 0.0000 0.0000 0.0000
# 4 0.0000 0.0000 0.0000 21.6775 0.0000 0.0000
# 5 0.0000 0.0000 0.0000 0.0000 15.7293 0.0000
# 6 0.0000 0.0000 0.0000 0.0000 0.0000 21.4766
#
#
#
# Elastic Compliance Matrix: (Units=1/GPa)
#
#
# Indices 1 2 3 4 5 6 
#
# 1 0.023968 0.001325 -0.000537 0.000000 0.000000 0.000000
# 2 0.001325 0.048285 -0.002834 0.000000 0.000000 0.000000
# 3 -0.000537 -0.002834 0.006420 0.000000 0.000000 0.000000
# 4 0.000000 0.000000 0.000000 0.046131 0.000000 0.000000
# 5 0.000000 0.000000 0.000000 0.000000 0.063576 0.000000
# 6 0.000000 0.000000 0.000000 0.000000 0.000000 0.046562
#
#
# Mechanical properties :
#
#
# Convention : Reuss Voigt Hill
#
# Bulk Modulus (GPa) = 13.40814 27.34413 20.37613
# Shear Modulus (GPa) = 18.94708 25.89968 22.42338
#
# Velocity S-wave (km/s) = 2.85348 3.33619 3.10423
# Velocity P-wave (km/s) = 4.07658 5.15666 4.64810
#
# Compressibility (1/GPa) = 0.07458158
#
# Stress axis : x y z
#
# Youngs Moduli (GPa) = 41.72245 20.71044 155.76674
#
# Poissons Ratio (x) = -0.02744 0.08363
# Poissons Ratio (y) = -0.05528 0.44137
# Poissons Ratio (z) = 0.02240 0.05868
#
# Static dielectric constant tensor:
#      x y z
#    x 1.845720 0.000000 0.000000 
#    y 0.000000 1.914400 0.000000 
#    z 0.000000 0.000000 1.974130 
# 
# From -- ./inp_files/15641.got.cif
#   From: 2010.05.17/outbox.cif.g08.bks.cpg/sg40_8_cif.got.tgz:15641.got - 2010.06.03 18:35:42.
