data_PCOD9362753
_publ_section_title
;
Structure prediction by ZEFSAII (Michael W. Deem and Ramdas Pophale) SiO2 
 PCOD9362753
Probable space group: A M A 2
;
_chemical_formula_sum "Si O2"
_cell_formula_units_Z 64
_cell_length_a 21.137487
_cell_length_b 17.922525
_cell_length_c 7.021787
_cell_angle_alpha 90.000000
_cell_angle_beta 90.000000
_cell_angle_gamma 90.000000
_cell_volume 2660.113699
_symmetry_space_group_name_H-M "A M A 2"
_symmetry_group_IT_number 40
_symmetry_cell_setting 'orthorhombic'
loop_
_space_group_symop_operation_xyz
x,y,z
-x,-y,z
1/2-x,y,z
1/2+x,-y,z
x,1/2+y,1/2+z
-x,1/2-y,1/2+z
1/2-x,1/2+y,1/2+z
1/2+x,1/2-y,1/2+z
loop_
_atom_site_type_symbol
_atom_site_label
_atom_site_fract_x
_atom_site_fract_y
_atom_site_fract_z
Si Si1 0.508626 0.661466 0.167650
Si Si2 0.045762 0.319314 0.726196
Si Si3 0.639965 0.211893 0.693018
Si Si4 0.912904 0.373440 0.644205
Si Si5 0.681063 0.658213 0.554250
Si Si6 0.821005 0.060673 0.509893
Si Si7 0.180242 0.001214 0.071928
Si Si8 0.937591 0.459768 0.021625
O O1 0.464598 0.731814 0.198900
O O2 0.573582 0.677808 0.272694
O O3 0.469349 0.586865 0.191078
O O4 0.532281 0.662761 0.947067
O O5 0.117177 0.335723 0.672913
O O6 0.987900 0.359359 0.613160
O O7 0.621580 0.293560 0.615832
O O8 0.669575 0.148601 0.557095
O O9 0.680068 0.217745 0.884450
O O10 0.874771 0.439433 0.542052
O O11 0.910384 0.401350 0.866123
O O12 0.750000 0.663188 0.651716
O O13 0.677690 0.575925 0.456418
O O14 0.750000 0.039172 0.574220
O O15 0.822990 0.033475 0.287332
O O16 0.882823 0.015948 0.582940
O O17 0.250000 0.035587 0.048725
O O18 0.000000 0.500000 0.931639
#
# Coordination Sequence:
#
# PCOD9362753 Si02
#       8
#     8   8   8   8   8   8   8   8
#     4  10  20  37  62  90 118 158 197 257 306 359
#     4  10  20  37  60  89 123 154 206 249 303 365
#     4  11  21  39  58  88 118 156 203 245 304 363
#     4   9  21  34  61  89 113 155 197 248 301 354
#     4  11  23  37  56  84 122 162 199 248 303 360
#     4  10  20  36  60  87 115 153 202 248 301 366
#     4   9  20  38  58  85 116 152 200 247 299 363
#     4  10  18  34  59  86 119 154 199 250 295 355
#
# _framework density 24.05912
#
# number of rings (size 3 to 8) (size 9 to 14) (size 15 to 20)
#    0.000    2.000    1.250    3.375    5.250    1.000 
#    0.000    8.750    0.000    2.250    0.000    7.000 
#    0.000    0.000    0.000    0.000    0.000    0.000 
#
# Total GULP energy -178585.173467 kJ/mol
# GULP energy per Si atom -5580.786671 kJ/mol
# Density = 2.400436 g / cm^3
# Si number density = 24.059120 Si / 1000 Ang^3
#
#
#
# Elastic Constant Matrix: (Units=GPa)
#
#
# Indices 1 2 3 4 5 6 
#
# 1 199.5853 62.7123 29.4029 0.0000 0.0000 0.0000
# 2 62.7123 100.2930 10.7164 0.0000 0.0000 0.0000
# 3 29.4029 10.7164 59.4999 0.0000 0.0000 0.0000
# 4 0.0000 0.0000 0.0000 31.5328 0.0000 0.0000
# 5 0.0000 0.0000 0.0000 0.0000 32.3469 0.0000
# 6 0.0000 0.0000 0.0000 0.0000 0.0000 39.3694
#
#
#
# Elastic Compliance Matrix: (Units=1/GPa)
#
#
# Indices 1 2 3 4 5 6 
#
# 1 0.006599 -0.003852 -0.002567 0.000000 0.000000 0.000000
# 2 -0.003852 0.012415 -0.000333 0.000000 0.000000 0.000000
# 3 -0.002567 -0.000333 0.018135 0.000000 0.000000 0.000000
# 4 0.000000 0.000000 0.000000 0.031713 0.000000 0.000000
# 5 0.000000 0.000000 0.000000 0.000000 0.030915 0.000000
# 6 0.000000 0.000000 0.000000 0.000000 0.000000 0.025400
#
#
# Mechanical properties :
#
#
# Convention : Reuss Voigt Hill
#
# Bulk Modulus (GPa) = 42.29087 62.78239 52.53663
# Shear Modulus (GPa) = 34.11513 37.75295 35.93404
#
# Velocity S-wave (km/s) = 3.76968 3.96558 3.86887
# Velocity P-wave (km/s) = 6.04677 6.86436 6.46849
#
# Compressibility (1/GPa) = 0.02364576
#
# Stress axis : x y z
#
# Youngs Moduli (GPa) = 151.54001 80.54843 55.14118
#
# Poissons Ratio (x) = 0.31027 0.14156
# Poissons Ratio (y) = 0.58372 0.01834
# Poissons Ratio (z) = 0.38903 0.02678
#
# Static dielectric constant tensor:
#      x y z
#    x 1.947110 0.000000 0.000000 
#    y 0.000000 1.921400 0.000000 
#    z 0.000000 0.000000 2.113600 
# 
# From -- ./inp_files/8981.got.cif
#   From: 2010.05.17/outbox.cif.g08.bks.cpg/sg40_5_cif.got.tgz:8981.got - 2010.06.03 18:35:42.
