data_PCOD9362453
_publ_section_title
;
Structure prediction by ZEFSAII (Michael W. Deem and Ramdas Pophale) SiO2 
 PCOD9362453
Probable space group: A M A 2
;
_chemical_formula_sum "Si O2"
_cell_formula_units_Z 36
_cell_length_a 7.457535
_cell_length_b 7.156953
_cell_length_c 25.347956
_cell_angle_alpha 90.000000
_cell_angle_beta 90.000000
_cell_angle_gamma 90.000000
_cell_volume 1352.902222
_symmetry_space_group_name_H-M "A M A 2"
_symmetry_group_IT_number 40
_symmetry_cell_setting 'orthorhombic'
loop_
_space_group_symop_operation_xyz
x,y,z
-x,-y,z
1/2-x,y,z
1/2+x,-y,z
x,1/2+y,1/2+z
-x,1/2-y,1/2+z
1/2-x,1/2+y,1/2+z
1/2+x,1/2-y,1/2+z
loop_
_atom_site_type_symbol
_atom_site_label
_atom_site_fract_x
_atom_site_fract_y
_atom_site_fract_z
Si Si1 0.536592 0.222106 0.745550
Si Si2 0.250000 0.355361 0.949341
Si Si3 0.034307 0.775434 0.862005
Si Si4 0.946499 0.206551 0.016321
Si Si5 0.963959 0.722101 0.131921
O O1 0.750000 0.249028 0.744746
O O2 0.475877 0.286760 0.803018
O O3 0.466739 0.291296 0.689014
O O4 0.500000 0.000000 0.745499
O O5 0.408927 0.320181 0.904812
O O6 0.402214 0.339213 0.995814
O O7 0.250000 0.744581 0.869137
O O8 0.000000 0.000000 0.865474
O O9 0.750000 0.255596 0.995623
O O10 0.947041 0.199807 0.079490
O O11 0.000000 0.000000 0.996474
O O12 0.750000 0.753413 0.128577
O O13 0.000000 0.500000 0.130720
#
# Coordination Sequence:
#
# PCOD9362453 Si02
#       5
#     8   4   8   8   8
#     4   8  16  28  47  75 109 137 174 227 277 329
#     4  12  22  34  50  72 118 144 194 218 286 328
#     4  10  18  28  46  75 105 144 181 220 280 333
#     4  12  24  38  55  82 116 152 191 232 279 331
#     4  10  19  37  58  83 117 149 187 233 281 332
#
# _framework density 26.609461
#
# number of rings (size 3 to 8) (size 9 to 14) (size 15 to 20)
#    0.000    1.778    3.333    2.000    1.556    0.889 
#    0.000    0.000    0.000    0.000    0.000    1.556 
#    6.667    0.000    0.000    0.000    0.000    0.000 
#
# Total GULP energy -100349.102554 kJ/mol
# GULP energy per Si atom -5574.950142 kJ/mol
# Density = 2.654890 g / cm^3
# Si number density = 26.609461 Si / 1000 Ang^3
#
#
#
# Elastic Constant Matrix: (Units=GPa)
#
#
# Indices 1 2 3 4 5 6 
#
# 1 230.9914 17.2437 47.6036 0.0000 0.0000 0.0000
# 2 17.2437 109.5066 -13.5716 0.0000 0.0000 0.0000
# 3 47.6036 -13.5716 222.2985 0.0000 0.0000 0.0000
# 4 0.0000 0.0000 0.0000 23.4782 0.0000 0.0000
# 5 0.0000 0.0000 0.0000 0.0000 81.4707 0.0000
# 6 0.0000 0.0000 0.0000 0.0000 0.0000 18.1835
#
#
#
# Elastic Compliance Matrix: (Units=1/GPa)
#
#
# Indices 1 2 3 4 5 6 
#
# 1 0.004607 -0.000854 -0.001039 0.000000 0.000000 0.000000
# 2 -0.000854 0.009360 0.000754 0.000000 0.000000 0.000000
# 3 -0.001039 0.000754 0.004767 0.000000 0.000000 0.000000
# 4 0.000000 0.000000 0.000000 0.042593 0.000000 0.000000
# 5 0.000000 0.000000 0.000000 0.000000 0.012274 0.000000
# 6 0.000000 0.000000 0.000000 0.000000 0.000000 0.054995
#
#
# Mechanical properties :
#
#
# Convention : Reuss Voigt Hill
#
# Bulk Modulus (GPa) = 60.76541 73.92752 67.34646
# Shear Modulus (GPa) = 36.66808 58.72787 47.69798
#
# Velocity S-wave (km/s) = 3.71618 4.70300 4.23841
# Velocity P-wave (km/s) = 6.42642 7.57190 7.02256
#
# Compressibility (1/GPa) = 0.01645673
#
# Stress axis : x y z
#
# Youngs Moduli (GPa) = 217.06141 106.83913 209.77815
#
# Poissons Ratio (x) = 0.09126 0.21790
# Poissons Ratio (y) = 0.18541 -0.15825
# Poissons Ratio (z) = 0.22546 -0.08059
#
# Static dielectric constant tensor:
#      x y z
#    x 1.675610 0.000000 0.000000 
#    y 0.000000 2.115800 0.000000 
#    z 0.000000 0.000000 2.064760 
# 
# From -- ./inp_files/25156.got.cif
#   From: 2010.05.17/outbox.cif.g08.bks.cpg/sg40_13_cif.got.tgz:25156.got - 2010.06.03 18:35:42.
