data_PCOD9362038
_publ_section_title
;
Structure prediction by ZEFSAII (Michael W. Deem and Ramdas Pophale) SiO2 
 PCOD9362038
Probable space group: A B M 2
;
_chemical_formula_sum "Si O2"
_cell_formula_units_Z 64
_cell_length_a 13.081797
_cell_length_b 25.169146
_cell_length_c 10.049800
_cell_angle_alpha 90.000000
_cell_angle_beta 90.000000
_cell_angle_gamma 90.000000
_cell_volume 3308.973618
_symmetry_space_group_name_H-M "A B M 2"
_symmetry_group_IT_number 39
_symmetry_cell_setting 'orthorhombic'
loop_
_space_group_symop_operation_xyz
x,y,z
-x,-y,z
-x,1/2+y,z
x,1/2-y,z
x,1/2+y,1/2+z
-x,1/2-y,1/2+z
-x,y,1/2+z
x,-y,1/2+z
loop_
_atom_site_type_symbol
_atom_site_label
_atom_site_fract_x
_atom_site_fract_y
_atom_site_fract_z
Si Si1 0.605390 0.470022 0.085260
Si Si2 0.263505 0.993920 0.338678
Si Si3 0.180913 0.312799 0.601189
Si Si4 0.586690 0.811394 0.874542
Si Si5 0.210888 0.372037 0.881043
Si Si6 0.595092 0.656626 0.567498
Si Si7 0.989498 0.379078 0.534463
Si Si8 0.060964 0.053460 0.289788
O O1 0.500000 0.500000 0.058780
O O2 0.649504 0.486520 0.228208
O O3 0.590684 0.406943 0.078429
O O4 0.687824 0.486674 0.975467
O O5 0.214981 0.935512 0.360275
O O6 0.178943 0.035976 0.291043
O O7 0.174583 0.250000 0.620326
O O8 0.189255 0.343475 0.741272
O O9 0.288943 0.326410 0.531349
O O10 0.079300 0.335765 0.534077
O O11 0.617124 0.750000 0.892252
O O12 0.678011 0.850167 0.922004
O O13 0.572365 0.821226 0.716171
O O14 0.485885 0.823216 0.959845
O O15 0.118703 0.358909 0.979315
O O16 0.028109 0.424938 0.433937
O O17 0.968959 0.403337 0.679669
O O18 0.000000 0.000000 0.258315
#
# Coordination Sequence:
#
# PCOD9362038 Si02
#       8
#     8   8   8   8   8   8   8   8
#     4  12  26  42  66  99 138 177 217 265 333 399
#     4  12  24  42  65  99 135 179 217 263 328 399
#     4  11  23  44  70  94 131 178 223 279 342 394
#     4  11  23  44  72  96 125 173 225 278 334 396
#     4  11  22  43  66  95 134 173 218 269 334 398
#     4  11  24  45  69  96 133 170 223 276 334 399
#     4  12  24  44  64 102 131 173 224 275 330 394
#     4  12  25  39  69  95 135 172 218 267 323 398
#
# _framework density 19.341345
#
# number of rings (size 3 to 8) (size 9 to 14) (size 15 to 20)
#    0.000    0.500    5.000    5.250    3.500    1.000 
#    2.250    0.000    0.000    0.000    0.000    0.000 
#    0.000    0.000    0.000    0.000    0.000    0.000 
#
# Total GULP energy -178949.525354 kJ/mol
# GULP energy per Si atom -5592.172667 kJ/mol
# Density = 1.929732 g / cm^3
# Si number density = 19.341345 Si / 1000 Ang^3
#
#
#
# Elastic Constant Matrix: (Units=GPa)
#
#
# Indices 1 2 3 4 5 6 
#
# 1 125.8596 29.4801 27.0612 0.0000 0.0000 0.0000
# 2 29.4801 76.2109 8.8630 0.0000 0.0000 0.0000
# 3 27.0612 8.8630 48.8879 0.0000 0.0000 0.0000
# 4 0.0000 0.0000 0.0000 6.0652 0.0000 0.0000
# 5 0.0000 0.0000 0.0000 0.0000 19.5159 0.0000
# 6 0.0000 0.0000 0.0000 0.0000 0.0000 12.5062
#
#
#
# Elastic Compliance Matrix: (Units=1/GPa)
#
#
# Indices 1 2 3 4 5 6 
#
# 1 0.009729 -0.003205 -0.004804 0.000000 0.000000 0.000000
# 2 -0.003205 0.014460 -0.000848 0.000000 0.000000 0.000000
# 3 -0.004804 -0.000848 0.023268 0.000000 0.000000 0.000000
# 4 0.000000 0.000000 0.000000 0.164875 0.000000 0.000000
# 5 0.000000 0.000000 0.000000 0.000000 0.051240 0.000000
# 6 0.000000 0.000000 0.000000 0.000000 0.000000 0.079960
#
#
# Mechanical properties :
#
#
# Convention : Reuss Voigt Hill
#
# Bulk Modulus (GPa) = 33.62077 42.41859 38.01968
# Shear Modulus (GPa) = 13.47127 19.98774 16.72951
#
# Velocity S-wave (km/s) = 2.64199 3.21817 2.94421
# Velocity P-wave (km/s) = 5.16986 5.98231 5.59086
#
# Compressibility (1/GPa) = 0.02974351
#
# Stress axis : x y z
#
# Youngs Moduli (GPa) = 102.78574 69.15785 42.97752
#
# Poissons Ratio (x) = 0.22163 0.20648
# Poissons Ratio (y) = 0.32939 0.03643
# Poissons Ratio (z) = 0.49382 0.05861
#
# Static dielectric constant tensor:
#      x y z
#    x 1.691970 0.000000 0.000000 
#    y 0.000000 1.665870 0.000000 
#    z 0.000000 0.000000 1.654250 
# 
# From -- ./inp_files/3509.got.cif
#   From: 2010.05.17/outbox.cif.g08.bks.cpg/sg39_2_cif.got.tgz:3509.got - 2010.06.03 18:22:40.
