data_PCOD9362771
_publ_section_title
;
Structure prediction by ZEFSAII (Michael W. Deem and Ramdas Pophale) SiO2 
 PCOD9362771
Probable space group: A M A 2
;
_chemical_formula_sum "Si O2"
_cell_formula_units_Z 56
_cell_length_a 19.374136
_cell_length_b 16.790963
_cell_length_c 9.566836
_cell_angle_alpha 90.000000
_cell_angle_beta 90.000000
_cell_angle_gamma 90.000000
_cell_volume 3112.191253
_symmetry_space_group_name_H-M "A M A 2"
_symmetry_group_IT_number 40
_symmetry_cell_setting 'orthorhombic'
loop_
_space_group_symop_operation_xyz
x,y,z
-x,-y,z
1/2-x,y,z
1/2+x,-y,z
x,1/2+y,1/2+z
-x,1/2-y,1/2+z
1/2-x,1/2+y,1/2+z
1/2+x,1/2-y,1/2+z
loop_
_atom_site_type_symbol
_atom_site_label
_atom_site_fract_x
_atom_site_fract_y
_atom_site_fract_z
Si Si1 0.553891 0.896767 0.414870
Si Si2 0.328937 0.872333 0.217535
Si Si3 0.403692 0.427547 0.985432
Si Si4 0.593576 0.725759 0.483723
Si Si5 0.668029 0.108437 0.775511
Si Si6 0.516814 0.381505 0.586338
Si Si7 0.615920 0.506482 0.517566
O O1 0.483497 0.903688 0.503706
O O2 0.595491 0.819237 0.459502
O O3 0.529567 0.886180 0.252925
O O4 0.593572 0.979655 0.438464
O O5 0.250000 0.855107 0.246333
O O6 0.372404 0.878258 0.357507
O O7 0.360581 0.807617 0.111490
O O8 0.335611 0.958248 0.138942
O O9 0.359629 0.410678 0.122413
O O10 0.624195 0.679514 0.348695
O O11 0.514727 0.699528 0.523571
O O12 0.750000 0.124616 0.779299
O O13 0.650183 0.032763 0.873741
O O14 0.587232 0.417349 0.523317
O O15 0.453110 0.440184 0.545929
#
# Coordination Sequence:
#
# PCOD9362771 Si02
#       7
#     8   8   8   8   8   8   8
#     4  11  21  37  58  92 118 137 193 248 292 339
#     4  10  18  35  58  81 108 157 197 218 275 349
#     4  11  21  36  61  86 118 148 186 246 288 331
#     4  10  22  36  62  82 115 154 182 241 292 343
#     4  10  22  38  55  84 118 152 193 232 283 349
#     4   9  16  33  56  84 111 139 190 238 282 343
#     4   9  15  33  58  79 107 148 187 235 274 335
#
# _framework density 17.993752000000001
#
# number of rings (size 3 to 8) (size 9 to 14) (size 15 to 20)
#    0.000    2.286    4.286    3.000    2.000    4.571 
#    0.000    2.857    0.000    0.000    0.000    0.000 
#    0.000    0.000    0.000    0.000    0.000    0.000 
#
# Total GULP energy -155911.963157 kJ/mol
# GULP energy per Si atom -5568.284398 kJ/mol
# Density = 1.795280 g / cm^3
# Si number density = 17.993752 Si / 1000 Ang^3
#
#
#
# Elastic Constant Matrix: (Units=GPa)
#
#
# Indices 1 2 3 4 5 6 
#
# 1 65.3307 36.6220 29.3858 0.0000 0.0000 0.0000
# 2 36.6220 77.7063 20.5738 0.0000 0.0000 0.0000
# 3 29.3858 20.5738 101.5098 0.0000 0.0000 0.0000
# 4 0.0000 0.0000 0.0000 6.6102 0.0000 0.0000
# 5 0.0000 0.0000 0.0000 0.0000 -12.9422 0.0000
# 6 0.0000 0.0000 0.0000 0.0000 0.0000 8.8751
#
#
#
# Elastic Compliance Matrix: (Units=1/GPa)
#
#
# Indices 1 2 3 4 5 6 
#
# 1 0.022709 -0.009470 -0.004655 0.000000 0.000000 0.000000
# 2 -0.009470 0.017548 -0.000815 0.000000 0.000000 0.000000
# 3 -0.004655 -0.000815 0.011364 0.000000 0.000000 0.000000
# 4 0.000000 0.000000 0.000000 0.151281 0.000000 0.000000
# 5 0.000000 0.000000 0.000000 0.000000 -0.077267 0.000000
# 6 0.000000 0.000000 0.000000 0.000000 0.000000 0.112675
#
#
# Mechanical properties :
#
#
# Convention : Reuss Voigt Hill
#
# Bulk Modulus (GPa) = 45.99550 46.41220 46.20385
# Shear Modulus (GPa) = 18.15302 11.03964 14.59633
#
# Velocity S-wave (km/s) = 3.17969 2.47963 2.85123
# Velocity P-wave (km/s) = 6.25284 5.83503 6.04754
#
# Compressibility (1/GPa) = 0.02174126
#
# Stress axis : x y z
#
# Youngs Moduli (GPa) = 44.03551 56.98688 87.99790
#
# Poissons Ratio (x) = 0.53967 0.40959
# Poissons Ratio (y) = 0.41702 0.07173
# Poissons Ratio (z) = 0.20497 0.04645
#
# Static dielectric constant tensor:
#      x y z
#    x 1.649690 0.000000 0.000000 
#    y 0.000000 1.668230 0.000000 
#    z 0.000000 0.000000 1.621610 
# 
# From -- ./inp_files/8403.got.cif
#   From: 2010.05.17/outbox.cif.g08.bks.cpg/sg40_5_cif.got.tgz:8403.got - 2010.06.03 18:35:42.
