data_PCOD9362091
_publ_section_title
;
Structure prediction by ZEFSAII (Michael W. Deem and Ramdas Pophale) SiO2 
 PCOD9362091
Probable space group: A B M 2
;
_chemical_formula_sum "Si O2"
_cell_formula_units_Z 32
_cell_length_a 5.949698
_cell_length_b 23.801254
_cell_length_c 9.565778
_cell_angle_alpha 90.000000
_cell_angle_beta 90.000000
_cell_angle_gamma 90.000000
_cell_volume 1354.612437
_symmetry_space_group_name_H-M "A B M 2"
_symmetry_group_IT_number 39
_symmetry_cell_setting 'orthorhombic'
loop_
_space_group_symop_operation_xyz
x,y,z
-x,-y,z
-x,1/2+y,z
x,1/2-y,z
x,1/2+y,1/2+z
-x,1/2-y,1/2+z
-x,y,1/2+z
x,-y,1/2+z
loop_
_atom_site_type_symbol
_atom_site_label
_atom_site_fract_x
_atom_site_fract_y
_atom_site_fract_z
Si Si1 0.754910 0.688715 0.361400
Si Si2 0.411941 0.353715 0.637659
Si Si3 0.969664 0.577430 0.786503
Si Si4 0.301571 0.546023 0.551677
O O1 0.850899 0.750000 0.324231
O O2 0.692582 0.687103 0.524075
O O3 0.537660 0.676969 0.264089
O O4 0.911512 0.634811 0.338394
O O5 0.230447 0.399054 0.690205
O O6 0.590710 0.392095 0.555346
O O7 0.154426 0.544606 0.693532
O O8 0.857790 0.546412 0.917341
O O9 0.500000 0.500000 0.545208
#
# Coordination Sequence:
#
# PCOD9362091 Si02
#       4
#     8   8   8   8
#     4  11  24  43  74 108 150 200 247 309 380 448
#     4  11  23  47  69 111 150 188 256 312 360 460
#     4  11  24  50  73 109 153 196 256 311 374 463
#     4  11  26  50  78 108 150 198 252 320 382 444
#
# _framework density 23.622995
#
# number of rings (size 3 to 8) (size 9 to 14) (size 15 to 20)
#    0.000    1.000    5.000    0.750    0.000    4.000 
#    4.500    1.250    0.000    0.000    0.000    0.000 
#    0.000    0.000    0.000    0.000    0.000    0.000 
#
# Total GULP energy -89575.097085 kJ/mol
# GULP energy per Si atom -5598.443568 kJ/mol
# Density = 2.356923 g / cm^3
# Si number density = 23.622995 Si / 1000 Ang^3
#
#
#
# Elastic Constant Matrix: (Units=GPa)
#
#
# Indices 1 2 3 4 5 6 
#
# 1 113.9639 56.6108 67.6991 0.0000 0.0000 0.0000
# 2 56.6108 133.3471 60.2591 0.0000 0.0000 0.0000
# 3 67.6991 60.2591 154.6808 0.0000 0.0000 0.0000
# 4 0.0000 0.0000 0.0000 11.2899 0.0000 0.0000
# 5 0.0000 0.0000 0.0000 0.0000 48.0867 0.0000
# 6 0.0000 0.0000 0.0000 0.0000 0.0000 6.0630
#
#
#
# Elastic Compliance Matrix: (Units=1/GPa)
#
#
# Indices 1 2 3 4 5 6 
#
# 1 0.013156 -0.003621 -0.004347 0.000000 0.000000 0.000000
# 2 -0.003621 0.010098 -0.002349 0.000000 0.000000 0.000000
# 3 -0.004347 -0.002349 0.009283 0.000000 0.000000 0.000000
# 4 0.000000 0.000000 0.000000 0.088575 0.000000 0.000000
# 5 0.000000 0.000000 0.000000 0.000000 0.020796 0.000000
# 6 0.000000 0.000000 0.000000 0.000000 0.000000 0.164935
#
#
# Mechanical properties :
#
#
# Convention : Reuss Voigt Hill
#
# Bulk Modulus (GPa) = 84.01875 85.68110 84.84993
# Shear Modulus (GPa) = 15.08553 27.58277 21.33415
#
# Velocity S-wave (km/s) = 2.52979 3.42076 3.00844
# Velocity P-wave (km/s) = 6.64656 7.20771 6.93282
#
# Compressibility (1/GPa) = 0.01190210
#
# Stress axis : x y z
#
# Youngs Moduli (GPa) = 76.01268 99.03063 107.72544
#
# Poissons Ratio (x) = 0.35854 0.46833
# Poissons Ratio (y) = 0.27520 0.25307
# Poissons Ratio (z) = 0.33046 0.23265
#
# Static dielectric constant tensor:
#      x y z
#    x 1.910210 0.000000 0.000000 
#    y 0.000000 1.986810 0.000000 
#    z 0.000000 0.000000 1.890350 
# 
# From -- ./inp_files/1713.got.cif
#   From: 2010.05.17/outbox.cif.g08.bks.cpg/sg39_1_cif.got.tgz:1713.got - 2010.06.03 18:22:40.
