data_PCOD9362393
_publ_section_title
;
Structure prediction by ZEFSAII (Michael W. Deem and Ramdas Pophale) SiO2 
 PCOD9362393
Probable space group: A M A 2
;
_chemical_formula_sum "Si O2"
_cell_formula_units_Z 64
_cell_length_a 8.784843
_cell_length_b 18.731911
_cell_length_c 27.076705
_cell_angle_alpha 90.000000
_cell_angle_beta 90.000000
_cell_angle_gamma 90.000000
_cell_volume 4455.658562
_symmetry_space_group_name_H-M "A M A 2"
_symmetry_group_IT_number 40
_symmetry_cell_setting 'orthorhombic'
loop_
_space_group_symop_operation_xyz
x,y,z
-x,-y,z
1/2-x,y,z
1/2+x,-y,z
x,1/2+y,1/2+z
-x,1/2-y,1/2+z
1/2-x,1/2+y,1/2+z
1/2+x,1/2-y,1/2+z
loop_
_atom_site_type_symbol
_atom_site_label
_atom_site_fract_x
_atom_site_fract_y
_atom_site_fract_z
Si Si1 0.565850 0.340004 0.943950
Si Si2 0.425268 0.701683 0.790574
Si Si3 0.431554 0.921689 0.348942
Si Si4 0.567235 0.578913 0.036094
Si Si5 0.432919 0.669625 0.238500
Si Si6 0.066649 0.578055 0.143037
Si Si7 0.074768 0.798129 0.890190
Si Si8 0.930725 0.421940 0.334181
O O1 0.750000 0.344609 0.943802
O O2 0.501955 0.388412 0.899200
O O3 0.523472 0.257760 0.931890
O O4 0.496726 0.368520 0.994565
O O5 0.250000 0.683222 0.780730
O O6 0.519854 0.631695 0.804861
O O7 0.492833 0.753760 0.749102
O O8 0.429013 0.749959 0.840412
O O9 0.250000 0.924493 0.353456
O O10 0.500000 0.000000 0.341573
O O11 0.500000 0.500000 0.025497
O O12 0.750000 0.576273 0.035524
O O13 0.506103 0.598290 0.090520
O O14 0.250000 0.677128 0.241864
O O15 0.470260 0.633525 0.186408
O O16 0.480914 0.615735 0.282700
O O17 0.250000 0.572844 0.138344
O O18 0.000000 0.500000 0.155923
O O19 0.250000 0.818305 0.899220
O O20 0.979733 0.868121 0.877713
O O21 0.750000 0.427680 0.332752
O O22 0.000000 0.500000 0.339082
#
# Coordination Sequence:
#
# PCOD9362393 Si02
#       8
#     8   8   8   8   8   8   8   8
#     4  10  19  32  47  63  84 112 145 178 216 258
#     4   9  17  29  44  62  84 111 142 176 213 253
#     4  11  20  30  44  63  88 115 145 178 212 253
#     4  11  21  32  45  62  85 113 146 182 219 255
#     4   9  18  30  44  62  84 114 147 179 215 254
#     4  10  19  31  45  62  86 114 147 184 220 255
#     4   8  16  29  43  59  81 108 138 172 209 250
#     4  10  18  27  41  61  86 113 143 175 208 248
#
# _framework density 14.363757
#
# number of rings (size 3 to 8) (size 9 to 14) (size 15 to 20)
#    0.000    2.250    0.000    6.000    0.000    5.000 
#    0.000    0.000    0.000    0.000    0.000    0.000 
#    0.000    1.000    0.000    8.250    0.000    4.875 
#
# Total GULP energy -178418.199233 kJ/mol
# GULP energy per Si atom -5575.568726 kJ/mol
# Density = 1.433106 g / cm^3
# Si number density = 14.363757 Si / 1000 Ang^3
#
#
#
# Elastic Constant Matrix: (Units=GPa)
#
#
# Indices 1 2 3 4 5 6 
#
# 1 84.6605 50.8933 38.1291 0.0000 0.0000 0.0000
# 2 50.8933 100.4802 49.8462 0.0000 0.0000 0.0000
# 3 38.1291 49.8462 79.1878 0.0000 0.0000 0.0000
# 4 0.0000 0.0000 0.0000 26.9433 0.0000 0.0000
# 5 0.0000 0.0000 0.0000 0.0000 20.5747 0.0000
# 6 0.0000 0.0000 0.0000 0.0000 0.0000 24.6300
#
#
#
# Elastic Compliance Matrix: (Units=1/GPa)
#
#
# Indices 1 2 3 4 5 6 
#
# 1 0.017910 -0.006970 -0.004236 0.000000 0.000000 0.000000
# 2 -0.006970 0.017183 -0.007460 0.000000 0.000000 0.000000
# 3 -0.004236 -0.007460 0.019364 0.000000 0.000000 0.000000
# 4 0.000000 0.000000 0.000000 0.037115 0.000000 0.000000
# 5 0.000000 0.000000 0.000000 0.000000 0.048603 0.000000
# 6 0.000000 0.000000 0.000000 0.000000 0.000000 0.040601
#
#
# Mechanical properties :
#
#
# Convention : Reuss Voigt Hill
#
# Bulk Modulus (GPa) = 58.39699 60.22952 59.31326
# Shear Modulus (GPa) = 22.33965 22.79359 22.56662
#
# Velocity S-wave (km/s) = 3.94798 3.98789 3.96799
# Velocity P-wave (km/s) = 7.84386 7.95154 7.89788
#
# Compressibility (1/GPa) = 0.01712417
#
# Stress axis : x y z
#
# Youngs Moduli (GPa) = 55.83591 58.19586 51.64191
#
# Poissons Ratio (x) = 0.40561 0.21877
# Poissons Ratio (y) = 0.38916 0.38527
# Poissons Ratio (z) = 0.23654 0.43417
#
# Static dielectric constant tensor:
#      x y z
#    x 1.482670 0.000000 0.000000 
#    y 0.000000 1.464730 0.000000 
#    z 0.000000 0.000000 1.464850 
# 
# From -- ./inp_files/25532.got.cif
#   From: 2010.05.17/outbox.cif.g08.bks.cpg/sg40_13_cif.got.tgz:25532.got - 2010.06.03 18:35:42.
