data_PCOD9362360
_publ_section_title
;
Structure prediction by ZEFSAII (Michael W. Deem and Ramdas Pophale) SiO2 
 PCOD9362360
Probable space group: A M A 2
;
_chemical_formula_sum "Si O2"
_cell_formula_units_Z 44
_cell_length_a 23.897398
_cell_length_b 13.639167
_cell_length_c 7.534567
_cell_angle_alpha 90.000000
_cell_angle_beta 90.000000
_cell_angle_gamma 90.000000
_cell_volume 2455.821305
_symmetry_space_group_name_H-M "A M A 2"
_symmetry_group_IT_number 40
_symmetry_cell_setting 'orthorhombic'
loop_
_space_group_symop_operation_xyz
x,y,z
-x,-y,z
1/2-x,y,z
1/2+x,-y,z
x,1/2+y,1/2+z
-x,1/2-y,1/2+z
1/2-x,1/2+y,1/2+z
1/2+x,1/2-y,1/2+z
loop_
_atom_site_type_symbol
_atom_site_label
_atom_site_fract_x
_atom_site_fract_y
_atom_site_fract_z
Si Si1 0.372745 0.362229 0.425490
Si Si2 0.372217 0.694290 0.168731
Si Si3 0.250000 0.113919 0.622174
Si Si4 0.250000 0.933949 0.895808
Si Si5 0.566273 0.509937 0.139943
Si Si6 0.371813 0.893943 0.320800
Si Si7 0.750000 0.028406 0.311643
O O1 0.386495 0.251610 0.485447
O O2 0.307297 0.372975 0.375968
O O3 0.411122 0.409490 0.278026
O O4 0.379561 0.420198 0.612843
O O5 0.306114 0.673461 0.160468
O O6 0.404944 0.593764 0.186706
O O7 0.382826 0.776892 0.318537
O O8 0.250000 0.072563 0.421335
O O9 0.250000 0.019941 0.751856
O O10 0.250000 0.976739 0.097358
O O11 0.500000 0.500000 0.143027
O O12 0.589163 0.545526 0.949939
O O13 0.306994 0.915809 0.364480
#
# Coordination Sequence:
#
# PCOD9362360 Si02
#       7
#     8   8   4   4   8   8   4
#     4   9  21  41  59  91 122 150 201 256 301 368
#     4  10  22  40  62  88 123 160 188 255 311 357
#     4  12  18  36  66  90 126 156 188 238 324 370
#     4  10  17  34  65  86 120 152 187 248 311 370
#     4  12  24  42  63  85 120 172 214 250 296 346
#     4   9  21  41  59  91 122 150 201 256 301 368
#     4  10  17  34  65  86 120 152 187 248 311 370
#
# _framework density 17.916612000000001
#
# number of rings (size 3 to 8) (size 9 to 14) (size 15 to 20)
#    1.091    0.727    3.636    1.091    0.000    2.182 
#    6.545    0.000    0.000    0.000    0.000    0.000 
#    0.000    0.000    0.000    0.000    0.000    0.000 
#
# Total GULP energy -122531.513392 kJ/mol
# GULP energy per Si atom -5569.614245 kJ/mol
# Density = 1.787583 g / cm^3
# Si number density = 17.916612 Si / 1000 Ang^3
#
#
#
# Elastic Constant Matrix: (Units=GPa)
#
#
# Indices 1 2 3 4 5 6 
#
# 1 104.9153 3.0373 11.9475 0.0000 0.0000 0.0000
# 2 3.0373 30.1893 -13.2773 0.0000 0.0000 0.0000
# 3 11.9475 -13.2773 23.9348 0.0000 0.0000 0.0000
# 4 0.0000 0.0000 0.0000 37.3059 0.0000 0.0000
# 5 0.0000 0.0000 0.0000 0.0000 22.4741 0.0000
# 6 0.0000 0.0000 0.0000 0.0000 0.0000 -24.9565
#
#
#
# Elastic Compliance Matrix: (Units=1/GPa)
#
#
# Indices 1 2 3 4 5 6 
#
# 1 0.010542 -0.004464 -0.007739 0.000000 0.000000 0.000000
# 2 -0.004464 0.045704 0.027581 0.000000 0.000000 0.000000
# 3 -0.007739 0.027581 0.060943 0.000000 0.000000 0.000000
# 4 0.000000 0.000000 0.000000 0.026805 0.000000 0.000000
# 5 0.000000 0.000000 0.000000 0.000000 0.044496 0.000000
# 6 0.000000 0.000000 0.000000 0.000000 0.000000 -0.040070
#
#
# Mechanical properties :
#
#
# Convention : Reuss Voigt Hill
#
# Bulk Modulus (GPa) = 6.75920 18.05048 12.40484
# Shear Modulus (GPa) = 29.94409 17.45351 23.69880
#
# Velocity S-wave (km/s) = 4.09259 3.12453 3.64088
# Velocity P-wave (km/s) = 5.11011 4.80765 4.96118
#
# Compressibility (1/GPa) = 0.14794656
#
# Stress axis : x y z
#
# Youngs Moduli (GPa) = 94.85893 21.88005 16.40875
#
# Poissons Ratio (x) = 0.09767 0.12698
# Poissons Ratio (y) = 0.42345 -0.45258
# Poissons Ratio (z) = 0.73407 -0.60348
#
# Static dielectric constant tensor:
#      x y z
#    x 1.590040 0.000000 0.000000 
#    y 0.000000 1.608290 0.000000 
#    z 0.000000 0.000000 1.624750 
# 
# From -- ./inp_files/8703.got.cif
#   From: 2010.05.17/outbox.cif.g08.bks.cpg/sg40_5_cif.got.tgz:8703.got - 2010.06.03 18:35:42.
