data_PCOD9362556
_publ_section_title
;
Structure prediction by ZEFSAII (Michael W. Deem and Ramdas Pophale) SiO2 
 PCOD9362556
Probable space group: A M A 2
;
_chemical_formula_sum "Si O2"
_cell_formula_units_Z 48
_cell_length_a 8.657910
_cell_length_b 9.591038
_cell_length_c 31.965464
_cell_angle_alpha 90.000000
_cell_angle_beta 90.000000
_cell_angle_gamma 90.000000
_cell_volume 2654.359190
_symmetry_space_group_name_H-M "A M A 2"
_symmetry_group_IT_number 40
_symmetry_cell_setting 'orthorhombic'
loop_
_space_group_symop_operation_xyz
x,y,z
-x,-y,z
1/2-x,y,z
1/2+x,-y,z
x,1/2+y,1/2+z
-x,1/2-y,1/2+z
1/2-x,1/2+y,1/2+z
1/2+x,1/2-y,1/2+z
loop_
_atom_site_type_symbol
_atom_site_label
_atom_site_fract_x
_atom_site_fract_y
_atom_site_fract_z
Si Si1 0.435372 0.843034 0.572090
Si Si2 0.935856 0.156614 0.398312
Si Si3 0.064936 0.655680 0.652180
Si Si4 0.435861 0.153678 0.820902
Si Si5 0.064418 0.155404 0.725820
Si Si6 0.434569 0.158261 0.484845
O O1 0.250000 0.851836 0.568614
O O2 0.477103 0.746191 0.611193
O O3 0.503571 0.783322 0.528685
O O4 0.500000 0.000000 0.578249
O O5 0.750000 0.152274 0.400748
O O6 0.985086 0.242638 0.357541
O O7 0.001086 0.220154 0.441620
O O8 0.000000 0.000000 0.394763
O O9 0.250000 0.650667 0.654600
O O10 0.000000 0.500000 0.649662
O O11 0.000358 0.736459 0.692454
O O12 0.250000 0.148411 0.821556
O O13 0.481670 0.193795 0.773532
O O14 0.500000 0.000000 0.828858
O O15 0.250000 0.151450 0.723361
O O16 0.000000 0.000000 0.717453
O O17 0.250000 0.155887 0.484369
O O18 0.500000 0.000000 0.484935
#
# Coordination Sequence:
#
# PCOD9362556 Si02
#       6
#     8   8   8   8   8   8
#     4  10  20  35  56  80 105 137 177 218 262 312
#     4  10  19  33  52  77 108 140 176 217 262 310
#     4  11  24  39  56  80 110 143 177 219 271 322
#     4   9  20  36  55  79 107 140 177 218 262 311
#     4  10  20  37  59  82 108 140 181 223 265 316
#     4  10  18  30  51  78 105 136 175 217 261 307
#
# _framework density 18.083461
#
# number of rings (size 3 to 8) (size 9 to 14) (size 15 to 20)
#    0.000    2.000    0.000    6.000    0.000    6.667 
#    0.000    2.500    0.000    0.000    0.000    0.000 
#    0.000    0.000    0.000    0.000    0.000    0.000 
#
# Total GULP energy -133956.461179 kJ/mol
# GULP energy per Si atom -5581.519216 kJ/mol
# Density = 1.804230 g / cm^3
# Si number density = 18.083461 Si / 1000 Ang^3
#
#
#
# Elastic Constant Matrix: (Units=GPa)
#
#
# Indices 1 2 3 4 5 6 
#
# 1 72.3240 38.4686 63.8220 0.0000 0.0000 0.0000
# 2 38.4686 90.8180 104.1901 0.0000 0.0000 0.0000
# 3 63.8220 104.1901 195.6762 0.0000 0.0000 0.0000
# 4 0.0000 0.0000 0.0000 27.3019 0.0000 0.0000
# 5 0.0000 0.0000 0.0000 0.0000 30.5343 0.0000
# 6 0.0000 0.0000 0.0000 0.0000 0.0000 28.2536
#
#
#
# Elastic Compliance Matrix: (Units=1/GPa)
#
#
# Indices 1 2 3 4 5 6 
#
# 1 0.019632 -0.002492 -0.005076 0.000000 0.000000 0.000000
# 2 -0.002492 0.028612 -0.014422 0.000000 0.000000 0.000000
# 3 -0.005076 -0.014422 0.014445 0.000000 0.000000 0.000000
# 4 0.000000 0.000000 0.000000 0.036628 0.000000 0.000000
# 5 0.000000 0.000000 0.000000 0.000000 0.032750 0.000000
# 6 0.000000 0.000000 0.000000 0.000000 0.000000 0.035394
#
#
# Mechanical properties :
#
#
# Convention : Reuss Voigt Hill
#
# Bulk Modulus (GPa) = 53.45113 85.75330 69.60221
# Shear Modulus (GPa) = 22.96976 27.37377 25.17177
#
# Velocity S-wave (km/s) = 3.56786 3.89491 3.73497
# Velocity P-wave (km/s) = 6.82606 8.23109 7.56128
#
# Compressibility (1/GPa) = 0.01870868
#
# Stress axis : x y z
#
# Youngs Moduli (GPa) = 50.93836 34.95004 69.22605
#
# Poissons Ratio (x) = 0.08709 0.35141
# Poissons Ratio (y) = 0.12693 0.99839
# Poissons Ratio (z) = 0.25858 0.50406
#
# Static dielectric constant tensor:
#      x y z
#    x 1.607650 0.000000 0.000000 
#    y 0.000000 1.587530 0.000000 
#    z 0.000000 0.000000 1.657960 
# 
# From -- ./inp_files/26159.got.cif
#   From: 2010.05.17/outbox.cif.g08.bks.cpg/sg40_14_cif.got.tgz:26159.got - 2010.06.03 18:35:42.
