data_PCOD9362939
_publ_section_title
;
Structure prediction by ZEFSAII (Michael W. Deem and Ramdas Pophale) SiO2 
 PCOD9362939
Probable space group: A M A 2
;
_chemical_formula_sum "Si O2"
_cell_formula_units_Z 48
_cell_length_a 8.532570
_cell_length_b 24.740305
_cell_length_c 14.091766
_cell_angle_alpha 90.000000
_cell_angle_beta 90.000000
_cell_angle_gamma 90.000000
_cell_volume 2974.749034
_symmetry_space_group_name_H-M "A M A 2"
_symmetry_group_IT_number 40
_symmetry_cell_setting 'orthorhombic'
loop_
_space_group_symop_operation_xyz
x,y,z
-x,-y,z
1/2-x,y,z
1/2+x,-y,z
x,1/2+y,1/2+z
-x,1/2-y,1/2+z
1/2-x,1/2+y,1/2+z
1/2+x,1/2-y,1/2+z
loop_
_atom_site_type_symbol
_atom_site_label
_atom_site_fract_x
_atom_site_fract_y
_atom_site_fract_z
Si Si1 0.561112 0.941600 0.019710
Si Si2 0.940531 0.833539 0.698496
Si Si3 0.438343 0.668075 0.618923
Si Si4 0.939332 0.441579 0.299514
Si Si5 0.937929 0.224142 0.303070
Si Si6 0.061893 0.727268 0.012162
O O1 0.750000 0.942722 0.021027
O O2 0.509215 0.890560 0.081870
O O3 0.500000 0.000000 0.051587
O O4 0.512051 0.933843 0.909621
O O5 0.750000 0.834853 0.699362
O O6 0.995549 0.891142 0.736882
O O7 0.986938 0.784251 0.767764
O O8 0.988507 0.815833 0.592817
O O9 0.250000 0.669500 0.618514
O O10 0.499362 0.683373 0.723193
O O11 0.499216 0.714861 0.548419
O O12 0.750000 0.442193 0.297650
O O13 0.000000 0.500000 0.267860
O O14 0.750000 0.222494 0.302897
O O15 0.000412 0.214244 0.408039
O O16 0.250000 0.729174 0.011676
#
# Coordination Sequence:
#
# PCOD9362939 Si02
#       6
#     8   8   8   8   8   8
#     4   9  18  30  47  69  95 125 156 190 234 283
#     4   8  16  30  47  65  91 123 152 182 227 278
#     4  10  19  32  49  71  97 126 157 194 239 287
#     4   9  16  29  46  66  91 120 150 184 225 272
#     4  10  19  32  49  70  95 125 157 194 237 283
#     4  10  19  31  48  71  95 125 160 194 234 283
#
# _framework density 16.135814
#
# number of rings (size 3 to 8) (size 9 to 14) (size 15 to 20)
#    0.000    2.667    0.000    3.500    0.000    4.000 
#    0.000    8.333    0.000    1.000    0.000    2.333 
#    0.000    0.000    0.000    0.000    0.000    0.000 
#
# Total GULP energy -133801.478358 kJ/mol
# GULP energy per Si atom -5575.061598 kJ/mol
# Density = 1.609909 g / cm^3
# Si number density = 16.135814 Si / 1000 Ang^3
#
#
#
# Elastic Constant Matrix: (Units=GPa)
#
#
# Indices 1 2 3 4 5 6 
#
# 1 32.0939 27.4275 26.6370 0.0000 0.0000 0.0000
# 2 27.4275 164.8100 88.0791 0.0000 0.0000 0.0000
# 3 26.6370 88.0791 121.0971 0.0000 0.0000 0.0000
# 4 0.0000 0.0000 0.0000 22.4467 0.0000 0.0000
# 5 0.0000 0.0000 0.0000 0.0000 25.2645 0.0000
# 6 0.0000 0.0000 0.0000 0.0000 0.0000 24.9909
#
#
#
# Elastic Compliance Matrix: (Units=1/GPa)
#
#
# Indices 1 2 3 4 5 6 
#
# 1 0.039076 -0.003124 -0.006323 0.000000 0.000000 0.000000
# 2 -0.003124 0.010176 -0.006714 0.000000 0.000000 0.000000
# 3 -0.006323 -0.006714 0.014532 0.000000 0.000000 0.000000
# 4 0.000000 0.000000 0.000000 0.044550 0.000000 0.000000
# 5 0.000000 0.000000 0.000000 0.000000 0.039581 0.000000
# 6 0.000000 0.000000 0.000000 0.000000 0.000000 0.040015
#
#
# Mechanical properties :
#
#
# Convention : Reuss Voigt Hill
#
# Bulk Modulus (GPa) = 31.78453 66.92089 49.35271
# Shear Modulus (GPa) = 21.66948 26.26425 23.96687
#
# Velocity S-wave (km/s) = 3.66859 4.03885 3.85817
# Velocity P-wave (km/s) = 6.13887 7.95697 7.10630
#
# Compressibility (1/GPa) = 0.03146184
#
# Stress axis : x y z
#
# Youngs Moduli (GPa) = 25.59099 98.27415 68.81274
#
# Poissons Ratio (x) = 0.30697 0.43513
# Poissons Ratio (y) = 0.07994 0.46201
# Poissons Ratio (z) = 0.16182 0.65982
#
# Static dielectric constant tensor:
#      x y z
#    x 1.551460 0.000000 0.000000 
#    y 0.000000 1.531820 0.000000 
#    z 0.000000 0.000000 1.530400 
# 
# From -- ./inp_files/10251.got.cif
#   From: 2010.05.17/outbox.cif.g08.bks.cpg/sg40_6_cif.got.tgz:10251.got - 2010.06.03 18:35:42.
