data_PCOD9362608
_publ_section_title
;
Structure prediction by ZEFSAII (Michael W. Deem and Ramdas Pophale) SiO2 
 PCOD9362608
Probable space group: A M A 2
;
_chemical_formula_sum "Si O2"
_cell_formula_units_Z 52
_cell_length_a 14.646842
_cell_length_b 21.399977
_cell_length_c 8.801475
_cell_angle_alpha 90.000000
_cell_angle_beta 90.000000
_cell_angle_gamma 90.000000
_cell_volume 2758.752648
_symmetry_space_group_name_H-M "A M A 2"
_symmetry_group_IT_number 40
_symmetry_cell_setting 'orthorhombic'
loop_
_space_group_symop_operation_xyz
x,y,z
-x,-y,z
1/2-x,y,z
1/2+x,-y,z
x,1/2+y,1/2+z
-x,1/2-y,1/2+z
1/2-x,1/2+y,1/2+z
1/2+x,1/2-y,1/2+z
loop_
_atom_site_type_symbol
_atom_site_label
_atom_site_fract_x
_atom_site_fract_y
_atom_site_fract_z
Si Si1 0.357751 0.921066 0.262070
Si Si2 0.500000 0.500000 0.581505
Si Si3 0.147349 0.245747 0.075101
Si Si4 0.456954 0.806549 0.101459
Si Si5 0.003682 0.605188 0.341564
Si Si6 0.853985 0.804828 0.728813
Si Si7 0.853747 0.604709 0.111444
O O1 0.250000 0.921186 0.221627
O O2 0.405064 0.856911 0.205164
O O3 0.364543 0.923098 0.443648
O O4 0.416151 0.975175 0.181982
O O5 0.470287 0.556241 0.471082
O O6 0.250000 0.229798 0.129579
O O7 0.133969 0.319956 0.096176
O O8 0.062222 0.208081 0.145150
O O9 0.145110 0.228934 0.895105
O O10 0.403702 0.741794 0.113882
O O11 0.459825 0.836458 0.934043
O O12 0.927374 0.579462 0.228988
O O13 0.088729 0.632297 0.250200
O O14 0.750000 0.815761 0.685982
O O15 0.750000 0.593778 0.163600
#
# Coordination Sequence:
#
# PCOD9362608 Si02
#       7
#     8   4   8   8   8   8   8
#     4  10  21  39  64  85 109 155 207 249 291 350
#     4  10  24  42  60  86 110 156 206 254 294 342
#     4   9  17  30  51  82 119 154 188 228 285 348
#     4  10  18  32  57  86 118 153 192 238 290 353
#     4  10  22  36  55  86 120 152 194 244 298 347
#     4  10  18  31  53  82 116 157 188 229 293 353
#     4  10  19  34  58  86 115 150 193 242 296 354
#
# _framework density 18.849098000000001
#
# number of rings (size 3 to 8) (size 9 to 14) (size 15 to 20)
#    0.000    2.154    3.077    0.462    0.000    4.308 
#    0.000    2.308    0.000    0.923    0.000    0.000 
#    0.000    0.000    0.000    0.000    0.000    0.000 
#
# Total GULP energy -145027.196714 kJ/mol
# GULP energy per Si atom -5577.969104 kJ/mol
# Density = 1.880620 g / cm^3
# Si number density = 18.849098 Si / 1000 Ang^3
#
#
#
# Elastic Constant Matrix: (Units=GPa)
#
#
# Indices 1 2 3 4 5 6 
#
# 1 163.4792 57.0180 56.6340 0.0000 0.0000 0.0000
# 2 57.0180 63.6371 29.5170 0.0000 0.0000 0.0000
# 3 56.6340 29.5170 41.4502 0.0000 0.0000 0.0000
# 4 0.0000 0.0000 0.0000 24.9512 0.0000 0.0000
# 5 0.0000 0.0000 0.0000 0.0000 28.3658 0.0000
# 6 0.0000 0.0000 0.0000 0.0000 0.0000 18.7705
#
#
#
# Elastic Compliance Matrix: (Units=1/GPa)
#
#
# Indices 1 2 3 4 5 6 
#
# 1 0.012568 -0.004922 -0.013668 0.000000 0.000000 0.000000
# 2 -0.004922 0.025392 -0.011357 0.000000 0.000000 0.000000
# 3 -0.013668 -0.011357 0.050887 0.000000 0.000000 0.000000
# 4 0.000000 0.000000 0.000000 0.040078 0.000000 0.000000
# 5 0.000000 0.000000 0.000000 0.000000 0.035254 0.000000
# 6 0.000000 0.000000 0.000000 0.000000 0.000000 0.053275
#
#
# Mechanical properties :
#
#
# Convention : Reuss Voigt Hill
#
# Bulk Modulus (GPa) = 34.53705 61.65603 48.09654
# Shear Modulus (GPa) = 17.42169 22.77733 20.09951
#
# Velocity S-wave (km/s) = 3.04348 3.47998 3.26903
# Velocity P-wave (km/s) = 5.54194 6.99488 6.31037
#
# Compressibility (1/GPa) = 0.02895441
#
# Stress axis : x y z
#
# Youngs Moduli (GPa) = 79.56444 39.38308 19.65128
#
# Poissons Ratio (x) = 0.19383 0.26859
# Poissons Ratio (y) = 0.39158 0.22318
# Poissons Ratio (z) = 1.08746 0.44728
#
# Static dielectric constant tensor:
#      x y z
#    x 1.654000 0.000000 0.000000 
#    y 0.000000 1.658220 0.000000 
#    z 0.000000 0.000000 1.647090 
# 
# From -- ./inp_files/6818.got.cif
#   From: 2010.05.17/outbox.cif.g08.bks.cpg/sg40_4_cif.got.tgz:6818.got - 2010.06.03 18:35:42.
