data_PCOD9362665
_publ_section_title
;
Structure prediction by ZEFSAII (Michael W. Deem and Ramdas Pophale) SiO2 
 PCOD9362665
Probable space group: A M A 2
;
_chemical_formula_sum "Si O2"
_cell_formula_units_Z 56
_cell_length_a 8.772999
_cell_length_b 15.973273
_cell_length_c 19.946562
_cell_angle_alpha 90.000000
_cell_angle_beta 90.000000
_cell_angle_gamma 90.000000
_cell_volume 2795.181707
_symmetry_space_group_name_H-M "A M A 2"
_symmetry_group_IT_number 40
_symmetry_cell_setting 'orthorhombic'
loop_
_space_group_symop_operation_xyz
x,y,z
-x,-y,z
1/2-x,y,z
1/2+x,-y,z
x,1/2+y,1/2+z
-x,1/2-y,1/2+z
1/2-x,1/2+y,1/2+z
1/2+x,1/2-y,1/2+z
loop_
_atom_site_type_symbol
_atom_site_label
_atom_site_fract_x
_atom_site_fract_y
_atom_site_fract_z
Si Si1 0.066110 0.093170 0.464810
Si Si2 0.077356 0.381315 0.359880
Si Si3 0.574130 0.916181 0.989977
Si Si4 0.068740 0.254836 0.049116
Si Si5 0.427923 0.185431 0.327589
Si Si6 0.575598 0.925588 0.724608
Si Si7 0.923551 0.231507 0.188334
O O1 0.250000 0.091070 0.467145
O O2 0.020894 0.127213 0.389859
O O3 0.008655 0.161348 0.519648
O O4 0.000000 0.000000 0.475300
O O5 0.250000 0.402209 0.381163
O O6 0.064532 0.280975 0.354099
O O7 0.952762 0.415603 0.410630
O O8 0.037300 0.416436 0.287437
O O9 0.750000 0.916158 0.007754
O O10 0.506825 0.826536 0.009942
O O11 0.500000 0.000000 0.018467
O O12 0.250000 0.264558 0.038992
O O13 0.034468 0.226557 0.125098
O O14 0.250000 0.166642 0.313444
O O15 0.518870 0.188112 0.257117
O O16 0.750000 0.945909 0.741480
O O17 0.580093 0.832062 0.697166
O O18 0.500000 0.000000 0.681385
O O19 0.750000 0.203905 0.173586
#
# Coordination Sequence:
#
# PCOD9362665 Si02
#       7
#     8   8   8   8   8   8   8
#     4  11  23  41  66  97 130 169 217 268 323 383
#     4  10  18  32  55  82 114 150 185 232 288 344
#     4  11  23  37  57  85 116 152 193 241 298 359
#     4  11  24  42  63  89 124 164 208 261 317 379
#     4   9  19  37  61  88 119 157 202 252 305 365
#     4  10  20  33  50  78 112 148 189 235 287 351
#     4  10  22  38  60  85 116 159 205 256 315 376
#
# _framework density 20.034476000000002
#
# number of rings (size 3 to 8) (size 9 to 14) (size 15 to 20)
#    0.000    1.714    1.429    3.000    0.000    5.714 
#    0.000    2.143    0.000    0.000    0.000    0.000 
#    0.000    0.000    0.000    0.000    0.000    0.000 
#
# Total GULP energy -156068.367129 kJ/mol
# GULP energy per Si atom -5573.870255 kJ/mol
# Density = 1.998888 g / cm^3
# Si number density = 20.034476 Si / 1000 Ang^3
#
#
#
# Elastic Constant Matrix: (Units=GPa)
#
#
# Indices 1 2 3 4 5 6 
#
# 1 55.9367 30.0972 9.4468 0.0000 0.0000 0.0000
# 2 30.0972 82.3648 7.3573 0.0000 0.0000 0.0000
# 3 9.4468 7.3573 58.4391 0.0000 0.0000 0.0000
# 4 0.0000 0.0000 0.0000 6.0611 0.0000 0.0000
# 5 0.0000 0.0000 0.0000 0.0000 23.9858 0.0000
# 6 0.0000 0.0000 0.0000 0.0000 0.0000 25.9111
#
#
#
# Elastic Compliance Matrix: (Units=1/GPa)
#
#
# Indices 1 2 3 4 5 6 
#
# 1 0.022651 -0.008040 -0.002649 0.000000 0.000000 0.000000
# 2 -0.008040 0.015133 -0.000606 0.000000 0.000000 0.000000
# 3 -0.002649 -0.000606 0.017616 0.000000 0.000000 0.000000
# 4 0.000000 0.000000 0.000000 0.164987 0.000000 0.000000
# 5 0.000000 0.000000 0.000000 0.000000 0.041691 0.000000
# 6 0.000000 0.000000 0.000000 0.000000 0.000000 0.038593
#
#
# Mechanical properties :
#
#
# Convention : Reuss Voigt Hill
#
# Bulk Modulus (GPa) = 30.47828 32.28258 31.38043
# Shear Modulus (GPa) = 14.96113 21.18090 18.07102
#
# Velocity S-wave (km/s) = 2.73567 3.25502 3.00658
# Velocity P-wave (km/s) = 5.02240 5.50231 5.26782
#
# Compressibility (1/GPa) = 0.03281025
#
# Stress axis : x y z
#
# Youngs Moduli (GPa) = 44.14831 66.07973 56.76553
#
# Poissons Ratio (x) = 0.53130 0.15039
# Poissons Ratio (y) = 0.35497 0.03437
# Poissons Ratio (z) = 0.11696 0.04001
#
# Static dielectric constant tensor:
#      x y z
#    x 1.698570 0.000000 0.000000 
#    y 0.000000 1.777720 0.000000 
#    z 0.000000 0.000000 1.729100 
# 
# From -- ./inp_files/22173.got.cif
#   From: 2010.05.17/outbox.cif.g08.bks.cpg/sg40_12_cif.got.tgz:22173.got - 2010.06.03 18:35:42.
