data_PCOD9362731
_publ_section_title
;
Structure prediction by ZEFSAII (Michael W. Deem and Ramdas Pophale) SiO2 
 PCOD9362731
Probable space group: A M A 2
;
_chemical_formula_sum "Si O2"
_cell_formula_units_Z 48
_cell_length_a 10.522796
_cell_length_b 7.567848
_cell_length_c 28.256780
_cell_angle_alpha 90.000000
_cell_angle_beta 90.000000
_cell_angle_gamma 90.000000
_cell_volume 2250.226433
_symmetry_space_group_name_H-M "A M A 2"
_symmetry_group_IT_number 40
_symmetry_cell_setting 'orthorhombic'
loop_
_space_group_symop_operation_xyz
x,y,z
-x,-y,z
1/2-x,y,z
1/2+x,-y,z
x,1/2+y,1/2+z
-x,1/2-y,1/2+z
1/2-x,1/2+y,1/2+z
1/2+x,1/2-y,1/2+z
loop_
_atom_site_type_symbol
_atom_site_label
_atom_site_fract_x
_atom_site_fract_y
_atom_site_fract_z
Si Si1 0.110807 0.637174 0.251280
Si Si2 0.250000 0.755843 0.617358
Si Si3 0.479921 0.289559 0.652920
Si Si4 0.981462 0.714916 0.945403
Si Si5 0.750000 0.159104 0.091031
Si Si6 0.750000 0.659853 0.008325
Si Si7 0.108585 0.854995 0.347728
Si Si8 0.250000 0.757323 0.983052
O O1 0.250000 0.553463 0.246559
O O2 0.079708 0.740594 0.203187
O O3 0.112191 0.755972 0.298059
O O4 0.000000 0.500000 0.257674
O O5 0.382420 0.798401 0.643755
O O6 0.250000 0.542858 0.609465
O O7 0.250000 0.833536 0.564692
O O8 0.500000 0.500000 0.652376
O O9 0.376608 0.250382 0.612104
O O10 0.927088 0.760825 0.893732
O O11 0.000000 0.500000 0.944606
O O12 0.875985 0.747035 0.985663
O O13 0.118421 0.797115 0.956388
O O14 0.750000 0.157733 0.034806
O O15 0.750000 0.454910 0.992385
O O16 0.250000 0.930638 0.357037
O O17 0.000000 0.000000 0.343809
#
# Coordination Sequence:
#
# PCOD9362731 Si02
#       8
#     8   4   8   8   4   4   8   4
#     4  11  25  43  61  88 122 152 189 242 299 355
#     4  10  22  34  59  86 115 149 200 241 289 346
#     4  10  21  40  62  85 114 156 199 244 289 344
#     4   9  18  33  55  84 112 148 194 239 281 333
#     4  10  20  38  55  84 117 153 196 247 287 338
#     4  10  18  34  53  82 113 151 190 237 285 342
#     4  10  21  39  64  90 117 153 198 243 289 346
#     4  10  20  32  55  80 117 153 192 237 289 340
#
# _framework density 21.331185999999999
#
# number of rings (size 3 to 8) (size 9 to 14) (size 15 to 20)
#    0.000    2.000    1.667    1.500    4.667    2.000 
#    0.000    1.667    0.000    0.000    0.000    0.000 
#    0.000    0.000    0.000    0.000    0.000    0.000 
#
# Total GULP energy -134089.083915 kJ/mol
# GULP energy per Si atom -5587.045163 kJ/mol
# Density = 2.128264 g / cm^3
# Si number density = 21.331186 Si / 1000 Ang^3
#
#
#
# Elastic Constant Matrix: (Units=GPa)
#
#
# Indices 1 2 3 4 5 6 
#
# 1 209.0488 22.9797 61.7834 0.0000 0.0000 0.0000
# 2 22.9797 16.3577 -2.2679 0.0000 0.0000 0.0000
# 3 61.7834 -2.2679 120.0637 0.0000 0.0000 0.0000
# 4 0.0000 0.0000 0.0000 20.4892 0.0000 0.0000
# 5 0.0000 0.0000 0.0000 0.0000 42.0775 0.0000
# 6 0.0000 0.0000 0.0000 0.0000 0.0000 10.5237
#
#
#
# Elastic Compliance Matrix: (Units=1/GPa)
#
#
# Indices 1 2 3 4 5 6 
#
# 1 0.007066 -0.010458 -0.003834 0.000000 0.000000 0.000000
# 2 -0.010458 0.076773 0.006832 0.000000 0.000000 0.000000
# 3 -0.003834 0.006832 0.010431 0.000000 0.000000 0.000000
# 4 0.000000 0.000000 0.000000 0.048806 0.000000 0.000000
# 5 0.000000 0.000000 0.000000 0.000000 0.023766 0.000000
# 6 0.000000 0.000000 0.000000 0.000000 0.000000 0.095024
#
#
# Mechanical properties :
#
#
# Convention : Reuss Voigt Hill
#
# Bulk Modulus (GPa) = 12.60251 56.71783 34.66017
# Shear Modulus (GPa) = 16.48882 32.14973 24.31928
#
# Velocity S-wave (km/s) = 2.78329 3.88644 3.38017
# Velocity P-wave (km/s) = 4.03110 6.84004 5.61408
#
# Compressibility (1/GPa) = 0.07934927
#
# Stress axis : x y z
#
# Youngs Moduli (GPa) = 141.51740 13.02547 95.87010
#
# Poissons Ratio (x) = 0.13623 0.36754
# Poissons Ratio (y) = 1.48005 -0.65498
# Poissons Ratio (z) = 0.54255 -0.08899
#
# Static dielectric constant tensor:
#      x y z
#    x 1.788710 0.000000 0.000000 
#    y 0.000000 1.797290 0.000000 
#    z 0.000000 0.000000 1.772670 
# 
# From -- ./inp_files/24047.got.cif
#   From: 2010.05.17/outbox.cif.g08.bks.cpg/sg40_13_cif.got.tgz:24047.got - 2010.06.03 18:35:42.
