data_PCOD9362446
_publ_section_title
;
Structure prediction by ZEFSAII (Michael W. Deem and Ramdas Pophale) SiO2 
 PCOD9362446
Probable space group: A M A 2
;
_chemical_formula_sum "Si O2"
_cell_formula_units_Z 56
_cell_length_a 8.745621
_cell_length_b 19.353631
_cell_length_c 18.415969
_cell_angle_alpha 90.000000
_cell_angle_beta 90.000000
_cell_angle_gamma 90.000000
_cell_volume 3117.078105
_symmetry_space_group_name_H-M "A M A 2"
_symmetry_group_IT_number 40
_symmetry_cell_setting 'orthorhombic'
loop_
_space_group_symop_operation_xyz
x,y,z
-x,-y,z
1/2-x,y,z
1/2+x,-y,z
x,1/2+y,1/2+z
-x,1/2-y,1/2+z
1/2-x,1/2+y,1/2+z
1/2+x,1/2-y,1/2+z
loop_
_atom_site_type_symbol
_atom_site_label
_atom_site_fract_x
_atom_site_fract_y
_atom_site_fract_z
Si Si1 0.576937 0.294909 0.392940
Si Si2 0.933091 0.070087 0.048749
Si Si3 0.924920 0.155243 0.301066
Si Si4 0.433030 0.076775 0.434393
Si Si5 0.564583 0.702436 0.642157
Si Si6 0.569066 0.069883 0.880092
Si Si7 0.934985 0.204054 0.525550
O O1 0.750000 0.319877 0.405880
O O2 0.582919 0.227423 0.343621
O O3 0.486272 0.355843 0.353665
O O4 0.512373 0.263862 0.468250
O O5 0.750000 0.066099 0.049173
O O6 0.978650 0.137679 0.091709
O O7 0.983026 0.073372 0.964739
O O8 0.000000 0.000000 0.081233
O O9 0.750000 0.128491 0.292959
O O10 0.984682 0.177487 0.222129
O O11 0.016578 0.104227 0.354228
O O12 0.250000 0.075940 0.439506
O O13 0.499867 0.132444 0.492750
O O14 0.500000 0.000000 0.445808
O O15 0.750000 0.710471 0.643281
O O16 0.492964 0.770110 0.604032
O O17 0.750000 0.065079 0.877389
O O18 0.500000 0.000000 0.847577
O O19 0.750000 0.201291 0.523164
#
# Coordination Sequence:
#
# PCOD9362446 Si02
#       7
#     8   8   8   8   8   8   8
#     4   9  17  31  49  71  99 133 170 213 257 305
#     4   9  18  29  43  67  99 133 167 202 243 294
#     4   9  20  36  54  78 110 144 178 219 272 328
#     4  11  22  38  60  83 111 145 187 234 284 338
#     4  10  19  34  53  77 110 146 181 219 267 323
#     4  10  18  28  45  69  96 126 162 204 247 295
#     4  10  20  34  55  81 108 139 181 227 272 323
#
# _framework density 17.965543
#
# number of rings (size 3 to 8) (size 9 to 14) (size 15 to 20)
#    0.000    2.286    1.429    3.000    0.000    4.571 
#    0.000    1.429    0.000    0.857    0.000    4.000 
#    0.000    0.000    0.000    0.000    0.000    0.000 
#
# Total GULP energy -155946.019326 kJ/mol
# GULP energy per Si atom -5569.500690 kJ/mol
# Density = 1.792465 g / cm^3
# Si number density = 17.965543 Si / 1000 Ang^3
#
#
#
# Elastic Constant Matrix: (Units=GPa)
#
#
# Indices 1 2 3 4 5 6 
#
# 1 55.6569 40.9557 8.1006 0.0000 0.0000 0.0000
# 2 40.9557 118.1809 17.2482 0.0000 0.0000 0.0000
# 3 8.1006 17.2482 52.2965 0.0000 0.0000 0.0000
# 4 0.0000 0.0000 0.0000 12.0108 0.0000 0.0000
# 5 0.0000 0.0000 0.0000 0.0000 17.9271 0.0000
# 6 0.0000 0.0000 0.0000 0.0000 0.0000 30.7147
#
#
#
# Elastic Compliance Matrix: (Units=1/GPa)
#
#
# Indices 1 2 3 4 5 6 
#
# 1 0.024170 -0.008226 -0.001031 0.000000 0.000000 0.000000
# 2 -0.008226 0.011689 -0.002581 0.000000 0.000000 0.000000
# 3 -0.001031 -0.002581 0.020133 0.000000 0.000000 0.000000
# 4 0.000000 0.000000 0.000000 0.083258 0.000000 0.000000
# 5 0.000000 0.000000 0.000000 0.000000 0.055782 0.000000
# 6 0.000000 0.000000 0.000000 0.000000 0.000000 0.032558
#
#
# Mechanical properties :
#
#
# Convention : Reuss Voigt Hill
#
# Bulk Modulus (GPa) = 30.94399 39.86036 35.40218
# Shear Modulus (GPa) = 19.08124 22.78582 20.93353
#
# Velocity S-wave (km/s) = 3.26253 3.56519 3.41721
# Velocity P-wave (km/s) = 5.60835 6.25961 5.94291
#
# Compressibility (1/GPa) = 0.03231645
#
# Stress axis : x y z
#
# Youngs Moduli (GPa) = 41.37307 85.55081 49.67047
#
# Poissons Ratio (x) = 0.70372 0.05121
# Poissons Ratio (y) = 0.34033 0.12820
# Poissons Ratio (z) = 0.04265 0.22081
#
# Static dielectric constant tensor:
#      x y z
#    x 1.625990 0.000000 0.000000 
#    y 0.000000 1.646570 0.000000 
#    z 0.000000 0.000000 1.647620 
# 
# From -- ./inp_files/22305.got.cif
#   From: 2010.05.17/outbox.cif.g08.bks.cpg/sg40_12_cif.got.tgz:22305.got - 2010.06.03 18:35:42.
