data_PCOD9362639
_publ_section_title
;
Structure prediction by ZEFSAII (Michael W. Deem and Ramdas Pophale) SiO2 
 PCOD9362639
Probable space group: A M A 2
;
_chemical_formula_sum "Si O2"
_cell_formula_units_Z 56
_cell_length_a 8.819641
_cell_length_b 19.787780
_cell_length_c 17.818835
_cell_angle_alpha 90.000000
_cell_angle_beta 90.000000
_cell_angle_gamma 90.000000
_cell_volume 3109.762966
_symmetry_space_group_name_H-M "A M A 2"
_symmetry_group_IT_number 40
_symmetry_cell_setting 'orthorhombic'
loop_
_space_group_symop_operation_xyz
x,y,z
-x,-y,z
1/2-x,y,z
1/2+x,-y,z
x,1/2+y,1/2+z
-x,1/2-y,1/2+z
1/2-x,1/2+y,1/2+z
1/2+x,1/2-y,1/2+z
loop_
_atom_site_type_symbol
_atom_site_label
_atom_site_fract_x
_atom_site_fract_y
_atom_site_fract_z
Si Si1 0.424040 0.931120 0.570930
Si Si2 0.433205 0.289626 0.596523
Si Si3 0.578295 0.568035 0.252032
Si Si4 0.567828 0.074066 0.179433
Si Si5 0.068840 0.839233 0.323720
Si Si6 0.429211 0.683229 0.981157
Si Si7 0.067687 0.284894 0.239356
O O1 0.250000 0.922917 0.544971
O O2 0.418375 0.934910 0.661143
O O3 0.529125 0.870035 0.545664
O O4 0.500000 0.000000 0.542652
O O5 0.250000 0.286507 0.602364
O O6 0.477860 0.366128 0.620607
O O7 0.473714 0.256622 0.515974
O O8 0.502826 0.241094 0.660278
O O9 0.500000 0.500000 0.279431
O O10 0.750000 0.567953 0.280316
O O11 0.509106 0.641852 0.265686
O O12 0.750000 0.068979 0.176238
O O13 0.527343 0.102761 0.262866
O O14 0.500000 0.000000 0.166246
O O15 0.250000 0.831191 0.318698
O O16 0.017324 0.845196 0.409177
O O17 0.984462 0.772008 0.296480
O O18 0.250000 0.684258 0.965597
O O19 0.250000 0.289059 0.233352
#
# Coordination Sequence:
#
# PCOD9362639 Si02
#       7
#     8   8   8   8   8   8   8
#     4  10  19  32  47  71 104 137 170 206 248 299
#     4   9  19  34  53  77 105 136 172 217 270 318
#     4   9  18  29  46  72 100 129 163 204 248 296
#     4   9  19  36  56  79 105 136 174 219 268 318
#     4  10  22  37  52  74 106 141 175 217 268 323
#     4  11  21  34  53  77 105 141 179 219 267 321
#     4  10  18  32  52  76 101 130 173 218 257 307
#
# _framework density 18.007804
#
# number of rings (size 3 to 8) (size 9 to 14) (size 15 to 20)
#    0.000    2.286    1.429    2.571    0.000    5.714 
#    0.000    1.429    0.000    0.857    0.000    2.000 
#    0.000    0.000    0.000    0.000    0.000    0.000 
#
# Total GULP energy -155921.176650 kJ/mol
# GULP energy per Si atom -5568.613452 kJ/mol
# Density = 1.796682 g / cm^3
# Si number density = 18.007804 Si / 1000 Ang^3
#
#
#
# Elastic Constant Matrix: (Units=GPa)
#
#
# Indices 1 2 3 4 5 6 
#
# 1 21.5260 20.2876 -0.6452 0.0000 0.0000 0.0000
# 2 20.2876 133.0075 2.5738 0.0000 0.0000 0.0000
# 3 -0.6452 2.5738 19.4737 0.0000 0.0000 0.0000
# 4 0.0000 0.0000 0.0000 10.2482 0.0000 0.0000
# 5 0.0000 0.0000 0.0000 0.0000 19.8252 0.0000
# 6 0.0000 0.0000 0.0000 0.0000 0.0000 28.8361
#
#
#
# Elastic Compliance Matrix: (Units=1/GPa)
#
#
# Indices 1 2 3 4 5 6 
#
# 1 0.054419 -0.008357 0.002908 0.000000 0.000000 0.000000
# 2 -0.008357 0.008821 -0.001443 0.000000 0.000000 0.000000
# 3 0.002908 -0.001443 0.051638 0.000000 0.000000 0.000000
# 4 0.000000 0.000000 0.000000 0.097578 0.000000 0.000000
# 5 0.000000 0.000000 0.000000 0.000000 0.050441 0.000000
# 6 0.000000 0.000000 0.000000 0.000000 0.000000 0.034679
#
#
# Mechanical properties :
#
#
# Convention : Reuss Voigt Hill
#
# Bulk Modulus (GPa) = 9.89176 24.27106 17.08141
# Shear Modulus (GPa) = 14.49035 21.90129 18.19582
#
# Velocity S-wave (km/s) = 2.83975 3.49121 3.18219
# Velocity P-wave (km/s) = 4.03202 5.45515 4.79666
#
# Compressibility (1/GPa) = 0.10109429
#
# Stress axis : x y z
#
# Youngs Moduli (GPa) = 18.37607 113.36657 19.36542
#
# Poissons Ratio (x) = 0.94737 -0.05631
# Poissons Ratio (y) = 0.15356 0.02794
# Poissons Ratio (z) = -0.05343 0.16356
#
# Static dielectric constant tensor:
#      x y z
#    x 1.612930 0.000000 0.000000 
#    y 0.000000 1.646050 0.000000 
#    z 0.000000 0.000000 1.647700 
# 
# From -- ./inp_files/22291.got.cif
#   From: 2010.05.17/outbox.cif.g08.bks.cpg/sg40_12_cif.got.tgz:22291.got - 2010.06.03 18:35:42.
