data_PCOD9362848
_publ_section_title
;
Structure prediction by ZEFSAII (Michael W. Deem and Ramdas Pophale) SiO2 
 PCOD9362848
Probable space group: A M A 2
;
_chemical_formula_sum "Si O2"
_cell_formula_units_Z 64
_cell_length_a 8.832351
_cell_length_b 18.758307
_cell_length_c 26.990686
_cell_angle_alpha 90.000000
_cell_angle_beta 90.000000
_cell_angle_gamma 90.000000
_cell_volume 4471.815550
_symmetry_space_group_name_H-M "A M A 2"
_symmetry_group_IT_number 40
_symmetry_cell_setting 'orthorhombic'
loop_
_space_group_symop_operation_xyz
x,y,z
-x,-y,z
1/2-x,y,z
1/2+x,-y,z
x,1/2+y,1/2+z
-x,1/2-y,1/2+z
1/2-x,1/2+y,1/2+z
1/2+x,1/2-y,1/2+z
loop_
_atom_site_type_symbol
_atom_site_label
_atom_site_fract_x
_atom_site_fract_y
_atom_site_fract_z
Si Si1 0.425184 0.294951 0.990750
Si Si2 0.931511 0.921263 0.133583
Si Si3 0.431000 0.078373 0.433869
Si Si4 0.068198 0.834117 0.043999
Si Si5 0.070503 0.922296 0.944925
Si Si6 0.068418 0.422487 0.739818
Si Si7 0.567443 0.159560 0.339858
Si Si8 0.423837 0.201489 0.889482
O O1 0.250000 0.307362 0.003948
O O2 0.508448 0.367843 0.976198
O O3 0.426524 0.248827 0.939793
O O4 0.507914 0.244452 0.030257
O O5 0.750000 0.925201 0.133374
O O6 0.991699 0.867162 0.092331
O O7 0.992808 0.900760 0.187976
O O8 0.000000 0.000000 0.123161
O O9 0.250000 0.075936 0.434213
O O10 0.488253 0.111240 0.381551
O O11 0.500000 0.000000 0.439710
O O12 0.250000 0.833594 0.048604
O O13 0.027089 0.885165 0.997258
O O14 0.250000 0.928102 0.944363
O O15 0.017478 0.868627 0.901830
O O16 0.000000 0.000000 0.940831
O O17 0.250000 0.428406 0.733465
O O18 0.036786 0.370020 0.785380
O O19 0.000000 0.500000 0.752296
O O20 0.750000 0.155925 0.348440
O O21 0.521923 0.241906 0.348545
O O22 0.250000 0.181571 0.879442
#
# Coordination Sequence:
#
# PCOD9362848 Si02
#       8
#     8   8   8   8   8   8   8   8
#     4   9  17  30  45  62  85 112 142 176 214 255
#     4  11  21  32  45  62  85 114 147 183 220 254
#     4  11  20  29  43  63  88 117 148 181 215 254
#     4  10  19  31  46  64  85 112 146 179 215 258
#     4  10  19  28  41  61  84 111 142 174 208 248
#     4  10  19  31  45  62  85 112 144 181 218 255
#     4   9  18  31  46  63  84 113 146 179 218 260
#     4   8  15  28  43  59  82 109 137 171 209 250
#
# _framework density 14.311859999999999
#
# number of rings (size 3 to 8) (size 9 to 14) (size 15 to 20)
#    0.000    2.250    0.000    6.000    0.000    7.500 
#    0.000    0.000    0.000    0.000    0.000    0.000 
#    0.000    1.000    0.000    8.500    0.000    4.500 
#
# Total GULP energy -178429.455701 kJ/mol
# GULP energy per Si atom -5575.920491 kJ/mol
# Density = 1.427929 g / cm^3
# Si number density = 14.311860 Si / 1000 Ang^3
#
#
#
# Elastic Constant Matrix: (Units=GPa)
#
#
# Indices 1 2 3 4 5 6 
#
# 1 86.8252 58.0396 46.3139 0.0000 0.0000 0.0000
# 2 58.0396 116.0674 58.5581 0.0000 0.0000 0.0000
# 3 46.3139 58.5581 85.9415 0.0000 0.0000 0.0000
# 4 0.0000 0.0000 0.0000 27.1351 0.0000 0.0000
# 5 0.0000 0.0000 0.0000 0.0000 12.0979 0.0000
# 6 0.0000 0.0000 0.0000 0.0000 0.0000 24.8677
#
#
#
# Elastic Compliance Matrix: (Units=1/GPa)
#
#
# Indices 1 2 3 4 5 6 
#
# 1 0.018990 -0.006603 -0.005735 0.000000 0.000000 0.000000
# 2 -0.006603 0.015425 -0.006952 0.000000 0.000000 0.000000
# 3 -0.005735 -0.006952 0.019463 0.000000 0.000000 0.000000
# 4 0.000000 0.000000 0.000000 0.036853 0.000000 0.000000
# 5 0.000000 0.000000 0.000000 0.000000 0.082659 0.000000
# 6 0.000000 0.000000 0.000000 0.000000 0.000000 0.040213
#
#
# Mechanical properties :
#
#
# Convention : Reuss Voigt Hill
#
# Bulk Modulus (GPa) = 65.36279 68.29526 66.82903
# Shear Modulus (GPa) = 19.43403 21.21496 20.32450
#
# Velocity S-wave (km/s) = 3.68896 3.85429 3.77253
# Velocity P-wave (km/s) = 7.99463 8.22376 8.11001
#
# Compressibility (1/GPa) = 0.01529922
#
# Stress axis : x y z
#
# Youngs Moduli (GPa) = 52.65892 64.83138 51.37932
#
# Poissons Ratio (x) = 0.42806 0.29466
# Poissons Ratio (y) = 0.34769 0.35718
# Poissons Ratio (z) = 0.30199 0.45069
#
# Static dielectric constant tensor:
#      x y z
#    x 1.479600 0.000000 0.000000 
#    y 0.000000 1.466140 0.000000 
#    z 0.000000 0.000000 1.461220 
# 
# From -- ./inp_files/24400.got.cif
#   From: 2010.05.17/outbox.cif.g08.bks.cpg/sg40_13_cif.got.tgz:24400.got - 2010.06.03 18:35:42.
