data_PCOD9362198
_publ_section_title
;
Structure prediction by ZEFSAII (Michael W. Deem and Ramdas Pophale) SiO2 
 PCOD9362198
Probable space group: A B M 2
;
_chemical_formula_sum "Si O2"
_cell_formula_units_Z 32
_cell_length_a 21.000000
_cell_length_b 9.000000
_cell_length_c 21.000000
_cell_angle_alpha 90.000000
_cell_angle_beta 90.000000
_cell_angle_gamma 90.000000
_cell_volume 3969.000000
_symmetry_space_group_name_H-M "A B M 2"
_symmetry_group_IT_number 39
_symmetry_cell_setting 'orthorhombic'
loop_
_space_group_symop_operation_xyz
x,y,z
-x,-y,z
-x,1/2+y,z
x,1/2-y,z
x,1/2+y,1/2+z
-x,1/2-y,1/2+z
-x,y,1/2+z
x,-y,1/2+z
loop_
_atom_site_type_symbol
_atom_site_label
_atom_site_fract_x
_atom_site_fract_y
_atom_site_fract_z
Si Si1 0.169131 0.927848 0.526250
Si Si2 0.322138 0.432752 0.854295
Si Si3 0.426423 0.433612 0.251240
Si Si4 0.073088 0.431293 0.910789
Si Si5 0.817910 0.930893 0.315678
Si Si6 0.657953 0.070805 0.138033
Si Si7 0.694672 0.070708 0.992400
Si Si8 0.205659 0.072639 0.168603
O O1 0.180421 0.750000 0.519870
O O2 0.109162 0.961520 0.479302
O O3 0.165567 0.958702 0.603091
O O4 0.232407 0.013841 0.502295
O O5 0.322654 0.250000 0.851166
O O6 0.377346 0.500995 0.806566
O O7 0.251181 0.496249 0.834777
O O8 0.330948 0.490097 0.927940
O O9 0.500000 0.500000 0.256945
O O10 0.427610 0.250000 0.253785
O O11 0.394138 0.490015 0.183970
O O12 0.069279 0.250000 0.903353
O O13 0.123350 0.499492 0.857725
O O14 0.000000 0.500000 0.907944
O O15 0.815647 0.750000 0.325607
O O16 0.824381 0.957575 0.238685
O O17 0.652279 0.250000 0.145607
O O18 0.727675 0.015498 0.161753
O O19 0.659069 0.039130 0.060846
O O20 0.693933 0.250000 0.983488
O O21 0.219622 0.250000 0.167560
#
# Coordination Sequence:
#
# PCOD9362198 Si02
#       8
#     8   8   8   8   8   8   8   8
#     4   9  18  34  55  81 112 148 190 235 289 345
#     4  12  23  37  59  88 121 157 199 246 295 350
#     4  12  25  42  62  86 119 159 199 244 298 357
#     4  11  23  38  57  81 114 156 197 245 298 362
#     4  11  21  35  58  87 118 153 194 243 294 350
#     4  10  20  35  57  87 119 151 191 239 287 346
#     4  10  20  34  57  88 119 150 192 242 291 340
#     4   9  18  33  56  84 114 148 188 236 288 342
#
# _framework density 8.0624839999999995
#
# number of rings (size 3 to 8) (size 9 to 14) (size 15 to 20)
#    0.000    1.500    2.500    3.750    0.000    2.500 
#    0.000    1.250    0.000    4.500    0.000    0.000 
#    0.000    0.000    0.000    0.000    0.000    0.000 
#
# Total GULP energy -178320.686404 kJ/mol
# GULP energy per Si atom -5572.521450 kJ/mol
# Density = 0.804413 g / cm^3
# Si number density = 8.062484 Si / 1000 Ang^3
#
#
#
# Elastic Constant Matrix: (Units=GPa)
#
#
# Indices 1 2 3 4 5 6 
#
# 1 130.4828 50.8139 66.2762 0.0000 0.0000 0.0000
# 2 50.8139 123.8838 54.5173 0.0000 0.0000 0.0000
# 3 66.2762 54.5173 162.2702 0.0000 0.0000 0.0000
# 4 0.0000 0.0000 0.0000 35.0854 0.0000 0.0000
# 5 0.0000 0.0000 0.0000 0.0000 36.7422 0.0000
# 6 0.0000 0.0000 0.0000 0.0000 0.0000 35.6091
#
#
#
# Elastic Compliance Matrix: (Units=1/GPa)
#
#
# Indices 1 2 3 4 5 6 
#
# 1 0.010450 -0.002826 -0.003319 0.000000 0.000000 0.000000
# 2 -0.002826 0.010237 -0.002285 0.000000 0.000000 0.000000
# 3 -0.003319 -0.002285 0.008286 0.000000 0.000000 0.000000
# 4 0.000000 0.000000 0.000000 0.028502 0.000000 0.000000
# 5 0.000000 0.000000 0.000000 0.000000 0.027217 0.000000
# 6 0.000000 0.000000 0.000000 0.000000 0.000000 0.028083
#
#
# Mechanical properties :
#
#
# Convention : Reuss Voigt Hill
#
# Bulk Modulus (GPa) = 82.55416 84.42794 83.49105
# Shear Modulus (GPa) = 37.40537 37.82264 37.61401
#
# Velocity S-wave (km/s) = 4.82157 4.84839 4.83500
# Velocity P-wave (km/s) = 9.07217 9.15504 9.11370
#
# Compressibility (1/GPa) = 0.01211326
#
# Stress axis : x y z
#
# Youngs Moduli (GPa) = 95.69385 97.68734 120.68964
#
# Poissons Ratio (x) = 0.27605 0.40053
# Poissons Ratio (y) = 0.27042 0.27578
# Poissons Ratio (z) = 0.31758 0.22322
#
# Static dielectric constant tensor:
#      x y z
#    x 1.524280 0.000000 0.000000 
#    y 0.000000 1.553940 0.000000 
#    z 0.000000 0.000000 1.588810 
# 
# From -- ./inp_files/15049.got.cif
#   From: 2010.05.17/outbox.ucp.g08.bks.cvg/sg39_8_cif.got.tgz:15049.got - 2010.06.11 10:41:16.
