data_PCOD9362770
_publ_section_title
;
Structure prediction by ZEFSAII (Michael W. Deem and Ramdas Pophale) SiO2 
 PCOD9362770
Probable space group: A M A 2
;
_chemical_formula_sum "Si O2"
_cell_formula_units_Z 64
_cell_length_a 17.679793
_cell_length_b 14.279973
_cell_length_c 11.956074
_cell_angle_alpha 90.000000
_cell_angle_beta 90.000000
_cell_angle_gamma 90.000000
_cell_volume 3018.513736
_symmetry_space_group_name_H-M "A M A 2"
_symmetry_group_IT_number 40
_symmetry_cell_setting 'orthorhombic'
loop_
_space_group_symop_operation_xyz
x,y,z
-x,-y,z
1/2-x,y,z
1/2+x,-y,z
x,1/2+y,1/2+z
-x,1/2-y,1/2+z
1/2-x,1/2+y,1/2+z
1/2+x,1/2-y,1/2+z
loop_
_atom_site_type_symbol
_atom_site_label
_atom_site_fract_x
_atom_site_fract_y
_atom_site_fract_z
Si Si1 0.049542 0.372133 0.834890
Si Si2 0.625004 0.688983 0.348938
Si Si3 0.945323 0.329128 0.408752
Si Si4 0.839527 0.081396 0.163542
Si Si5 0.163669 0.009446 0.921516
Si Si6 0.665428 0.288466 0.071804
Si Si7 0.521349 0.400797 0.079518
Si Si8 0.939499 0.283929 0.662924
O O1 0.084329 0.269221 0.860629
O O2 0.110040 0.437802 0.772877
O O3 0.983930 0.353464 0.744549
O O4 0.013386 0.400370 0.953507
O O5 0.535506 0.673470 0.383391
O O6 0.660744 0.587132 0.352996
O O7 0.660339 0.753745 0.444053
O O8 0.630416 0.744360 0.233023
O O9 0.897160 0.418318 0.372197
O O10 0.931545 0.326780 0.541726
O O11 0.750000 0.072622 0.184493
O O12 0.856247 0.190924 0.133865
O O13 0.855809 0.023063 0.049997
O O14 0.250000 0.046082 0.922083
O O15 0.750000 0.312743 0.105046
O O16 0.609076 0.374840 0.081958
O O17 0.500000 0.500000 0.130959
O O18 0.485959 0.311754 0.141216
#
# Coordination Sequence:
#
# PCOD9362770 Si02
#       8
#     8   8   8   8   8   8   8   8
#     4  10  19  35  57  81 111 147 191 220 279 340
#     4  10  18  35  60  84 106 149 191 230 275 335
#     4  10  20  33  56  83 115 142 182 234 287 332
#     4   9  18  34  59  81 108 148 193 234 275 330
#     4  10  21  36  54  85 115 143 188 243 281 326
#     4  10  18  36  61  85 109 142 186 235 281 330
#     4  11  22  36  56  88 115 145 185 237 273 326
#     4  10  18  35  58  80 113 143 193 221 275 339
#
# _framework density 21.202486
#
# number of rings (size 3 to 8) (size 9 to 14) (size 15 to 20)
#    0.000    2.000    5.000    2.250    0.000    3.500 
#    0.000    1.875    0.000    3.000    0.000    0.000 
#    0.000    0.000    0.000    0.000    0.000    0.000 
#
# Total GULP energy -178526.353915 kJ/mol
# GULP energy per Si atom -5578.948560 kJ/mol
# Density = 2.115423 g / cm^3
# Si number density = 21.202486 Si / 1000 Ang^3
#
#
#
# Elastic Constant Matrix: (Units=GPa)
#
#
# Indices 1 2 3 4 5 6 
#
# 1 56.4499 32.3327 3.3642 0.0000 0.0000 0.0000
# 2 32.3327 74.4656 -20.4756 0.0000 0.0000 0.0000
# 3 3.3642 -20.4756 82.1430 0.0000 0.0000 0.0000
# 4 0.0000 0.0000 0.0000 -11.8132 0.0000 0.0000
# 5 0.0000 0.0000 0.0000 0.0000 11.2575 0.0000
# 6 0.0000 0.0000 0.0000 0.0000 0.0000 8.9812
#
#
#
# Elastic Compliance Matrix: (Units=1/GPa)
#
#
# Indices 1 2 3 4 5 6 
#
# 1 0.024723 -0.011823 -0.003960 0.000000 0.000000 0.000000
# 2 -0.011823 0.020072 0.005487 0.000000 0.000000 0.000000
# 3 -0.003960 0.005487 0.013704 0.000000 0.000000 0.000000
# 4 0.000000 0.000000 0.000000 -0.084651 0.000000 0.000000
# 5 0.000000 0.000000 0.000000 0.000000 0.088830 0.000000
# 6 0.000000 0.000000 0.000000 0.000000 0.000000 0.111344
#
#
# Mechanical properties :
#
#
# Convention : Reuss Voigt Hill
#
# Bulk Modulus (GPa) = 26.38037 27.05567 26.71802
# Shear Modulus (GPa) = 24.12569 14.87424 19.49997
#
# Velocity S-wave (km/s) = 3.37689 2.65152 3.03595
# Velocity P-wave (km/s) = 5.26058 4.70770 4.99180
#
# Compressibility (1/GPa) = 0.03790697
#
# Stress axis : x y z
#
# Youngs Moduli (GPa) = 40.44834 49.82173 72.97196
#
# Poissons Ratio (x) = 0.58906 0.28895
# Poissons Ratio (y) = 0.47824 -0.40043
# Poissons Ratio (z) = 0.16016 -0.27339
#
# Static dielectric constant tensor:
#      x y z
#    x 1.788530 0.000000 0.000000 
#    y 0.000000 1.764740 0.000000 
#    z 0.000000 0.000000 1.824830 
# 
# From -- ./inp_files/13132.got.cif
#   From: 2010.05.17/outbox.cif.g08.bks.cpg/sg40_7_cif.got.tgz:13132.got - 2010.06.03 18:35:42.
