data_PCOD9362800
_publ_section_title
;
Structure prediction by ZEFSAII (Michael W. Deem and Ramdas Pophale) SiO2 
 PCOD9362800
Probable space group: A M A 2
;
_chemical_formula_sum "Si O2"
_cell_formula_units_Z 64
_cell_length_a 8.496118
_cell_length_b 24.468931
_cell_length_c 15.964078
_cell_angle_alpha 90.000000
_cell_angle_beta 90.000000
_cell_angle_gamma 90.000000
_cell_volume 3318.786944
_symmetry_space_group_name_H-M "A M A 2"
_symmetry_group_IT_number 40
_symmetry_cell_setting 'orthorhombic'
loop_
_space_group_symop_operation_xyz
x,y,z
-x,-y,z
1/2-x,y,z
1/2+x,-y,z
x,1/2+y,1/2+z
-x,1/2-y,1/2+z
1/2-x,1/2+y,1/2+z
1/2+x,1/2-y,1/2+z
loop_
_atom_site_type_symbol
_atom_site_label
_atom_site_fract_x
_atom_site_fract_y
_atom_site_fract_z
Si Si1 0.059635 0.370799 0.457420
Si Si2 0.058154 0.870284 0.770602
Si Si3 0.938458 0.938578 0.114755
Si Si4 0.559456 0.748076 0.205970
Si Si5 0.059466 0.438440 0.109008
Si Si6 0.061536 0.750385 0.015939
Si Si7 0.061966 0.364047 0.952729
Si Si8 0.940015 0.365656 0.772508
O O1 0.250000 0.372929 0.460193
O O2 0.007500 0.386614 0.363787
O O3 0.012208 0.308045 0.475649
O O4 0.995042 0.408815 0.530566
O O5 0.250000 0.870642 0.770287
O O6 0.010037 0.807974 0.750556
O O7 0.006136 0.909213 0.694999
O O8 0.750000 0.938871 0.115340
O O9 0.992377 0.903749 0.195652
O O10 0.000000 0.000000 0.118654
O O11 0.750000 0.748141 0.202674
O O12 0.509494 0.803358 0.252634
O O13 0.497170 0.748801 0.111441
O O14 0.250000 0.438521 0.109176
O O15 0.000000 0.500000 0.103621
O O16 0.007077 0.402317 0.029419
O O17 0.250000 0.748240 0.013862
O O18 0.997161 0.697373 0.968953
O O19 0.250000 0.363864 0.953857
O O20 0.002963 0.383364 0.862458
O O21 0.750000 0.366241 0.775026
#
# Coordination Sequence:
#
# PCOD9362800 Si02
#       8
#     8   8   8   8   8   8   8   8
#     4  10  21  38  62  89 120 157 196 241 294 354
#     4   9  18  36  61  85 115 154 192 234 292 354
#     4  11  24  42  63  86 118 158 201 250 301 354
#     4  10  18  36  62  86 120 158 191 233 297 362
#     4  10  22  40  60  82 111 152 198 244 295 345
#     4  11  21  34  58  92 125 155 194 242 294 351
#     4  11  23  39  61  87 119 159 199 243 296 358
#     4  10  22  39  62  89 118 155 195 243 302 354
#
# _framework density 19.284153
#
# number of rings (size 3 to 8) (size 9 to 14) (size 15 to 20)
#    0.000    1.750    2.500    1.875    0.000    6.000 
#    0.000    5.000    0.000    0.000    0.000    0.000 
#    0.000    0.000    0.000    0.000    0.000    0.000 
#
# Total GULP energy -178791.364834 kJ/mol
# GULP energy per Si atom -5587.230151 kJ/mol
# Density = 1.924026 g / cm^3
# Si number density = 19.284153 Si / 1000 Ang^3
#
#
#
# Elastic Constant Matrix: (Units=GPa)
#
#
# Indices 1 2 3 4 5 6 
#
# 1 11.2976 21.1819 23.0629 0.0000 0.0000 0.0000
# 2 21.1819 137.5851 71.7000 0.0000 0.0000 0.0000
# 3 23.0629 71.7000 180.0325 0.0000 0.0000 0.0000
# 4 0.0000 0.0000 0.0000 -2.9289 0.0000 0.0000
# 5 0.0000 0.0000 0.0000 0.0000 27.4259 0.0000
# 6 0.0000 0.0000 0.0000 0.0000 0.0000 2.3697
#
#
#
# Elastic Compliance Matrix: (Units=1/GPa)
#
#
# Indices 1 2 3 4 5 6 
#
# 1 0.142387 -0.015667 -0.012001 0.000000 0.000000 0.000000
# 2 -0.015667 0.010896 -0.002332 0.000000 0.000000 0.000000
# 3 -0.012001 -0.002332 0.008021 0.000000 0.000000 0.000000
# 4 0.000000 0.000000 0.000000 -0.341420 0.000000 0.000000
# 5 0.000000 0.000000 0.000000 0.000000 0.036462 0.000000
# 6 0.000000 0.000000 0.000000 0.000000 0.000000 0.421997
#
#
# Mechanical properties :
#
#
# Convention : Reuss Voigt Hill
#
# Bulk Modulus (GPa) = 9.87135 62.31165 36.09150
# Shear Modulus (GPa) = 13.43685 19.57135 16.50410
#
# Velocity S-wave (km/s) = 2.64253 3.18919 2.92864
# Velocity P-wave (km/s) = 3.80008 6.77818 5.49474
#
# Compressibility (1/GPa) = 0.10130331
#
# Stress axis : x y z
#
# Youngs Moduli (GPa) = 7.02309 91.77916 124.67622
#
# Poissons Ratio (x) = 1.43793 1.49621
# Poissons Ratio (y) = 0.11003 0.29078
# Poissons Ratio (z) = 0.08428 0.21406
#
# Static dielectric constant tensor:
#      x y z
#    x 1.661640 0.000000 0.000000 
#    y 0.000000 1.648310 0.000000 
#    z 0.000000 0.000000 1.665830 
# 
# From -- ./inp_files/15579.got.cif
#   From: 2010.05.17/outbox.cif.g08.bks.cpg/sg40_8_cif.got.tgz:15579.got - 2010.06.03 18:35:42.
