data_PCOD9362732
_publ_section_title
;
Structure prediction by ZEFSAII (Michael W. Deem and Ramdas Pophale) SiO2 
 PCOD9362732
Probable space group: A M A 2
;
_chemical_formula_sum "Si O2"
_cell_formula_units_Z 60
_cell_length_a 25.282576
_cell_length_b 7.997058
_cell_length_c 13.126095
_cell_angle_alpha 90.000000
_cell_angle_beta 90.000000
_cell_angle_gamma 90.000000
_cell_volume 2653.915619
_symmetry_space_group_name_H-M "A M A 2"
_symmetry_group_IT_number 40
_symmetry_cell_setting 'orthorhombic'
loop_
_space_group_symop_operation_xyz
x,y,z
-x,-y,z
1/2-x,y,z
1/2+x,-y,z
x,1/2+y,1/2+z
-x,1/2-y,1/2+z
1/2-x,1/2+y,1/2+z
1/2+x,1/2-y,1/2+z
loop_
_atom_site_type_symbol
_atom_site_label
_atom_site_fract_x
_atom_site_fract_y
_atom_site_fract_z
Si Si1 0.409627 0.709317 0.669710
Si Si2 0.500000 0.000000 0.957296
Si Si3 0.631382 0.922381 0.652098
Si Si4 0.809227 0.687737 0.516908
Si Si5 0.516696 0.306142 0.114597
Si Si6 0.808982 0.784139 0.845794
Si Si7 0.608496 0.949266 0.957589
Si Si8 0.193194 0.045006 0.221743
O O1 0.471540 0.739965 0.693718
O O2 0.410259 0.584855 0.572614
O O3 0.362127 0.637935 0.737191
O O4 0.387420 0.890062 0.639861
O O5 0.487177 0.828723 0.021786
O O6 0.554071 0.964068 0.896432
O O7 0.668616 0.858945 0.561516
O O8 0.577181 0.813237 0.652020
O O9 0.665477 0.890808 0.753566
O O10 0.750000 0.703389 0.476819
O O11 0.853780 0.608406 0.445899
O O12 0.807796 0.558064 0.613928
O O13 0.500000 0.500000 0.087928
O O14 0.750000 0.842428 0.874082
O O15 0.804888 0.597751 0.805859
O O16 0.852316 0.799450 0.932301
O O17 0.250000 0.138946 0.222532
#
# Coordination Sequence:
#
# PCOD9362732 Si02
#       8
#     8   4   8   8   8   8   8   8
#     4   9  19  33  57  79 104 141 187 232 278 326
#     4  10  18  34  60  84 108 150 188 236 282 340
#     4  10  18  34  54  80 110 140 182 232 279 333
#     4   9  16  29  51  77 102 136 180 219 260 324
#     4   9  18  32  55  86 113 138 184 241 283 326
#     4  10  21  36  53  77 114 148 179 231 288 336
#     4  10  19  35  55  80 108 144 186 224 281 339
#     4   8  16  31  51  75 104 139 183 225 269 327
#
# _framework density 22.608103
#
# number of rings (size 3 to 8) (size 9 to 14) (size 15 to 20)
#    0.000    2.667    1.333    1.600    1.867    1.600 
#    3.600    1.333    0.000    4.800    0.000    0.000 
#    0.000    0.000    0.000    0.000    0.000    0.000 
#
# Total GULP energy -167095.596437 kJ/mol
# GULP energy per Si atom -5569.853215 kJ/mol
# Density = 2.255665 g / cm^3
# Si number density = 22.608103 Si / 1000 Ang^3
#
#
#
# Elastic Constant Matrix: (Units=GPa)
#
#
# Indices 1 2 3 4 5 6 
#
# 1 207.3277 28.8741 9.2071 0.0000 0.0000 0.0000
# 2 28.8741 61.0442 2.6422 0.0000 0.0000 0.0000
# 3 9.2071 2.6422 16.3289 0.0000 0.0000 0.0000
# 4 0.0000 0.0000 0.0000 15.9956 0.0000 0.0000
# 5 0.0000 0.0000 0.0000 0.0000 17.8143 0.0000
# 6 0.0000 0.0000 0.0000 0.0000 0.0000 29.0359
#
#
#
# Elastic Compliance Matrix: (Units=1/GPa)
#
#
# Indices 1 2 3 4 5 6 
#
# 1 0.005270 -0.002381 -0.002586 0.000000 0.000000 0.000000
# 2 -0.002381 0.017573 -0.001501 0.000000 0.000000 0.000000
# 3 -0.002586 -0.001501 0.062942 0.000000 0.000000 0.000000
# 4 0.000000 0.000000 0.000000 0.062517 0.000000 0.000000
# 5 0.000000 0.000000 0.000000 0.000000 0.056135 0.000000
# 6 0.000000 0.000000 0.000000 0.000000 0.000000 0.034440
#
#
# Mechanical properties :
#
#
# Convention : Reuss Voigt Hill
#
# Bulk Modulus (GPa) = 13.72705 40.68306 27.20505
# Shear Modulus (GPa) = 18.10971 28.83433 23.47202
#
# Velocity S-wave (km/s) = 2.83331 3.57515 3.22563
# Velocity P-wave (km/s) = 4.09737 5.92252 5.09238
#
# Compressibility (1/GPa) = 0.07284889
#
# Stress axis : x y z
#
# Youngs Moduli (GPa) = 189.76497 56.90677 15.88757
#
# Poissons Ratio (x) = 0.13547 0.04109
# Poissons Ratio (y) = 0.45176 0.02385
# Poissons Ratio (z) = 0.49076 0.08542
#
# Static dielectric constant tensor:
#      x y z
#    x 1.938950 0.000000 0.000000 
#    y 0.000000 1.841610 0.000000 
#    z 0.000000 0.000000 1.911720 
# 
# From -- ./inp_files/18717.got.cif
#   From: 2010.05.17/outbox.cif.g08.bks.cpg/sg40_10_cif.got.tgz:18717.got - 2010.06.03 18:35:42.
