data_PCOD9362875
_publ_section_title
;
Structure prediction by ZEFSAII (Michael W. Deem and Ramdas Pophale) SiO2 
 PCOD9362875
Probable space group: A M A 2
;
_chemical_formula_sum "Si O2"
_cell_formula_units_Z 64
_cell_length_a 8.574063
_cell_length_b 21.649992
_cell_length_c 16.261326
_cell_angle_alpha 90.000000
_cell_angle_beta 90.000000
_cell_angle_gamma 90.000000
_cell_volume 3018.563852
_symmetry_space_group_name_H-M "A M A 2"
_symmetry_group_IT_number 40
_symmetry_cell_setting 'orthorhombic'
loop_
_space_group_symop_operation_xyz
x,y,z
-x,-y,z
1/2-x,y,z
1/2+x,-y,z
x,1/2+y,1/2+z
-x,1/2-y,1/2+z
1/2-x,1/2+y,1/2+z
1/2+x,1/2-y,1/2+z
loop_
_atom_site_type_symbol
_atom_site_label
_atom_site_fract_x
_atom_site_fract_y
_atom_site_fract_z
Si Si1 0.435616 0.430484 0.319950
Si Si2 0.561170 0.700246 0.072419
Si Si3 0.562420 0.929710 0.993999
Si Si4 0.936941 0.315027 0.244574
Si Si5 0.438615 0.935710 0.511368
Si Si6 0.072686 0.891342 0.339580
Si Si7 0.428679 0.251385 0.905147
Si Si8 0.435216 0.069648 0.172270
O O1 0.500000 0.500000 0.312719
O O2 0.250000 0.431238 0.314823
O O3 0.488880 0.405379 0.409966
O O4 0.507991 0.385687 0.251952
O O5 0.750000 0.702288 0.070626
O O6 0.501252 0.715997 0.162397
O O7 0.514594 0.628740 0.054102
O O8 0.503804 0.743124 0.996951
O O9 0.750000 0.929181 0.985263
O O10 0.517495 0.902602 0.083120
O O11 0.500000 0.000000 0.998198
O O12 0.750000 0.310995 0.244107
O O13 0.000811 0.283867 0.328142
O O14 0.250000 0.936616 0.510720
O O15 0.494208 0.929931 0.416186
O O16 0.500000 0.000000 0.547198
O O17 0.250000 0.912690 0.324421
O O18 0.079483 0.822087 0.374278
O O19 0.986318 0.895043 0.253574
O O20 0.250000 0.227697 0.914422
O O21 0.250000 0.065555 0.170055
O O22 0.500000 0.000000 0.178967
#
# Coordination Sequence:
#
# PCOD9362875 Si02
#       8
#     8   8   8   8   8   8   8   8
#     4  11  22  38  60  86 115 149 188 233 287 347
#     4   9  19  39  61  82 112 153 195 238 286 342
#     4   9  17  31  49  71 105 144 183 226 278 334
#     4  11  22  39  63  90 118 152 192 238 291 348
#     4   9  18  31  51  78 110 147 186 227 281 339
#     4   9  17  32  52  74 104 146 191 235 283 339
#     4   8  18  39  62  80 110 154 193 236 293 343
#     4  10  19  29  45  73 108 147 189 235 287 342
#
# _framework density 21.202134999999998
#
# number of rings (size 3 to 8) (size 9 to 14) (size 15 to 20)
#    0.000    2.500    0.000    4.875    0.000    4.000 
#    2.250    5.625    0.000    0.000    0.000    0.000 
#    0.000    0.000    0.000    0.000    0.000    0.000 
#
# Total GULP energy -178481.086075 kJ/mol
# GULP energy per Si atom -5577.533940 kJ/mol
# Density = 2.115388 g / cm^3
# Si number density = 21.202135 Si / 1000 Ang^3
#
#
#
# Elastic Constant Matrix: (Units=GPa)
#
#
# Indices 1 2 3 4 5 6 
#
# 1 35.0487 -0.1442 26.6810 0.0000 0.0000 0.0000
# 2 -0.1442 35.1974 29.6866 0.0000 0.0000 0.0000
# 3 26.6810 29.6866 157.6943 0.0000 0.0000 0.0000
# 4 0.0000 0.0000 0.0000 20.3661 0.0000 0.0000
# 5 0.0000 0.0000 0.0000 0.0000 35.2591 0.0000
# 6 0.0000 0.0000 0.0000 0.0000 0.0000 3.4471
#
#
#
# Elastic Compliance Matrix: (Units=1/GPa)
#
#
# Indices 1 2 3 4 5 6 
#
# 1 0.033746 0.005889 -0.006818 0.000000 0.000000 0.000000
# 2 0.005889 0.034801 -0.007548 0.000000 0.000000 0.000000
# 3 -0.006818 -0.007548 0.008916 0.000000 0.000000 0.000000
# 4 0.000000 0.000000 0.000000 0.049101 0.000000 0.000000
# 5 0.000000 0.000000 0.000000 0.000000 0.028361 0.000000
# 6 0.000000 0.000000 0.000000 0.000000 0.000000 0.290099
#
#
# Mechanical properties :
#
#
# Convention : Reuss Voigt Hill
#
# Bulk Modulus (GPa) = 16.52635 37.82081 27.17358
# Shear Modulus (GPa) = 10.37022 23.26225 16.81623
#
# Velocity S-wave (km/s) = 2.21399 3.31594 2.81933
# Velocity P-wave (km/s) = 3.78777 5.70417 4.84174
#
# Compressibility (1/GPa) = 0.06050942
#
# Stress axis : x y z
#
# Youngs Moduli (GPa) = 29.63271 28.73445 112.15862
#
# Poissons Ratio (x) = -0.16922 0.76474
# Poissons Ratio (y) = -0.17451 0.84656
# Poissons Ratio (z) = 0.20205 0.21689
#
# Static dielectric constant tensor:
#      x y z
#    x 1.727780 0.000000 0.000000 
#    y 0.000000 1.910810 0.000000 
#    z 0.000000 0.000000 1.815730 
# 
# From -- ./inp_files/15672.got.cif
#   From: 2010.05.17/outbox.cif.g08.bks.cpg/sg40_8_cif.got.tgz:15672.got - 2010.06.03 18:35:42.
