data_PCOD9362723
_publ_section_title
;
Structure prediction by ZEFSAII (Michael W. Deem and Ramdas Pophale) SiO2 
 PCOD9362723
Probable space group: A M A 2
;
_chemical_formula_sum "Si O2"
_cell_formula_units_Z 64
_cell_length_a 13.956657
_cell_length_b 11.427890
_cell_length_c 17.436824
_cell_angle_alpha 90.000000
_cell_angle_beta 90.000000
_cell_angle_gamma 90.000000
_cell_volume 2781.088702
_symmetry_space_group_name_H-M "A M A 2"
_symmetry_group_IT_number 40
_symmetry_cell_setting 'orthorhombic'
loop_
_space_group_symop_operation_xyz
x,y,z
-x,-y,z
1/2-x,y,z
1/2+x,-y,z
x,1/2+y,1/2+z
-x,1/2-y,1/2+z
1/2-x,1/2+y,1/2+z
1/2+x,1/2-y,1/2+z
loop_
_atom_site_type_symbol
_atom_site_label
_atom_site_fract_x
_atom_site_fract_y
_atom_site_fract_z
Si Si1 0.982308 0.627769 0.390610
Si Si2 0.135098 0.052538 0.519692
Si Si3 0.639775 0.322468 0.862567
Si Si4 0.360623 0.305664 0.949968
Si Si5 0.640157 0.293107 0.159458
Si Si6 0.352569 0.665630 0.606758
Si Si7 0.995782 0.365963 0.730388
Si Si8 0.355054 0.910721 0.033718
O O1 0.069909 0.720274 0.400654
O O2 0.000000 0.500000 0.356253
O O3 0.893872 0.690261 0.348910
O O4 0.940629 0.603817 0.475242
O O5 0.250000 0.035339 0.529809
O O6 0.124144 0.149018 0.452402
O O7 0.101525 0.100209 0.603577
O O8 0.101152 0.934011 0.475933
O O9 0.750000 0.348160 0.845240
O O10 0.564447 0.385951 0.807929
O O11 0.250000 0.316045 0.919561
O O12 0.354557 0.243140 0.031821
O O13 0.750000 0.321741 0.182155
O O14 0.585540 0.223811 0.228687
O O15 0.643445 0.189085 0.096919
O O16 0.250000 0.676562 0.646400
O O17 0.431547 0.697913 0.667029
O O18 0.360739 0.534271 0.575704
O O19 0.000000 0.500000 0.701358
O O20 0.250000 0.905558 0.994146
#
# Coordination Sequence:
#
# PCOD9362723 Si02
#       8
#     8   8   8   8   8   8   8   8
#     4  12  23  37  65  95 128 168 216 269 330 391
#     4   9  20  41  66  94 129 171 215 267 330 391
#     4  11  26  46  66  93 134 178 221 271 334 403
#     4  10  22  37  60  98 135 166 212 273 332 388
#     4  10  20  38  66  97 128 166 216 271 325 383
#     4  10  20  36  59  91 130 164 208 274 330 378
#     4  12  25  39  62  96 132 175 226 271 326 390
#     4  10  18  33  59  93 125 156 203 269 324 371
#
# _framework density 23.01257
#
# number of rings (size 3 to 8) (size 9 to 14) (size 15 to 20)
#    0.000    1.500    3.750    1.500    1.750    1.000 
#    0.000    1.875    0.000    1.500    0.000    0.000 
#    0.000    0.000    0.000    0.000    0.000    0.000 
#
# Total GULP energy -178297.740293 kJ/mol
# GULP energy per Si atom -5571.804384 kJ/mol
# Density = 2.296019 g / cm^3
# Si number density = 23.012570 Si / 1000 Ang^3
#
#
#
# Elastic Constant Matrix: (Units=GPa)
#
#
# Indices 1 2 3 4 5 6 
#
# 1 107.5260 28.0572 34.5183 0.0000 0.0000 0.0000
# 2 28.0572 112.7582 0.3283 0.0000 0.0000 0.0000
# 3 34.5183 0.3283 56.8530 0.0000 0.0000 0.0000
# 4 0.0000 0.0000 0.0000 12.6572 0.0000 0.0000
# 5 0.0000 0.0000 0.0000 0.0000 9.3864 0.0000
# 6 0.0000 0.0000 0.0000 0.0000 0.0000 29.1718
#
#
#
# Elastic Compliance Matrix: (Units=1/GPa)
#
#
# Indices 1 2 3 4 5 6 
#
# 1 0.012549 -0.003100 -0.007601 0.000000 0.000000 0.000000
# 2 -0.003100 0.009635 0.001827 0.000000 0.000000 0.000000
# 3 -0.007601 0.001827 0.022194 0.000000 0.000000 0.000000
# 4 0.000000 0.000000 0.000000 0.079006 0.000000 0.000000
# 5 0.000000 0.000000 0.000000 0.000000 0.106537 0.000000
# 6 0.000000 0.000000 0.000000 0.000000 0.000000 0.034280
#
#
# Mechanical properties :
#
#
# Convention : Reuss Voigt Hill
#
# Bulk Modulus (GPa) = 37.55482 44.77166 41.16324
# Shear Modulus (GPa) = 17.19233 24.52530 20.85881
#
# Velocity S-wave (km/s) = 2.73625 3.26810 3.01393
# Velocity P-wave (km/s) = 5.13200 5.80846 5.48068
#
# Compressibility (1/GPa) = 0.02662774
#
# Stress axis : x y z
#
# Youngs Moduli (GPa) = 79.68550 103.79154 45.05743
#
# Poissons Ratio (x) = 0.32180 0.34250
# Poissons Ratio (y) = 0.24706 -0.08231
# Poissons Ratio (z) = 0.60572 -0.18961
#
# Static dielectric constant tensor:
#      x y z
#    x 1.983610 0.000000 0.000000 
#    y 0.000000 1.991510 0.000000 
#    z 0.000000 0.000000 1.875100 
# 
# From -- ./inp_files/20796.got.cif
#   From: 2010.05.17/outbox.cif.g08.bks.cpg/sg40_11_cif.got.tgz:20796.got - 2010.06.03 18:35:42.
