data_PCOD9362748
_publ_section_title
;
Structure prediction by ZEFSAII (Michael W. Deem and Ramdas Pophale) SiO2 
 PCOD9362748
Probable space group: A M A 2
;
_chemical_formula_sum "Si O2"
_cell_formula_units_Z 60
_cell_length_a 15.824679
_cell_length_b 17.062174
_cell_length_c 11.711918
_cell_angle_alpha 90.000000
_cell_angle_beta 90.000000
_cell_angle_gamma 90.000000
_cell_volume 3162.257992
_symmetry_space_group_name_H-M "A M A 2"
_symmetry_group_IT_number 40
_symmetry_cell_setting 'orthorhombic'
loop_
_space_group_symop_operation_xyz
x,y,z
-x,-y,z
1/2-x,y,z
1/2+x,-y,z
x,1/2+y,1/2+z
-x,1/2-y,1/2+z
1/2-x,1/2+y,1/2+z
1/2+x,1/2-y,1/2+z
loop_
_atom_site_type_symbol
_atom_site_label
_atom_site_fract_x
_atom_site_fract_y
_atom_site_fract_z
Si Si1 0.347793 0.107182 0.601670
Si Si2 0.401807 0.281984 0.583807
Si Si3 0.149476 0.318450 0.835970
Si Si4 0.750000 0.688760 0.403959
Si Si5 0.352574 0.938373 0.529860
Si Si6 0.847290 0.464836 0.355772
Si Si7 0.551112 0.827240 0.925815
Si Si8 0.403893 0.369679 0.266750
O O1 0.250000 0.123588 0.568468
O O2 0.397272 0.187188 0.585293
O O3 0.346645 0.080209 0.733839
O O4 0.377688 0.029823 0.534742
O O5 0.388991 0.315215 0.710174
O O6 0.324752 0.308348 0.502618
O O7 0.488843 0.309975 0.529218
O O8 0.250000 0.310955 0.824168
O O9 0.114571 0.243705 0.904331
O O10 0.130976 0.395057 0.911458
O O11 0.675340 0.682098 0.305010
O O12 0.250000 0.936927 0.552324
O O13 0.397274 0.893003 0.634271
O O14 0.750000 0.480018 0.388765
O O15 0.897512 0.407732 0.438292
O O16 0.890892 0.547641 0.333729
O O17 0.490405 0.834675 0.814175
#
# Coordination Sequence:
#
# PCOD9362748 Si02
#       8
#     8   8   8   4   8   8   8   8
#     4   9  16  33  61  91 113 149 206 253 300 371
#     4  11  21  36  59  91 124 162 214 248 313 384
#     4  11  22  40  60  90 124 170 211 248 320 396
#     4  10  18  34  58  88 114 172 196 250 300 396
#     4   9  19  34  62  93 118 152 199 264 310 364
#     4  10  18  35  62  87 117 149 202 263 314 367
#     4  11  24  32  56  91 125 156 200 269 305 368
#     4  10  19  36  58  93 124 148 199 262 333 356
#
# _framework density 18.973783000000001
#
# number of rings (size 3 to 8) (size 9 to 14) (size 15 to 20)
#    0.000    1.867    4.000    1.600    1.867    0.000 
#    0.000    0.667    0.000    6.400    3.467    0.000 
#    0.000    0.000    0.000    0.000    0.000    0.000 
#
# Total GULP energy -167006.893267 kJ/mol
# GULP energy per Si atom -5566.896442 kJ/mol
# Density = 1.893060 g / cm^3
# Si number density = 18.973783 Si / 1000 Ang^3
#
#
#
# Elastic Constant Matrix: (Units=GPa)
#
#
# Indices 1 2 3 4 5 6 
#
# 1 23.3364 26.3143 33.0458 0.0000 0.0000 0.0000
# 2 26.3143 72.6491 50.1737 0.0000 0.0000 0.0000
# 3 33.0458 50.1737 102.1355 0.0000 0.0000 0.0000
# 4 0.0000 0.0000 0.0000 25.2096 0.0000 0.0000
# 5 0.0000 0.0000 0.0000 0.0000 23.9560 0.0000
# 6 0.0000 0.0000 0.0000 0.0000 0.0000 18.0689
#
#
#
# Elastic Compliance Matrix: (Units=1/GPa)
#
#
# Indices 1 2 3 4 5 6 
#
# 1 0.094989 -0.019948 -0.020934 0.000000 0.000000 0.000000
# 2 -0.019948 0.025022 -0.005838 0.000000 0.000000 0.000000
# 3 -0.020934 -0.005838 0.019432 0.000000 0.000000 0.000000
# 4 0.000000 0.000000 0.000000 0.039667 0.000000 0.000000
# 5 0.000000 0.000000 0.000000 0.000000 0.041743 0.000000
# 6 0.000000 0.000000 0.000000 0.000000 0.000000 0.055344
#
#
# Mechanical properties :
#
#
# Convention : Reuss Voigt Hill
#
# Bulk Modulus (GPa) = 21.73782 46.35428 34.04605
# Shear Modulus (GPa) = 12.98797 19.35273 16.17035
#
# Velocity S-wave (km/s) = 2.61918 3.19716 2.92249
# Velocity P-wave (km/s) = 4.54185 6.17356 5.41947
#
# Compressibility (1/GPa) = 0.04600277
#
# Stress axis : x y z
#
# Youngs Moduli (GPa) = 10.52752 39.96485 51.46189
#
# Poissons Ratio (x) = 0.79723 1.07731
# Poissons Ratio (y) = 0.21001 0.30042
# Poissons Ratio (z) = 0.22038 0.23330
#
# Static dielectric constant tensor:
#      x y z
#    x 1.671570 0.000000 0.000000 
#    y 0.000000 1.682840 0.000000 
#    z 0.000000 0.000000 1.654080 
# 
# From -- ./inp_files/12386.got.cif
#   From: 2010.05.17/outbox.cif.g08.bks.cpg/sg40_7_cif.got.tgz:12386.got - 2010.06.03 18:35:42.
