data_PCOD9362156
_publ_section_title
;
Structure prediction by ZEFSAII (Michael W. Deem and Ramdas Pophale) SiO2 
 PCOD9362156
Probable space group: A B M 2
;
_chemical_formula_sum "Si O2"
_cell_formula_units_Z 32
_cell_length_a 7.399597
_cell_length_b 17.525387
_cell_length_c 9.282154
_cell_angle_alpha 90.000000
_cell_angle_beta 90.000000
_cell_angle_gamma 90.000000
_cell_volume 1203.717166
_symmetry_space_group_name_H-M "A B M 2"
_symmetry_group_IT_number 39
_symmetry_cell_setting 'orthorhombic'
loop_
_space_group_symop_operation_xyz
x,y,z
-x,-y,z
-x,1/2+y,z
x,1/2-y,z
x,1/2+y,1/2+z
-x,1/2-y,1/2+z
-x,y,1/2+z
x,-y,1/2+z
loop_
_atom_site_type_symbol
_atom_site_label
_atom_site_fract_x
_atom_site_fract_y
_atom_site_fract_z
Si Si1 0.357000 0.333777 0.783930
Si Si2 0.894286 0.137055 0.016209
Si Si3 0.224455 0.858534 0.712131
Si Si4 0.291787 0.975957 0.499579
O O1 0.327586 0.250000 0.851932
O O2 0.252948 0.338901 0.632985
O O3 0.568436 0.336217 0.739197
O O4 0.750122 0.446207 0.661318
O O5 0.704304 0.094510 0.383859
O O6 0.081797 0.161490 0.087487
O O7 0.873746 0.166458 0.856399
O O8 0.158296 0.047743 0.484132
O O9 0.500000 0.000000 0.497345
#
# Coordination Sequence:
#
# PCOD9362156 Si02
#       4
#     8   8   8   8
#     4  12  28  53  85 121 167 220 277 351 428 502
#     4  12  27  47  80 117 163 216 279 344 413 503
#     4  12  26  47  78 117 163 212 279 340 419 491
#     4  12  24  49  83 118 160 209 283 342 412 492
#
# _framework density 26.584316000000001
#
# number of rings (size 3 to 8) (size 9 to 14) (size 15 to 20)
#    0.000    0.000    5.000    3.750    0.000    7.000 
#    0.000    2.500    0.000    0.000    0.000    0.000 
#    0.000    0.000    0.000    0.000    0.000    0.000 
#
# Total GULP energy -89335.770207 kJ/mol
# GULP energy per Si atom -5583.485638 kJ/mol
# Density = 2.652381 g / cm^3
# Si number density = 26.584316 Si / 1000 Ang^3
#
#
#
# Elastic Constant Matrix: (Units=GPa)
#
#
# Indices 1 2 3 4 5 6 
#
# 1 143.6648 30.9334 91.8061 0.0000 0.0000 0.0000
# 2 30.9334 208.4101 57.3309 0.0000 0.0000 0.0000
# 3 91.8061 57.3309 191.5629 0.0000 0.0000 0.0000
# 4 0.0000 0.0000 0.0000 -22.7069 0.0000 0.0000
# 5 0.0000 0.0000 0.0000 0.0000 37.9701 0.0000
# 6 0.0000 0.0000 0.0000 0.0000 0.0000 -80.9397
#
#
#
# Elastic Compliance Matrix: (Units=1/GPa)
#
#
# Indices 1 2 3 4 5 6 
#
# 1 0.010040 -0.000182 -0.004757 0.000000 0.000000 0.000000
# 2 -0.000182 0.005232 -0.001479 0.000000 0.000000 0.000000
# 3 -0.004757 -0.001479 0.007943 0.000000 0.000000 0.000000
# 4 0.000000 0.000000 0.000000 -0.044039 0.000000 0.000000
# 5 0.000000 0.000000 0.000000 0.000000 0.026337 0.000000
# 6 0.000000 0.000000 0.000000 0.000000 0.000000 -0.012355
#
#
# Mechanical properties :
#
#
# Convention : Reuss Voigt Hill
#
# Bulk Modulus (GPa) = 96.34564 100.41987 98.38276
# Shear Modulus (GPa) = 529.01981 11.10252 270.06117
#
# Velocity S-wave (km/s) = 14.12193 2.04583 10.08995
# Velocity P-wave (km/s) = 17.38463 6.59065 13.14652
#
# Compressibility (1/GPa) = 0.01037930
#
# Stress axis : x y z
#
# Youngs Moduli (GPa) = 99.60440 191.13219 125.90217
#
# Poissons Ratio (x) = 0.03469 0.59894
# Poissons Ratio (y) = 0.01808 0.18619
# Poissons Ratio (z) = 0.47384 0.28265
#
# Static dielectric constant tensor:
#      x y z
#    x 2.049970 0.000000 0.000000 
#    y 0.000000 2.244080 0.000000 
#    z 0.000000 0.000000 2.060840 
# 
# From -- ./inp_files/2080.got.cif
#   From: 2010.05.17/outbox.cif.g08.bks.cpg/sg39_2_cif.got.tgz:2080.got - 2010.06.03 18:22:40.
