data_PCOD9362294
_publ_section_title
;
Structure prediction by ZEFSAII (Michael W. Deem and Ramdas Pophale) SiO2 
 PCOD9362294
Probable space group: A M A 2
;
_chemical_formula_sum "Si O2"
_cell_formula_units_Z 64
_cell_length_a 7.686488
_cell_length_b 24.259224
_cell_length_c 19.919812
_cell_angle_alpha 90.000000
_cell_angle_beta 90.000000
_cell_angle_gamma 90.000000
_cell_volume 3714.412169
_symmetry_space_group_name_H-M "A M A 2"
_symmetry_group_IT_number 40
_symmetry_cell_setting 'orthorhombic'
loop_
_space_group_symop_operation_xyz
x,y,z
-x,-y,z
1/2-x,y,z
1/2+x,-y,z
x,1/2+y,1/2+z
-x,1/2-y,1/2+z
1/2-x,1/2+y,1/2+z
1/2+x,1/2-y,1/2+z
loop_
_atom_site_type_symbol
_atom_site_label
_atom_site_fract_x
_atom_site_fract_y
_atom_site_fract_z
Si Si1 0.461721 0.270908 0.118060
Si Si2 0.537084 0.664251 0.244955
Si Si3 0.541308 0.272671 0.825999
Si Si4 0.538116 0.338554 0.701088
Si Si5 0.456355 0.436454 0.330854
Si Si6 0.958514 0.256042 0.472509
Si Si7 0.457830 0.618117 0.472219
Si Si8 0.040712 0.063801 0.110082
O O1 0.250000 0.273109 0.117445
O O2 0.519903 0.317709 0.170464
O O3 0.507220 0.211911 0.151228
O O4 0.523332 0.271378 0.041457
O O5 0.750000 0.663908 0.244253
O O6 0.482913 0.713913 0.294895
O O7 0.474581 0.606652 0.275414
O O8 0.750000 0.272342 0.821765
O O9 0.478339 0.320089 0.775060
O O10 0.495192 0.275443 0.903665
O O11 0.750000 0.340345 0.702858
O O12 0.476736 0.395502 0.668830
O O13 0.500000 0.500000 0.319851
O O14 0.250000 0.431841 0.329112
O O15 0.510783 0.415558 0.404424
O O16 0.750000 0.259516 0.478434
O O17 0.025834 0.319160 0.467212
O O18 0.250000 0.622450 0.480148
O O19 0.524944 0.586752 0.538297
O O20 0.250000 0.068478 0.108849
O O21 0.000000 0.000000 0.119289
#
# Coordination Sequence:
#
# PCOD9362294 Si02
#       8
#     8   8   8   8   8   8   8   8
#     4   8  13  25  45  65  84 110 144 179 213 257
#     4   8  15  27  44  64  83 109 148 183 211 250
#     4   9  16  28  46  65  86 113 144 180 218 263
#     4   8  14  27  46  63  82 113 151 181 211 257
#     4  11  21  32  45  63  87 119 153 185 214 251
#     4  10  17  26  45  70  92 115 142 178 219 258
#     4  10  19  30  43  63  92 122 149 177 210 252
#     4  10  19  31  45  63  86 118 155 185 212 249
#
# _framework density 17.230183
#
# number of rings (size 3 to 8) (size 9 to 14) (size 15 to 20)
#    0.000    2.750    2.500    2.250    0.000    1.500 
#    0.000    0.625    0.000    4.500    0.000    0.875 
#    0.000    6.000    0.000    0.000    0.000    0.000 
#
# Total GULP energy -178367.463242 kJ/mol
# GULP energy per Si atom -5573.983226 kJ/mol
# Density = 1.719097 g / cm^3
# Si number density = 17.230183 Si / 1000 Ang^3
#
#
#
# Elastic Constant Matrix: (Units=GPa)
#
#
# Indices 1 2 3 4 5 6 
#
# 1 27.3190 4.8158 4.3610 0.0000 0.0000 0.0000
# 2 4.8158 119.7848 94.9373 0.0000 0.0000 0.0000
# 3 4.3610 94.9373 178.4723 0.0000 0.0000 0.0000
# 4 0.0000 0.0000 0.0000 24.1987 0.0000 0.0000
# 5 0.0000 0.0000 0.0000 0.0000 11.3269 0.0000
# 6 0.0000 0.0000 0.0000 0.0000 0.0000 10.4912
#
#
#
# Elastic Compliance Matrix: (Units=1/GPa)
#
#
# Indices 1 2 3 4 5 6 
#
# 1 0.036870 -0.001328 -0.000194 0.000000 0.000000 0.000000
# 2 -0.001328 0.014481 -0.007671 0.000000 0.000000 0.000000
# 3 -0.000194 -0.007671 0.009688 0.000000 0.000000 0.000000
# 4 0.000000 0.000000 0.000000 0.041325 0.000000 0.000000
# 5 0.000000 0.000000 0.000000 0.000000 0.088285 0.000000
# 6 0.000000 0.000000 0.000000 0.000000 0.000000 0.095318
#
#
# Mechanical properties :
#
#
# Convention : Reuss Voigt Hill
#
# Bulk Modulus (GPa) = 23.44528 59.31158 41.37843
# Shear Modulus (GPa) = 15.69506 23.96749 19.83127
#
# Velocity S-wave (km/s) = 3.02139 3.73368 3.39626
# Velocity P-wave (km/s) = 5.08020 7.28594 6.28066
#
# Compressibility (1/GPa) = 0.04265252
#
# Stress axis : x y z
#
# Youngs Moduli (GPa) = 27.12251 69.05458 103.21741
#
# Poissons Ratio (x) = 0.09172 0.02006
# Poissons Ratio (y) = 0.03603 0.79176
# Poissons Ratio (z) = 0.00527 0.52970
#
# Static dielectric constant tensor:
#      x y z
#    x 1.651610 0.000000 0.000000 
#    y 0.000000 1.567270 0.000000 
#    z 0.000000 0.000000 1.605710 
# 
# From -- ./inp_files/20199.got.cif
#   From: 2010.05.17/outbox.cif.g08.bks.cpg/sg40_11_cif.got.tgz:20199.got - 2010.06.03 18:35:42.
