data_PCOD9362984
_publ_section_title
;
Structure prediction by ZEFSAII (Michael W. Deem and Ramdas Pophale) SiO2 
 PCOD9362984
Probable space group: A M A 2
;
_chemical_formula_sum "Si O2"
_cell_formula_units_Z 64
_cell_length_a 14.858596
_cell_length_b 9.749649
_cell_length_c 17.408081
_cell_angle_alpha 90.000000
_cell_angle_beta 90.000000
_cell_angle_gamma 90.000000
_cell_volume 2521.840727
_symmetry_space_group_name_H-M "A M A 2"
_symmetry_group_IT_number 40
_symmetry_cell_setting 'orthorhombic'
loop_
_space_group_symop_operation_xyz
x,y,z
-x,-y,z
1/2-x,y,z
1/2+x,-y,z
x,1/2+y,1/2+z
-x,1/2-y,1/2+z
1/2-x,1/2+y,1/2+z
1/2+x,1/2-y,1/2+z
loop_
_atom_site_type_symbol
_atom_site_label
_atom_site_fract_x
_atom_site_fract_y
_atom_site_fract_z
Si Si1 0.498195 0.307602 0.719710
Si Si2 0.394589 0.966358 0.583058
Si Si3 0.845083 0.772444 0.337038
Si Si4 0.147090 0.580249 0.235630
Si Si5 0.848634 0.248242 0.013464
Si Si6 0.144053 0.128891 0.906575
Si Si7 0.591599 0.063331 0.355925
Si Si8 0.949987 0.827425 0.055078
O O1 0.642913 0.033638 0.669709
O O2 0.427756 0.185402 0.703483
O O3 0.550536 0.363017 0.645420
O O4 0.570262 0.254503 0.782335
O O5 0.392772 0.813809 0.550644
O O6 0.500000 0.000000 0.585226
O O7 0.350623 0.088309 0.533803
O O8 0.750000 0.724862 0.303622
O O9 0.842793 0.936253 0.353564
O O10 0.000000 0.000000 0.394118
O O11 0.065547 0.908602 0.267537
O O12 0.250000 0.635347 0.236843
O O13 0.123955 0.553133 0.325012
O O14 0.750000 0.197990 0.041631
O O15 0.853564 0.216623 0.922938
O O16 0.943114 0.194555 0.044767
O O17 0.250000 0.114738 0.921093
O O18 0.120765 0.289548 0.887382
O O19 0.089486 0.089619 0.983064
#
# Coordination Sequence:
#
# PCOD9362984 Si02
#       8
#     8   8   8   8   8   8   8   8
#     4  10  20  33  52  77 110 144 183 222 275 329
#     4  10  19  31  52  79 112 139 173 224 285 334
#     4  10  20  34  53  80 113 144 176 222 282 341
#     4  10  19  35  55  78 110 151 188 224 275 340
#     4  10  19  32  53  79 107 140 171 211 275 336
#     4  10  21  34  53  80 111 144 183 226 275 333
#     4   9  17  32  53  77 102 136 175 221 271 332
#     4  11  21  34  52  82 113 142 181 236 278 324
#
# _framework density 25.378285999999999
#
# number of rings (size 3 to 8) (size 9 to 14) (size 15 to 20)
#    0.000    2.000    2.500    3.750    0.000    6.000 
#    0.000    0.000    0.000    2.250    0.000    0.000 
#    0.000    0.000    0.000    0.000    0.000    0.000 
#
# Total GULP energy -178763.500414 kJ/mol
# GULP energy per Si atom -5586.359388 kJ/mol
# Density = 2.532052 g / cm^3
# Si number density = 25.378286 Si / 1000 Ang^3
#
#
#
# Elastic Constant Matrix: (Units=GPa)
#
#
# Indices 1 2 3 4 5 6 
#
# 1 141.0734 3.1084 51.5015 0.0000 0.0000 0.0000
# 2 3.1084 72.2281 24.8602 0.0000 0.0000 0.0000
# 3 51.5015 24.8602 198.0375 0.0000 0.0000 0.0000
# 4 0.0000 0.0000 0.0000 39.3566 0.0000 0.0000
# 5 0.0000 0.0000 0.0000 0.0000 27.8935 0.0000
# 6 0.0000 0.0000 0.0000 0.0000 0.0000 15.8505
#
#
#
# Elastic Compliance Matrix: (Units=1/GPa)
#
#
# Indices 1 2 3 4 5 6 
#
# 1 0.007842 0.000381 -0.002087 0.000000 0.000000 0.000000
# 2 0.000381 0.014489 -0.001918 0.000000 0.000000 0.000000
# 3 -0.002087 -0.001918 0.005833 0.000000 0.000000 0.000000
# 4 0.000000 0.000000 0.000000 0.025409 0.000000 0.000000
# 5 0.000000 0.000000 0.000000 0.000000 0.035851 0.000000
# 6 0.000000 0.000000 0.000000 0.000000 0.000000 0.063090
#
#
# Mechanical properties :
#
#
# Convention : Reuss Voigt Hill
#
# Bulk Modulus (GPa) = 47.81126 63.36434 55.58780
# Shear Modulus (GPa) = 29.98802 38.74470 34.36636
#
# Velocity S-wave (km/s) = 3.44123 3.91152 3.68389
# Velocity P-wave (km/s) = 5.88810 6.73960 6.32819
#
# Compressibility (1/GPa) = 0.02091558
#
# Stress axis : x y z
#
# Youngs Moduli (GPa) = 127.51691 69.01910 171.43521
#
# Poissons Ratio (x) = -0.02629 0.35782
# Poissons Ratio (y) = -0.04857 0.32879
# Poissons Ratio (z) = 0.26616 0.13237
#
# Static dielectric constant tensor:
#      x y z
#    x 1.971640 0.000000 0.000000 
#    y 0.000000 2.167200 0.000000 
#    z 0.000000 0.000000 2.015200 
# 
# From -- ./inp_files/20868.got.cif
#   From: 2010.05.17/outbox.cif.g08.bks.cpg/sg40_11_cif.got.tgz:20868.got - 2010.06.03 18:35:42.
