data_PCOD9362899
_publ_section_title
;
Structure prediction by ZEFSAII (Michael W. Deem and Ramdas Pophale) SiO2 
 PCOD9362899
Probable space group: A M A 2
;
_chemical_formula_sum "Si O2"
_cell_formula_units_Z 64
_cell_length_a 8.710829
_cell_length_b 30.830476
_cell_length_c 14.912690
_cell_angle_alpha 90.000000
_cell_angle_beta 90.000000
_cell_angle_gamma 90.000000
_cell_volume 4004.937180
_symmetry_space_group_name_H-M "A M A 2"
_symmetry_group_IT_number 40
_symmetry_cell_setting 'orthorhombic'
loop_
_space_group_symop_operation_xyz
x,y,z
-x,-y,z
1/2-x,y,z
1/2+x,-y,z
x,1/2+y,1/2+z
-x,1/2-y,1/2+z
1/2-x,1/2+y,1/2+z
1/2+x,1/2-y,1/2+z
loop_
_atom_site_type_symbol
_atom_site_label
_atom_site_fract_x
_atom_site_fract_y
_atom_site_fract_z
Si Si1 0.436819 0.704205 0.353460
Si Si2 0.074582 0.826106 0.180096
Si Si3 0.065751 0.636152 0.500817
Si Si4 0.933249 0.953682 0.079542
Si Si5 0.433478 0.790398 0.464002
Si Si6 0.428255 0.723055 0.158607
Si Si7 0.430136 0.632138 0.851172
Si Si8 0.067039 0.952783 0.278081
O O1 0.250000 0.706501 0.349432
O O2 0.478306 0.662102 0.411635
O O3 0.486250 0.747980 0.406446
O O4 0.490047 0.702247 0.250682
O O5 0.250000 0.840187 0.199171
O O6 0.070851 0.774301 0.179595
O O7 0.020465 0.841913 0.083614
O O8 0.965194 0.845100 0.255824
O O9 0.250000 0.641825 0.512725
O O10 0.033738 0.585085 0.510442
O O11 0.750000 0.956956 0.091282
O O12 0.005165 0.943105 0.177141
O O13 0.000000 0.000000 0.051624
O O14 0.250000 0.792092 0.456020
O O15 0.481353 0.785057 0.567267
O O16 0.502793 0.834288 0.423206
O O17 0.250000 0.710082 0.144471
O O18 0.250000 0.626377 0.864183
O O19 0.510579 0.585395 0.843063
O O20 0.250000 0.954713 0.275455
O O21 0.000000 0.000000 0.302020
#
# Coordination Sequence:
#
# PCOD9362899 Si02
#       8
#     8   8   8   8   8   8   8   8
#     4   9  18  33  51  71  99 133 172 214 257 306
#     4  11  20  30  48  74 103 136 173 214 254 300
#     4  10  19  32  50  72  98 138 178 211 253 309
#     4  10  19  30  47  72 102 135 173 210 257 310
#     4  11  21  35  53  75 101 135 173 213 259 306
#     4  10  20  35  50  71 102 135 172 215 258 304
#     4  12  23  35  51  74 104 140 178 213 254 306
#     4  11  21  34  52  75 104 136 170 210 258 308
#
# _framework density 15.980276
#
# number of rings (size 3 to 8) (size 9 to 14) (size 15 to 20)
#    0.000    1.500    3.750    4.125    0.000    1.000 
#    0.000    0.625    0.000    0.000    0.000    0.875 
#    0.000    4.000    0.000    0.000    0.000    0.000 
#
# Total GULP energy -178596.484622 kJ/mol
# GULP energy per Si atom -5581.140144 kJ/mol
# Density = 1.594390 g / cm^3
# Si number density = 15.980276 Si / 1000 Ang^3
#
#
#
# Elastic Constant Matrix: (Units=GPa)
#
#
# Indices 1 2 3 4 5 6 
#
# 1 69.8840 36.5329 19.7130 0.0000 0.0000 0.0000
# 2 36.5329 100.6425 34.0762 0.0000 0.0000 0.0000
# 3 19.7130 34.0762 75.9843 0.0000 0.0000 0.0000
# 4 0.0000 0.0000 0.0000 22.3021 0.0000 0.0000
# 5 0.0000 0.0000 0.0000 0.0000 19.5861 0.0000
# 6 0.0000 0.0000 0.0000 0.0000 0.0000 3.3436
#
#
#
# Elastic Compliance Matrix: (Units=1/GPa)
#
#
# Indices 1 2 3 4 5 6 
#
# 1 0.017926 -0.005815 -0.002043 0.000000 0.000000 0.000000
# 2 -0.005815 0.013602 -0.004591 0.000000 0.000000 0.000000
# 3 -0.002043 -0.004591 0.015749 0.000000 0.000000 0.000000
# 4 0.000000 0.000000 0.000000 0.044839 0.000000 0.000000
# 5 0.000000 0.000000 0.000000 0.000000 0.051057 0.000000
# 6 0.000000 0.000000 0.000000 0.000000 0.000000 0.299078
#
#
# Mechanical properties :
#
#
# Convention : Reuss Voigt Hill
#
# Bulk Modulus (GPa) = 44.68545 47.46166 46.07356
# Shear Modulus (GPa) = 10.53501 19.45896 14.99699
#
# Velocity S-wave (km/s) = 2.57037 3.49332 3.06677
# Velocity P-wave (km/s) = 6.06899 6.78496 6.43694
#
# Compressibility (1/GPa) = 0.02237865
#
# Stress axis : x y z
#
# Youngs Moduli (GPa) = 55.78595 73.52076 63.49415
#
# Poissons Ratio (x) = 0.42755 0.12969
# Poissons Ratio (y) = 0.32442 0.29151
# Poissons Ratio (z) = 0.11395 0.33754
#
# Static dielectric constant tensor:
#      x y z
#    x 1.544310 0.000000 0.000000 
#    y 0.000000 1.549960 0.000000 
#    z 0.000000 0.000000 1.521530 
# 
# From -- ./inp_files/15907.got.cif
#   From: 2010.05.17/outbox.cif.g08.bks.cpg/sg40_8_cif.got.tgz:15907.got - 2010.06.03 18:35:42.
