data_PCOD9362051
_publ_section_title
;
Structure prediction by ZEFSAII (Michael W. Deem and Ramdas Pophale) SiO2 
 PCOD9362051
Probable space group: A B M 2
;
_chemical_formula_sum "Si O2"
_cell_formula_units_Z 52
_cell_length_a 17.602529
_cell_length_b 17.292191
_cell_length_c 9.584928
_cell_angle_alpha 90.000000
_cell_angle_beta 90.000000
_cell_angle_gamma 90.000000
_cell_volume 2917.520708
_symmetry_space_group_name_H-M "A B M 2"
_symmetry_group_IT_number 39
_symmetry_cell_setting 'orthorhombic'
loop_
_space_group_symop_operation_xyz
x,y,z
-x,-y,z
-x,1/2+y,z
x,1/2-y,z
x,1/2+y,1/2+z
-x,1/2-y,1/2+z
-x,y,1/2+z
x,-y,1/2+z
loop_
_atom_site_type_symbol
_atom_site_label
_atom_site_fract_x
_atom_site_fract_y
_atom_site_fract_z
Si Si1 0.277452 0.964181 0.849550
Si Si2 0.940258 0.250000 0.937898
Si Si3 0.834160 0.332960 0.748256
Si Si4 0.881012 0.750000 0.986568
Si Si5 0.450251 0.159616 0.598641
Si Si6 0.449956 0.423272 0.306504
Si Si7 0.284192 0.100799 0.656380
Si Si8 0.180538 0.750000 0.176644
O O1 0.216022 0.905141 0.786514
O O2 0.361179 0.941581 0.793449
O O3 0.263727 0.049658 0.790768
O O4 0.278316 0.951519 0.016261
O O5 0.895316 0.250000 0.083368
O O6 0.029335 0.250000 0.959318
O O7 0.908634 0.322233 0.845588
O O8 0.791898 0.250000 0.780234
O O9 0.858308 0.322048 0.587454
O O10 0.838602 0.750000 0.840314
O O11 0.445424 0.250000 0.565688
O O12 0.462032 0.109154 0.460942
O O13 0.519113 0.140511 0.700918
O O14 0.370338 0.132194 0.664998
O O15 0.500000 0.500000 0.283819
O O16 0.229133 0.173940 0.640953
#
# Coordination Sequence:
#
# PCOD9362051 Si02
#       8
#     8   4   8   4   8   8   8   4
#     4  11  23  39  62  85 127 166 203 261 307 362
#     4   9  17  39  67  90 120 166 196 241 297 376
#     4   8  19  37  58  94 127 154 211 234 305 373
#     4   9  21  35  67  98 122 153 206 244 292 376
#     4  11  23  41  56  87 115 156 209 256 303 361
#     4  11  23  39  60  83 118 164 207 249 315 358
#     4  11  24  38  63  83 125 159 207 255 305 364
#     4  12  20  40  64  94 118 159 204 243 303 358
#
# _framework density 17.823353000000001
#
# number of rings (size 3 to 8) (size 9 to 14) (size 15 to 20)
#    0.923    0.615    3.846    1.846    4.308    1.231 
#    0.000    0.000    0.000    5.538    0.000    0.000 
#    0.000    0.000    0.000    0.000    0.000    0.000 
#
# Total GULP energy -144928.787920 kJ/mol
# GULP energy per Si atom -5574.184151 kJ/mol
# Density = 1.778279 g / cm^3
# Si number density = 17.823353 Si / 1000 Ang^3
#
#
#
# Elastic Constant Matrix: (Units=GPa)
#
#
# Indices 1 2 3 4 5 6 
#
# 1 57.2528 9.7571 10.8472 0.0000 0.0000 0.0000
# 2 9.7571 57.1029 6.9522 0.0000 0.0000 0.0000
# 3 10.8472 6.9522 65.7684 0.0000 0.0000 0.0000
# 4 0.0000 0.0000 0.0000 41.5724 0.0000 0.0000
# 5 0.0000 0.0000 0.0000 0.0000 19.5100 0.0000
# 6 0.0000 0.0000 0.0000 0.0000 0.0000 20.2715
#
#
#
# Elastic Compliance Matrix: (Units=1/GPa)
#
#
# Indices 1 2 3 4 5 6 
#
# 1 0.018468 -0.002821 -0.002748 0.000000 0.000000 0.000000
# 2 -0.002821 0.018171 -0.001456 0.000000 0.000000 0.000000
# 3 -0.002748 -0.001456 0.015812 0.000000 0.000000 0.000000
# 4 0.000000 0.000000 0.000000 0.024054 0.000000 0.000000
# 5 0.000000 0.000000 0.000000 0.000000 0.051256 0.000000
# 6 0.000000 0.000000 0.000000 0.000000 0.000000 0.049330
#
#
# Mechanical properties :
#
#
# Convention : Reuss Voigt Hill
#
# Bulk Modulus (GPa) = 26.03994 26.13745 26.08869
# Shear Modulus (GPa) = 24.51690 26.44196 25.47943
#
# Velocity S-wave (km/s) = 3.71286 3.85588 3.78505
# Velocity P-wave (km/s) = 5.74649 5.87539 5.81130
#
# Compressibility (1/GPa) = 0.03840255
#
# Stress axis : x y z
#
# Youngs Moduli (GPa) = 54.14852 55.03130 63.24348
#
# Poissons Ratio (x) = 0.15525 0.17377
# Poissons Ratio (y) = 0.15275 0.09206
# Poissons Ratio (z) = 0.14878 0.08010
#
# Static dielectric constant tensor:
#      x y z
#    x 1.585930 0.000000 0.000000 
#    y 0.000000 1.546390 0.000000 
#    z 0.000000 0.000000 1.635990 
# 
# From -- ./inp_files/3787.got.cif
#   From: 2010.05.17/outbox.cif.g08.bks.cpg/sg39_2_cif.got.tgz:3787.got - 2010.06.03 18:22:40.
