data_PCOD9362187
_publ_section_title
;
Structure prediction by ZEFSAII (Michael W. Deem and Ramdas Pophale) SiO2 
 PCOD9362187
Probable space group: A B M 2
;
_chemical_formula_sum "Si O2"
_cell_formula_units_Z 20
_cell_length_a 9.000000
_cell_length_b 9.000000
_cell_length_c 27.000000
_cell_angle_alpha 90.000000
_cell_angle_beta 90.000000
_cell_angle_gamma 90.000000
_cell_volume 2187.000000
_symmetry_space_group_name_H-M "A B M 2"
_symmetry_group_IT_number 39
_symmetry_cell_setting 'orthorhombic'
loop_
_space_group_symop_operation_xyz
x,y,z
-x,-y,z
-x,1/2+y,z
x,1/2-y,z
x,1/2+y,1/2+z
-x,1/2-y,1/2+z
-x,y,1/2+z
x,-y,1/2+z
loop_
_atom_site_type_symbol
_atom_site_label
_atom_site_fract_x
_atom_site_fract_y
_atom_site_fract_z
Si Si1 0.165290 0.069960 0.455920
Si Si2 0.834442 0.070081 0.140373
Si Si3 0.162580 0.927055 0.847260
Si Si4 0.662805 0.570168 0.047719
Si Si5 0.833794 0.570236 0.240099
O O1 0.159907 0.250000 0.462997
O O2 0.230833 0.038006 0.400835
O O3 0.256527 0.989333 0.498505
O O4 0.000000 0.000000 0.457276
O O5 0.839359 0.250000 0.139145
O O6 0.747385 0.000412 0.094548
O O7 0.766398 0.009797 0.192184
O O8 0.000000 0.000000 0.137846
O O9 0.140927 0.750000 0.846494
O O10 0.235519 0.963889 0.794206
O O11 0.000000 0.000000 0.847682
O O12 0.500000 0.500000 0.047835
O O13 0.661722 0.750000 0.049765
O O14 0.840969 0.750000 0.233161
O O15 0.000000 0.500000 0.242797
#
# Coordination Sequence:
#
# PCOD9362187 Si02
#       5
#     8   8   8   8   8
#     4  10  19  34  55  82 111 142 177 217 259 307
#     4  11  21  35  55  81 109 141 177 218 261 309
#     4   8  15  26  45  73 107 139 170 208 255 303
#     4  12  25  41  57  76 102 137 176 220 269 320
#     4   9  15  26  45  74 107 139 171 211 257 305
#
# _framework density 9.1449470000000002
#
# number of rings (size 3 to 8) (size 9 to 14) (size 15 to 20)
#    0.000    2.000    0.000    6.600    0.000    1.600 
#    0.000    0.000    0.000    1.200    0.000    5.600 
#    0.000    0.000    0.000    0.000    0.000    0.000 
#
# Total GULP energy -111432.913887 kJ/mol
# GULP energy per Si atom -5571.645694 kJ/mol
# Density = 0.912413 g / cm^3
# Si number density = 9.144947 Si / 1000 Ang^3
#
#
#
# Elastic Constant Matrix: (Units=GPa)
#
#
# Indices 1 2 3 4 5 6 
#
# 1 48.9556 30.2109 57.5915 0.0000 0.0000 0.0000
# 2 30.2109 155.0184 85.2499 0.0000 0.0000 0.0000
# 3 57.5915 85.2499 229.6344 0.0000 0.0000 0.0000
# 4 0.0000 0.0000 0.0000 32.6764 0.0000 0.0000
# 5 0.0000 0.0000 0.0000 0.0000 -14.2338 0.0000
# 6 0.0000 0.0000 0.0000 0.0000 0.0000 22.4141
#
#
#
# Elastic Compliance Matrix: (Units=1/GPa)
#
#
# Indices 1 2 3 4 5 6 
#
# 1 0.029516 -0.002113 -0.006618 0.000000 0.000000 0.000000
# 2 -0.002113 0.008257 -0.002535 0.000000 0.000000 0.000000
# 3 -0.006618 -0.002535 0.006956 0.000000 0.000000 0.000000
# 4 0.000000 0.000000 0.000000 0.030603 0.000000 0.000000
# 5 0.000000 0.000000 0.000000 0.000000 -0.070255 0.000000
# 6 0.000000 0.000000 0.000000 0.000000 0.000000 0.044615
#
#
# Mechanical properties :
#
#
# Convention : Reuss Voigt Hill
#
# Bulk Modulus (GPa) = 45.05289 86.63479 65.84384
# Shear Modulus (GPa) = 62.79599 25.54175 44.16887
#
# Velocity S-wave (km/s) = 5.86585 3.74103 4.91953
# Velocity P-wave (km/s) = 8.40023 8.13208 8.26724
#
# Compressibility (1/GPa) = 0.02219613
#
# Stress axis : x y z
#
# Youngs Moduli (GPa) = 33.87978 121.11063 143.76398
#
# Poissons Ratio (x) = 0.25587 0.95146
# Poissons Ratio (y) = 0.07158 0.36451
# Poissons Ratio (z) = 0.22422 0.30707
#
# Static dielectric constant tensor:
#      x y z
#    x 1.624180 0.000000 0.000000 
#    y 0.000000 1.600670 0.000000 
#    z 0.000000 0.000000 1.731770 
# 
# From -- ./inp_files/16733.got.cif
#   From: 2010.05.17/outbox.ucp.g08.bks.cvg/sg39_9_cif.got.tgz:16733.got - 2010.06.11 10:41:16.
