data_PCOD9362527
_publ_section_title
;
Structure prediction by ZEFSAII (Michael W. Deem and Ramdas Pophale) SiO2 
 PCOD9362527
Probable space group: A M A 2
;
_chemical_formula_sum "Si O2"
_cell_formula_units_Z 56
_cell_length_a 7.948341
_cell_length_b 19.612327
_cell_length_c 18.621146
_cell_angle_alpha 90.000000
_cell_angle_beta 90.000000
_cell_angle_gamma 90.000000
_cell_volume 2902.765962
_symmetry_space_group_name_H-M "A M A 2"
_symmetry_group_IT_number 40
_symmetry_cell_setting 'orthorhombic'
loop_
_space_group_symop_operation_xyz
x,y,z
-x,-y,z
1/2-x,y,z
1/2+x,-y,z
x,1/2+y,1/2+z
-x,1/2-y,1/2+z
1/2-x,1/2+y,1/2+z
1/2+x,1/2-y,1/2+z
loop_
_atom_site_type_symbol
_atom_site_label
_atom_site_fract_x
_atom_site_fract_y
_atom_site_fract_z
Si Si1 0.548161 0.790905 0.354470
Si Si2 0.556446 0.150473 0.584521
Si Si3 0.450699 0.922292 0.443148
Si Si4 0.556455 0.696283 0.234610
Si Si5 0.953099 0.220377 0.001275
Si Si6 0.442962 0.073981 0.822027
Si Si7 0.450313 0.929154 0.985442
O O1 0.750000 0.788628 0.349165
O O2 0.502633 0.865975 0.383725
O O3 0.481844 0.760491 0.278956
O O4 0.500608 0.739186 0.419115
O O5 0.750000 0.127669 0.595725
O O6 0.481292 0.101890 0.521974
O O7 0.476779 0.164292 0.662495
O O8 0.547792 0.224770 0.548614
O O9 0.250000 0.918317 0.447558
O O10 0.500000 0.000000 0.427516
O O11 0.750000 0.713941 0.215781
O O12 0.553751 0.634256 0.290677
O O13 0.750000 0.230051 0.008038
O O14 0.993842 0.142802 0.020814
O O15 0.250000 0.086704 0.803128
O O16 0.461877 0.071547 0.907860
O O17 0.500000 0.000000 0.794552
O O18 0.250000 0.929174 0.973239
O O19 0.500000 0.000000 0.022471
#
# Coordination Sequence:
#
# PCOD9362527 Si02
#       7
#     8   8   8   8   8   8   8
#     4   9  17  32  54  75  99 134 171 214 260 305
#     4   9  20  34  52  76 103 135 169 210 256 311
#     4  10  20  35  54  79 106 135 176 219 262 311
#     4  10  19  35  53  74 106 139 172 209 260 314
#     4   9  17  31  50  71  98 131 167 209 252 299
#     4  11  21  31  46  70 101 135 168 204 243 291
#     4  10  18  30  47  71  98 129 164 203 248 292
#
# _framework density 19.291945999999999
#
# number of rings (size 3 to 8) (size 9 to 14) (size 15 to 20)
#    0.000    2.286    1.429    3.000    0.000    3.429 
#    0.000    1.429    0.000    0.857    0.000    2.000 
#    0.000    0.000    0.000    0.000    0.000    0.000 
#
# Total GULP energy -155935.429999 kJ/mol
# GULP energy per Si atom -5569.122500 kJ/mol
# Density = 1.924804 g / cm^3
# Si number density = 19.291946 Si / 1000 Ang^3
#
#
#
# Elastic Constant Matrix: (Units=GPa)
#
#
# Indices 1 2 3 4 5 6 
#
# 1 32.1657 -3.9910 -1.8395 0.0000 0.0000 0.0000
# 2 -3.9910 118.3489 9.5424 0.0000 0.0000 0.0000
# 3 -1.8395 9.5424 39.9931 0.0000 0.0000 0.0000
# 4 0.0000 0.0000 0.0000 11.8625 0.0000 0.0000
# 5 0.0000 0.0000 0.0000 0.0000 29.0064 0.0000
# 6 0.0000 0.0000 0.0000 0.0000 0.0000 0.5979
#
#
#
# Elastic Compliance Matrix: (Units=1/GPa)
#
#
# Indices 1 2 3 4 5 6 
#
# 1 0.031277 0.000957 0.001210 0.000000 0.000000 0.000000
# 2 0.000957 0.008645 -0.002019 0.000000 0.000000 0.000000
# 3 0.001210 -0.002019 0.025542 0.000000 0.000000 0.000000
# 4 0.000000 0.000000 0.000000 0.084300 0.000000 0.000000
# 5 0.000000 0.000000 0.000000 0.000000 0.034475 0.000000
# 6 0.000000 0.000000 0.000000 0.000000 0.000000 1.672583
#
#
# Mechanical properties :
#
#
# Convention : Reuss Voigt Hill
#
# Bulk Modulus (GPa) = 15.20664 21.99240 18.59952
# Shear Modulus (GPa) = 2.66178 20.74639 11.70409
#
# Velocity S-wave (km/s) = 1.17590 3.28287 2.46576
# Velocity P-wave (km/s) = 3.12140 5.07880 4.21529
#
# Compressibility (1/GPa) = 0.06576077
#
# Stress axis : x y z
#
# Youngs Moduli (GPa) = 31.97236 115.67880 39.15182
#
# Poissons Ratio (x) = -0.11072 -0.04738
# Poissons Ratio (y) = -0.03060 0.07903
# Poissons Ratio (z) = -0.03869 0.23351
#
# Static dielectric constant tensor:
#      x y z
#    x 1.712250 0.000000 0.000000 
#    y 0.000000 1.698730 0.000000 
#    z 0.000000 0.000000 1.711060 
# 
# From -- ./inp_files/19516.got.cif
#   From: 2010.05.17/outbox.cif.g08.bks.cpg/sg40_10_cif.got.tgz:19516.got - 2010.06.03 18:35:42.
