data_PCOD9362859
_publ_section_title
;
Structure prediction by ZEFSAII (Michael W. Deem and Ramdas Pophale) SiO2 
 PCOD9362859
Probable space group: A M A 2
;
_chemical_formula_sum "Si O2"
_cell_formula_units_Z 64
_cell_length_a 8.939717
_cell_length_b 26.987270
_cell_length_c 18.977695
_cell_angle_alpha 90.000000
_cell_angle_beta 90.000000
_cell_angle_gamma 90.000000
_cell_volume 4578.531300
_symmetry_space_group_name_H-M "A M A 2"
_symmetry_group_IT_number 40
_symmetry_cell_setting 'orthorhombic'
loop_
_space_group_symop_operation_xyz
x,y,z
-x,-y,z
1/2-x,y,z
1/2+x,-y,z
x,1/2+y,1/2+z
-x,1/2-y,1/2+z
1/2-x,1/2+y,1/2+z
1/2+x,1/2-y,1/2+z
loop_
_atom_site_type_symbol
_atom_site_label
_atom_site_fract_x
_atom_site_fract_y
_atom_site_fract_z
Si Si1 0.070791 0.351748 0.063710
Si Si2 0.070594 0.552132 0.821591
Si Si3 0.430823 0.947311 0.475314
Si Si4 0.422386 0.196427 0.690899
Si Si5 0.931524 0.743709 0.820365
Si Si6 0.571816 0.348281 0.738035
Si Si7 0.577296 0.698181 0.607995
Si Si8 0.930207 0.248634 0.483145
O O1 0.250000 0.351106 0.066136
O O2 0.010047 0.341508 0.141763
O O3 0.024998 0.403005 0.027593
O O4 0.024388 0.305113 0.014652
O O5 0.250000 0.547038 0.829995
O O6 0.040071 0.597559 0.769323
O O7 0.000000 0.500000 0.797697
O O8 0.996287 0.563168 0.897517
O O9 0.250000 0.950192 0.471711
O O10 0.500000 0.000000 0.497141
O O11 0.250000 0.180804 0.695439
O O12 0.477973 0.211313 0.768589
O O13 0.427674 0.249134 0.649651
O O14 0.750000 0.739908 0.815728
O O15 0.973178 0.751616 0.901420
O O16 0.999734 0.693246 0.789063
O O17 0.750000 0.340859 0.736679
O O18 0.506376 0.339248 0.660167
O O19 0.750000 0.684313 0.599488
O O20 0.500743 0.709872 0.533560
O O21 0.750000 0.251773 0.487709
#
# Coordination Sequence:
#
# PCOD9362859 Si02
#       8
#     8   8   8   8   8   8   8   8
#     4   9  17  27  40  57  77 106 138 165 198 237
#     4  10  20  31  43  60  81 106 137 171 205 239
#     4  10  19  30  43  59  80 106 137 171 206 241
#     4   8  15  26  39  56  78 104 134 166 197 233
#     4   9  17  28  42  61  84 111 139 167 203 243
#     4  10  19  29  42  60  81 108 141 172 203 240
#     4   9  17  28  41  58  80 106 136 168 202 239
#     4   9  16  27  42  59  82 109 136 166 199 238
#
# _framework density 13.978281000000001
#
# number of rings (size 3 to 8) (size 9 to 14) (size 15 to 20)
#    0.000    2.750    0.000    3.750    0.000    7.500 
#    0.000    2.500    0.000    0.000    0.000    0.000 
#    0.000    1.000    0.000    8.500    0.000    5.875 
#
# Total GULP energy -178233.465680 kJ/mol
# GULP energy per Si atom -5569.795803 kJ/mol
# Density = 1.394647 g / cm^3
# Si number density = 13.978281 Si / 1000 Ang^3
#
#
#
# Elastic Constant Matrix: (Units=GPa)
#
#
# Indices 1 2 3 4 5 6 
#
# 1 42.3187 40.3111 41.1406 0.0000 0.0000 0.0000
# 2 40.3111 88.1191 63.8591 0.0000 0.0000 0.0000
# 3 41.1406 63.8591 124.5206 0.0000 0.0000 0.0000
# 4 0.0000 0.0000 0.0000 26.5922 0.0000 0.0000
# 5 0.0000 0.0000 0.0000 0.0000 21.9586 0.0000
# 6 0.0000 0.0000 0.0000 0.0000 0.0000 13.9206
#
#
#
# Elastic Compliance Matrix: (Units=1/GPa)
#
#
# Indices 1 2 3 4 5 6 
#
# 1 0.045332 -0.015730 -0.006910 0.000000 0.000000 0.000000
# 2 -0.015730 0.023518 -0.006864 0.000000 0.000000 0.000000
# 3 -0.006910 -0.006864 0.013834 0.000000 0.000000 0.000000
# 4 0.000000 0.000000 0.000000 0.037605 0.000000 0.000000
# 5 0.000000 0.000000 0.000000 0.000000 0.045540 0.000000
# 6 0.000000 0.000000 0.000000 0.000000 0.000000 0.071836
#
#
# Mechanical properties :
#
#
# Convention : Reuss Voigt Hill
#
# Bulk Modulus (GPa) = 42.23738 60.62002 51.42870
# Shear Modulus (GPa) = 16.41682 19.80414 18.11048
#
# Velocity S-wave (km/s) = 3.43075 3.76810 3.60337
# Velocity P-wave (km/s) = 6.78052 7.89891 7.36099
#
# Compressibility (1/GPa) = 0.02367571
#
# Stress axis : x y z
#
# Youngs Moduli (GPa) = 22.05966 42.51995 72.28456
#
# Poissons Ratio (x) = 0.66882 0.49952
# Poissons Ratio (y) = 0.34699 0.49618
# Poissons Ratio (z) = 0.15244 0.29187
#
# Static dielectric constant tensor:
#      x y z
#    x 1.473250 0.000000 0.000000 
#    y 0.000000 1.443860 0.000000 
#    z 0.000000 0.000000 1.461520 
# 
# From -- ./inp_files/19768.got.cif
#   From: 2010.05.17/outbox.cif.g08.bks.cpg/sg40_10_cif.got.tgz:19768.got - 2010.06.03 18:35:42.
