data_PCOD9362288
_publ_section_title
;
Structure prediction by ZEFSAII (Michael W. Deem and Ramdas Pophale) SiO2 
 PCOD9362288
Probable space group: A M A 2
;
_chemical_formula_sum "Si O2"
_cell_formula_units_Z 64
_cell_length_a 8.833072
_cell_length_b 23.344316
_cell_length_c 14.253733
_cell_angle_alpha 90.000000
_cell_angle_beta 90.000000
_cell_angle_gamma 90.000000
_cell_volume 2939.148594
_symmetry_space_group_name_H-M "A M A 2"
_symmetry_group_IT_number 40
_symmetry_cell_setting 'orthorhombic'
loop_
_space_group_symop_operation_xyz
x,y,z
-x,-y,z
1/2-x,y,z
1/2+x,-y,z
x,1/2+y,1/2+z
-x,1/2-y,1/2+z
1/2-x,1/2+y,1/2+z
1/2+x,1/2-y,1/2+z
loop_
_atom_site_type_symbol
_atom_site_label
_atom_site_fract_x
_atom_site_fract_y
_atom_site_fract_z
Si Si1 0.069621 0.677358 0.382050
Si Si2 0.073993 0.210694 0.364431
Si Si3 0.930378 0.677358 0.065809
Si Si4 0.567085 0.940051 0.532550
Si Si5 0.577245 0.918876 0.318258
Si Si6 0.426007 0.789306 0.083428
Si Si7 0.432915 0.940051 0.915308
Si Si8 0.577245 0.081124 0.129601
O O1 0.250000 0.673459 0.381877
O O2 0.015042 0.734028 0.327183
O O3 0.004378 0.692425 0.485408
O O4 0.996403 0.615672 0.361215
O O5 0.250000 0.226961 0.376652
O O6 0.075020 0.150351 0.312014
O O7 0.995622 0.192425 0.462451
O O8 0.750000 0.673458 0.065982
O O9 0.003597 0.615672 0.086644
O O10 0.984957 0.734028 0.120676
O O11 0.750000 0.939055 0.534794
O O12 0.516274 0.934357 0.422121
O O13 0.500000 0.000000 0.567686
O O14 0.750000 0.938620 0.318177
O O15 0.500000 0.939820 0.223929
O O16 0.250000 0.773039 0.071208
O O17 0.424981 0.849649 0.135844
O O18 0.250000 0.939055 0.913064
O O19 0.500000 0.000000 0.880173
O O20 0.483726 0.934357 0.025738
O O21 0.750000 0.061380 0.129682
#
# Coordination Sequence:
#
# PCOD9362288 Si02
#       8
#     8   8   8   8   8   8   8   8
#     4  10  17  26  43  65  83 106 138 176 219 262
#     4   9  16  28  43  61  84 110 138 175 219 260
#     4  10  17  26  43  65  83 106 138 176 219 262
#     4  10  20  33  45  61  85 116 149 183 218 256
#     4   9  19  31  44  61  85 116 149 182 217 252
#     4   9  16  28  43  61  84 110 138 175 219 260
#     4  10  20  33  45  61  85 116 149 183 218 256
#     4   9  19  31  44  61  85 116 149 182 217 252
#
# _framework density 21.775013000000001
#
# number of rings (size 3 to 8) (size 9 to 14) (size 15 to 20)
#    0.000    2.500    0.000    6.750    0.000    6.500 
#    0.000    2.500    0.000    0.000    0.000    0.000 
#    0.000    1.000    0.000   10.500    0.000    6.250 
#
# Total GULP energy -178345.549930 kJ/mol
# GULP energy per Si atom -5573.298435 kJ/mol
# Density = 2.172545 g / cm^3
# Si number density = 21.775013 Si / 1000 Ang^3
#
#
#
# Elastic Constant Matrix: (Units=GPa)
#
#
# Indices 1 2 3 4 5 6 
#
# 1 124.5330 55.9902 2.2835 0.0000 0.0000 0.0000
# 2 55.9902 180.4267 -16.5973 0.0000 0.0000 0.0000
# 3 2.2835 -16.5973 19.6952 0.0000 0.0000 0.0000
# 4 0.0000 0.0000 0.0000 -10.5580 0.0000 0.0000
# 5 0.0000 0.0000 0.0000 0.0000 -5.4875 0.0000
# 6 0.0000 0.0000 0.0000 0.0000 0.0000 36.2936
#
#
#
# Elastic Compliance Matrix: (Units=1/GPa)
#
#
# Indices 1 2 3 4 5 6 
#
# 1 0.009605 -0.003342 -0.003930 0.000000 0.000000 0.000000
# 2 -0.003342 0.007171 0.006431 0.000000 0.000000 0.000000
# 3 -0.003930 0.006431 0.056649 0.000000 0.000000 0.000000
# 4 0.000000 0.000000 0.000000 -0.094715 0.000000 0.000000
# 5 0.000000 0.000000 0.000000 0.000000 -0.182231 0.000000
# 6 0.000000 0.000000 0.000000 0.000000 0.000000 0.027553
#
#
# Mechanical properties :
#
#
# Convention : Reuss Voigt Hill
#
# Bulk Modulus (GPa) = 13.93893 45.33420 29.63656
# Shear Modulus (GPa) = -33.25087 22.91484 -5.16802
#
# Velocity S-wave (km/s) = -3.91195 3.24751 -1.54225
# Velocity P-wave (km/s) = 3.74022 5.90985 3.23551
#
# Compressibility (1/GPa) = 0.07174154
#
# Stress axis : x y z
#
# Youngs Moduli (GPa) = 104.11623 139.44930 17.65269
#
# Poissons Ratio (x) = 0.46604 0.06937
# Poissons Ratio (y) = 0.34796 -0.11352
# Poissons Ratio (z) = 0.40917 -0.89674
#
# Static dielectric constant tensor:
#      x y z
#    x 1.746710 0.000000 0.000000 
#    y 0.000000 1.871320 0.000000 
#    z 0.000000 0.000000 1.848460 
# 
# From -- ./inp_files/19746.got.cif
#   From: 2010.05.17/outbox.cif.g08.bks.cpg/sg40_10_cif.got.tgz:19746.got - 2010.06.03 18:35:42.
