data_PCOD9362767
_publ_section_title
;
Structure prediction by ZEFSAII (Michael W. Deem and Ramdas Pophale) SiO2 
 PCOD9362767
Probable space group: A M A 2
;
_chemical_formula_sum "Si O2"
_cell_formula_units_Z 64
_cell_length_a 19.163410
_cell_length_b 19.339048
_cell_length_c 9.394844
_cell_angle_alpha 90.000000
_cell_angle_beta 90.000000
_cell_angle_gamma 90.000000
_cell_volume 3481.748970
_symmetry_space_group_name_H-M "A M A 2"
_symmetry_group_IT_number 40
_symmetry_cell_setting 'orthorhombic'
loop_
_space_group_symop_operation_xyz
x,y,z
-x,-y,z
1/2-x,y,z
1/2+x,-y,z
x,1/2+y,1/2+z
-x,1/2-y,1/2+z
1/2-x,1/2+y,1/2+z
1/2+x,1/2-y,1/2+z
loop_
_atom_site_type_symbol
_atom_site_label
_atom_site_fract_x
_atom_site_fract_y
_atom_site_fract_z
Si Si1 0.012020 0.629249 0.423400
Si Si2 0.061560 0.542566 0.169192
Si Si3 0.669024 0.127113 0.375205
Si Si4 0.327099 0.924478 0.703611
Si Si5 0.384861 0.788355 0.814917
Si Si6 0.448481 0.667656 0.962517
Si Si7 0.094373 0.252953 0.003123
Si Si8 0.471050 0.922030 0.229966
O O1 0.031488 0.569259 0.317424
O O2 0.078820 0.675007 0.461695
O O3 0.961723 0.679845 0.335312
O O4 0.975454 0.604281 0.567502
O O5 0.120447 0.487856 0.206574
O O6 0.000000 0.500000 0.090890
O O7 0.076914 0.609690 0.073499
O O8 0.750000 0.121473 0.326844
O O9 0.667133 0.102692 0.540459
O O10 0.641018 0.205787 0.389521
O O11 0.608214 0.086805 0.289463
O O12 0.250000 0.950422 0.729203
O O13 0.340672 0.859460 0.809090
O O14 0.389192 0.724510 0.925010
O O15 0.373406 0.756584 0.659551
O O16 0.518963 0.707506 0.014462
O O17 0.477930 0.627203 0.823663
O O18 0.500000 0.000000 0.237089
#
# Coordination Sequence:
#
# PCOD9362767 Si02
#       8
#     8   8   8   8   8   8   8   8
#     4  11  21  32  56  86 116 148 191 245 299 352
#     4  12  20  36  59  87 116 157 203 246 295 366
#     4   9  19  37  61  84 114 160 203 244 304 375
#     4  10  21  38  61  84 116 159 205 247 300 373
#     4  10  18  35  54  82 112 147 194 242 297 347
#     4  10  19  31  56  85 113 147 193 252 294 348
#     4   9  17  33  54  84 114 144 190 244 295 347
#     4  11  21  33  54  87 122 150 194 255 303 353
#
# _framework density 18.381565999999999
#
# number of rings (size 3 to 8) (size 9 to 14) (size 15 to 20)
#    0.000    1.750    3.750    3.000    0.000    0.000 
#    0.000    1.875    0.000    1.500    0.000    0.000 
#    0.000    0.000    0.000    0.000    0.000    0.000 
#
# Total GULP energy -178189.978850 kJ/mol
# GULP energy per Si atom -5568.436839 kJ/mol
# Density = 1.833973 g / cm^3
# Si number density = 18.381566 Si / 1000 Ang^3
#
#
#
# Elastic Constant Matrix: (Units=GPa)
#
#
# Indices 1 2 3 4 5 6 
#
# 1 84.1983 41.9651 18.2285 0.0000 0.0000 0.0000
# 2 41.9651 113.0559 29.1621 0.0000 0.0000 0.0000
# 3 18.2285 29.1621 68.0901 0.0000 0.0000 0.0000
# 4 0.0000 0.0000 0.0000 19.8596 0.0000 0.0000
# 5 0.0000 0.0000 0.0000 0.0000 14.8948 0.0000
# 6 0.0000 0.0000 0.0000 0.0000 0.0000 17.6843
#
#
#
# Elastic Compliance Matrix: (Units=1/GPa)
#
#
# Indices 1 2 3 4 5 6 
#
# 1 0.014767 -0.005016 -0.001805 0.000000 0.000000 0.000000
# 2 -0.005016 0.011647 -0.003646 0.000000 0.000000 0.000000
# 3 -0.001805 -0.003646 0.016731 0.000000 0.000000 0.000000
# 4 0.000000 0.000000 0.000000 0.050353 0.000000 0.000000
# 5 0.000000 0.000000 0.000000 0.000000 0.067138 0.000000
# 6 0.000000 0.000000 0.000000 0.000000 0.000000 0.056547
#
#
# Mechanical properties :
#
#
# Convention : Reuss Voigt Hill
#
# Bulk Modulus (GPa) = 45.01958 49.33953 47.17955
# Shear Modulus (GPa) = 20.36478 22.22032 21.29255
#
# Velocity S-wave (km/s) = 3.33211 3.48061 3.40717
# Velocity P-wave (km/s) = 6.27286 6.56147 6.41879
#
# Compressibility (1/GPa) = 0.02221256
#
# Stress axis : x y z
#
# Youngs Moduli (GPa) = 67.71628 85.85611 59.76911
#
# Poissons Ratio (x) = 0.43065 0.10789
# Poissons Ratio (y) = 0.33966 0.21789
# Poissons Ratio (z) = 0.12224 0.31300
#
# Static dielectric constant tensor:
#      x y z
#    x 1.635560 0.000000 0.000000 
#    y 0.000000 1.670480 0.000000 
#    z 0.000000 0.000000 1.658910 
# 
# From -- ./inp_files/8473.got.cif
#   From: 2010.05.17/outbox.cif.g08.bks.cpg/sg40_5_cif.got.tgz:8473.got - 2010.06.03 18:35:42.
