data_PCOD9362801
_publ_section_title
;
Structure prediction by ZEFSAII (Michael W. Deem and Ramdas Pophale) SiO2 
 PCOD9362801
Probable space group: A M A 2
;
_chemical_formula_sum "Si O2"
_cell_formula_units_Z 64
_cell_length_a 17.135854
_cell_length_b 12.253040
_cell_length_c 16.673739
_cell_angle_alpha 90.000000
_cell_angle_beta 90.000000
_cell_angle_gamma 90.000000
_cell_volume 3500.923360
_symmetry_space_group_name_H-M "A M A 2"
_symmetry_group_IT_number 40
_symmetry_cell_setting 'orthorhombic'
loop_
_space_group_symop_operation_xyz
x,y,z
-x,-y,z
1/2-x,y,z
1/2+x,-y,z
x,1/2+y,1/2+z
-x,1/2-y,1/2+z
1/2-x,1/2+y,1/2+z
1/2+x,1/2-y,1/2+z
loop_
_atom_site_type_symbol
_atom_site_label
_atom_site_fract_x
_atom_site_fract_y
_atom_site_fract_z
Si Si1 0.157020 0.969918 0.523200
Si Si2 0.343381 0.146050 0.663285
Si Si3 0.081574 0.315829 0.550505
Si Si4 0.155188 0.014047 0.812586
Si Si5 0.597525 0.261664 0.570635
Si Si6 0.655933 0.226113 0.748496
Si Si7 0.340393 0.027413 0.995828
Si Si8 0.343768 0.666184 0.913685
O O1 0.250000 0.947289 0.521787
O O2 0.112538 0.856879 0.532133
O O3 0.142216 0.046808 0.600662
O O4 0.136730 0.046071 0.447254
O O5 0.250000 0.162589 0.664912
O O6 0.383063 0.252141 0.626667
O O7 0.371476 0.105983 0.750014
O O8 0.109772 0.439654 0.544749
O O9 0.115895 0.253548 0.472250
O O10 0.989549 0.301341 0.553667
O O11 0.250000 0.018073 0.812203
O O12 0.134118 0.894876 0.779255
O O13 0.130337 0.029206 0.903928
O O14 0.614873 0.251726 0.665114
O O15 0.653079 0.353064 0.532834
O O16 0.750000 0.226569 0.735385
O O17 0.638072 0.308263 0.821537
O O18 0.250000 0.990907 0.995362
O O19 0.250000 0.679686 0.923892
#
# Coordination Sequence:
#
# PCOD9362801 Si02
#       8
#     8   8   8   8   8   8   8   8
#     4   9  17  33  57  85 112 145 189 238 284 337
#     4   9  17  33  59  88 113 143 191 248 282 332
#     4  11  22  37  55  85 123 155 193 232 303 363
#     4   9  17  33  61  90 109 137 198 254 285 325
#     4  12  24  36  54  88 126 154 184 238 311 359
#     4  10  18  36  62  88 111 150 208 247 274 341
#     4  11  22  40  63  83 110 157 203 246 291 353
#     4   9  18  35  64  88 108 149 207 248 273 333
#
# _framework density 18.280891
#
# number of rings (size 3 to 8) (size 9 to 14) (size 15 to 20)
#    0.000    2.000    2.500    3.375    0.000    2.000 
#    2.250    1.250    2.750    3.000    0.000    0.000 
#    0.000    0.000    0.000    0.000    0.000    0.000 
#
# Total GULP energy -178624.248244 kJ/mol
# GULP energy per Si atom -5582.007758 kJ/mol
# Density = 1.823928 g / cm^3
# Si number density = 18.280891 Si / 1000 Ang^3
#
#
#
# Elastic Constant Matrix: (Units=GPa)
#
#
# Indices 1 2 3 4 5 6 
#
# 1 25.5442 10.3772 15.8421 0.0000 0.0000 0.0000
# 2 10.3772 70.1184 43.8811 0.0000 0.0000 0.0000
# 3 15.8421 43.8811 108.4689 0.0000 0.0000 0.0000
# 4 0.0000 0.0000 0.0000 28.9695 0.0000 0.0000
# 5 0.0000 0.0000 0.0000 0.0000 8.7642 0.0000
# 6 0.0000 0.0000 0.0000 0.0000 0.0000 58.9825
#
#
#
# Elastic Compliance Matrix: (Units=1/GPa)
#
#
# Indices 1 2 3 4 5 6 
#
# 1 0.043611 -0.003305 -0.005033 0.000000 0.000000 0.000000
# 2 -0.003305 0.019347 -0.007344 0.000000 0.000000 0.000000
# 3 -0.005033 -0.007344 0.012925 0.000000 0.000000 0.000000
# 4 0.000000 0.000000 0.000000 0.034519 0.000000 0.000000
# 5 0.000000 0.000000 0.000000 0.000000 0.114101 0.000000
# 6 0.000000 0.000000 0.000000 0.000000 0.000000 0.016954
#
#
# Mechanical properties :
#
#
# Convention : Reuss Voigt Hill
#
# Bulk Modulus (GPa) = 22.46155 38.25914 30.36034
# Shear Modulus (GPa) = 17.38158 28.27864 22.83011
#
# Velocity S-wave (km/s) = 3.08686 3.93733 3.53774
# Velocity P-wave (km/s) = 5.00185 6.45321 5.77332
#
# Compressibility (1/GPa) = 0.04452053
#
# Stress axis : x y z
#
# Youngs Moduli (GPa) = 22.92978 51.68842 77.36778
#
# Poissons Ratio (x) = 0.17082 0.38936
# Poissons Ratio (y) = 0.07578 0.56819
# Poissons Ratio (z) = 0.11539 0.37960
#
# Static dielectric constant tensor:
#      x y z
#    x 1.630630 0.000000 0.000000 
#    y 0.000000 1.615000 0.000000 
#    z 0.000000 0.000000 1.622900 
# 
# From -- ./inp_files/21198.got.cif
#   From: 2010.05.17/outbox.cif.g08.bks.cpg/sg40_11_cif.got.tgz:21198.got - 2010.06.03 18:35:42.
