data_PCOD9362690
_publ_section_title
;
Structure prediction by ZEFSAII (Michael W. Deem and Ramdas Pophale) SiO2 
 PCOD9362690
Probable space group: A M A 2
;
_chemical_formula_sum "Si O2"
_cell_formula_units_Z 64
_cell_length_a 8.682347
_cell_length_b 23.911792
_cell_length_c 19.744123
_cell_angle_alpha 90.000000
_cell_angle_beta 90.000000
_cell_angle_gamma 90.000000
_cell_volume 4099.086765
_symmetry_space_group_name_H-M "A M A 2"
_symmetry_group_IT_number 40
_symmetry_cell_setting 'orthorhombic'
loop_
_space_group_symop_operation_xyz
x,y,z
-x,-y,z
1/2-x,y,z
1/2+x,-y,z
x,1/2+y,1/2+z
-x,1/2-y,1/2+z
1/2-x,1/2+y,1/2+z
1/2+x,1/2-y,1/2+z
loop_
_atom_site_type_symbol
_atom_site_label
_atom_site_fract_x
_atom_site_fract_y
_atom_site_fract_z
Si Si1 0.562374 0.745841 0.250000
Si Si2 0.565034 0.164412 0.979307
Si Si3 0.564182 0.277122 0.897388
Si Si4 0.066699 0.061787 0.608451
Si Si5 0.436399 0.884827 0.745658
Si Si6 0.565832 0.159818 0.520687
Si Si7 0.563947 0.561470 0.389391
Si Si8 0.564653 0.272618 0.601772
O O1 0.750000 0.746224 0.250511
O O2 0.513191 0.775438 0.319362
O O3 0.518067 0.680389 0.249968
O O4 0.511573 0.773224 0.179471
O O5 0.750000 0.162898 0.983425
O O6 0.525559 0.216545 0.930033
O O7 0.511949 0.107097 0.944744
O O8 0.499214 0.179839 0.052498
O O9 0.750000 0.282867 0.899983
O O10 0.489165 0.323108 0.945866
O O11 0.250000 0.059585 0.609296
O O12 0.006702 0.086078 0.680021
O O13 0.009356 0.104507 0.550934
O O14 0.000000 0.000000 0.598507
O O15 0.250000 0.886475 0.739798
O O16 0.480731 0.916145 0.814823
O O17 0.750000 0.154780 0.523077
O O18 0.521031 0.212667 0.568634
O O19 0.500000 0.500000 0.401222
O O20 0.750000 0.560097 0.390755
O O21 0.750000 0.275158 0.600865
#
# Coordination Sequence:
#
# PCOD9362690 Si02
#       8
#     8   8   8   8   8   8   8   8
#     4   9  15  28  50  72  97 132 162 190 237 293
#     4   9  17  30  46  66  92 124 160 198 240 282
#     4   9  16  29  50  71  94 126 162 195 235 292
#     4  12  24  36  50  70  96 131 171 206 242 287
#     4  10  18  33  50  68  99 134 167 200 237 282
#     4  10  19  33  50  70  98 128 160 202 246 286
#     4  10  20  32  48  67  93 131 168 201 239 282
#     4   9  17  29  48  70  94 126 160 196 241 286
#
# _framework density 15.613234
#
# number of rings (size 3 to 8) (size 9 to 14) (size 15 to 20)
#    0.000    2.250    2.500    1.875    0.000    2.500 
#    0.000    1.250    0.000    0.000    0.000    0.875 
#    0.000    2.000    0.000    0.000    0.000    0.000 
#
# Total GULP energy -178486.600640 kJ/mol
# GULP energy per Si atom -5577.706270 kJ/mol
# Density = 1.557770 g / cm^3
# Si number density = 15.613234 Si / 1000 Ang^3
#
#
#
# Elastic Constant Matrix: (Units=GPa)
#
#
# Indices 1 2 3 4 5 6 
#
# 1 26.6486 32.2456 33.9431 0.0000 0.0000 0.0000
# 2 32.2456 109.4255 82.0120 0.0000 0.0000 0.0000
# 3 33.9431 82.0120 153.5252 0.0000 0.0000 0.0000
# 4 0.0000 0.0000 0.0000 19.1533 0.0000 0.0000
# 5 0.0000 0.0000 0.0000 0.0000 23.9321 0.0000
# 6 0.0000 0.0000 0.0000 0.0000 0.0000 17.6664
#
#
#
# Elastic Compliance Matrix: (Units=1/GPa)
#
#
# Indices 1 2 3 4 5 6 
#
# 1 0.062080 -0.013353 -0.006592 0.000000 0.000000 0.000000
# 2 -0.013353 0.018112 -0.006723 0.000000 0.000000 0.000000
# 3 -0.006592 -0.006723 0.011563 0.000000 0.000000 0.000000
# 4 0.000000 0.000000 0.000000 0.052210 0.000000 0.000000
# 5 0.000000 0.000000 0.000000 0.000000 0.041785 0.000000
# 6 0.000000 0.000000 0.000000 0.000000 0.000000 0.056605
#
#
# Mechanical properties :
#
#
# Convention : Reuss Voigt Hill
#
# Bulk Modulus (GPa) = 26.02967 65.11118 45.57043
# Shear Modulus (GPa) = 16.20759 21.57693 18.89226
#
# Velocity S-wave (km/s) = 3.22540 3.72151 3.48230
# Velocity P-wave (km/s) = 5.52980 7.76269 6.73936
#
# Compressibility (1/GPa) = 0.03841769
#
# Stress axis : x y z
#
# Youngs Moduli (GPa) = 16.10836 55.21050 86.48556
#
# Poissons Ratio (x) = 0.73722 0.57013
# Poissons Ratio (y) = 0.21509 0.58147
# Poissons Ratio (z) = 0.10619 0.37120
#
# Static dielectric constant tensor:
#      x y z
#    x 1.529590 0.000000 0.000000 
#    y 0.000000 1.495510 0.000000 
#    z 0.000000 0.000000 1.525910 
# 
# From -- ./inp_files/19655.got.cif
#   From: 2010.05.17/outbox.cif.g08.bks.cpg/sg40_10_cif.got.tgz:19655.got - 2010.06.03 18:35:42.
