data_PCOD9362306
_publ_section_title
;
Structure prediction by ZEFSAII (Michael W. Deem and Ramdas Pophale) SiO2 
 PCOD9362306
Probable space group: A M A 2
;
_chemical_formula_sum "Si O2"
_cell_formula_units_Z 56
_cell_length_a 27.738550
_cell_length_b 21.220032
_cell_length_c 5.263475
_cell_angle_alpha 90.000000
_cell_angle_beta 90.000000
_cell_angle_gamma 90.000000
_cell_volume 3098.149382
_symmetry_space_group_name_H-M "A M A 2"
_symmetry_group_IT_number 40
_symmetry_cell_setting 'orthorhombic'
loop_
_space_group_symop_operation_xyz
x,y,z
-x,-y,z
1/2-x,y,z
1/2+x,-y,z
x,1/2+y,1/2+z
-x,1/2-y,1/2+z
1/2-x,1/2+y,1/2+z
1/2+x,1/2-y,1/2+z
loop_
_atom_site_type_symbol
_atom_site_label
_atom_site_fract_x
_atom_site_fract_y
_atom_site_fract_z
Si Si1 0.045118 0.047062 0.764800
Si Si2 0.853767 0.360566 0.628804
Si Si3 0.456744 0.312657 0.629852
Si Si4 0.434666 0.744180 0.630396
Si Si5 0.750000 0.366206 0.724410
Si Si6 0.490233 0.574229 0.769415
Si Si7 0.646295 0.945786 0.628087
Si Si8 0.750000 0.449018 0.224708
O O1 0.095979 0.018169 0.680605
O O2 0.030168 0.095488 0.541799
O O3 0.000000 0.000000 0.794393
O O4 0.047506 0.078527 0.039814
O O5 0.893672 0.307599 0.664551
O O6 0.800118 0.332065 0.670359
O O7 0.854888 0.391735 0.347943
O O8 0.856348 0.414096 0.850218
O O9 0.512374 0.288192 0.635620
O O10 0.435108 0.293950 0.360641
O O11 0.463354 0.386600 0.686833
O O12 0.430214 0.278330 0.860069
O O13 0.750000 0.423158 0.513548
O O14 0.750000 0.392926 0.012136
O O15 0.500000 0.500000 0.805040
O O16 0.697721 0.979950 0.670010
#
# Coordination Sequence:
#
# PCOD9362306 Si02
#       8
#     8   8   8   8   4   8   8   4
#     4  10  19  29  44  65  87 116 152 189 230 275
#     4  10  18  29  45  65  89 124 152 178 226 270
#     4  10  19  30  42  63  90 117 150 180 213 269
#     4  10  19  28  43  64  91 120 144 176 220 268
#     4   8  16  28  42  62  88 113 152 187 208 268
#     4  10  20  33  47  63  88 120 154 192 227 261
#     4  10  17  28  44  62  91 120 151 186 223 281
#     4   8  16  26  40  62  84 117 148 181 228 268
#
# _framework density 18.075305
#
# number of rings (size 3 to 8) (size 9 to 14) (size 15 to 20)
#    0.000    2.286    0.000    4.286    0.000    2.286 
#    0.000    0.000    0.000    0.000    0.000    0.000 
#    0.000   27.429    0.000    0.143    0.000    0.143 
#
# Total GULP energy -155891.343491 kJ/mol
# GULP energy per Si atom -5567.547982 kJ/mol
# Density = 1.803416 g / cm^3
# Si number density = 18.075305 Si / 1000 Ang^3
#
#
#
# Elastic Constant Matrix: (Units=GPa)
#
#
# Indices 1 2 3 4 5 6 
#
# 1 111.1904 5.5588 -2.7008 0.0000 0.0000 0.0000
# 2 5.5588 33.6843 -5.8304 0.0000 0.0000 0.0000
# 3 -2.7008 -5.8304 109.1305 0.0000 0.0000 0.0000
# 4 0.0000 0.0000 0.0000 13.3546 0.0000 0.0000
# 5 0.0000 0.0000 0.0000 0.0000 22.0605 0.0000
# 6 0.0000 0.0000 0.0000 0.0000 0.0000 18.2984
#
#
#
# Elastic Compliance Matrix: (Units=1/GPa)
#
#
# Indices 1 2 3 4 5 6 
#
# 1 0.009071 -0.001472 0.000146 0.000000 0.000000 0.000000
# 2 -0.001472 0.030203 0.001577 0.000000 0.000000 0.000000
# 3 0.000146 0.001577 0.009251 0.000000 0.000000 0.000000
# 4 0.000000 0.000000 0.000000 0.074881 0.000000 0.000000
# 5 0.000000 0.000000 0.000000 0.000000 0.045330 0.000000
# 6 0.000000 0.000000 0.000000 0.000000 0.000000 0.054650
#
#
# Mechanical properties :
#
#
# Convention : Reuss Voigt Hill
#
# Bulk Modulus (GPa) = 20.39650 27.56228 23.97939
# Shear Modulus (GPa) = 20.90079 27.87452 24.38766
#
# Velocity S-wave (km/s) = 3.40416 3.93126 3.67716
# Velocity P-wave (km/s) = 5.17298 5.99067 5.59678
#
# Compressibility (1/GPa) = 0.04902801
#
# Stress axis : x y z
#
# Youngs Moduli (GPa) = 110.24512 33.10899 108.09393
#
# Poissons Ratio (x) = 0.04873 -0.01577
# Poissons Ratio (y) = 0.16224 -0.17049
# Poissons Ratio (z) = -0.01608 -0.05222
#
# Static dielectric constant tensor:
#      x y z
#    x 1.783040 0.000000 0.000000 
#    y 0.000000 1.708680 0.000000 
#    z 0.000000 0.000000 1.696650 
# 
# From -- ./inp_files/2812.got.cif
#   From: 2010.05.17/outbox.cif.g08.bks.cpg/sg40_2_cif.got.tgz:2812.got - 2010.06.03 18:35:42.
