data_PCOD9362643
_publ_section_title
;
Structure prediction by ZEFSAII (Michael W. Deem and Ramdas Pophale) SiO2 
 PCOD9362643
Probable space group: A M A 2
;
_chemical_formula_sum "Si O2"
_cell_formula_units_Z 56
_cell_length_a 8.512109
_cell_length_b 19.556152
_cell_length_c 18.641961
_cell_angle_alpha 90.000000
_cell_angle_beta 90.000000
_cell_angle_gamma 90.000000
_cell_volume 3103.217212
_symmetry_space_group_name_H-M "A M A 2"
_symmetry_group_IT_number 40
_symmetry_cell_setting 'orthorhombic'
loop_
_space_group_symop_operation_xyz
x,y,z
-x,-y,z
1/2-x,y,z
1/2+x,-y,z
x,1/2+y,1/2+z
-x,1/2-y,1/2+z
1/2-x,1/2+y,1/2+z
1/2+x,1/2-y,1/2+z
loop_
_atom_site_type_symbol
_atom_site_label
_atom_site_fract_x
_atom_site_fract_y
_atom_site_fract_z
Si Si1 0.566506 0.783042 0.054570
Si Si2 0.438044 0.423347 0.104163
Si Si3 0.433576 0.660351 0.971722
Si Si4 0.436489 0.196567 0.315163
Si Si5 0.930821 0.072055 0.232996
Si Si6 0.069460 0.927891 0.059793
Si Si7 0.560900 0.203807 0.698737
O O1 0.750000 0.767337 0.041226
O O2 0.530061 0.861577 0.039644
O O3 0.533645 0.760519 0.136670
O O4 0.457704 0.734026 0.008103
O O5 0.500000 0.500000 0.114323
O O6 0.250000 0.424192 0.107457
O O7 0.495700 0.367943 0.164256
O O8 0.486679 0.392918 0.026413
O O9 0.250000 0.641975 0.967268
O O10 0.500685 0.671579 0.891869
O O11 0.250000 0.207308 0.325492
O O12 0.465978 0.133592 0.262177
O O13 0.499499 0.264083 0.273536
O O14 0.750000 0.080554 0.255657
O O15 0.933192 0.070841 0.146655
O O16 0.000000 0.000000 0.258647
O O17 0.250000 0.920202 0.037027
O O18 0.000000 0.000000 0.034534
O O19 0.750000 0.197348 0.705926
#
# Coordination Sequence:
#
# PCOD9362643 Si02
#       7
#     8   8   8   8   8   8   8
#     4  10  18  32  53  73 100 134 170 215 257 307
#     4  10  20  36  57  80 106 138 177 222 270 321
#     4  10  21  34  52  77 105 137 174 216 262 317
#     4  10  19  34  53  74 103 139 175 214 262 314
#     4  10  20  31  46  71 102 135 167 205 245 295
#     4  10  19  30  47  73 101 130 166 207 252 299
#     4   8  16  31  53  76  97 129 172 215 262 308
#
# _framework density 18.045787000000001
#
# number of rings (size 3 to 8) (size 9 to 14) (size 15 to 20)
#    0.000    2.286    1.429    3.000    0.000    2.857 
#    0.000    0.714    0.000    0.857    0.000    2.000 
#    0.000    0.000    0.000    0.000    0.000    0.000 
#
# Total GULP energy -155968.529193 kJ/mol
# GULP energy per Si atom -5570.304614 kJ/mol
# Density = 1.800471 g / cm^3
# Si number density = 18.045787 Si / 1000 Ang^3
#
#
#
# Elastic Constant Matrix: (Units=GPa)
#
#
# Indices 1 2 3 4 5 6 
#
# 1 17.0800 0.0294 1.3413 0.0000 0.0000 0.0000
# 2 0.0294 124.0433 22.2383 0.0000 0.0000 0.0000
# 3 1.3413 22.2383 42.3296 0.0000 0.0000 0.0000
# 4 0.0000 0.0000 0.0000 6.2690 0.0000 0.0000
# 5 0.0000 0.0000 0.0000 0.0000 11.1768 0.0000
# 6 0.0000 0.0000 0.0000 0.0000 0.0000 24.9845
#
#
#
# Elastic Compliance Matrix: (Units=1/GPa)
#
#
# Indices 1 2 3 4 5 6 
#
# 1 0.058708 0.000353 -0.002046 0.000000 0.000000 0.000000
# 2 0.000353 0.008902 -0.004688 0.000000 0.000000 0.000000
# 3 -0.002046 -0.004688 0.026152 0.000000 0.000000 0.000000
# 4 0.000000 0.000000 0.000000 0.159515 0.000000 0.000000
# 5 0.000000 0.000000 0.000000 0.000000 0.089471 0.000000
# 6 0.000000 0.000000 0.000000 0.000000 0.000000 0.040025
#
#
# Mechanical properties :
#
#
# Convention : Reuss Voigt Hill
#
# Bulk Modulus (GPa) = 12.34563 25.63011 18.98787
# Shear Modulus (GPa) = 11.83334 19.14231 15.48783
#
# Velocity S-wave (km/s) = 2.56352 3.26047 2.93277
# Velocity P-wave (km/s) = 3.95200 5.32990 4.69181
#
# Compressibility (1/GPa) = 0.08100030
#
# Stress axis : x y z
#
# Youngs Moduli (GPa) = 17.03347 112.33344 38.23822
#
# Poissons Ratio (x) = -0.03963 0.07822
# Poissons Ratio (y) = -0.00601 0.17926
# Poissons Ratio (z) = 0.03484 0.52662
#
# Static dielectric constant tensor:
#      x y z
#    x 1.626140 0.000000 0.000000 
#    y 0.000000 1.618720 0.000000 
#    z 0.000000 0.000000 1.648060 
# 
# From -- ./inp_files/22297.got.cif
#   From: 2010.05.17/outbox.cif.g08.bks.cpg/sg40_12_cif.got.tgz:22297.got - 2010.06.03 18:35:42.
