data_PCOD9362157
_publ_section_title
;
Structure prediction by ZEFSAII (Michael W. Deem and Ramdas Pophale) SiO2 
 PCOD9362157
Probable space group: A B M 2
;
_chemical_formula_sum "Si O2"
_cell_formula_units_Z 24
_cell_length_a 9.129023
_cell_length_b 11.182243
_cell_length_c 8.689356
_cell_angle_alpha 90.000000
_cell_angle_beta 90.000000
_cell_angle_gamma 90.000000
_cell_volume 887.035125
_symmetry_space_group_name_H-M "A B M 2"
_symmetry_group_IT_number 39
_symmetry_cell_setting 'orthorhombic'
loop_
_space_group_symop_operation_xyz
x,y,z
-x,-y,z
-x,1/2+y,z
x,1/2-y,z
x,1/2+y,1/2+z
-x,1/2-y,1/2+z
-x,y,1/2+z
x,-y,1/2+z
loop_
_atom_site_type_symbol
_atom_site_label
_atom_site_fract_x
_atom_site_fract_y
_atom_site_fract_z
Si Si1 0.003281 0.250000 0.054300
Si Si2 0.317317 0.250000 0.577837
Si Si3 0.658511 0.498289 0.238521
Si Si4 0.292900 0.250000 0.212717
Si Si5 0.000000 0.000000 0.372594
O O1 0.122076 0.250000 0.185594
O O2 0.849000 0.250000 0.132398
O O3 0.009144 0.375945 0.966136
O O4 0.361313 0.122597 0.643902
O O5 0.330345 0.250000 0.393333
O O6 0.500000 0.500000 0.329887
O O7 0.657742 0.623916 0.144871
O O8 0.829579 0.501507 0.302063
#
# Coordination Sequence:
#
# PCOD9362157 Si02
#       5
#     4   4   8   4   4
#     4  12  25  48  78 117 159 212 263 324 396 473
#     4  12  26  50  77 115 163 202 266 328 391 474
#     4  12  27  52  81 119 158 208 265 329 402 468
#     4  12  27  50  75 116 162 208 263 324 391 475
#     4  12  24  52  82 116 162 206 264 330 392 478
#
# _framework density 27.056424
#
# number of rings (size 3 to 8) (size 9 to 14) (size 15 to 20)
#    0.000    0.000    3.333    6.000    0.000    1.333 
#    6.000    0.000    0.000    0.000    0.000    0.000 
#    0.000    0.000    0.000    0.000    0.000    0.000 
#
# Total GULP energy -66809.090362 kJ/mol
# GULP energy per Si atom -5567.424197 kJ/mol
# Density = 2.699484 g / cm^3
# Si number density = 27.056424 Si / 1000 Ang^3
#
#
#
# Elastic Constant Matrix: (Units=GPa)
#
#
# Indices 1 2 3 4 5 6 
#
# 1 250.9725 33.5294 45.0594 0.0000 0.0000 0.0000
# 2 33.5294 322.5694 82.6073 0.0000 0.0000 0.0000
# 3 45.0594 82.6073 74.6665 0.0000 0.0000 0.0000
# 4 0.0000 0.0000 0.0000 43.6107 0.0000 0.0000
# 5 0.0000 0.0000 0.0000 0.0000 28.8719 0.0000
# 6 0.0000 0.0000 0.0000 0.0000 0.0000 -414.4678
#
#
#
# Elastic Compliance Matrix: (Units=1/GPa)
#
#
# Indices 1 2 3 4 5 6 
#
# 1 0.004492 0.000317 -0.003062 0.000000 0.000000 0.000000
# 2 0.000317 0.004348 -0.005002 0.000000 0.000000 0.000000
# 3 -0.003062 -0.005002 0.020774 0.000000 0.000000 0.000000
# 4 0.000000 0.000000 0.000000 0.022930 0.000000 0.000000
# 5 0.000000 0.000000 0.000000 0.000000 0.034636 0.000000
# 6 0.000000 0.000000 0.000000 0.000000 0.000000 -0.002413
#
#
# Mechanical properties :
#
#
# Convention : Reuss Voigt Hill
#
# Bulk Modulus (GPa) = 70.81368 107.84453 89.32910
# Shear Modulus (GPa) = 47.63395 -35.92955 5.85220
#
# Velocity S-wave (km/s) = 4.20043 -3.64806 1.47230
# Velocity P-wave (km/s) = 7.05367 4.71182 5.99814
#
# Compressibility (1/GPa) = 0.01412156
#
# Stress axis : x y z
#
# Youngs Moduli (GPa) = 222.62785 229.98632 48.13641
#
# Poissons Ratio (x) = -0.07294 0.14737
# Poissons Ratio (y) = -0.07060 0.24077
# Poissons Ratio (z) = 0.68159 1.15037
#
# Static dielectric constant tensor:
#      x y z
#    x 2.190180 0.000000 0.000000 
#    y 0.000000 2.031710 0.000000 
#    z 0.000000 0.000000 2.165320 
# 
# From -- ./inp_files/4731.got.cif
#   From: 2010.05.17/outbox.cif.g08.bks.cpg/sg39_3_cif.got.tgz:4731.got - 2010.06.03 18:22:40.
