data_PCOD9362656
_publ_section_title
;
Structure prediction by ZEFSAII (Michael W. Deem and Ramdas Pophale) SiO2 
 PCOD9362656
Probable space group: A M A 2
;
_chemical_formula_sum "Si O2"
_cell_formula_units_Z 48
_cell_length_a 8.615626
_cell_length_b 9.415273
_cell_length_c 31.956624
_cell_angle_alpha 90.000000
_cell_angle_beta 90.000000
_cell_angle_gamma 90.000000
_cell_volume 2592.272473
_symmetry_space_group_name_H-M "A M A 2"
_symmetry_group_IT_number 40
_symmetry_cell_setting 'orthorhombic'
loop_
_space_group_symop_operation_xyz
x,y,z
-x,-y,z
1/2-x,y,z
1/2+x,-y,z
x,1/2+y,1/2+z
-x,1/2-y,1/2+z
1/2-x,1/2+y,1/2+z
1/2+x,1/2-y,1/2+z
loop_
_atom_site_type_symbol
_atom_site_label
_atom_site_fract_x
_atom_site_fract_y
_atom_site_fract_z
Si Si1 0.064396 0.338410 0.620120
Si Si2 0.563758 0.840852 0.784754
Si Si3 0.063919 0.841225 0.366806
Si Si4 0.064636 0.160605 0.207611
Si Si5 0.935587 0.340149 0.956206
Si Si6 0.064493 0.660382 0.533094
O O1 0.250000 0.339898 0.619834
O O2 0.000000 0.500000 0.620197
O O3 0.001646 0.278222 0.663824
O O4 0.000332 0.275929 0.576777
O O5 0.750000 0.841930 0.780244
O O6 0.525754 0.759221 0.827873
O O7 0.490615 0.754599 0.746304
O O8 0.500000 0.000000 0.785677
O O9 0.250000 0.849014 0.371410
O O10 0.990965 0.789194 0.410430
O O11 0.000000 0.000000 0.358998
O O12 0.250000 0.153851 0.205317
O O13 0.000000 0.000000 0.212715
O O14 0.250000 0.659401 0.958175
O O15 0.000000 0.500000 0.960176
O O16 0.005347 0.247259 0.993400
O O17 0.250000 0.656623 0.534721
O O18 0.000000 0.500000 0.529749
#
# Coordination Sequence:
#
# PCOD9362656 Si02
#       6
#     8   8   8   8   8   8
#     4  10  18  32  54  82 113 146 187 232 277 325
#     4  11  24  40  58  83 115 149 185 229 283 337
#     4  10  21  38  60  84 110 144 188 233 278 331
#     4  11  21  36  59  85 113 148 190 233 277 328
#     4  11  22  38  59  84 114 149 188 231 280 332
#     4  11  21  36  57  84 116 150 189 232 280 331
#
# _framework density 18.516573000000001
#
# number of rings (size 3 to 8) (size 9 to 14) (size 15 to 20)
#    0.000    1.333    0.000   10.500    0.000    4.667 
#    0.000    2.500    0.000    0.000    0.000    0.000 
#    0.000    0.000    0.000    0.000    0.000    0.000 
#
# Total GULP energy -134126.233864 kJ/mol
# GULP energy per Si atom -5588.593078 kJ/mol
# Density = 1.847443 g / cm^3
# Si number density = 18.516573 Si / 1000 Ang^3
#
#
#
# Elastic Constant Matrix: (Units=GPa)
#
#
# Indices 1 2 3 4 5 6 
#
# 1 187.0868 49.7627 106.0017 0.0000 0.0000 0.0000
# 2 49.7627 67.6433 84.5832 0.0000 0.0000 0.0000
# 3 106.0017 84.5832 213.7543 0.0000 0.0000 0.0000
# 4 0.0000 0.0000 0.0000 19.9177 0.0000 0.0000
# 5 0.0000 0.0000 0.0000 0.0000 38.1681 0.0000
# 6 0.0000 0.0000 0.0000 0.0000 0.0000 23.0885
#
#
#
# Elastic Compliance Matrix: (Units=1/GPa)
#
#
# Indices 1 2 3 4 5 6 
#
# 1 0.007534 -0.001723 -0.003054 0.000000 0.000000 0.000000
# 2 -0.001723 0.029657 -0.010881 0.000000 0.000000 0.000000
# 3 -0.003054 -0.010881 0.010498 0.000000 0.000000 0.000000
# 4 0.000000 0.000000 0.000000 0.050207 0.000000 0.000000
# 5 0.000000 0.000000 0.000000 0.000000 0.026200 0.000000
# 6 0.000000 0.000000 0.000000 0.000000 0.000000 0.043312
#
#
# Mechanical properties :
#
#
# Convention : Reuss Voigt Hill
#
# Bulk Modulus (GPa) = 61.07761 105.46441 83.27101
# Shear Modulus (GPa) = 24.48806 31.44397 27.96602
#
# Velocity S-wave (km/s) = 3.64056 4.12534 3.89050
# Velocity P-wave (km/s) = 7.12240 8.93150 8.07775
#
# Compressibility (1/GPa) = 0.01637261
#
# Stress axis : x y z
#
# Youngs Moduli (GPa) = 132.73181 33.71919 95.25349
#
# Poissons Ratio (x) = 0.05811 0.29092
# Poissons Ratio (y) = 0.22876 1.03641
# Poissons Ratio (z) = 0.40538 0.36688
#
# Static dielectric constant tensor:
#      x y z
#    x 1.616540 0.000000 0.000000 
#    y 0.000000 1.670110 0.000000 
#    z 0.000000 0.000000 1.663030 
# 
# From -- ./inp_files/26148.got.cif
#   From: 2010.05.17/outbox.cif.g08.bks.cpg/sg40_14_cif.got.tgz:26148.got - 2010.06.03 18:35:42.
