data_PCOD9362795
_publ_section_title
;
Structure prediction by ZEFSAII (Michael W. Deem and Ramdas Pophale) SiO2 
 PCOD9362795
Probable space group: A M A 2
;
_chemical_formula_sum "Si O2"
_cell_formula_units_Z 48
_cell_length_a 9.818558
_cell_length_b 8.885424
_cell_length_c 29.141766
_cell_angle_alpha 90.000000
_cell_angle_beta 90.000000
_cell_angle_gamma 90.000000
_cell_volume 2542.387433
_symmetry_space_group_name_H-M "A M A 2"
_symmetry_group_IT_number 40
_symmetry_cell_setting 'orthorhombic'
loop_
_space_group_symop_operation_xyz
x,y,z
-x,-y,z
1/2-x,y,z
1/2+x,-y,z
x,1/2+y,1/2+z
-x,1/2-y,1/2+z
1/2-x,1/2+y,1/2+z
1/2+x,1/2-y,1/2+z
loop_
_atom_site_type_symbol
_atom_site_label
_atom_site_fract_x
_atom_site_fract_y
_atom_site_fract_z
Si Si1 0.580112 0.159652 0.114400
Si Si2 0.250000 0.820721 0.949857
Si Si3 0.496755 0.817758 0.013808
Si Si4 0.250000 0.174072 0.352316
Si Si5 0.750000 0.184953 0.346057
Si Si6 0.918091 0.657884 0.192316
Si Si7 0.509983 0.181061 0.795752
Si Si8 0.250000 0.685031 0.450181
O O1 0.750000 0.149971 0.117576
O O2 0.536994 0.233518 0.065431
O O3 0.502170 0.246766 0.154946
O O4 0.500000 0.000000 0.114793
O O5 0.250000 0.727802 0.904079
O O6 0.250000 0.002569 0.942409
O O7 0.375957 0.777872 0.980620
O O8 0.500000 0.000000 0.017142
O O9 0.626343 0.773285 0.983924
O O10 0.376512 0.250852 0.328036
O O11 0.250000 0.995221 0.347584
O O12 0.624921 0.247188 0.316439
O O13 0.750000 0.243933 0.399151
O O14 0.750000 0.648678 0.185811
O O15 0.000000 0.500000 0.191091
O O16 0.949022 0.719383 0.243461
O O17 0.500000 0.000000 0.798894
#
# Coordination Sequence:
#
# PCOD9362795 Si02
#       8
#     8   4   8   4   4   8   8   4
#     4  11  23  40  66 100 136 174 219 275 337 394
#     4  10  18  36  61  84 121 169 222 271 317 394
#     4   9  19  34  60  90 122 164 226 273 315 375
#     4  12  24  42  63  96 137 167 212 283 343 396
#     4  12  26  40  63 100 137 173 214 281 349 390
#     4  11  25  45  70  97 128 169 221 278 334 401
#     4  11  24  44  69  92 126 176 231 266 323 405
#     4  10  20  36  59  90 121 173 228 271 323 396
#
# _framework density 18.879891000000001
#
# number of rings (size 3 to 8) (size 9 to 14) (size 15 to 20)
#    0.000    1.333    1.667    4.000    9.333    2.667 
#    0.000    1.667    0.000    0.000    0.000    0.000 
#    0.000    0.000    0.000    0.000    0.000    0.000 
#
# Total GULP energy -133646.965212 kJ/mol
# GULP energy per Si atom -5568.623551 kJ/mol
# Density = 1.883692 g / cm^3
# Si number density = 18.879891 Si / 1000 Ang^3
#
#
#
# Elastic Constant Matrix: (Units=GPa)
#
#
# Indices 1 2 3 4 5 6 
#
# 1 215.4463 41.0134 84.5413 0.0000 0.0000 0.0000
# 2 41.0134 65.8767 64.1555 0.0000 0.0000 0.0000
# 3 84.5413 64.1555 178.6521 0.0000 0.0000 0.0000
# 4 0.0000 0.0000 0.0000 33.2263 0.0000 0.0000
# 5 0.0000 0.0000 0.0000 0.0000 48.7969 0.0000
# 6 0.0000 0.0000 0.0000 0.0000 0.0000 20.2667
#
#
#
# Elastic Compliance Matrix: (Units=1/GPa)
#
#
# Indices 1 2 3 4 5 6 
#
# 1 0.005787 -0.001439 -0.002222 0.000000 0.000000 0.000000
# 2 -0.001439 0.023702 -0.007830 0.000000 0.000000 0.000000
# 3 -0.002222 -0.007830 0.009461 0.000000 0.000000 0.000000
# 4 0.000000 0.000000 0.000000 0.030097 0.000000 0.000000
# 5 0.000000 0.000000 0.000000 0.000000 0.020493 0.000000
# 6 0.000000 0.000000 0.000000 0.000000 0.000000 0.049342
#
#
# Mechanical properties :
#
#
# Convention : Reuss Voigt Hill
#
# Bulk Modulus (GPa) = 62.62953 93.26616 77.94785
# Shear Modulus (GPa) = 29.90663 38.47565 34.19114
#
# Velocity S-wave (km/s) = 3.98433 4.51923 4.26018
# Velocity P-wave (km/s) = 7.37639 8.76003 8.09782
#
# Compressibility (1/GPa) = 0.01596691
#
# Stress axis : x y z
#
# Youngs Moduli (GPa) = 172.79013 42.19092 105.69898
#
# Poissons Ratio (x) = 0.06073 0.23484
# Poissons Ratio (y) = 0.24870 0.82766
# Poissons Ratio (z) = 0.38391 0.33037
#
# Static dielectric constant tensor:
#      x y z
#    x 1.148070 0.000000 0.000000 
#    y 0.000000 1.679930 0.000000 
#    z 0.000000 0.000000 1.669170 
# 
# From -- ./inp_files/26217.got.cif
#   From: 2010.05.17/outbox.cif.g08.bks.cpg/sg40_14_cif.got.tgz:26217.got - 2010.06.03 18:35:42.
