data_PCOD9362623
_publ_section_title
;
Structure prediction by ZEFSAII (Michael W. Deem and Ramdas Pophale) SiO2 
 PCOD9362623
Probable space group: A M A 2
;
_chemical_formula_sum "Si O2"
_cell_formula_units_Z 64
_cell_length_a 16.682919
_cell_length_b 12.252843
_cell_length_c 15.615186
_cell_angle_alpha 90.000000
_cell_angle_beta 90.000000
_cell_angle_gamma 90.000000
_cell_volume 3191.949940
_symmetry_space_group_name_H-M "A M A 2"
_symmetry_group_IT_number 40
_symmetry_cell_setting 'orthorhombic'
loop_
_space_group_symop_operation_xyz
x,y,z
-x,-y,z
1/2-x,y,z
1/2+x,-y,z
x,1/2+y,1/2+z
-x,1/2-y,1/2+z
1/2-x,1/2+y,1/2+z
1/2+x,1/2-y,1/2+z
loop_
_atom_site_type_symbol
_atom_site_label
_atom_site_fract_x
_atom_site_fract_y
_atom_site_fract_z
Si Si1 0.657901 0.346131 0.003780
Si Si2 0.655884 0.093857 0.534006
Si Si3 0.430360 0.705901 0.474119
Si Si4 0.161838 0.331702 0.652780
Si Si5 0.924340 0.675973 0.381792
Si Si6 0.838556 0.006681 0.995694
Si Si7 0.344476 0.769020 0.708241
Si Si8 0.991751 0.370027 0.652589
O O1 0.750000 0.350815 0.972294
O O2 0.631019 0.468072 0.026481
O O3 0.660199 0.271678 0.088734
O O4 0.606975 0.283061 0.932780
O O5 0.750000 0.100359 0.511332
O O6 0.603061 0.172938 0.475832
O O7 0.648587 0.147786 0.628297
O O8 0.480026 0.681410 0.388812
O O9 0.359760 0.619841 0.492772
O O10 0.487528 0.682607 0.556950
O O11 0.250000 0.332399 0.696454
O O12 0.159801 0.437379 0.589140
O O13 0.074874 0.332016 0.697385
O O14 0.899271 0.570902 0.436252
O O15 0.878977 0.673892 0.292594
O O16 0.750000 0.027251 0.961512
O O17 0.250000 0.738034 0.715582
O O18 0.408219 0.670562 0.693409
O O19 0.000000 0.500000 0.645981
#
# Coordination Sequence:
#
# PCOD9362623 Si02
#       8
#     8   8   8   8   8   8   8   8
#     4   9  17  33  56  81 108 145 196 243 283 345
#     4   9  20  37  57  82 115 153 198 248 294 350
#     4  11  19  33  56  86 116 143 192 243 296 354
#     4   9  17  30  54  85 111 144 189 237 290 346
#     4  11  20  36  58  84 115 150 199 246 293 359
#     4  10  18  31  57  84 110 143 186 244 296 345
#     4  10  23  40  58  84 119 161 201 244 306 363
#     4  11  19  36  56  84 117 145 187 245 296 355
#
# _framework density 20.050439999999998
#
# number of rings (size 3 to 8) (size 9 to 14) (size 15 to 20)
#    0.000    2.000    3.750    2.625    0.000    1.500 
#    2.250    2.500    0.000    3.000    0.000    0.000 
#    0.000    0.000    0.000    0.000    0.000    0.000 
#
# Total GULP energy -178314.202336 kJ/mol
# GULP energy per Si atom -5572.318823 kJ/mol
# Density = 2.000480 g / cm^3
# Si number density = 20.050440 Si / 1000 Ang^3
#
#
#
# Elastic Constant Matrix: (Units=GPa)
#
#
# Indices 1 2 3 4 5 6 
#
# 1 57.0873 -1.2219 9.5062 0.0000 0.0000 0.0000
# 2 -1.2219 84.0223 -20.4215 0.0000 0.0000 0.0000
# 3 9.5062 -20.4215 11.2999 0.0000 0.0000 0.0000
# 4 0.0000 0.0000 0.0000 4.7682 0.0000 0.0000
# 5 0.0000 0.0000 0.0000 0.0000 22.5000 0.0000
# 6 0.0000 0.0000 0.0000 0.0000 0.0000 27.8303
#
#
#
# Elastic Compliance Matrix: (Units=1/GPa)
#
#
# Indices 1 2 3 4 5 6 
#
# 1 0.022891 -0.007753 -0.033269 0.000000 0.000000 0.000000
# 2 -0.007753 0.023850 0.049625 0.000000 0.000000 0.000000
# 3 -0.033269 0.049625 0.206169 0.000000 0.000000 0.000000
# 4 0.000000 0.000000 0.000000 0.209723 0.000000 0.000000
# 5 0.000000 0.000000 0.000000 0.000000 0.044444 0.000000
# 6 0.000000 0.000000 0.000000 0.000000 0.000000 0.035932
#
#
# Mechanical properties :
#
#
# Convention : Reuss Voigt Hill
#
# Bulk Modulus (GPa) = 3.70211 14.23722 8.96966
# Shear Modulus (GPa) = 8.11896 21.98949 15.05423
#
# Velocity S-wave (km/s) = 2.01446 3.31525 2.74308
# Velocity P-wave (km/s) = 2.69465 4.66590 3.80997
#
# Compressibility (1/GPa) = 0.27011635
#
# Stress axis : x y z
#
# Youngs Moduli (GPa) = 43.68527 41.92842 4.85039
#
# Poissons Ratio (x) = 0.32507 0.16137
# Poissons Ratio (y) = 0.33869 -0.24070
# Poissons Ratio (z) = 1.45336 -2.08071
#
# Static dielectric constant tensor:
#      x y z
#    x 1.786860 0.000000 0.000000 
#    y 0.000000 1.694270 0.000000 
#    z 0.000000 0.000000 1.721260 
# 
# From -- ./inp_files/17878.got.cif
#   From: 2010.05.17/outbox.cif.g08.bks.cpg/sg40_9_cif.got.tgz:17878.got - 2010.06.03 18:35:42.
