data_PCOD9362358
_publ_section_title
;
Structure prediction by ZEFSAII (Michael W. Deem and Ramdas Pophale) SiO2 
 PCOD9362358
Probable space group: A M A 2
;
_chemical_formula_sum "Si O2"
_cell_formula_units_Z 64
_cell_length_a 15.664811
_cell_length_b 10.110127
_cell_length_c 21.276934
_cell_angle_alpha 90.000000
_cell_angle_beta 90.000000
_cell_angle_gamma 90.000000
_cell_volume 3369.696733
_symmetry_space_group_name_H-M "A M A 2"
_symmetry_group_IT_number 40
_symmetry_cell_setting 'orthorhombic'
loop_
_space_group_symop_operation_xyz
x,y,z
-x,-y,z
1/2-x,y,z
1/2+x,-y,z
x,1/2+y,1/2+z
-x,1/2-y,1/2+z
1/2-x,1/2+y,1/2+z
1/2+x,1/2-y,1/2+z
loop_
_atom_site_type_symbol
_atom_site_label
_atom_site_fract_x
_atom_site_fract_y
_atom_site_fract_z
Si Si1 0.647471 0.714681 0.697880
Si Si2 0.578991 0.105049 0.955758
Si Si3 0.350232 0.288180 0.080053
Si Si4 0.897683 0.512348 0.588352
Si Si5 0.148108 0.484407 0.188474
Si Si6 0.150276 0.295537 0.837169
Si Si7 0.602780 0.009934 0.826405
Si Si8 0.538675 0.644177 0.958513
O O1 0.750000 0.725612 0.702661
O O2 0.626428 0.614396 0.642585
O O3 0.619732 0.664847 0.767017
O O4 0.614298 0.864208 0.685093
O O5 0.625931 0.088823 0.889399
O O6 0.536680 0.248113 0.958904
O O7 0.500000 0.000000 0.953090
O O8 0.628015 0.067698 0.019434
O O9 0.250000 0.313387 0.070315
O O10 0.383708 0.384901 0.135112
O O11 0.361643 0.134415 0.097718
O O12 0.400306 0.316786 0.016127
O O13 0.000000 0.500000 0.587949
O O14 0.250000 0.491595 0.180278
O O15 0.131595 0.435413 0.259291
O O16 0.250000 0.330933 0.846253
O O17 0.091595 0.345711 0.893624
O O18 0.141655 0.136066 0.835086
O O19 0.500000 0.000000 0.822724
O O20 0.500000 0.500000 0.966783
#
# Coordination Sequence:
#
# PCOD9362358 Si02
#       8
#     8   8   8   8   8   8   8   8
#     4   9  20  38  60  85 117 155 199 247 292 351
#     4  10  19  39  57  85 120 141 191 250 282 345
#     4  11  23  40  61  87 120 162 197 238 300 361
#     4  11  21  37  61  86 119 151 197 247 297 351
#     4   9  21  38  57  86 120 154 197 242 291 352
#     4  10  20  39  63  87 117 162 200 236 298 363
#     4  10  17  34  64  86 118 149 199 246 289 345
#     4  12  24  39  61  90 118 154 196 249 299 347
#
# _framework density 18.992806999999999
#
# number of rings (size 3 to 8) (size 9 to 14) (size 15 to 20)
#    0.000    1.750    5.000    1.875    1.750    3.000 
#    2.250    1.875    0.000    2.250    0.000    0.000 
#    0.000    0.000    0.000    0.000    0.000    0.000 
#
# Total GULP energy -178553.575852 kJ/mol
# GULP energy per Si atom -5579.799245 kJ/mol
# Density = 1.894958 g / cm^3
# Si number density = 18.992807 Si / 1000 Ang^3
#
#
#
# Elastic Constant Matrix: (Units=GPa)
#
#
# Indices 1 2 3 4 5 6 
#
# 1 15.3935 5.4117 10.7049 0.0000 0.0000 0.0000
# 2 5.4117 105.1717 70.8500 0.0000 0.0000 0.0000
# 3 10.7049 70.8500 180.8988 0.0000 0.0000 0.0000
# 4 0.0000 0.0000 0.0000 31.1508 0.0000 0.0000
# 5 0.0000 0.0000 0.0000 0.0000 35.9470 0.0000
# 6 0.0000 0.0000 0.0000 0.0000 0.0000 23.0832
#
#
#
# Elastic Compliance Matrix: (Units=1/GPa)
#
#
# Indices 1 2 3 4 5 6 
#
# 1 0.067839 -0.001068 -0.003596 0.000000 0.000000 0.000000
# 2 -0.001068 0.012933 -0.005002 0.000000 0.000000 0.000000
# 3 -0.003596 -0.005002 0.007700 0.000000 0.000000 0.000000
# 4 0.000000 0.000000 0.000000 0.032102 0.000000 0.000000
# 5 0.000000 0.000000 0.000000 0.000000 0.027819 0.000000
# 6 0.000000 0.000000 0.000000 0.000000 0.000000 0.043322
#
#
# Mechanical properties :
#
#
# Convention : Reuss Voigt Hill
#
# Bulk Modulus (GPa) = 14.46360 52.82189 33.64275
# Shear Modulus (GPa) = 21.35907 32.33603 26.84755
#
# Velocity S-wave (km/s) = 3.35712 4.13066 3.76382
# Velocity P-wave (km/s) = 4.76013 7.11490 6.05312
#
# Compressibility (1/GPa) = 0.06913908
#
# Stress axis : x y z
#
# Youngs Moduli (GPa) = 14.74081 77.32227 129.87305
#
# Poissons Ratio (x) = 0.08259 0.46704
# Poissons Ratio (y) = 0.01575 0.64963
# Poissons Ratio (z) = 0.05301 0.38677
#
# Static dielectric constant tensor:
#      x y z
#    x 1.671660 0.000000 0.000000 
#    y 0.000000 1.639390 0.000000 
#    z 0.000000 0.000000 1.696370 
# 
# From -- ./inp_files/23366.got.cif
#   From: 2010.05.17/outbox.cif.g08.bks.cpg/sg40_12_cif.got.tgz:23366.got - 2010.06.03 18:35:42.
