data_PCOD9362822
_publ_section_title
;
Structure prediction by ZEFSAII (Michael W. Deem and Ramdas Pophale) SiO2 
 PCOD9362822
Probable space group: A M A 2
;
_chemical_formula_sum "Si O2"
_cell_formula_units_Z 44
_cell_length_a 21.895852
_cell_length_b 6.531873
_cell_length_c 13.946313
_cell_angle_alpha 90.000000
_cell_angle_beta 90.000000
_cell_angle_gamma 90.000000
_cell_volume 1994.614578
_symmetry_space_group_name_H-M "A M A 2"
_symmetry_group_IT_number 40
_symmetry_cell_setting 'orthorhombic'
loop_
_space_group_symop_operation_xyz
x,y,z
-x,-y,z
1/2-x,y,z
1/2+x,-y,z
x,1/2+y,1/2+z
-x,1/2-y,1/2+z
1/2-x,1/2+y,1/2+z
1/2+x,1/2-y,1/2+z
loop_
_atom_site_type_symbol
_atom_site_label
_atom_site_fract_x
_atom_site_fract_y
_atom_site_fract_z
Si Si1 0.181338 0.518562 0.387700
Si Si2 0.620690 0.639484 0.760355
Si Si3 0.936624 0.014137 0.653321
Si Si4 0.500000 0.500000 0.497389
Si Si5 0.566037 0.763979 0.345189
Si Si6 0.371108 0.632612 0.586006
O O1 0.250000 0.452453 0.367692
O O2 0.164033 0.717015 0.323758
O O3 0.131361 0.343466 0.367650
O O4 0.171969 0.579610 0.498246
O O5 0.583996 0.799304 0.694893
O O6 0.577295 0.503080 0.828534
O O7 0.648423 0.478374 0.684216
O O8 0.951528 0.163115 0.743371
O O9 0.881233 0.125482 0.600175
O O10 0.000000 0.000000 0.596930
O O11 0.520565 0.682958 0.426121
O O12 0.440063 0.557903 0.557746
#
# Coordination Sequence:
#
# PCOD9362822 Si02
#       6
#     8   8   8   4   8   8
#     4  10  23  42  61  86 118 160 218 268 314 378
#     4  10  22  40  61  86 124 163 206 251 322 381
#     4  10  19  36  57  91 128 161 196 242 305 382
#     4  10  18  38  60  94 128 156 206 258 318 382
#     4   9  20  38  61  90 119 162 203 253 312 372
#     4  10  22  37  59  92 124 161 206 260 318 384
#
# _framework density 22.0594
#
# number of rings (size 3 to 8) (size 9 to 14) (size 15 to 20)
#    0.000    2.182    0.909    1.091    0.000    8.000 
#    0.000    9.091    0.000    0.000    0.000    0.000 
#    0.000    0.000    0.000    0.000    0.000    0.000 
#
# Total GULP energy -122935.275766 kJ/mol
# GULP energy per Si atom -5587.967080 kJ/mol
# Density = 2.200919 g / cm^3
# Si number density = 22.059400 Si / 1000 Ang^3
#
#
#
# Elastic Constant Matrix: (Units=GPa)
#
#
# Indices 1 2 3 4 5 6 
#
# 1 60.6391 12.8023 9.7135 0.0000 0.0000 0.0000
# 2 12.8023 106.1496 20.7700 0.0000 0.0000 0.0000
# 3 9.7135 20.7700 78.9321 0.0000 0.0000 0.0000
# 4 0.0000 0.0000 0.0000 41.7914 0.0000 0.0000
# 5 0.0000 0.0000 0.0000 0.0000 10.4288 0.0000
# 6 0.0000 0.0000 0.0000 0.0000 0.0000 14.1833
#
#
#
# Elastic Compliance Matrix: (Units=1/GPa)
#
#
# Indices 1 2 3 4 5 6 
#
# 1 0.017123 -0.001743 -0.001649 0.000000 0.000000 0.000000
# 2 -0.001743 0.010109 -0.002446 0.000000 0.000000 0.000000
# 3 -0.001649 -0.002446 0.013516 0.000000 0.000000 0.000000
# 4 0.000000 0.000000 0.000000 0.023928 0.000000 0.000000
# 5 0.000000 0.000000 0.000000 0.000000 0.095888 0.000000
# 6 0.000000 0.000000 0.000000 0.000000 0.000000 0.070505
#
#
# Mechanical properties :
#
#
# Convention : Reuss Voigt Hill
#
# Bulk Modulus (GPa) = 34.39488 36.92138 35.65813
# Shear Modulus (GPa) = 19.80707 26.77637 23.29172
#
# Velocity S-wave (km/s) = 2.99974 3.48779 3.25293
# Velocity P-wave (km/s) = 5.25583 5.74396 5.50531
#
# Compressibility (1/GPa) = 0.02907409
#
# Stress axis : x y z
#
# Youngs Moduli (GPa) = 58.40096 98.91813 73.98877
#
# Poissons Ratio (x) = 0.17237 0.12198
# Poissons Ratio (y) = 0.10177 0.18095
# Poissons Ratio (z) = 0.09628 0.24192
#
# Static dielectric constant tensor:
#      x y z
#    x 1.784810 0.000000 0.000000 
#    y 0.000000 1.856390 0.000000 
#    z 0.000000 0.000000 1.819390 
# 
# From -- ./inp_files/18616.got.cif
#   From: 2010.05.17/outbox.cif.g08.bks.cpg/sg40_10_cif.got.tgz:18616.got - 2010.06.03 18:35:42.
