data_PCOD9362058
_publ_section_title
;
Structure prediction by ZEFSAII (Michael W. Deem and Ramdas Pophale) SiO2 
 PCOD9362058
Probable space group: A B M 2
;
_chemical_formula_sum "Si O2"
_cell_formula_units_Z 48
_cell_length_a 14.437029
_cell_length_b 18.406158
_cell_length_c 8.280733
_cell_angle_alpha 90.000000
_cell_angle_beta 90.000000
_cell_angle_gamma 90.000000
_cell_volume 2200.441141
_symmetry_space_group_name_H-M "A B M 2"
_symmetry_group_IT_number 39
_symmetry_cell_setting 'orthorhombic'
loop_
_space_group_symop_operation_xyz
x,y,z
-x,-y,z
-x,1/2+y,z
x,1/2-y,z
x,1/2+y,1/2+z
-x,1/2-y,1/2+z
-x,y,1/2+z
x,-y,1/2+z
loop_
_atom_site_type_symbol
_atom_site_label
_atom_site_fract_x
_atom_site_fract_y
_atom_site_fract_z
Si Si1 0.110561 0.165547 0.629770
Si Si2 0.453190 0.834753 0.414336
Si Si3 0.039047 0.077991 0.326778
Si Si4 0.362528 0.666324 0.769275
Si Si5 0.220447 0.442287 0.135406
Si Si6 0.278778 0.593771 0.272337
O O1 0.089441 0.250000 0.606719
O O2 0.090772 0.119191 0.470152
O O3 0.215645 0.154595 0.688754
O O4 0.042404 0.129270 0.761340
O O5 0.449863 0.750000 0.362304
O O6 0.415826 0.837434 0.596575
O O7 0.559910 0.857512 0.397225
O O8 0.383191 0.881058 0.305184
O O9 0.113968 0.061483 0.187056
O O10 0.000000 0.000000 0.378586
O O11 0.335040 0.750000 0.798286
O O12 0.275830 0.614529 0.747670
O O13 0.263987 0.520861 0.170492
O O14 0.236111 0.421728 0.949960
#
# Coordination Sequence:
#
# PCOD9362058 Si02
#       6
#     8   8   8   8   8   8
#     4  12  26  43  67  98 129 169 220 272 326 393
#     4   9  19  38  62  89 126 169 211 267 328 383
#     4  12  25  44  68  94 130 174 214 270 333 397
#     4   9  20  38  62  91 125 167 216 266 324 388
#     4  11  24  41  65  93 126 173 218 268 330 394
#     4  11  23  41  63  94 130 169 219 268 328 389
#
# _framework density 21.81381
#
# number of rings (size 3 to 8) (size 9 to 14) (size 15 to 20)
#    0.000    1.333    1.667    3.500    0.000    5.333 
#    0.000    5.000    0.000    0.000    0.000    0.000 
#    0.000    0.000    0.000    0.000    0.000    0.000 
#
# Total GULP energy -134350.151973 kJ/mol
# GULP energy per Si atom -5597.922999 kJ/mol
# Density = 2.176416 g / cm^3
# Si number density = 21.813810 Si / 1000 Ang^3
#
#
#
# Elastic Constant Matrix: (Units=GPa)
#
#
# Indices 1 2 3 4 5 6 
#
# 1 56.7921 23.6024 2.4160 0.0000 0.0000 0.0000
# 2 23.6024 114.9892 21.0872 0.0000 0.0000 0.0000
# 3 2.4160 21.0872 61.0941 0.0000 0.0000 0.0000
# 4 0.0000 0.0000 0.0000 14.7632 0.0000 0.0000
# 5 0.0000 0.0000 0.0000 0.0000 34.5882 0.0000
# 6 0.0000 0.0000 0.0000 0.0000 0.0000 32.3275
#
#
#
# Elastic Compliance Matrix: (Units=1/GPa)
#
#
# Indices 1 2 3 4 5 6 
#
# 1 0.019274 -0.004074 0.000644 0.000000 0.000000 0.000000
# 2 -0.004074 0.010145 -0.003341 0.000000 0.000000 0.000000
# 3 0.000644 -0.003341 0.017496 0.000000 0.000000 0.000000
# 4 0.000000 0.000000 0.000000 0.067736 0.000000 0.000000
# 5 0.000000 0.000000 0.000000 0.000000 0.028912 0.000000
# 6 0.000000 0.000000 0.000000 0.000000 0.000000 0.030933
#
#
# Mechanical properties :
#
#
# Convention : Reuss Voigt Hill
#
# Bulk Modulus (GPa) = 29.96398 36.34296 33.15347
# Shear Modulus (GPa) = 25.10519 28.72044 26.91281
#
# Velocity S-wave (km/s) = 3.39615 3.63246 3.51629
# Velocity P-wave (km/s) = 5.39857 5.85574 5.63179
#
# Compressibility (1/GPa) = 0.03337340
#
# Stress axis : x y z
#
# Youngs Moduli (GPa) = 51.88367 98.56727 57.15659
#
# Poissons Ratio (x) = 0.40158 -0.03681
# Poissons Ratio (y) = 0.21139 0.19094
# Poissons Ratio (z) = -0.03342 0.32928
#
# Static dielectric constant tensor:
#      x y z
#    x 1.779670 0.000000 0.000000 
#    y 0.000000 1.750570 0.000000 
#    z 0.000000 0.000000 1.811760 
# 
# From -- ./inp_files/3219.got.cif
#   From: 2010.05.17/outbox.cif.g08.bks.cpg/sg39_2_cif.got.tgz:3219.got - 2010.06.03 18:22:40.
