data_PCOD9362141
_publ_section_title
;
Structure prediction by ZEFSAII (Michael W. Deem and Ramdas Pophale) SiO2 
 PCOD9362141
Probable space group: A B M 2
;
_chemical_formula_sum "Si O2"
_cell_formula_units_Z 32
_cell_length_a 8.538697
_cell_length_b 15.231388
_cell_length_c 10.823331
_cell_angle_alpha 90.000000
_cell_angle_beta 90.000000
_cell_angle_gamma 90.000000
_cell_volume 1407.641377
_symmetry_space_group_name_H-M "A B M 2"
_symmetry_group_IT_number 39
_symmetry_cell_setting 'orthorhombic'
loop_
_space_group_symop_operation_xyz
x,y,z
-x,-y,z
-x,1/2+y,z
x,1/2-y,z
x,1/2+y,1/2+z
-x,1/2-y,1/2+z
-x,y,1/2+z
x,-y,1/2+z
loop_
_atom_site_type_symbol
_atom_site_label
_atom_site_fract_x
_atom_site_fract_y
_atom_site_fract_z
Si Si1 0.820593 0.025172 0.945270
Si Si2 0.324424 0.850299 0.144135
Si Si3 0.324602 0.345888 0.925390
Si Si4 0.632499 0.148822 0.782722
O O1 0.753540 0.073871 0.821791
O O2 0.734768 0.934944 0.981316
O O3 0.777993 0.090916 0.055642
O O4 0.000000 0.000000 0.931574
O O5 0.319337 0.750000 0.102097
O O6 0.257975 0.850450 0.284364
O O7 0.509252 0.872211 0.171960
O O8 0.283947 0.250000 0.977753
O O9 0.509930 0.349586 0.898059
O O10 0.689501 0.250000 0.768633
#
# Coordination Sequence:
#
# PCOD9362141 Si02
#       4
#     8   8   8   8
#     4  12  22  34  66 106 133 161 212 284 343 385
#     4   8  19  41  65  85 125 180 223 261 315 395
#     4   8  19  41  61  85 128 177 219 262 319 394
#     4   8  18  41  64  87 124 176 221 265 321 390
#
# _framework density 22.733060999999999
#
# number of rings (size 3 to 8) (size 9 to 14) (size 15 to 20)
#    1.500    1.500    0.000    1.500    0.000    3.000 
#    9.000    0.000    0.000    1.500    0.000    1.750 
#    0.000    0.000    0.000    0.000    0.000    0.000 
#
# Total GULP energy -89163.672497 kJ/mol
# GULP energy per Si atom -5572.729531 kJ/mol
# Density = 2.268132 g / cm^3
# Si number density = 22.733061 Si / 1000 Ang^3
#
#
#
# Elastic Constant Matrix: (Units=GPa)
#
#
# Indices 1 2 3 4 5 6 
#
# 1 92.9277 82.5143 27.7849 0.0000 0.0000 0.0000
# 2 82.5143 152.8828 33.3250 0.0000 0.0000 0.0000
# 3 27.7849 33.3250 70.7349 0.0000 0.0000 0.0000
# 4 0.0000 0.0000 0.0000 29.9172 0.0000 0.0000
# 5 0.0000 0.0000 0.0000 0.0000 25.8507 0.0000
# 6 0.0000 0.0000 0.0000 0.0000 0.0000 -42.1813
#
#
#
# Elastic Compliance Matrix: (Units=1/GPa)
#
#
# Indices 1 2 3 4 5 6 
#
# 1 0.021331 -0.010795 -0.003293 0.000000 0.000000 0.000000
# 2 -0.010795 0.012753 -0.001768 0.000000 0.000000 0.000000
# 3 -0.003293 -0.001768 0.016264 0.000000 0.000000 0.000000
# 4 0.000000 0.000000 0.000000 0.033426 0.000000 0.000000
# 5 0.000000 0.000000 0.000000 0.000000 0.038684 0.000000
# 6 0.000000 0.000000 0.000000 0.000000 0.000000 -0.023707
#
#
# Mechanical properties :
#
#
# Convention : Reuss Voigt Hill
#
# Bulk Modulus (GPa) = 53.66087 67.08822 60.37454
# Shear Modulus (GPa) = 36.58370 14.24539 25.41454
#
# Velocity S-wave (km/s) = 4.01593 2.50599 3.34721
# Velocity P-wave (km/s) = 6.72009 6.16025 6.44625
#
# Compressibility (1/GPa) = 0.01863555
#
# Stress axis : x y z
#
# Youngs Moduli (GPa) = 46.88016 78.41538 61.48677
#
# Poissons Ratio (x) = 0.84649 0.20248
# Poissons Ratio (y) = 0.50607 0.10869
# Poissons Ratio (z) = 0.15438 0.13862
#
# Static dielectric constant tensor:
#      x y z
#    x 1.831290 0.000000 0.000000 
#    y 0.000000 1.820100 0.000000 
#    z 0.000000 0.000000 1.996340 
# 
# From -- ./inp_files/4846.got.cif
#   From: 2010.05.17/outbox.cif.g08.bks.cpg/sg39_3_cif.got.tgz:4846.got - 2010.06.03 18:22:40.
