data_PCOD9362831
_publ_section_title
;
Structure prediction by ZEFSAII (Michael W. Deem and Ramdas Pophale) SiO2 
 PCOD9362831
Probable space group: A M A 2
;
_chemical_formula_sum "Si O2"
_cell_formula_units_Z 52
_cell_length_a 19.645424
_cell_length_b 12.993324
_cell_length_c 10.389358
_cell_angle_alpha 90.000000
_cell_angle_beta 90.000000
_cell_angle_gamma 90.000000
_cell_volume 2651.980865
_symmetry_space_group_name_H-M "A M A 2"
_symmetry_group_IT_number 40
_symmetry_cell_setting 'orthorhombic'
loop_
_space_group_symop_operation_xyz
x,y,z
-x,-y,z
1/2-x,y,z
1/2+x,-y,z
x,1/2+y,1/2+z
-x,1/2-y,1/2+z
1/2-x,1/2+y,1/2+z
1/2+x,1/2-y,1/2+z
loop_
_atom_site_type_symbol
_atom_site_label
_atom_site_fract_x
_atom_site_fract_y
_atom_site_fract_z
Si Si1 0.250000 0.139365 0.011480
Si Si2 0.100516 0.123575 0.012727
Si Si3 0.040854 0.825311 0.878192
Si Si4 0.606318 0.648482 0.113451
Si Si5 0.750000 0.612016 0.018745
Si Si6 0.750000 0.527536 0.729717
Si Si7 0.392849 0.908632 0.125912
Si Si8 0.980142 0.616362 0.859409
O O1 0.176488 0.104154 0.955093
O O2 0.250000 0.263401 0.994010
O O3 0.250000 0.085767 0.156809
O O4 0.110332 0.227352 0.095475
O O5 0.084461 0.026795 0.102411
O O6 0.035923 0.139985 0.919132
O O7 0.066889 0.872017 0.745001
O O8 0.037775 0.701754 0.871304
O O9 0.092006 0.856376 0.990855
O O10 0.680578 0.597957 0.098919
O O11 0.563908 0.616882 0.988670
O O12 0.750000 0.545943 0.885171
O O13 0.683608 0.583644 0.674906
O O14 0.435778 0.852874 0.235777
O O15 0.000000 0.500000 0.840115
#
# Coordination Sequence:
#
# PCOD9362831 Si02
#       8
#     4   8   8   8   4   4   8   8
#     4   8  18  34  60  96 114 160 200 258 310 372
#     4   9  19  37  60  87 117 152 205 244 294 367
#     4  11  22  35  55  88 123 153 197 251 307 362
#     4  10  21  36  59  87 117 159 194 251 317 357
#     4  10  18  39  61  88 121 159 208 266 305 377
#     4  10  20  37  65  90 117 159 218 254 305 379
#     4  11  21  38  62  88 113 157 204 249 294 366
#     4  11  21  36  57  83 119 155 200 243 297 361
#
# _framework density 19.607983999999998
#
# number of rings (size 3 to 8) (size 9 to 14) (size 15 to 20)
#    0.000    1.846    1.538    4.154    0.000    1.846 
#    0.000    0.000    0.000    1.846    0.000    0.000 
#    0.000    0.000    0.000    0.000    0.000    0.000 
#
# Total GULP energy -144885.670126 kJ/mol
# GULP energy per Si atom -5572.525774 kJ/mol
# Density = 1.956336 g / cm^3
# Si number density = 19.607984 Si / 1000 Ang^3
#
#
#
# Elastic Constant Matrix: (Units=GPa)
#
#
# Indices 1 2 3 4 5 6 
#
# 1 89.9694 9.6015 44.7543 0.0000 0.0000 0.0000
# 2 9.6015 51.6861 11.3044 0.0000 0.0000 0.0000
# 3 44.7543 11.3044 115.8118 0.0000 0.0000 0.0000
# 4 0.0000 0.0000 0.0000 19.0484 0.0000 0.0000
# 5 0.0000 0.0000 0.0000 0.0000 23.5164 0.0000
# 6 0.0000 0.0000 0.0000 0.0000 0.0000 11.0470
#
#
#
# Elastic Compliance Matrix: (Units=1/GPa)
#
#
# Indices 1 2 3 4 5 6 
#
# 1 0.013863 -0.001434 -0.005217 0.000000 0.000000 0.000000
# 2 -0.001434 0.019918 -0.001390 0.000000 0.000000 0.000000
# 3 -0.005217 -0.001390 0.010787 0.000000 0.000000 0.000000
# 4 0.000000 0.000000 0.000000 0.052498 0.000000 0.000000
# 5 0.000000 0.000000 0.000000 0.000000 0.042524 0.000000
# 6 0.000000 0.000000 0.000000 0.000000 0.000000 0.090522
#
#
# Mechanical properties :
#
#
# Convention : Reuss Voigt Hill
#
# Bulk Modulus (GPa) = 35.10643 43.19861 39.15252
# Shear Modulus (GPa) = 19.55500 23.50951 21.53226
#
# Velocity S-wave (km/s) = 3.16143 3.46638 3.31741
# Velocity P-wave (km/s) = 5.59189 6.17252 5.88936
#
# Compressibility (1/GPa) = 0.02848481
#
# Stress axis : x y z
#
# Youngs Moduli (GPa) = 72.13321 50.20590 92.70805
#
# Poissons Ratio (x) = 0.07201 0.48369
# Poissons Ratio (y) = 0.10345 0.12886
# Poissons Ratio (z) = 0.37634 0.06978
#
# Static dielectric constant tensor:
#      x y z
#    x 1.739640 0.000000 0.000000 
#    y 0.000000 1.733700 0.000000 
#    z 0.000000 0.000000 1.684490 
# 
# From -- ./inp_files/8271.got.cif
#   From: 2010.05.17/outbox.cif.g08.bks.cpg/sg40_5_cif.got.tgz:8271.got - 2010.06.03 18:35:42.
