data_PCOD9362549
_publ_section_title
;
Structure prediction by ZEFSAII (Michael W. Deem and Ramdas Pophale) SiO2 
 PCOD9362549
Probable space group: A M A 2
;
_chemical_formula_sum "Si O2"
_cell_formula_units_Z 56
_cell_length_a 8.388905
_cell_length_b 15.120294
_cell_length_c 22.529936
_cell_angle_alpha 90.000000
_cell_angle_beta 90.000000
_cell_angle_gamma 90.000000
_cell_volume 2857.758137
_symmetry_space_group_name_H-M "A M A 2"
_symmetry_group_IT_number 40
_symmetry_cell_setting 'orthorhombic'
loop_
_space_group_symop_operation_xyz
x,y,z
-x,-y,z
1/2-x,y,z
1/2+x,-y,z
x,1/2+y,1/2+z
-x,1/2-y,1/2+z
1/2-x,1/2+y,1/2+z
1/2+x,1/2-y,1/2+z
loop_
_atom_site_type_symbol
_atom_site_label
_atom_site_fract_x
_atom_site_fract_y
_atom_site_fract_z
Si Si1 0.941416 0.095957 0.104430
Si Si2 0.942008 0.404710 0.027990
Si Si3 0.559879 0.904223 0.239134
Si Si4 0.443094 0.399412 0.382749
Si Si5 0.942267 0.215017 0.770535
Si Si6 0.559113 0.403678 0.165641
Si Si7 0.555490 0.715181 0.495405
O O1 0.750000 0.095667 0.108060
O O2 0.008315 0.107568 0.170478
O O3 0.991909 0.170277 0.057627
O O4 0.000000 0.000000 0.082697
O O5 0.750000 0.406000 0.027683
O O6 0.993311 0.394328 0.097071
O O7 0.000000 0.500000 0.006312
O O8 0.996372 0.317194 0.993523
O O9 0.750000 0.906426 0.241143
O O10 0.502540 0.816808 0.273413
O O11 0.500000 0.000000 0.259651
O O12 0.500000 0.500000 0.383147
O O13 0.250000 0.399890 0.382664
O O14 0.498590 0.346536 0.324376
O O15 0.497085 0.345358 0.440825
O O16 0.750000 0.215812 0.772458
O O17 0.994084 0.171323 0.708730
O O18 0.500000 0.500000 0.186619
O O19 0.750000 0.401393 0.166838
O O20 0.750000 0.715316 0.494658
#
# Coordination Sequence:
#
# PCOD9362549 Si02
#       7
#     8   8   8   8   8   8   8
#     4  10  18  30  50  77 104 132 165 203 249 301
#     4   9  18  33  51  74 101 131 165 203 247 296
#     4  10  20  34  51  74 103 134 167 207 252 300
#     4  10  21  38  56  75 100 131 165 204 246 293
#     4  10  21  35  52  74 101 134 172 209 250 296
#     4  10  19  31  51  77 106 136 167 205 252 302
#     4   9  18  33  53  73  99 134 168 201 246 298
#
# _framework density 19.595780999999999
#
# number of rings (size 3 to 8) (size 9 to 14) (size 15 to 20)
#    0.000    2.286    0.000    3.857    0.000    4.571 
#    0.000    3.571    0.000    0.000    0.000    0.000 
#    0.000    0.000    0.000    0.000    0.000    0.000 
#
# Total GULP energy -156292.094476 kJ/mol
# GULP energy per Si atom -5581.860517 kJ/mol
# Density = 1.955118 g / cm^3
# Si number density = 19.595781 Si / 1000 Ang^3
#
#
#
# Elastic Constant Matrix: (Units=GPa)
#
#
# Indices 1 2 3 4 5 6 
#
# 1 13.7696 22.2824 9.8720 0.0000 0.0000 0.0000
# 2 22.2824 211.3556 63.8274 0.0000 0.0000 0.0000
# 3 9.8720 63.8274 44.9557 0.0000 0.0000 0.0000
# 4 0.0000 0.0000 0.0000 32.1014 0.0000 0.0000
# 5 0.0000 0.0000 0.0000 0.0000 8.9044 0.0000
# 6 0.0000 0.0000 0.0000 0.0000 0.0000 28.6709
#
#
#
# Elastic Compliance Matrix: (Units=1/GPa)
#
#
# Indices 1 2 3 4 5 6 
#
# 1 0.090614 -0.006204 -0.011090 0.000000 0.000000 0.000000
# 2 -0.006204 0.008707 -0.011000 0.000000 0.000000 0.000000
# 3 -0.011090 -0.011000 0.040297 0.000000 0.000000 0.000000
# 4 0.000000 0.000000 0.000000 0.031151 0.000000 0.000000
# 5 0.000000 0.000000 0.000000 0.000000 0.112304 0.000000
# 6 0.000000 0.000000 0.000000 0.000000 0.000000 0.034879
#
#
# Mechanical properties :
#
#
# Convention : Reuss Voigt Hill
#
# Bulk Modulus (GPa) = 12.04380 51.33828 31.69104
# Shear Modulus (GPa) = 12.43107 25.54194 18.98651
#
# Velocity S-wave (km/s) = 2.52141 3.61424 3.11611
# Velocity P-wave (km/s) = 3.82572 6.60851 5.39947
#
# Compressibility (1/GPa) = 0.08303025
#
# Stress axis : x y z
#
# Youngs Moduli (GPa) = 11.03583 114.84478 24.81544
#
# Poissons Ratio (x) = 0.71249 0.27520
# Poissons Ratio (y) = 0.06847 0.27298
# Poissons Ratio (z) = 0.12239 1.26333
#
# Static dielectric constant tensor:
#      x y z
#    x 1.679890 0.000000 0.000000 
#    y 0.000000 1.703220 0.000000 
#    z 0.000000 0.000000 1.671740 
# 
# From -- ./inp_files/22193.got.cif
#   From: 2010.05.17/outbox.cif.g08.bks.cpg/sg40_12_cif.got.tgz:22193.got - 2010.06.03 18:35:42.
