data_PCOD9362437
_publ_section_title
;
Structure prediction by ZEFSAII (Michael W. Deem and Ramdas Pophale) SiO2 
 PCOD9362437
Probable space group: A M A 2
;
_chemical_formula_sum "Si O2"
_cell_formula_units_Z 56
_cell_length_a 8.572570
_cell_length_b 14.042722
_cell_length_c 30.478549
_cell_angle_alpha 90.000000
_cell_angle_beta 90.000000
_cell_angle_gamma 90.000000
_cell_volume 3669.075310
_symmetry_space_group_name_H-M "A M A 2"
_symmetry_group_IT_number 40
_symmetry_cell_setting 'orthorhombic'
loop_
_space_group_symop_operation_xyz
x,y,z
-x,-y,z
1/2-x,y,z
1/2+x,-y,z
x,1/2+y,1/2+z
-x,1/2-y,1/2+z
1/2-x,1/2+y,1/2+z
1/2+x,1/2-y,1/2+z
loop_
_atom_site_type_symbol
_atom_site_label
_atom_site_fract_x
_atom_site_fract_y
_atom_site_fract_z
Si Si1 0.937298 0.395855 0.366260
Si Si2 0.562061 0.607844 0.097115
Si Si3 0.560896 0.704279 0.911897
Si Si4 0.064105 0.604514 0.825411
Si Si5 0.938789 0.608017 0.001525
Si Si6 0.062765 0.712252 0.278384
Si Si7 0.937681 0.608366 0.193452
O O1 0.750000 0.399535 0.366659
O O2 0.986332 0.311952 0.399500
O O3 0.985811 0.359542 0.317787
O O4 0.000000 0.500000 0.375950
O O5 0.500000 0.500000 0.096810
O O6 0.750000 0.606680 0.097180
O O7 0.514259 0.646316 0.144886
O O8 0.512584 0.647704 0.049581
O O9 0.750000 0.699957 0.909778
O O10 0.496168 0.636996 0.873449
O O11 0.509869 0.669007 0.959665
O O12 0.250000 0.603668 0.825363
O O13 0.000000 0.500000 0.815282
O O14 0.002688 0.684895 0.791982
O O15 0.750000 0.604692 0.000769
O O16 0.000000 0.500000 0.997314
O O17 0.250000 0.716569 0.278315
O O18 0.002347 0.672196 0.232577
O O19 0.750000 0.605591 0.195725
O O20 0.000000 0.500000 0.197893
#
# Coordination Sequence:
#
# PCOD9362437 Si02
#       7
#     8   8   8   8   8   8   8
#     4   9  18  30  43  60  84 112 142 178 215 254
#     4   8  15  26  40  60  86 115 146 179 217 263
#     4   9  18  31  45  64  89 117 150 184 220 261
#     4  11  21  33  48  66  90 118 147 180 219 262
#     4   9  16  27  43  62  87 117 147 180 218 260
#     4  10  20  33  47  65  88 115 149 184 220 263
#     4  10  18  28  43  65  92 120 150 183 222 267
#
# _framework density 15.262702000000001
#
# number of rings (size 3 to 8) (size 9 to 14) (size 15 to 20)
#    0.000    2.571    0.000    3.857    0.000    6.286 
#    0.000    0.000    0.000    0.000    0.000    1.000 
#    0.000    2.286    0.000    0.000    0.000    0.000 
#
# Total GULP energy -155979.697544 kJ/mol
# GULP energy per Si atom -5570.703484 kJ/mol
# Density = 1.522796 g / cm^3
# Si number density = 15.262702 Si / 1000 Ang^3
#
#
#
# Elastic Constant Matrix: (Units=GPa)
#
#
# Indices 1 2 3 4 5 6 
#
# 1 32.9014 23.7769 31.3052 0.0000 0.0000 0.0000
# 2 23.7769 95.0192 70.0936 0.0000 0.0000 0.0000
# 3 31.3052 70.0936 167.1441 0.0000 0.0000 0.0000
# 4 0.0000 0.0000 0.0000 22.6938 0.0000 0.0000
# 5 0.0000 0.0000 0.0000 0.0000 19.2449 0.0000
# 6 0.0000 0.0000 0.0000 0.0000 0.0000 23.4279
#
#
#
# Elastic Compliance Matrix: (Units=1/GPa)
#
#
# Indices 1 2 3 4 5 6 
#
# 1 0.039510 -0.006411 -0.004711 0.000000 0.000000 0.000000
# 2 -0.006411 0.016278 -0.005626 0.000000 0.000000 0.000000
# 3 -0.004711 -0.005626 0.009225 0.000000 0.000000 0.000000
# 4 0.000000 0.000000 0.000000 0.044065 0.000000 0.000000
# 5 0.000000 0.000000 0.000000 0.000000 0.051962 0.000000
# 6 0.000000 0.000000 0.000000 0.000000 0.000000 0.042684
#
#
# Mechanical properties :
#
#
# Convention : Reuss Voigt Hill
#
# Bulk Modulus (GPa) = 31.72974 60.60178 46.16576
# Shear Modulus (GPa) = 20.18360 24.39924 22.29142
#
# Velocity S-wave (km/s) = 3.64045 4.00261 3.82582
# Velocity P-wave (km/s) = 6.20521 7.82005 7.05896
#
# Compressibility (1/GPa) = 0.03151617
#
# Stress axis : x y z
#
# Youngs Moduli (GPa) = 25.31014 61.43080 108.40693
#
# Poissons Ratio (x) = 0.39384 0.51075
# Poissons Ratio (y) = 0.16227 0.60987
# Poissons Ratio (z) = 0.11925 0.34560
#
# Static dielectric constant tensor:
#      x y z
#    x 1.516310 0.000000 0.000000 
#    y 0.000000 1.474770 0.000000 
#    z 0.000000 0.000000 1.541310 
# 
# From -- ./inp_files/26412.got.cif
#   From: 2010.05.17/outbox.cif.g08.bks.cpg/sg40_14_cif.got.tgz:26412.got - 2010.06.03 18:35:42.
