data_PCOD9362302
_publ_section_title
;
Structure prediction by ZEFSAII (Michael W. Deem and Ramdas Pophale) SiO2 
 PCOD9362302
Probable space group: A M A 2
;
_chemical_formula_sum "Si O2"
_cell_formula_units_Z 48
_cell_length_a 8.570122
_cell_length_b 32.586828
_cell_length_c 9.247713
_cell_angle_alpha 90.000000
_cell_angle_beta 90.000000
_cell_angle_gamma 90.000000
_cell_volume 2582.637399
_symmetry_space_group_name_H-M "A M A 2"
_symmetry_group_IT_number 40
_symmetry_cell_setting 'orthorhombic'
loop_
_space_group_symop_operation_xyz
x,y,z
-x,-y,z
1/2-x,y,z
1/2+x,-y,z
x,1/2+y,1/2+z
-x,1/2-y,1/2+z
1/2-x,1/2+y,1/2+z
1/2+x,1/2-y,1/2+z
loop_
_atom_site_type_symbol
_atom_site_label
_atom_site_fract_x
_atom_site_fract_y
_atom_site_fract_z
Si Si1 0.939073 0.711513 0.820670
Si Si2 0.435686 0.041974 0.817302
Si Si3 0.063182 0.872074 0.806425
Si Si4 0.939648 0.131937 0.142907
Si Si5 0.563178 0.292930 0.144033
Si Si6 0.063472 0.957758 0.146756
O O1 0.750000 0.710360 0.829201
O O2 0.992448 0.670885 0.734390
O O3 0.983597 0.752503 0.734133
O O4 0.008248 0.711925 0.980060
O O5 0.250000 0.040017 0.826285
O O6 0.490237 0.085137 0.751776
O O7 0.500000 0.000000 0.747918
O O8 0.507421 0.042746 0.979634
O O9 0.250000 0.876096 0.805124
O O10 0.010984 0.833352 0.713911
O O11 0.012889 0.865300 0.974261
O O12 0.750000 0.132545 0.143206
O O13 0.986968 0.087077 0.203483
O O14 0.750000 0.296280 0.149806
O O15 0.250000 0.959653 0.148410
O O16 0.000000 0.000000 0.213370
#
# Coordination Sequence:
#
# PCOD9362302 Si02
#       6
#     8   8   8   8   8   8
#     4  10  21  38  57  76 103 138 173 213 265 320
#     4  10  17  27  45  73 107 140 177 219 261 307
#     4  10  19  34  55  78 107 143 178 217 267 315
#     4   8  16  31  52  76 102 136 177 215 256 314
#     4  11  23  37  55  81 107 133 173 221 265 317
#     4   9  15  25  43  70 103 138 176 217 262 309
#
# _framework density 18.585652
#
# number of rings (size 3 to 8) (size 9 to 14) (size 15 to 20)
#    0.000    2.333    0.000    6.000    0.000    2.667 
#    0.000    5.000    0.000    1.000    0.000    4.667 
#    0.000    0.000    0.000    0.000    0.000    0.000 
#
# Total GULP energy -133844.558223 kJ/mol
# GULP energy per Si atom -5576.856593 kJ/mol
# Density = 1.854335 g / cm^3
# Si number density = 18.585652 Si / 1000 Ang^3
#
#
#
# Elastic Constant Matrix: (Units=GPa)
#
#
# Indices 1 2 3 4 5 6 
#
# 1 55.1739 48.2269 18.0275 0.0000 0.0000 0.0000
# 2 48.2269 208.0249 63.6220 0.0000 0.0000 0.0000
# 3 18.0275 63.6220 70.4303 0.0000 0.0000 0.0000
# 4 0.0000 0.0000 0.0000 24.3122 0.0000 0.0000
# 5 0.0000 0.0000 0.0000 0.0000 19.2040 0.0000
# 6 0.0000 0.0000 0.0000 0.0000 0.0000 28.8196
#
#
#
# Elastic Compliance Matrix: (Units=1/GPa)
#
#
# Indices 1 2 3 4 5 6 
#
# 1 0.022840 -0.004846 -0.001469 0.000000 0.000000 0.000000
# 2 -0.004846 0.007670 -0.005688 0.000000 0.000000 0.000000
# 3 -0.001469 -0.005688 0.019713 0.000000 0.000000 0.000000
# 4 0.000000 0.000000 0.000000 0.041132 0.000000 0.000000
# 5 0.000000 0.000000 0.000000 0.000000 0.052072 0.000000
# 6 0.000000 0.000000 0.000000 0.000000 0.000000 0.034699
#
#
# Mechanical properties :
#
#
# Convention : Reuss Voigt Hill
#
# Bulk Modulus (GPa) = 38.14296 65.93133 52.03715
# Shear Modulus (GPa) = 23.71113 28.05068 25.88090
#
# Velocity S-wave (km/s) = 3.57568 3.88914 3.73570
# Velocity P-wave (km/s) = 6.13308 7.46449 6.83129
#
# Compressibility (1/GPa) = 0.02621716
#
# Stress axis : x y z
#
# Youngs Moduli (GPa) = 43.78253 130.37301 50.72802
#
# Poissons Ratio (x) = 0.63177 0.07451
# Poissons Ratio (y) = 0.21216 0.28856
# Poissons Ratio (z) = 0.06431 0.74162
#
# Static dielectric constant tensor:
#      x y z
#    x 1.628510 0.000000 0.000000 
#    y 0.000000 1.693970 0.000000 
#    z 0.000000 0.000000 1.616100 
# 
# From -- ./inp_files/4628.got.cif
#   From: 2010.05.17/outbox.cif.g08.bks.cpg/sg40_3_cif.got.tgz:4628.got - 2010.06.03 18:35:42.
