data_PCOD9362039
_publ_section_title
;
Structure prediction by ZEFSAII (Michael W. Deem and Ramdas Pophale) SiO2 
 PCOD9362039
Probable space group: A B M 2
;
_chemical_formula_sum "Si O2"
_cell_formula_units_Z 56
_cell_length_a 5.011315
_cell_length_b 15.775324
_cell_length_c 32.375711
_cell_angle_alpha 90.000000
_cell_angle_beta 90.000000
_cell_angle_gamma 90.000000
_cell_volume 2559.465647
_symmetry_space_group_name_H-M "A B M 2"
_symmetry_group_IT_number 39
_symmetry_cell_setting 'orthorhombic'
loop_
_space_group_symop_operation_xyz
x,y,z
-x,-y,z
-x,1/2+y,z
x,1/2-y,z
x,1/2+y,1/2+z
-x,1/2-y,1/2+z
-x,y,1/2+z
x,-y,1/2+z
loop_
_atom_site_type_symbol
_atom_site_label
_atom_site_fract_x
_atom_site_fract_y
_atom_site_fract_z
Si Si1 0.578207 0.250000 0.166201
Si Si2 0.932876 0.647627 0.055022
Si Si3 0.921133 0.750000 0.220437
Si Si4 0.913549 0.649673 0.462292
Si Si5 0.568984 0.651209 0.325409
Si Si6 0.942497 0.406325 0.279487
Si Si7 0.413324 0.903965 0.414802
Si Si8 0.435898 0.904736 0.104427
O O1 0.382283 0.250000 0.205304
O O2 0.523212 0.166332 0.139268
O O3 0.883070 0.250000 0.181090
O O4 0.953616 0.750000 0.058528
O O5 0.638002 0.618796 0.067298
O O6 0.138683 0.605738 0.086903
O O7 0.014393 0.623039 0.008684
O O8 0.988057 0.666689 0.246924
O O9 0.963418 0.750000 0.459076
O O10 0.609507 0.632029 0.450105
O O11 0.112214 0.604968 0.430231
O O12 0.583903 0.750000 0.314094
O O13 0.355708 0.605785 0.295898
O O14 0.470748 0.643836 0.372209
O O15 0.856202 0.609637 0.317864
O O16 0.000000 0.500000 0.263144
O O17 0.500000 0.000000 0.407776
O O18 0.500000 0.000000 0.118297
#
# Coordination Sequence:
#
# PCOD9362039 Si02
#       8
#     4   8   4   8   8   8   8   8
#     4  12  26  46  72  98 142 164 214 264 334 398
#     4  11  22  43  68  93 134 178 224 276 326 388
#     4  12  26  46  72 102 132 176 204 266 338 396
#     4  11  24  41  63  92 130 179 224 272 333 386
#     4  12  23  44  69  94 132 179 227 270 327 390
#     4  12  25  45  71 103 133 171 224 269 322 395
#     4  12  25  40  60  94 135 174 223 283 331 375
#     4  12  25  43  71 102 131 175 223 268 326 392
#
# _framework density 21.879564999999999
#
# number of rings (size 3 to 8) (size 9 to 14) (size 15 to 20)
#    0.000    0.286    2.857    6.857    0.000    6.857 
#    0.000    0.000    0.000    0.000    0.000    0.000 
#    0.000    0.000    0.000    0.000    0.000    0.000 
#
# Total GULP energy -156888.706231 kJ/mol
# GULP energy per Si atom -5603.168080 kJ/mol
# Density = 2.182977 g / cm^3
# Si number density = 21.879565 Si / 1000 Ang^3
#
#
#
# Elastic Constant Matrix: (Units=GPa)
#
#
# Indices 1 2 3 4 5 6 
#
# 1 58.2135 -5.4212 -14.7629 0.0000 0.0000 0.0000
# 2 -5.4212 141.4335 19.7449 0.0000 0.0000 0.0000
# 3 -14.7629 19.7449 60.3985 0.0000 0.0000 0.0000
# 4 0.0000 0.0000 0.0000 -7.5674 0.0000 0.0000
# 5 0.0000 0.0000 0.0000 0.0000 38.3186 0.0000
# 6 0.0000 0.0000 0.0000 0.0000 0.0000 36.4121
#
#
#
# Elastic Compliance Matrix: (Units=1/GPa)
#
#
# Indices 1 2 3 4 5 6 
#
# 1 0.018314 0.000081 0.004450 0.000000 0.000000 0.000000
# 2 0.000081 0.007409 -0.002402 0.000000 0.000000 0.000000
# 3 0.004450 -0.002402 0.018430 0.000000 0.000000 0.000000
# 4 0.000000 0.000000 0.000000 -0.132146 0.000000 0.000000
# 5 0.000000 0.000000 0.000000 0.000000 0.026097 0.000000
# 6 0.000000 0.000000 0.000000 0.000000 0.000000 0.027463
#
#
# Mechanical properties :
#
#
# Convention : Reuss Voigt Hill
#
# Bulk Modulus (GPa) = 20.65694 28.79633 24.72664
# Shear Modulus (GPa) = -221.69631 30.79831 -95.44900
#
# Velocity S-wave (km/s) = -10.07699 3.75591 -6.61207
# Velocity P-wave (km/s) = 11.22197 5.65677 6.85323
#
# Compressibility (1/GPa) = 0.04840988
#
# Stress axis : x y z
#
# Youngs Moduli (GPa) = 54.60240 134.97216 54.26001
#
# Poissons Ratio (x) = -0.01090 -0.24146
# Poissons Ratio (y) = -0.00441 0.13035
# Poissons Ratio (z) = -0.24298 0.32425
#
# Static dielectric constant tensor:
#      x y z
#    x 1.748420 0.000000 0.000000 
#    y 0.000000 1.783480 0.000000 
#    z 0.000000 0.000000 1.774950 
# 
# From -- ./inp_files/17284.got.cif
#   From: 2010.05.17/outbox.cif.g08.bks.cpg/sg39_9_cif.got.tgz:17284.got - 2010.06.03 18:22:40.
