data_PCOD9362789
_publ_section_title
;
Structure prediction by ZEFSAII (Michael W. Deem and Ramdas Pophale) SiO2 
 PCOD9362789
Probable space group: A M A 2
;
_chemical_formula_sum "Si O2"
_cell_formula_units_Z 36
_cell_length_a 14.229306
_cell_length_b 5.278016
_cell_length_c 20.215176
_cell_angle_alpha 90.000000
_cell_angle_beta 90.000000
_cell_angle_gamma 90.000000
_cell_volume 1518.210351
_symmetry_space_group_name_H-M "A M A 2"
_symmetry_group_IT_number 40
_symmetry_cell_setting 'orthorhombic'
loop_
_space_group_symop_operation_xyz
x,y,z
-x,-y,z
1/2-x,y,z
1/2+x,-y,z
x,1/2+y,1/2+z
-x,1/2-y,1/2+z
1/2-x,1/2+y,1/2+z
1/2+x,1/2-y,1/2+z
loop_
_atom_site_type_symbol
_atom_site_label
_atom_site_fract_x
_atom_site_fract_y
_atom_site_fract_z
Si Si1 0.397236 0.573333 0.175130
Si Si2 0.500000 0.500000 0.500490
Si Si3 0.639253 0.770764 0.405754
Si Si4 0.896798 0.428711 0.625878
Si Si5 0.641593 0.260801 0.318759
O O1 0.500000 0.500000 0.147227
O O2 0.648637 0.701789 0.165917
O O3 0.406511 0.670017 0.249831
O O4 0.351259 0.796670 0.133335
O O5 0.559854 0.705911 0.459918
O O6 0.577488 0.374270 0.549733
O O7 0.750000 0.804544 0.427501
O O8 0.637008 0.513173 0.362660
O O9 0.613330 0.014519 0.360968
O O10 0.000000 0.500000 0.656114
O O11 0.750000 0.213737 0.300264
#
# Coordination Sequence:
#
# PCOD9362789 Si02
#       5
#     8   4   8   8   8
#     4  10  18  36  58  83 118 153 197 256 309 362
#     4  10  22  42  62  90 126 170 214 260 318 372
#     4  10  23  41  61  89 125 166 212 260 312 380
#     4   8  19  33  58  82 115 154 199 256 297 363
#     4  10  22  39  59  89 126 160 206 265 316 379
#
# _framework density 23.712129000000001
#
# number of rings (size 3 to 8) (size 9 to 14) (size 15 to 20)
#    0.667    1.778    0.000    1.333    1.556    4.444 
#    0.000    2.222    0.000    0.000    0.000    0.000 
#    0.000    0.000    0.000    0.000    0.000    0.000 
#
# Total GULP energy -100252.999575 kJ/mol
# GULP energy per Si atom -5569.611088 kJ/mol
# Density = 2.365816 g / cm^3
# Si number density = 23.712129 Si / 1000 Ang^3
#
#
#
# Elastic Constant Matrix: (Units=GPa)
#
#
# Indices 1 2 3 4 5 6 
#
# 1 102.2092 34.0831 30.2461 0.0000 0.0000 0.0000
# 2 34.0831 219.1393 74.2091 0.0000 0.0000 0.0000
# 3 30.2461 74.2091 115.5180 0.0000 0.0000 0.0000
# 4 0.0000 0.0000 0.0000 40.4048 0.0000 0.0000
# 5 0.0000 0.0000 0.0000 0.0000-1526.1381 0.0000
# 6 0.0000 0.0000 0.0000 0.0000 0.0000 -2.4294
#
#
#
# Elastic Compliance Matrix: (Units=1/GPa)
#
#
# Indices 1 2 3 4 5 6 
#
# 1 0.010748 -0.000919 -0.002224 0.000000 0.000000 0.000000
# 2 -0.000919 0.005911 -0.003556 0.000000 0.000000 0.000000
# 3 -0.002224 -0.003556 0.011524 0.000000 0.000000 0.000000
# 4 0.000000 0.000000 0.000000 0.024750 0.000000 0.000000
# 5 0.000000 0.000000 0.000000 0.000000 -0.000655 0.000000
# 6 0.000000 0.000000 0.000000 0.000000 0.000000 -0.411630
#
#
# Mechanical properties :
#
#
# Convention : Reuss Voigt Hill
#
# Bulk Modulus (GPa) = 67.63948 79.32702 73.48325
# Shear Modulus (GPa) = -14.66162 -277.74397 -146.20280
#
# Velocity S-wave (km/s) = -2.48930 -10.83448 -7.86074
# Velocity P-wave (km/s) = 4.50833 11.08998 7.16459
#
# Compressibility (1/GPa) = 0.01478426
#
# Stress axis : x y z
#
# Youngs Moduli (GPa) = 93.03773 169.19000 86.77780
#
# Poissons Ratio (x) = 0.15540 0.19301
# Poissons Ratio (y) = 0.08546 0.30862
# Poissons Ratio (z) = 0.20693 0.60171
#
# Static dielectric constant tensor:
#      x y z
#    x 2.041450 0.000000 0.000000 
#    y 0.000000 2.060480 0.000000 
#    z 0.000000 0.000000 1.906290 
# 
# From -- ./inp_files/22928.got.cif
#   From: 2010.05.17/outbox.cif.g08.bks.cpg/sg40_12_cif.got.tgz:22928.got - 2010.06.03 18:35:42.
