data_PCOD9362741
_publ_section_title
;
Structure prediction by ZEFSAII (Michael W. Deem and Ramdas Pophale) SiO2 
 PCOD9362741
Probable space group: A M A 2
;
_chemical_formula_sum "Si O2"
_cell_formula_units_Z 56
_cell_length_a 25.375544
_cell_length_b 7.441696
_cell_length_c 12.071366
_cell_angle_alpha 90.000000
_cell_angle_beta 90.000000
_cell_angle_gamma 90.000000
_cell_volume 2279.521559
_symmetry_space_group_name_H-M "A M A 2"
_symmetry_group_IT_number 40
_symmetry_cell_setting 'orthorhombic'
loop_
_space_group_symop_operation_xyz
x,y,z
-x,-y,z
1/2-x,y,z
1/2+x,-y,z
x,1/2+y,1/2+z
-x,1/2-y,1/2+z
1/2-x,1/2+y,1/2+z
1/2+x,1/2-y,1/2+z
loop_
_atom_site_type_symbol
_atom_site_label
_atom_site_fract_x
_atom_site_fract_y
_atom_site_fract_z
Si Si1 0.308982 0.621793 0.759080
Si Si2 0.912615 0.857436 0.403660
Si Si3 0.416494 0.334149 0.046428
Si Si4 0.190142 0.624888 0.517968
Si Si5 0.808063 0.459782 0.271915
Si Si6 0.991970 0.216269 0.722270
Si Si7 0.397343 0.206992 0.649631
O O1 0.250000 0.583693 0.803897
O O2 0.358178 0.598154 0.840011
O O3 0.314736 0.531778 0.637950
O O4 0.311050 0.835623 0.729335
O O5 0.954646 0.765760 0.324058
O O6 0.898551 0.747162 0.517681
O O7 0.936897 0.045242 0.446326
O O8 0.362424 0.243337 0.012847
O O9 0.460928 0.224866 0.110043
O O10 0.403348 0.489774 0.135110
O O11 0.250000 0.706512 0.517729
O O12 0.188187 0.515379 0.404425
O O13 0.750000 0.392776 0.243693
O O14 0.847445 0.307007 0.229372
O O15 0.051533 0.287877 0.708972
O O16 0.000000 0.000000 0.724043
#
# Coordination Sequence:
#
# PCOD9362741 Si02
#       7
#     8   8   8   8   8   8   8
#     4  10  18  34  57  84 118 152 191 237 286 344
#     4  10  20  35  61  89 112 152 197 235 294 345
#     4   9  19  35  60  84 111 148 193 236 285 341
#     4  10  19  34  61  88 115 158 197 233 293 350
#     4  10  20  36  59  87 118 154 192 237 291 349
#     4  10  18  37  58  80 117 153 190 239 287 341
#     4   9  20  34  57  85 111 151 192 232 291 342
#
# _framework density 24.566561
#
# number of rings (size 3 to 8) (size 9 to 14) (size 15 to 20)
#    0.857    1.429    2.857    0.857    0.000    2.286 
#    0.000    1.429    3.143    3.429    0.000    0.000 
#    0.000    0.000    0.000    0.000    0.000    0.000 
#
# Total GULP energy -155981.560770 kJ/mol
# GULP energy per Si atom -5570.770028 kJ/mol
# Density = 2.451065 g / cm^3
# Si number density = 24.566561 Si / 1000 Ang^3
#
#
#
# Elastic Constant Matrix: (Units=GPa)
#
#
# Indices 1 2 3 4 5 6 
#
# 1 115.7539 8.5749 58.1178 0.0000 0.0000 0.0000
# 2 8.5749 38.3819 13.0490 0.0000 0.0000 0.0000
# 3 58.1178 13.0490 144.1198 0.0000 0.0000 0.0000
# 4 0.0000 0.0000 0.0000 24.2990 0.0000 0.0000
# 5 0.0000 0.0000 0.0000 0.0000 14.5954 0.0000
# 6 0.0000 0.0000 0.0000 0.0000 0.0000 5.3705
#
#
#
# Elastic Compliance Matrix: (Units=1/GPa)
#
#
# Indices 1 2 3 4 5 6 
#
# 1 0.010867 -0.000968 -0.004295 0.000000 0.000000 0.000000
# 2 -0.000968 0.026968 -0.002051 0.000000 0.000000 0.000000
# 3 -0.004295 -0.002051 0.008856 0.000000 0.000000 0.000000
# 4 0.000000 0.000000 0.000000 0.041154 0.000000 0.000000
# 5 0.000000 0.000000 0.000000 0.000000 0.068515 0.000000
# 6 0.000000 0.000000 0.000000 0.000000 0.000000 0.186203
#
#
# Mechanical properties :
#
#
# Convention : Reuss Voigt Hill
#
# Bulk Modulus (GPa) = 31.18835 50.85990 41.02413
# Shear Modulus (GPa) = 13.59146 23.42055 18.50600
#
# Velocity S-wave (km/s) = 2.35468 3.09099 2.74761
# Velocity P-wave (km/s) = 4.48505 5.78678 5.17699
#
# Compressibility (1/GPa) = 0.03206325
#
# Stress axis : x y z
#
# Youngs Moduli (GPa) = 92.02226 37.08149 112.91453
#
# Poissons Ratio (x) = 0.03588 0.48492
# Poissons Ratio (y) = 0.08905 0.23164
# Poissons Ratio (z) = 0.39520 0.07607
#
# Static dielectric constant tensor:
#      x y z
#    x 2.065080 0.000000 0.000000 
#    y 0.000000 1.978160 0.000000 
#    z 0.000000 0.000000 1.962710 
# 
# From -- ./inp_files/14019.got.cif
#   From: 2010.05.17/outbox.cif.g08.bks.cpg/sg40_8_cif.got.tgz:14019.got - 2010.06.03 18:35:42.
