data_PCOD9362724
_publ_section_title
;
Structure prediction by ZEFSAII (Michael W. Deem and Ramdas Pophale) SiO2 
 PCOD9362724
Probable space group: A M A 2
;
_chemical_formula_sum "Si O2"
_cell_formula_units_Z 64
_cell_length_a 18.281400
_cell_length_b 20.334945
_cell_length_c 8.953496
_cell_angle_alpha 90.000000
_cell_angle_beta 90.000000
_cell_angle_gamma 90.000000
_cell_volume 3328.473451
_symmetry_space_group_name_H-M "A M A 2"
_symmetry_group_IT_number 40
_symmetry_cell_setting 'orthorhombic'
loop_
_space_group_symop_operation_xyz
x,y,z
-x,-y,z
1/2-x,y,z
1/2+x,-y,z
x,1/2+y,1/2+z
-x,1/2-y,1/2+z
1/2-x,1/2+y,1/2+z
1/2+x,1/2-y,1/2+z
loop_
_atom_site_type_symbol
_atom_site_label
_atom_site_fract_x
_atom_site_fract_y
_atom_site_fract_z
Si Si1 0.031161 0.409770 0.424620
Si Si2 0.605430 0.776275 0.336597
Si Si3 0.460663 0.067534 0.624759
Si Si4 0.584115 0.147705 0.457532
Si Si5 0.163250 0.078968 0.393970
Si Si6 0.511295 0.269837 0.543268
Si Si7 0.076622 0.968111 0.230194
Si Si8 0.669724 0.143504 0.744642
O O1 0.062956 0.455299 0.555531
O O2 0.102830 0.391103 0.328716
O O3 0.969904 0.429826 0.303257
O O4 0.996267 0.345661 0.501108
O O5 0.636912 0.849507 0.334909
O O6 0.567957 0.758733 0.495211
O O7 0.662816 0.719848 0.293363
O O8 0.541790 0.766898 0.211324
O O9 0.512002 0.122576 0.548080
O O10 0.381596 0.069003 0.548894
O O11 0.500000 0.000000 0.585522
O O12 0.569031 0.225560 0.448287
O O13 0.589025 0.101848 0.312958
O O14 0.651643 0.137162 0.569106
O O15 0.250000 0.077846 0.413313
O O16 0.136672 0.020937 0.282534
O O17 0.000000 0.000000 0.280292
O O18 0.750000 0.117953 0.780110
#
# Coordination Sequence:
#
# PCOD9362724 Si02
#       8
#     8   8   8   8   8   8   8   8
#     4  10  23  34  62  90 114 155 200 263 299 355
#     4  10  20  35  60  90 119 156 208 255 305 365
#     4  11  20  40  57  84 115 156 210 246 291 361
#     4  10  18  34  62  83 114 153 201 252 290 365
#     4  12  24  38  63  91 129 170 204 252 318 386
#     4  10  18  33  59  94 113 151 201 259 309 353
#     4  12  21  39  61  89 118 156 208 258 298 351
#     4   9  20  37  55  83 121 156 190 242 311 368
#
# _framework density 19.228033
#
# number of rings (size 3 to 8) (size 9 to 14) (size 15 to 20)
#    0.000    1.500    3.750    3.000    0.000    1.000 
#    0.000    0.000    0.000    9.000    0.000    0.000 
#    0.000    0.000    0.000    0.000    0.000    0.000 
#
# Total GULP energy -178307.892897 kJ/mol
# GULP energy per Si atom -5572.121653 kJ/mol
# Density = 1.918427 g / cm^3
# Si number density = 19.228033 Si / 1000 Ang^3
#
#
#
# Elastic Constant Matrix: (Units=GPa)
#
#
# Indices 1 2 3 4 5 6 
#
# 1 107.3333 34.7910 45.7502 0.0000 0.0000 0.0000
# 2 34.7910 66.5186 37.1072 0.0000 0.0000 0.0000
# 3 45.7502 37.1072 110.0179 0.0000 0.0000 0.0000
# 4 0.0000 0.0000 0.0000 32.5272 0.0000 0.0000
# 5 0.0000 0.0000 0.0000 0.0000 -8.9880 0.0000
# 6 0.0000 0.0000 0.0000 0.0000 0.0000 14.7115
#
#
#
# Elastic Compliance Matrix: (Units=1/GPa)
#
#
# Indices 1 2 3 4 5 6 
#
# 1 0.012290 -0.004406 -0.003625 0.000000 0.000000 0.000000
# 2 -0.004406 0.020097 -0.004946 0.000000 0.000000 0.000000
# 3 -0.003625 -0.004946 0.012265 0.000000 0.000000 0.000000
# 4 0.000000 0.000000 0.000000 0.030743 0.000000 0.000000
# 5 0.000000 0.000000 0.000000 0.000000 -0.111259 0.000000
# 6 0.000000 0.000000 0.000000 0.000000 0.000000 0.067974
#
#
# Mechanical properties :
#
#
# Convention : Reuss Voigt Hill
#
# Bulk Modulus (GPa) = 53.48064 57.68517 55.58290
# Shear Modulus (GPa) = 77.76466 18.73157 48.24812
#
# Velocity S-wave (km/s) = 6.36641 3.12457 5.01468
# Velocity P-wave (km/s) = 9.05074 6.56376 7.90566
#
# Compressibility (1/GPa) = 0.01869836
#
# Stress axis : x y z
#
# Youngs Moduli (GPa) = 81.36775 49.75854 81.53305
#
# Poissons Ratio (x) = 0.21923 0.29552
# Poissons Ratio (y) = 0.35850 0.40328
# Poissons Ratio (z) = 0.29493 0.24612
#
# Static dielectric constant tensor:
#      x y z
#    x 1.657650 0.000000 0.000000 
#    y 0.000000 1.319240 0.000000 
#    z 0.000000 0.000000 1.717860 
# 
# From -- ./inp_files/7770.got.cif
#   From: 2010.05.17/outbox.cif.g08.bks.cpg/sg40_4_cif.got.tgz:7770.got - 2010.06.03 18:35:42.
