data_PCOD9362019
_publ_section_title
;
Structure prediction by ZEFSAII (Michael W. Deem and Ramdas Pophale) SiO2 
 PCOD9362019
Probable space group: A B M 2
;
_chemical_formula_sum "Si O2"
_cell_formula_units_Z 36
_cell_length_a 6.604079
_cell_length_b 24.724030
_cell_length_c 10.159921
_cell_angle_alpha 90.000000
_cell_angle_beta 90.000000
_cell_angle_gamma 90.000000
_cell_volume 1658.906286
_symmetry_space_group_name_H-M "A B M 2"
_symmetry_group_IT_number 39
_symmetry_cell_setting 'orthorhombic'
loop_
_space_group_symop_operation_xyz
x,y,z
-x,-y,z
-x,1/2+y,z
x,1/2-y,z
x,1/2+y,1/2+z
-x,1/2-y,1/2+z
-x,y,1/2+z
x,-y,1/2+z
loop_
_atom_site_type_symbol
_atom_site_label
_atom_site_fract_x
_atom_site_fract_y
_atom_site_fract_z
Si Si1 0.020548 0.900341 0.857300
Si Si2 0.332148 0.535158 0.209195
Si Si3 0.417995 0.863594 0.700011
Si Si4 0.295985 0.686482 0.428254
Si Si5 0.000000 0.000000 0.041736
O O1 0.844775 0.933232 0.782148
O O2 0.911722 0.847467 0.914899
O O3 0.209648 0.882575 0.769445
O O4 0.065425 0.945890 0.965598
O O5 0.500000 0.500000 0.287468
O O6 0.459288 0.584050 0.147018
O O7 0.204547 0.492201 0.124516
O O8 0.379530 0.826149 0.574083
O O9 0.552438 0.835588 0.814623
O O10 0.264718 0.750000 0.410554
#
# Coordination Sequence:
#
# PCOD9362019 Si02
#       5
#     8   8   8   8   4
#     4  11  24  41  64  97 135 175 223 277 340 407
#     4  11  22  37  60  91 129 172 217 270 331 399
#     4  11  24  45  68  98 137 179 230 286 347 413
#     4  11  25  44  69  99 133 180 234 289 348 409
#     4  12  22  38  62  94 134 178 226 272 330 404
#
# _framework density 21.701046000000002
#
# number of rings (size 3 to 8) (size 9 to 14) (size 15 to 20)
#    0.000    0.889    0.000    8.000    0.000    8.000 
#    0.000    0.000    0.000    0.000    0.000    0.000 
#    0.000    0.000    0.000    0.000    0.000    0.000 
#
# Total GULP energy -100453.839259 kJ/mol
# GULP energy per Si atom -5580.768848 kJ/mol
# Density = 2.165165 g / cm^3
# Si number density = 21.701046 Si / 1000 Ang^3
#
#
#
# Elastic Constant Matrix: (Units=GPa)
#
#
# Indices 1 2 3 4 5 6 
#
# 1 112.6317 52.9367 41.0737 0.0000 0.0000 0.0000
# 2 52.9367 147.4617 40.3900 0.0000 0.0000 0.0000
# 3 41.0737 40.3900 88.1928 0.0000 0.0000 0.0000
# 4 0.0000 0.0000 0.0000 19.1536 0.0000 0.0000
# 5 0.0000 0.0000 0.0000 0.0000 27.9054 0.0000
# 6 0.0000 0.0000 0.0000 0.0000 0.0000 28.9964
#
#
#
# Elastic Compliance Matrix: (Units=1/GPa)
#
#
# Indices 1 2 3 4 5 6 
#
# 1 0.011838 -0.003133 -0.004079 0.000000 0.000000 0.000000
# 2 -0.003133 0.008583 -0.002472 0.000000 0.000000 0.000000
# 3 -0.004079 -0.002472 0.014370 0.000000 0.000000 0.000000
# 4 0.000000 0.000000 0.000000 0.052210 0.000000 0.000000
# 5 0.000000 0.000000 0.000000 0.000000 0.035835 0.000000
# 6 0.000000 0.000000 0.000000 0.000000 0.000000 0.034487
#
#
# Mechanical properties :
#
#
# Convention : Reuss Voigt Hill
#
# Bulk Modulus (GPa) = 64.82863 68.56523 66.69693
# Shear Modulus (GPa) = 27.49795 29.47012 28.48403
#
# Velocity S-wave (km/s) = 3.56353 3.68911 3.62686
# Velocity P-wave (km/s) = 6.84617 7.05762 6.95270
#
# Compressibility (1/GPa) = 0.01542528
#
# Stress axis : x y z
#
# Youngs Moduli (GPa) = 84.47226 116.50904 69.58744
#
# Poissons Ratio (x) = 0.36497 0.28383
# Poissons Ratio (y) = 0.26462 0.17201
# Poissons Ratio (z) = 0.34454 0.28800
#
# Static dielectric constant tensor:
#      x y z
#    x 1.885550 0.000000 0.000000 
#    y 0.000000 1.816550 0.000000 
#    z 0.000000 0.000000 1.923160 
# 
# From -- ./inp_files/4472.got.cif
#   From: 2010.05.17/outbox.cif.g08.bks.cpg/sg39_3_cif.got.tgz:4472.got - 2010.06.03 18:22:40.
