data_PCOD9362394
_publ_section_title
;
Structure prediction by ZEFSAII (Michael W. Deem and Ramdas Pophale) SiO2 
 PCOD9362394
Probable space group: A M A 2
;
_chemical_formula_sum "Si O2"
_cell_formula_units_Z 64
_cell_length_a 8.790524
_cell_length_b 19.184859
_cell_length_c 21.803760
_cell_angle_alpha 90.000000
_cell_angle_beta 90.000000
_cell_angle_gamma 90.000000
_cell_volume 3677.094309
_symmetry_space_group_name_H-M "A M A 2"
_symmetry_group_IT_number 40
_symmetry_cell_setting 'orthorhombic'
loop_
_space_group_symop_operation_xyz
x,y,z
-x,-y,z
1/2-x,y,z
1/2+x,-y,z
x,1/2+y,1/2+z
-x,1/2-y,1/2+z
1/2-x,1/2+y,1/2+z
1/2+x,1/2-y,1/2+z
loop_
_atom_site_type_symbol
_atom_site_label
_atom_site_fract_x
_atom_site_fract_y
_atom_site_fract_z
Si Si1 0.430778 0.924922 0.715090
Si Si2 0.076356 0.065311 0.914490
Si Si3 0.424537 0.680029 0.309992
Si Si4 0.430194 0.927107 0.046796
Si Si5 0.567504 0.375724 0.087141
Si Si6 0.066866 0.274687 0.537289
Si Si7 0.931984 0.071644 0.460109
Si Si8 0.433477 0.779235 0.409499
O O1 0.250000 0.930625 0.715681
O O2 0.483642 0.861556 0.758860
O O3 0.491675 0.906802 0.647401
O O4 0.500000 0.000000 0.733345
O O5 0.250000 0.050624 0.933430
O O6 0.078904 0.128820 0.868627
O O7 0.000000 0.000000 0.881107
O O8 0.975722 0.075321 0.974838
O O9 0.250000 0.690322 0.288307
O O10 0.485227 0.749466 0.343592
O O11 0.250000 0.931526 0.054680
O O12 0.481821 0.849048 0.066276
O O13 0.500000 0.000000 0.070943
O O14 0.750000 0.382970 0.090522
O O15 0.529861 0.293597 0.077395
O O16 0.505188 0.413836 0.026661
O O17 0.250000 0.277074 0.530523
O O18 0.998393 0.260574 0.469493
O O19 0.750000 0.066993 0.466099
O O20 0.969237 0.139692 0.419817
O O21 0.000000 0.000000 0.435438
O O22 0.250000 0.770902 0.411124
#
# Coordination Sequence:
#
# PCOD9362394 Si02
#       8
#     8   8   8   8   8   8   8   8
#     4  12  25  39  54  74 100 135 175 213 251 295
#     4  10  18  27  41  61  89 125 162 195 232 275
#     4  10  20  34  50  70  97 131 169 207 247 291
#     4  10  18  27  41  65  96 128 161 195 237 288
#     4  10  20  36  55  74  99 132 171 215 257 300
#     4   9  18  31  49  72  98 129 166 207 253 300
#     4  10  19  32  52  78 106 134 164 204 252 304
#     4   9  18  32  50  72  99 130 165 203 248 300
#
# _framework density 17.405048000000001
#
# number of rings (size 3 to 8) (size 9 to 14) (size 15 to 20)
#    0.000    2.000    1.250    4.125    0.000    4.000 
#    0.000    0.000    0.000    0.000    0.000    0.875 
#    0.000    0.000    0.000    0.000    0.000    0.000 
#
# Total GULP energy -178360.375272 kJ/mol
# GULP energy per Si atom -5573.761727 kJ/mol
# Density = 1.736543 g / cm^3
# Si number density = 17.405048 Si / 1000 Ang^3
#
#
#
# Elastic Constant Matrix: (Units=GPa)
#
#
# Indices 1 2 3 4 5 6 
#
# 1 64.6291 38.7326 24.3173 0.0000 0.0000 0.0000
# 2 38.7326 134.2031 27.6035 0.0000 0.0000 0.0000
# 3 24.3173 27.6035 55.0170 0.0000 0.0000 0.0000
# 4 0.0000 0.0000 0.0000 19.9150 0.0000 0.0000
# 5 0.0000 0.0000 0.0000 0.0000 18.1651 0.0000
# 6 0.0000 0.0000 0.0000 0.0000 0.0000 20.4878
#
#
#
# Elastic Compliance Matrix: (Units=1/GPa)
#
#
# Indices 1 2 3 4 5 6 
#
# 1 0.020819 -0.004590 -0.006899 0.000000 0.000000 0.000000
# 2 -0.004590 0.009321 -0.002648 0.000000 0.000000 0.000000
# 3 -0.006899 -0.002648 0.022554 0.000000 0.000000 0.000000
# 4 0.000000 0.000000 0.000000 0.050213 0.000000 0.000000
# 5 0.000000 0.000000 0.000000 0.000000 0.055051 0.000000
# 6 0.000000 0.000000 0.000000 0.000000 0.000000 0.048810
#
#
# Mechanical properties :
#
#
# Convention : Reuss Voigt Hill
#
# Bulk Modulus (GPa) = 40.94902 48.35068 44.64985
# Shear Modulus (GPa) = 20.56075 22.59329 21.57702
#
# Velocity S-wave (km/s) = 3.44075 3.60681 3.52476
# Velocity P-wave (km/s) = 6.27401 6.72201 6.50187
#
# Compressibility (1/GPa) = 0.02442061
#
# Stress axis : x y z
#
# Youngs Moduli (GPa) = 48.03198 107.28885 44.33768
#
# Poissons Ratio (x) = 0.49242 0.30590
# Poissons Ratio (y) = 0.22045 0.11740
# Poissons Ratio (z) = 0.33139 0.28408
#
# Static dielectric constant tensor:
#      x y z
#    x 1.590530 0.000000 0.000000 
#    y 0.000000 1.695290 0.000000 
#    z 0.000000 0.000000 1.564750 
# 
# From -- ./inp_files/22509.got.cif
#   From: 2010.05.17/outbox.cif.g08.bks.cpg/sg40_12_cif.got.tgz:22509.got - 2010.06.03 18:35:42.
