data_PCOD9362455
_publ_section_title
;
Structure prediction by ZEFSAII (Michael W. Deem and Ramdas Pophale) SiO2 
 PCOD9362455
Probable space group: A M A 2
;
_chemical_formula_sum "Si O2"
_cell_formula_units_Z 60
_cell_length_a 9.204305
_cell_length_b 11.062577
_cell_length_c 33.530355
_cell_angle_alpha 90.000000
_cell_angle_beta 90.000000
_cell_angle_gamma 90.000000
_cell_volume 3414.172496
_symmetry_space_group_name_H-M "A M A 2"
_symmetry_group_IT_number 40
_symmetry_cell_setting 'orthorhombic'
loop_
_space_group_symop_operation_xyz
x,y,z
-x,-y,z
1/2-x,y,z
1/2+x,-y,z
x,1/2+y,1/2+z
-x,1/2-y,1/2+z
1/2-x,1/2+y,1/2+z
1/2+x,1/2-y,1/2+z
loop_
_atom_site_type_symbol
_atom_site_label
_atom_site_fract_x
_atom_site_fract_y
_atom_site_fract_z
Si Si1 0.422868 0.371247 0.000000
Si Si2 0.080746 0.622842 0.729916
Si Si3 0.083545 0.222997 0.663680
Si Si4 0.422632 0.622657 0.364043
Si Si5 0.000000 0.500000 0.215202
Si Si6 0.075137 0.367434 0.087205
Si Si7 0.907857 0.659666 0.286424
Si Si8 0.925481 0.132912 0.410529
O O1 0.500000 0.500000 0.001405
O O2 0.250000 0.388923 0.000040
O O3 0.459663 0.323430 0.956041
O O4 0.456255 0.312847 0.043015
O O5 0.250000 0.606228 0.720083
O O6 0.072724 0.707330 0.768775
O O7 0.000000 0.500000 0.738440
O O8 0.998627 0.687215 0.693438
O O9 0.250000 0.258498 0.656810
O O10 0.081048 0.093900 0.686724
O O11 0.995305 0.207481 0.622901
O O12 0.500000 0.500000 0.379824
O O13 0.250000 0.611637 0.369078
O O14 0.467100 0.629298 0.317467
O O15 0.467600 0.752824 0.382833
O O16 0.091386 0.421081 0.246469
O O17 0.250000 0.378923 0.092184
O O18 0.000000 0.500000 0.088804
O O19 0.750000 0.646675 0.306368
O O20 0.750000 0.116177 0.407068
O O21 0.000000 0.000000 0.403890
#
# Coordination Sequence:
#
# PCOD9362455 Si02
#       8
#     8   8   8   8   4   8   8   8
#     4   8  15  29  49  73 104 138 172 216 270 324
#     4  10  22  39  56  75 101 136 181 223 267 318
#     4  11  21  32  51  76 107 141 175 218 265 316
#     4  11  23  37  56  82 113 146 183 228 280 335
#     4  10  20  32  52  76 106 138 174 210 258 318
#     4  10  18  28  46  75 108 139 174 218 270 325
#     4  10  21  36  55  77 103 135 174 218 264 315
#     4   9  19  36  57  82 109 143 184 228 279 337
#
# _framework density 17.573805
#
# number of rings (size 3 to 8) (size 9 to 14) (size 15 to 20)
#    0.000    2.133    1.333    2.000    0.000    5.867 
#    0.000    2.667    0.000    0.800    0.000    1.867 
#    0.000    0.000    0.000    0.000    0.000    0.000 
#
# Total GULP energy -167040.582096 kJ/mol
# GULP energy per Si atom -5568.019403 kJ/mol
# Density = 1.753381 g / cm^3
# Si number density = 17.573805 Si / 1000 Ang^3
#
#
#
# Elastic Constant Matrix: (Units=GPa)
#
#
# Indices 1 2 3 4 5 6 
#
# 1 84.0638 35.7384 22.8239 0.0000 0.0000 0.0000
# 2 35.7384 89.9929 22.9864 0.0000 0.0000 0.0000
# 3 22.8239 22.9864 80.1770 0.0000 0.0000 0.0000
# 4 0.0000 0.0000 0.0000 10.0821 0.0000 0.0000
# 5 0.0000 0.0000 0.0000 0.0000 31.5303 0.0000
# 6 0.0000 0.0000 0.0000 0.0000 0.0000 12.6031
#
#
#
# Elastic Compliance Matrix: (Units=1/GPa)
#
#
# Indices 1 2 3 4 5 6 
#
# 1 0.014848 -0.005198 -0.002737 0.000000 0.000000 0.000000
# 2 -0.005198 0.013809 -0.002479 0.000000 0.000000 0.000000
# 3 -0.002737 -0.002479 0.013962 0.000000 0.000000 0.000000
# 4 0.000000 0.000000 0.000000 0.099186 0.000000 0.000000
# 5 0.000000 0.000000 0.000000 0.000000 0.031716 0.000000
# 6 0.000000 0.000000 0.000000 0.000000 0.000000 0.079345
#
#
# Mechanical properties :
#
#
# Convention : Reuss Voigt Hill
#
# Bulk Modulus (GPa) = 45.88749 46.37012 46.12881
# Shear Modulus (GPa) = 17.79618 22.35544 20.07581
#
# Velocity S-wave (km/s) = 3.18567 3.57050 3.38356
# Velocity P-wave (km/s) = 6.30074 6.59099 6.44750
#
# Compressibility (1/GPa) = 0.02179243
#
# Stress axis : x y z
#
# Youngs Moduli (GPa) = 67.34692 72.41427 71.62133
#
# Poissons Ratio (x) = 0.37639 0.19601
# Poissons Ratio (y) = 0.35005 0.17758
# Poissons Ratio (z) = 0.18431 0.17955
#
# Static dielectric constant tensor:
#      x y z
#    x 1.597680 0.000000 0.000000 
#    y 0.000000 1.619200 0.000000 
#    z 0.000000 0.000000 1.626760 
# 
# From -- ./inp_files/26331.got.cif
#   From: 2010.05.17/outbox.cif.g08.bks.cpg/sg40_14_cif.got.tgz:26331.got - 2010.06.03 18:35:42.
