data_PCOD9362113
_publ_section_title
;
Structure prediction by ZEFSAII (Michael W. Deem and Ramdas Pophale) SiO2 
 PCOD9362113
Probable space group: A B M 2
;
_chemical_formula_sum "Si O2"
_cell_formula_units_Z 40
_cell_length_a 19.252377
_cell_length_b 9.618069
_cell_length_c 9.533376
_cell_angle_alpha 90.000000
_cell_angle_beta 90.000000
_cell_angle_gamma 90.000000
_cell_volume 1765.301816
_symmetry_space_group_name_H-M "A B M 2"
_symmetry_group_IT_number 39
_symmetry_cell_setting 'orthorhombic'
loop_
_space_group_symop_operation_xyz
x,y,z
-x,-y,z
-x,1/2+y,z
x,1/2-y,z
x,1/2+y,1/2+z
-x,1/2-y,1/2+z
-x,y,1/2+z
x,-y,1/2+z
loop_
_atom_site_type_symbol
_atom_site_label
_atom_site_fract_x
_atom_site_fract_y
_atom_site_fract_z
Si Si1 0.024818 0.250000 0.525691
Si Si2 0.000000 0.000000 0.358385
Si Si3 0.649911 0.589148 0.457491
Si Si4 0.433465 0.588210 0.238493
Si Si5 0.784027 0.404767 0.427124
Si Si6 0.120736 0.488520 0.668793
O O1 0.077454 0.370541 0.587899
O O2 0.977349 0.371320 0.450893
O O3 0.060951 0.064059 0.261237
O O4 0.648589 0.750000 0.409783
O O5 0.597139 0.493549 0.370584
O O6 0.624916 0.586537 0.617996
O O7 0.725262 0.521826 0.439066
O O8 0.500000 0.500000 0.189574
O O9 0.450988 0.750000 0.267710
O O10 0.752970 0.250000 0.428084
O O11 0.834318 0.424337 0.560361
O O12 0.827354 0.426327 0.284936
#
# Coordination Sequence:
#
# PCOD9362113 Si02
#       6
#     4   4   8   8   8   8
#     4  12  26  50  72 102 136 178 228 296 360 430
#     4  12  28  46  76 102 136 176 232 296 360 432
#     4  11  26  46  72 105 148 194 239 294 351 419
#     4  11  24  44  73 109 148 189 242 294 350 413
#     4  12  28  46  72 104 140 188 236 290 355 430
#     4  12  27  46  74 103 139 179 235 293 362 427
#
# _framework density 22.659015
#
# number of rings (size 3 to 8) (size 9 to 14) (size 15 to 20)
#    0.000    0.400    3.000    4.200    2.800    8.800 
#    0.000    0.000    0.000    0.000    0.000    0.000 
#    0.000    0.000    0.000    0.000    0.000    0.000 
#
# Total GULP energy -111463.968532 kJ/mol
# GULP energy per Si atom -5573.198427 kJ/mol
# Density = 2.260744 g / cm^3
# Si number density = 22.659015 Si / 1000 Ang^3
#
#
#
# Elastic Constant Matrix: (Units=GPa)
#
#
# Indices 1 2 3 4 5 6 
#
# 1 74.5207 20.5132 2.9610 0.0000 0.0000 0.0000
# 2 20.5132 169.1973 29.5197 0.0000 0.0000 0.0000
# 3 2.9610 29.5197 79.1772 0.0000 0.0000 0.0000
# 4 0.0000 0.0000 0.0000 3.9352 0.0000 0.0000
# 5 0.0000 0.0000 0.0000 0.0000 27.2380 0.0000
# 6 0.0000 0.0000 0.0000 0.0000 0.0000 40.0739
#
#
#
# Elastic Compliance Matrix: (Units=1/GPa)
#
#
# Indices 1 2 3 4 5 6 
#
# 1 0.013883 -0.001703 0.000116 0.000000 0.000000 0.000000
# 2 -0.001703 0.006530 -0.002371 0.000000 0.000000 0.000000
# 3 0.000116 -0.002371 0.013510 0.000000 0.000000 0.000000
# 4 0.000000 0.000000 0.000000 0.254117 0.000000 0.000000
# 5 0.000000 0.000000 0.000000 0.000000 0.036713 0.000000
# 6 0.000000 0.000000 0.000000 0.000000 0.000000 0.024954
#
#
# Mechanical properties :
#
#
# Convention : Reuss Voigt Hill
#
# Bulk Modulus (GPa) = 38.45230 47.65368 43.05299
# Shear Modulus (GPa) = 13.65026 32.24285 22.94655
#
# Velocity S-wave (km/s) = 2.45709 3.77631 3.18573
# Velocity P-wave (km/s) = 5.00565 6.33170 5.70732
#
# Compressibility (1/GPa) = 0.02600624
#
# Stress axis : x y z
#
# Youngs Moduli (GPa) = 72.02860 153.12868 74.02160
#
# Poissons Ratio (x) = 0.26084 -0.00858
# Poissons Ratio (y) = 0.12269 0.17551
# Poissons Ratio (z) = -0.00835 0.36308
#
# Static dielectric constant tensor:
#      x y z
#    x 1.827910 0.000000 0.000000 
#    y 0.000000 1.778890 0.000000 
#    z 0.000000 0.000000 1.909710 
# 
# From -- ./inp_files/6732.got.cif
#   From: 2010.05.17/outbox.cif.g08.bks.cpg/sg39_4_cif.got.tgz:6732.got - 2010.06.03 18:22:40.
