data_PCOD9362367
_publ_section_title
;
Structure prediction by ZEFSAII (Michael W. Deem and Ramdas Pophale) SiO2 
 PCOD9362367
Probable space group: A M A 2
;
_chemical_formula_sum "Si O2"
_cell_formula_units_Z 44
_cell_length_a 14.427527
_cell_length_b 14.645473
_cell_length_c 11.928374
_cell_angle_alpha 90.000000
_cell_angle_beta 90.000000
_cell_angle_gamma 90.000000
_cell_volume 2520.441058
_symmetry_space_group_name_H-M "A M A 2"
_symmetry_group_IT_number 40
_symmetry_cell_setting 'orthorhombic'
loop_
_space_group_symop_operation_xyz
x,y,z
-x,-y,z
1/2-x,y,z
1/2+x,-y,z
x,1/2+y,1/2+z
-x,1/2-y,1/2+z
1/2-x,1/2+y,1/2+z
1/2+x,1/2-y,1/2+z
loop_
_atom_site_type_symbol
_atom_site_label
_atom_site_fract_x
_atom_site_fract_y
_atom_site_fract_z
Si Si1 0.387490 0.900130 0.363520
Si Si2 0.250000 0.273771 0.728688
Si Si3 0.250000 0.329484 0.037909
Si Si4 0.250000 0.365012 0.511881
Si Si5 0.250000 0.638657 0.407342
Si Si6 0.403170 0.098553 0.279739
Si Si7 0.250000 0.255525 0.285156
Si Si8 0.601552 0.478789 0.527443
O O1 0.336184 0.830513 0.279447
O O2 0.341326 0.877326 0.483923
O O3 0.496797 0.888203 0.339013
O O4 0.364237 0.004939 0.333577
O O5 0.250000 0.280754 0.596735
O O6 0.250000 0.173924 0.781179
O O7 0.250000 0.312867 0.169768
O O8 0.250000 0.228814 0.983653
O O9 0.250000 0.326117 0.387486
O O10 0.338111 0.429236 0.538946
O O11 0.339545 0.582259 0.442834
O O12 0.337902 0.186487 0.290123
O O13 0.409949 0.072059 0.147475
O O14 0.500000 0.500000 0.484561
#
# Coordination Sequence:
#
# PCOD9362367 Si02
#       8
#     8   4   4   4   4   8   4   8
#     4   9  19  33  63  86 109 146 200 239 280 332
#     4  10  17  37  53  88 115 148 185 243 285 339
#     4  10  20  37  57  85 121 151 181 238 301 347
#     4  11  23  36  56  89 115 149 196 240 289 335
#     4   9  20  31  58  83 111 151 190 222 296 339
#     4  11  18  36  58  91 106 150 202 239 273 340
#     4  12  24  37  56  87 126 151 186 243 303 346
#     4  11  19  36  60  83 112 147 196 238 279 343
#
# _framework density 17.457263000000001
#
# number of rings (size 3 to 8) (size 9 to 14) (size 15 to 20)
#    0.000    1.818    5.455    1.636    0.000    2.909 
#    3.273    3.636    4.000    0.000    0.000    0.000 
#    0.000    0.000    0.000    0.000    0.000    0.000 
#
# Total GULP energy -122595.555962 kJ/mol
# GULP energy per Si atom -5572.525271 kJ/mol
# Density = 1.741753 g / cm^3
# Si number density = 17.457263 Si / 1000 Ang^3
#
#
#
# Elastic Constant Matrix: (Units=GPa)
#
#
# Indices 1 2 3 4 5 6 
#
# 1 144.8226 43.8822 41.7578 0.0000 0.0000 0.0000
# 2 43.8822 62.0818 37.2624 0.0000 0.0000 0.0000
# 3 41.7578 37.2624 115.4929 0.0000 0.0000 0.0000
# 4 0.0000 0.0000 0.0000 41.3865 0.0000 0.0000
# 5 0.0000 0.0000 0.0000 0.0000 6.3976 0.0000
# 6 0.0000 0.0000 0.0000 0.0000 0.0000 -18.8496
#
#
#
# Elastic Compliance Matrix: (Units=1/GPa)
#
#
# Indices 1 2 3 4 5 6 
#
# 1 0.008989 -0.005460 -0.001488 0.000000 0.000000 0.000000
# 2 -0.005460 0.023293 -0.005541 0.000000 0.000000 0.000000
# 3 -0.001488 -0.005541 0.010984 0.000000 0.000000 0.000000
# 4 0.000000 0.000000 0.000000 0.024162 0.000000 0.000000
# 5 0.000000 0.000000 0.000000 0.000000 0.156310 0.000000
# 6 0.000000 0.000000 0.000000 0.000000 0.000000 -0.053051
#
#
# Mechanical properties :
#
#
# Convention : Reuss Voigt Hill
#
# Bulk Modulus (GPa) = 54.68355 63.13358 58.90856
# Shear Modulus (GPa) = 24.78172 19.08654 21.93413
#
# Velocity S-wave (km/s) = 3.77180 3.31014 3.54849
# Velocity P-wave (km/s) = 7.09654 7.13110 7.11384
#
# Compressibility (1/GPa) = 0.01828703
#
# Stress axis : x y z
#
# Youngs Moduli (GPa) = 111.25171 42.93104 91.03845
#
# Poissons Ratio (x) = 0.23442 0.13549
# Poissons Ratio (y) = 0.60747 0.50445
# Poissons Ratio (z) = 0.16557 0.23788
#
# Static dielectric constant tensor:
#      x y z
#    x 1.612530 0.000000 0.000000 
#    y 0.000000 1.590610 0.000000 
#    z 0.000000 0.000000 1.598140 
# 
# From -- ./inp_files/12130.got.cif
#   From: 2010.05.17/outbox.cif.g08.bks.cpg/sg40_7_cif.got.tgz:12130.got - 2010.06.03 18:35:42.
