data_PCOD9362476
_publ_section_title
;
Structure prediction by ZEFSAII (Michael W. Deem and Ramdas Pophale) SiO2 
 PCOD9362476
Probable space group: A M A 2
;
_chemical_formula_sum "Si O2"
_cell_formula_units_Z 64
_cell_length_a 8.601025
_cell_length_b 18.828668
_cell_length_c 26.887625
_cell_angle_alpha 90.000000
_cell_angle_beta 90.000000
_cell_angle_gamma 90.000000
_cell_volume 4354.339129
_symmetry_space_group_name_H-M "A M A 2"
_symmetry_group_IT_number 40
_symmetry_cell_setting 'orthorhombic'
loop_
_space_group_symop_operation_xyz
x,y,z
-x,-y,z
1/2-x,y,z
1/2+x,-y,z
x,1/2+y,1/2+z
-x,1/2-y,1/2+z
1/2-x,1/2+y,1/2+z
1/2+x,1/2-y,1/2+z
loop_
_atom_site_type_symbol
_atom_site_label
_atom_site_fract_x
_atom_site_fract_y
_atom_site_fract_z
Si Si1 0.435659 0.168841 0.526630
Si Si2 0.436563 0.420525 0.636160
Si Si3 0.064142 0.421338 0.937031
Si Si4 0.434924 0.920933 0.620131
Si Si5 0.434950 0.077373 0.327224
Si Si6 0.937233 0.165031 0.237229
Si Si7 0.064631 0.202103 0.677858
Si Si8 0.064588 0.708933 0.584688
O O1 0.250000 0.172722 0.528022
O O2 0.494458 0.134382 0.475755
O O3 0.493185 0.117425 0.571458
O O4 0.507880 0.246518 0.537207
O O5 0.500000 0.500000 0.634845
O O6 0.250000 0.419444 0.632124
O O7 0.477843 0.383804 0.689251
O O8 0.509731 0.371482 0.592925
O O9 0.250000 0.422111 0.939953
O O10 0.000000 0.500000 0.949549
O O11 0.010080 0.406249 0.880731
O O12 0.250000 0.921680 0.614701
O O13 0.482329 0.872427 0.667406
O O14 0.500000 0.000000 0.624262
O O15 0.250000 0.072661 0.332674
O O16 0.482006 0.133817 0.285591
O O17 0.500000 0.000000 0.311717
O O18 0.750000 0.161559 0.242867
O O19 0.978926 0.246450 0.223521
O O20 0.250000 0.191945 0.678281
O O21 0.018175 0.249330 0.630024
O O22 0.250000 0.714303 0.589354
#
# Coordination Sequence:
#
# PCOD9362476 Si02
#       8
#     8   8   8   8   8   8   8   8
#     4  11  20  32  47  64  87 115 148 182 219 260
#     4  10  19  30  44  64  89 118 150 184 220 259
#     4  11  21  34  48  64  87 114 147 184 222 259
#     4  11  20  30  44  64  89 117 149 181 217 259
#     4  11  21  32  46  64  87 115 148 184 221 257
#     4   9  18  31  46  63  86 116 148 181 219 260
#     4   9  17  30  45  62  85 113 145 181 219 257
#     4  10  18  29  44  63  86 114 146 179 217 259
#
# _framework density 14.697982
#
# number of rings (size 3 to 8) (size 9 to 14) (size 15 to 20)
#    0.000    1.750    0.000   10.125    0.000    4.000 
#    0.000    0.000    0.000    0.000    0.000    0.000 
#    0.000    1.000    0.000    7.000    0.000    5.500 
#
# Total GULP energy -178526.695916 kJ/mol
# GULP energy per Si atom -5578.959247 kJ/mol
# Density = 1.466453 g / cm^3
# Si number density = 14.697982 Si / 1000 Ang^3
#
#
#
# Elastic Constant Matrix: (Units=GPa)
#
#
# Indices 1 2 3 4 5 6 
#
# 1 54.8954 20.1603 15.7871 0.0000 0.0000 0.0000
# 2 20.1603 84.8926 28.7514 0.0000 0.0000 0.0000
# 3 15.7871 28.7514 49.9754 0.0000 0.0000 0.0000
# 4 0.0000 0.0000 0.0000 26.7402 0.0000 0.0000
# 5 0.0000 0.0000 0.0000 0.0000 23.2277 0.0000
# 6 0.0000 0.0000 0.0000 0.0000 0.0000 27.4652
#
#
#
# Elastic Compliance Matrix: (Units=1/GPa)
#
#
# Indices 1 2 3 4 5 6 
#
# 1 0.020784 -0.003369 -0.004628 0.000000 0.000000 0.000000
# 2 -0.003369 0.015176 -0.007667 0.000000 0.000000 0.000000
# 3 -0.004628 -0.007667 0.025883 0.000000 0.000000 0.000000
# 4 0.000000 0.000000 0.000000 0.037397 0.000000 0.000000
# 5 0.000000 0.000000 0.000000 0.000000 0.043052 0.000000
# 6 0.000000 0.000000 0.000000 0.000000 0.000000 0.036410
#
#
# Mechanical properties :
#
#
# Convention : Reuss Voigt Hill
#
# Bulk Modulus (GPa) = 32.76893 35.46235 34.11564
# Shear Modulus (GPa) = 22.70655 23.82425 23.26540
#
# Velocity S-wave (km/s) = 3.93475 4.03043 3.98288
# Velocity P-wave (km/s) = 6.55639 6.77044 6.66428
#
# Compressibility (1/GPa) = 0.03051672
#
# Stress axis : x y z
#
# Youngs Moduli (GPa) = 48.11292 65.89270 38.63595
#
# Poissons Ratio (x) = 0.22196 0.17880
# Poissons Ratio (y) = 0.16207 0.29622
# Poissons Ratio (z) = 0.22266 0.50519
#
# Static dielectric constant tensor:
#      x y z
#    x 1.486860 0.000000 0.000000 
#    y 0.000000 1.504640 0.000000 
#    z 0.000000 0.000000 1.479630 
# 
# From -- ./inp_files/25541.got.cif
#   From: 2010.05.17/outbox.cif.g08.bks.cpg/sg40_13_cif.got.tgz:25541.got - 2010.06.03 18:35:42.
