data_PCOD9362021
_publ_section_title
;
Structure prediction by ZEFSAII (Michael W. Deem and Ramdas Pophale) SiO2 
 PCOD9362021
Probable space group: A B M 2
;
_chemical_formula_sum "Si O2"
_cell_formula_units_Z 64
_cell_length_a 24.658417
_cell_length_b 8.163137
_cell_length_c 15.474136
_cell_angle_alpha 90.000000
_cell_angle_beta 90.000000
_cell_angle_gamma 90.000000
_cell_volume 3114.789395
_symmetry_space_group_name_H-M "A B M 2"
_symmetry_group_IT_number 39
_symmetry_cell_setting 'orthorhombic'
loop_
_space_group_symop_operation_xyz
x,y,z
-x,-y,z
-x,1/2+y,z
x,1/2-y,z
x,1/2+y,1/2+z
-x,1/2-y,1/2+z
-x,y,1/2+z
x,-y,1/2+z
loop_
_atom_site_type_symbol
_atom_site_label
_atom_site_fract_x
_atom_site_fract_y
_atom_site_fract_z
Si Si1 0.764283 0.051664 0.737320
Si Si2 0.866857 0.057664 0.007615
Si Si3 0.245019 0.051383 0.439962
Si Si4 0.355472 0.448002 0.223754
Si Si5 0.438486 0.054865 0.576772
Si Si6 0.882481 0.557099 0.186124
Si Si7 0.061169 0.940532 0.354006
Si Si8 0.634955 0.450211 0.922919
O O1 0.764029 0.250000 0.730269
O O2 0.765087 0.011763 0.839272
O O3 0.705963 0.993583 0.702355
O O4 0.820442 0.993572 0.696818
O O5 0.863849 0.250000 0.027013
O O6 0.805663 0.989574 0.994931
O O7 0.898337 0.034102 0.918133
O O8 0.896813 0.971790 0.086797
O O9 0.244256 0.250000 0.445918
O O10 0.306136 0.996954 0.459578
O O11 0.354473 0.250000 0.224351
O O12 0.399639 0.503375 0.155225
O O13 0.368693 0.500775 0.322531
O O14 0.438087 0.250000 0.572681
O O15 0.411962 0.992308 0.487021
O O16 0.500000 0.000000 0.588448
O O17 0.883432 0.750000 0.206100
O O18 0.919995 0.470494 0.255901
O O19 0.065092 0.750000 0.374855
O O20 0.000000 0.000000 0.365581
O O21 0.635035 0.250000 0.922181
#
# Coordination Sequence:
#
# PCOD9362021 Si02
#       8
#     8   8   8   8   8   8   8   8
#     4   8  15  31  58  87 120 158 193 235 295 360
#     4  11  22  38  63  95 128 165 204 249 305 363
#     4   8  14  30  57  86 118 155 193 236 293 358
#     4   9  18  36  60  85 114 152 194 239 294 352
#     4  11  23  38  56  81 114 152 198 246 295 354
#     4  11  22  39  62  94 130 166 205 248 302 365
#     4  12  26  46  68  91 122 164 211 259 307 362
#     4   8  17  34  57  83 113 152 193 237 292 351
#
# _framework density 20.547135000000001
#
# number of rings (size 3 to 8) (size 9 to 14) (size 15 to 20)
#    0.000    2.250    1.250    3.750    1.750    1.000 
#    0.000    5.625    0.000    0.000    0.000    0.000 
#    0.000    0.000    0.000    0.000    0.000    0.000 
#
# Total GULP energy -178651.919395 kJ/mol
# GULP energy per Si atom -5582.872481 kJ/mol
# Density = 2.050037 g / cm^3
# Si number density = 20.547135 Si / 1000 Ang^3
#
#
#
# Elastic Constant Matrix: (Units=GPa)
#
#
# Indices 1 2 3 4 5 6 
#
# 1 60.2382 5.4518 -7.3288 0.0000 0.0000 0.0000
# 2 5.4518 28.0394 -2.4552 0.0000 0.0000 0.0000
# 3 -7.3288 -2.4552 31.5589 0.0000 0.0000 0.0000
# 4 0.0000 0.0000 0.0000 20.8552 0.0000 0.0000
# 5 0.0000 0.0000 0.0000 0.0000 -1.5340 0.0000
# 6 0.0000 0.0000 0.0000 0.0000 0.0000 13.1017
#
#
#
# Elastic Compliance Matrix: (Units=1/GPa)
#
#
# Indices 1 2 3 4 5 6 
#
# 1 0.017337 -0.003039 0.003790 0.000000 0.000000 0.000000
# 2 -0.003039 0.036441 0.002129 0.000000 0.000000 0.000000
# 3 0.003790 0.002129 0.032732 0.000000 0.000000 0.000000
# 4 0.000000 0.000000 0.000000 0.047950 0.000000 0.000000
# 5 0.000000 0.000000 0.000000 0.000000 -0.651873 0.000000
# 6 0.000000 0.000000 0.000000 0.000000 0.000000 0.076326
#
#
# Mechanical properties :
#
#
# Convention : Reuss Voigt Hill
#
# Bulk Modulus (GPa) = 10.83770 12.35247 11.59508
# Shear Modulus (GPa) = -12.01665 14.76248 1.37292
#
# Velocity S-wave (km/s) = -2.42096 2.68334 0.81831
# Velocity P-wave (km/s) = 1.59019 3.95287 2.55896
#
# Compressibility (1/GPa) = 0.09227047
#
# Stress axis : x y z
#
# Youngs Moduli (GPa) = 57.68053 27.44131 30.55071
#
# Poissons Ratio (x) = 0.08340 -0.11578
# Poissons Ratio (y) = 0.17529 -0.06505
# Poissons Ratio (z) = -0.21859 -0.05843
#
# Static dielectric constant tensor:
#      x y z
#    x 1.745950 0.000000 0.000000 
#    y 0.000000 1.716320 0.000000 
#    z 0.000000 0.000000 1.726860 
# 
# From -- ./inp_files/10630.got.cif
#   From: 2010.05.17/outbox.cif.g08.bks.cpg/sg39_6_cif.got.tgz:10630.got - 2010.06.03 18:22:40.
