data_PCOD9362217
_publ_section_title
;
Structure prediction by ZEFSAII (Michael W. Deem and Ramdas Pophale) SiO2 
 PCOD9362217
Probable space group: A B M 2
;
_chemical_formula_sum "Si O2"
_cell_formula_units_Z 32
_cell_length_a 24.000000
_cell_length_b 9.000000
_cell_length_c 15.000000
_cell_angle_alpha 90.000000
_cell_angle_beta 90.000000
_cell_angle_gamma 90.000000
_cell_volume 3240.000000
_symmetry_space_group_name_H-M "A B M 2"
_symmetry_group_IT_number 39
_symmetry_cell_setting 'orthorhombic'
loop_
_space_group_symop_operation_xyz
x,y,z
-x,-y,z
-x,1/2+y,z
x,1/2-y,z
x,1/2+y,1/2+z
-x,1/2-y,1/2+z
-x,y,1/2+z
x,-y,1/2+z
loop_
_atom_site_type_symbol
_atom_site_label
_atom_site_fract_x
_atom_site_fract_y
_atom_site_fract_z
Si Si1 0.149852 0.927676 0.382310
Si Si2 0.058357 0.571490 0.527720
Si Si3 0.127679 0.570186 0.692101
Si Si4 0.247982 0.421142 0.146579
Si Si5 0.264104 0.577731 0.860485
Si Si6 0.443295 0.427486 0.751380
Si Si7 0.389415 0.071914 0.413079
Si Si8 0.641562 0.927222 0.603853
O O1 0.150797 0.750000 0.376465
O O2 0.106962 0.972476 0.459283
O O3 0.129454 0.995623 0.288317
O O4 0.212560 0.985062 0.398095
O O5 0.054206 0.750000 0.524570
O O6 0.076916 0.530457 0.628001
O O7 0.000000 0.500000 0.503496
O O8 0.130077 0.750000 0.703129
O O9 0.184485 0.526726 0.639943
O O10 0.250597 0.250000 0.118249
O O11 0.259929 0.429208 0.252966
O O12 0.296567 0.509280 0.098911
O O13 0.257238 0.750000 0.886877
O O14 0.325780 0.530447 0.887882
O O15 0.500000 0.500000 0.717984
O O16 0.446913 0.250000 0.748240
O O17 0.430911 0.484839 0.850146
O O18 0.391435 0.478772 0.690818
O O19 0.395427 0.250000 0.399530
O O20 0.394244 0.036285 0.516887
O O21 0.646512 0.750000 0.607659
#
# Coordination Sequence:
#
# PCOD9362217 Si02
#       8
#     8   8   8   8   8   8   8   8
#     4  10  21  36  57  86 116 148 191 242 289 340
#     4  10  23  41  59  82 115 154 197 242 288 346
#     4   9  20  39  58  81 115 154 192 234 289 347
#     4   9  17  32  57  84 114 152 189 228 284 345
#     4   9  18  34  57  84 118 156 189 230 288 347
#     4  11  24  42  62  85 116 155 196 241 287 337
#     4  10  21  39  60  86 119 154 192 236 286 342
#     4  10  22  37  57  88 120 149 188 237 286 337
#
# _framework density 9.8765429999999999
#
# number of rings (size 3 to 8) (size 9 to 14) (size 15 to 20)
#    0.000    2.250    1.250    1.500    1.750    6.000 
#    0.000    3.750    0.000    0.000    0.000    0.000 
#    0.000    0.000    0.000    0.000    0.000    0.000 
#
# Total GULP energy -178609.444137 kJ/mol
# GULP energy per Si atom -5581.545129 kJ/mol
# Density = 0.985406 g / cm^3
# Si number density = 9.876543 Si / 1000 Ang^3
#
#
#
# Elastic Constant Matrix: (Units=GPa)
#
#
# Indices 1 2 3 4 5 6 
#
# 1 69.1451 26.3795 19.7236 0.0000 0.0000 0.0000
# 2 26.3795 20.5919 18.6743 0.0000 0.0000 0.0000
# 3 19.7236 18.6743 47.9679 0.0000 0.0000 0.0000
# 4 0.0000 0.0000 0.0000 20.9944 0.0000 0.0000
# 5 0.0000 0.0000 0.0000 0.0000 20.2803 0.0000
# 6 0.0000 0.0000 0.0000 0.0000 0.0000 30.2909
#
#
#
# Elastic Compliance Matrix: (Units=1/GPa)
#
#
# Indices 1 2 3 4 5 6 
#
# 1 0.028749 -0.040358 0.003890 0.000000 0.000000 0.000000
# 2 -0.040358 0.131717 -0.034684 0.000000 0.000000 0.000000
# 3 0.003890 -0.034684 0.032751 0.000000 0.000000 0.000000
# 4 0.000000 0.000000 0.000000 0.047632 0.000000 0.000000
# 5 0.000000 0.000000 0.000000 0.000000 0.049309 0.000000
# 6 0.000000 0.000000 0.000000 0.000000 0.000000 0.033013
#
#
# Mechanical properties :
#
#
# Convention : Reuss Voigt Hill
#
# Bulk Modulus (GPa) = 19.64094 29.69551 24.66822
# Shear Modulus (GPa) = 10.36387 19.17497 14.76942
#
# Velocity S-wave (km/s) = 2.29305 3.11904 2.73738
# Velocity P-wave (km/s) = 4.12015 5.29502 4.74409
#
# Compressibility (1/GPa) = 0.05091406
#
# Stress axis : x y z
#
# Youngs Moduli (GPa) = 34.78334 7.59202 30.53388
#
# Poissons Ratio (x) = 0.30640 -0.11878
# Poissons Ratio (y) = 1.40377 1.05904
# Poissons Ratio (z) = -0.13532 0.26332
#
# Static dielectric constant tensor:
#      x y z
#    x 1.675180 0.000000 0.000000 
#    y 0.000000 1.660880 0.000000 
#    z 0.000000 0.000000 1.710440 
# 
# From -- ./inp_files/10568.got.cif
#   From: 2010.05.17/outbox.ucp.g08.bks.cvg/sg39_6_cif.got.tgz:10568.got - 2010.06.11 10:41:16.
