data_PCOD9362243
_publ_section_title
;
Structure prediction by ZEFSAII (Michael W. Deem and Ramdas Pophale) SiO2 
 PCOD9362243
Probable space group: A M A 2
;
_chemical_formula_sum "Si O2"
_cell_formula_units_Z 48
_cell_length_a 8.500841
_cell_length_b 7.650790
_cell_length_c 33.943370
_cell_angle_alpha 90.000000
_cell_angle_beta 90.000000
_cell_angle_gamma 90.000000
_cell_volume 2207.613966
_symmetry_space_group_name_H-M "A M A 2"
_symmetry_group_IT_number 40
_symmetry_cell_setting 'orthorhombic'
loop_
_space_group_symop_operation_xyz
x,y,z
-x,-y,z
1/2-x,y,z
1/2+x,-y,z
x,1/2+y,1/2+z
-x,1/2-y,1/2+z
1/2-x,1/2+y,1/2+z
1/2+x,1/2-y,1/2+z
loop_
_atom_site_type_symbol
_atom_site_label
_atom_site_fract_x
_atom_site_fract_y
_atom_site_fract_z
Si Si1 0.936628 0.700774 0.228850
Si Si2 0.439725 0.695756 0.062817
Si Si3 0.061537 0.701006 0.395731
Si Si4 0.061067 0.201413 0.647367
Si Si5 0.438601 0.700813 0.310266
Si Si6 0.061797 0.804522 0.976361
O O1 0.750000 0.695825 0.228604
O O2 0.000000 0.500000 0.228956
O O3 0.996516 0.781313 0.187809
O O4 0.995262 0.781132 0.269999
O O5 0.500000 0.500000 0.066056
O O6 0.250000 0.703338 0.061702
O O7 0.488158 0.780497 0.104792
O O8 0.497674 0.752274 0.019759
O O9 0.250000 0.697030 0.398064
O O10 0.015068 0.777881 0.352998
O O11 0.000000 0.500000 0.394358
O O12 0.997635 0.784825 0.436088
O O13 0.250000 0.198739 0.649234
O O14 0.000000 0.000000 0.647203
O O15 0.500000 0.500000 0.310807
O O16 0.250000 0.698066 0.307898
O O17 0.250000 0.796526 0.976277
O O18 0.000000 0.000000 0.972663
#
# Coordination Sequence:
#
# PCOD9362243 Si02
#       6
#     8   8   8   8   8   8
#     4  10  16  21  31  49  73 102 135 167 204 250
#     4   9  19  32  47  66  88 116 150 185 221 262
#     4   9  16  25  38  56  78 108 142 175 213 256
#     4   9  15  25  38  53  76 105 136 171 210 251
#     4   9  15  22  32  48  72 102 136 169 204 248
#     4  10  19  31  46  66  90 117 149 183 221 263
#
# _framework density 21.742930999999999
#
# number of rings (size 3 to 8) (size 9 to 14) (size 15 to 20)
#    0.000    2.667    0.000    6.500    0.000    4.000 
#    0.000    0.000    0.000    0.000    0.000    0.000 
#    0.000    1.333    0.000   12.000    0.000   15.167 
#
# Total GULP energy -133645.288479 kJ/mol
# GULP energy per Si atom -5568.553687 kJ/mol
# Density = 2.169344 g / cm^3
# Si number density = 21.742931 Si / 1000 Ang^3
#
#
#
# Elastic Constant Matrix: (Units=GPa)
#
#
# Indices 1 2 3 4 5 6 
#
# 1 74.9964 -2.5020 64.9052 0.0000 0.0000 0.0000
# 2 -2.5020 32.2981 22.1623 0.0000 0.0000 0.0000
# 3 64.9052 22.1623 323.2897 0.0000 0.0000 0.0000
# 4 0.0000 0.0000 0.0000 9.9718 0.0000 0.0000
# 5 0.0000 0.0000 0.0000 0.0000 35.0276 0.0000
# 6 0.0000 0.0000 0.0000 0.0000 0.0000 -4.2379
#
#
#
# Elastic Compliance Matrix: (Units=1/GPa)
#
#
# Indices 1 2 3 4 5 6 
#
# 1 0.016557 0.003739 -0.003581 0.000000 0.000000 0.000000
# 2 0.003739 0.033334 -0.003036 0.000000 0.000000 0.000000
# 3 -0.003581 -0.003036 0.004020 0.000000 0.000000 0.000000
# 4 0.000000 0.000000 0.000000 0.100283 0.000000 0.000000
# 5 0.000000 0.000000 0.000000 0.000000 0.028549 0.000000
# 6 0.000000 0.000000 0.000000 0.000000 0.000000 -0.235967
#
#
# Mechanical properties :
#
#
# Convention : Reuss Voigt Hill
#
# Bulk Modulus (GPa) = 20.76490 66.63502 43.69996
# Shear Modulus (GPa) = -159.15135 31.22022 -63.96556
#
# Velocity S-wave (km/s) = -8.56480 3.79341 -5.42981
# Velocity P-wave (km/s) = 9.39344 7.06399 4.37817
#
# Compressibility (1/GPa) = 0.04815820
#
# Stress axis : x y z
#
# Youngs Moduli (GPa) = 60.39576 29.99901 248.74634
#
# Poissons Ratio (x) = -0.11218 0.89064
# Poissons Ratio (y) = -0.22585 0.75517
# Poissons Ratio (z) = 0.21625 0.09107
#
# Static dielectric constant tensor:
#      x y z
#    x 1.726810 0.000000 0.000000 
#    y 0.000000 1.899900 0.000000 
#    z 0.000000 0.000000 1.975020 
# 
# From -- ./inp_files/26257.got.cif
#   From: 2010.05.17/outbox.cif.g08.bks.cpg/sg40_14_cif.got.tgz:26257.got - 2010.06.03 18:35:42.
