data_PCOD9362448
_publ_section_title
;
Structure prediction by ZEFSAII (Michael W. Deem and Ramdas Pophale) SiO2 
 PCOD9362448
Probable space group: A M A 2
;
_chemical_formula_sum "Si O2"
_cell_formula_units_Z 64
_cell_length_a 26.324792
_cell_length_b 5.073811
_cell_length_c 22.879657
_cell_angle_alpha 90.000000
_cell_angle_beta 90.000000
_cell_angle_gamma 90.000000
_cell_volume 3055.967586
_symmetry_space_group_name_H-M "A M A 2"
_symmetry_group_IT_number 40
_symmetry_cell_setting 'orthorhombic'
loop_
_space_group_symop_operation_xyz
x,y,z
-x,-y,z
1/2-x,y,z
1/2+x,-y,z
x,1/2+y,1/2+z
-x,1/2-y,1/2+z
1/2-x,1/2+y,1/2+z
1/2+x,1/2-y,1/2+z
loop_
_atom_site_type_symbol
_atom_site_label
_atom_site_fract_x
_atom_site_fract_y
_atom_site_fract_z
Si Si1 0.873689 0.953114 0.671810
Si Si2 0.690991 0.613081 0.009072
Si Si3 0.195862 0.478484 0.361570
Si Si4 0.966543 0.761071 0.184910
Si Si5 0.695358 0.781907 0.240221
Si Si6 0.191357 0.390464 0.590446
Si Si7 0.403275 0.902822 0.274072
Si Si8 0.360006 0.471412 0.892425
O O1 0.852216 0.706119 0.635698
O O2 0.898428 0.858555 0.734165
O O3 0.918297 0.144735 0.648957
O O4 0.823809 0.126271 0.684126
O O5 0.750000 0.654281 0.987490
O O6 0.690598 0.334602 0.041087
O O7 0.681454 0.838340 0.056852
O O8 0.646452 0.606116 0.960242
O O9 0.250000 0.401338 0.388105
O O10 0.197953 0.423274 0.293152
O O11 0.153514 0.279943 0.386530
O O12 0.185150 0.783567 0.369120
O O13 0.944220 0.907715 0.242904
O O14 0.000000 0.500000 0.196000
O O15 0.000000 0.000000 0.157156
O O16 0.750000 0.908183 0.234217
O O17 0.651033 0.970945 0.259600
O O18 0.250000 0.395160 0.613428
O O19 0.404150 0.896915 0.345009
#
# Coordination Sequence:
#
# PCOD9362448 Si02
#       8
#     8   8   8   8   8   8   8   8
#     4  11  21  38  59  86 123 152 205 245 307 368
#     4  10  21  37  53  76 116 171 220 244 275 328
#     4  10  18  28  45  72 106 149 193 237 286 320
#     4  11  23  41  64  90 124 151 187 248 327 403
#     4   9  19  30  46  80 122 161 191 229 286 349
#     4  10  23  38  55  81 121 171 211 244 285 343
#     4  10  22  36  58  91 122 153 200 245 310 368
#     4  11  20  34  53  78 114 152 202 253 280 335
#
# _framework density 20.942629
#
# number of rings (size 3 to 8) (size 9 to 14) (size 15 to 20)
#    0.000    1.750    2.500    2.250    3.500    3.000 
#    0.000    0.000    0.000    0.000    0.000    0.875 
#    7.500    0.000    0.000    0.000    0.000    0.000 
#
# Total GULP energy -178193.336496 kJ/mol
# GULP energy per Si atom -5568.541765 kJ/mol
# Density = 2.089496 g / cm^3
# Si number density = 20.942629 Si / 1000 Ang^3
#
#
#
# Elastic Constant Matrix: (Units=GPa)
#
#
# Indices 1 2 3 4 5 6 
#
# 1 75.5623 11.4524 5.6880 0.0000 0.0000 0.0000
# 2 11.4524 66.4909 10.7368 0.0000 0.0000 0.0000
# 3 5.6880 10.7368 85.8387 0.0000 0.0000 0.0000
# 4 0.0000 0.0000 0.0000 33.2308 0.0000 0.0000
# 5 0.0000 0.0000 0.0000 0.0000 13.1963 0.0000
# 6 0.0000 0.0000 0.0000 0.0000 0.0000 27.5308
#
#
#
# Elastic Compliance Matrix: (Units=1/GPa)
#
#
# Indices 1 2 3 4 5 6 
#
# 1 0.013621 -0.002246 -0.000622 0.000000 0.000000 0.000000
# 2 -0.002246 0.015720 -0.001817 0.000000 0.000000 0.000000
# 3 -0.000622 -0.001817 0.011918 0.000000 0.000000 0.000000
# 4 0.000000 0.000000 0.000000 0.030093 0.000000 0.000000
# 5 0.000000 0.000000 0.000000 0.000000 0.075779 0.000000
# 6 0.000000 0.000000 0.000000 0.000000 0.000000 0.036323
#
#
# Mechanical properties :
#
#
# Convention : Reuss Voigt Hill
#
# Bulk Modulus (GPa) = 31.35808 31.51626 31.43717
# Shear Modulus (GPa) = 24.57563 28.12589 26.35076
#
# Velocity S-wave (km/s) = 3.42932 3.66867 3.55101
# Velocity P-wave (km/s) = 5.53951 5.74691 5.64416
#
# Compressibility (1/GPa) = 0.03188970
#
# Stress axis : x y z
#
# Youngs Moduli (GPa) = 73.41452 63.61348 83.90467
#
# Poissons Ratio (x) = 0.14286 0.05216
# Poissons Ratio (y) = 0.16487 0.15249
# Poissons Ratio (z) = 0.04564 0.11562
#
# Static dielectric constant tensor:
#      x y z
#    x 1.811050 0.000000 0.000000 
#    y 0.000000 1.790570 0.000000 
#    z 0.000000 0.000000 1.880530 
# 
# From -- ./inp_files/25037.got.cif
#   From: 2010.05.17/outbox.cif.g08.bks.cpg/sg40_13_cif.got.tgz:25037.got - 2010.06.03 18:35:42.
