data_PCOD9362053
_publ_section_title
;
Structure prediction by ZEFSAII (Michael W. Deem and Ramdas Pophale) SiO2 
 PCOD9362053
Probable space group: A B M 2
;
_chemical_formula_sum "Si O2"
_cell_formula_units_Z 40
_cell_length_a 4.942389
_cell_length_b 27.710696
_cell_length_c 13.064177
_cell_angle_alpha 90.000000
_cell_angle_beta 90.000000
_cell_angle_gamma 90.000000
_cell_volume 1789.231000
_symmetry_space_group_name_H-M "A B M 2"
_symmetry_group_IT_number 39
_symmetry_cell_setting 'orthorhombic'
loop_
_space_group_symop_operation_xyz
x,y,z
-x,-y,z
-x,1/2+y,z
x,1/2-y,z
x,1/2+y,1/2+z
-x,1/2-y,1/2+z
-x,y,1/2+z
x,-y,1/2+z
loop_
_atom_site_type_symbol
_atom_site_label
_atom_site_fract_x
_atom_site_fract_y
_atom_site_fract_z
Si Si1 0.747131 0.466503 0.462690
Si Si2 0.408331 0.698149 0.578685
Si Si3 0.402263 0.750000 0.379988
Si Si4 0.995456 0.058317 0.765056
Si Si5 0.497818 0.406745 0.648601
Si Si6 0.911682 0.750000 0.230558
O O1 0.500000 0.500000 0.420825
O O2 0.875025 0.431981 0.376325
O O3 0.620130 0.437898 0.556257
O O4 0.000000 0.500000 0.495098
O O5 0.560327 0.750000 0.597533
O O6 0.360841 0.704563 0.457496
O O7 0.526532 0.648195 0.612658
O O8 0.149041 0.705744 0.652918
O O9 0.685718 0.750000 0.321170
O O10 0.182848 0.750000 0.292430
O O11 0.204904 0.075950 0.680869
O O12 0.707736 0.082357 0.741337
O O13 0.000000 0.000000 0.761008
#
# Coordination Sequence:
#
# PCOD9362053 Si02
#       6
#     8   8   4   8   8   4
#     4  11  23  40  62  91 124 161 206 254 313 378
#     4   8  24  41  61  98 124 162 220 253 306 380
#     4   9  20  41  62  82 122 165 202 257 314 352
#     4  11  24  41  64  92 127 163 209 256 318 376
#     4  12  23  41  64  95 125 167 207 260 312 373
#     4   9  20  39  62  82 120 167 202 255 314 354
#
# _framework density 22.355974
#
# number of rings (size 3 to 8) (size 9 to 14) (size 15 to 20)
#    1.200    0.400    0.000    6.000    0.000    9.600 
#    0.000    0.000    0.000    0.000    0.000    0.000 
#    0.000    0.000    0.000    0.000    0.000    0.000 
#
# Total GULP energy -111576.054418 kJ/mol
# GULP energy per Si atom -5578.802721 kJ/mol
# Density = 2.230509 g / cm^3
# Si number density = 22.355974 Si / 1000 Ang^3
#
#
#
# Elastic Constant Matrix: (Units=GPa)
#
#
# Indices 1 2 3 4 5 6 
#
# 1 84.4736 14.6260 5.5394 0.0000 0.0000 0.0000
# 2 14.6260 56.5502 -12.3506 0.0000 0.0000 0.0000
# 3 5.5394 -12.3506 76.7155 0.0000 0.0000 0.0000
# 4 0.0000 0.0000 0.0000 -6.8144 0.0000 0.0000
# 5 0.0000 0.0000 0.0000 0.0000 20.8248 0.0000
# 6 0.0000 0.0000 0.0000 0.0000 0.0000 15.7902
#
#
#
# Elastic Compliance Matrix: (Units=1/GPa)
#
#
# Indices 1 2 3 4 5 6 
#
# 1 0.012553 -0.003570 -0.001481 0.000000 0.000000 0.000000
# 2 -0.003570 0.019343 0.003372 0.000000 0.000000 0.000000
# 3 -0.001481 0.003372 0.013685 0.000000 0.000000 0.000000
# 4 0.000000 0.000000 0.000000 -0.146748 0.000000 0.000000
# 5 0.000000 0.000000 0.000000 0.000000 0.048020 0.000000
# 6 0.000000 0.000000 0.000000 0.000000 0.000000 0.063330
#
#
# Mechanical properties :
#
#
# Convention : Reuss Voigt Hill
#
# Bulk Modulus (GPa) = 23.68411 25.92987 24.80699
# Shear Modulus (GPa) = 181.05214 19.95511 100.50362
#
# Velocity S-wave (km/s) = 9.00899 2.99089 6.71220
# Velocity P-wave (km/s) = 10.90105 4.85295 8.43753
#
# Compressibility (1/GPa) = 0.04222240
#
# Stress axis : x y z
#
# Youngs Moduli (GPa) = 79.66018 51.69764 73.07282
#
# Poissons Ratio (x) = 0.18457 0.10824
# Poissons Ratio (y) = 0.28441 -0.24640
# Poissons Ratio (z) = 0.11799 -0.17432
#
# Static dielectric constant tensor:
#      x y z
#    x 1.828880 0.000000 0.000000 
#    y 0.000000 1.761570 0.000000 
#    z 0.000000 0.000000 1.904880 
# 
# From -- ./inp_files/4618.got.cif
#   From: 2010.05.17/outbox.cif.g08.bks.cpg/sg39_3_cif.got.tgz:4618.got - 2010.06.03 18:22:40.
