data_PCOD9362968
_publ_section_title
;
Structure prediction by ZEFSAII (Michael W. Deem and Ramdas Pophale) SiO2 
 PCOD9362968
Probable space group: A M A 2
;
_chemical_formula_sum "Si O2"
_cell_formula_units_Z 64
_cell_length_a 8.902050
_cell_length_b 16.642773
_cell_length_c 22.867113
_cell_angle_alpha 90.000000
_cell_angle_beta 90.000000
_cell_angle_gamma 90.000000
_cell_volume 3387.872493
_symmetry_space_group_name_H-M "A M A 2"
_symmetry_group_IT_number 40
_symmetry_cell_setting 'orthorhombic'
loop_
_space_group_symop_operation_xyz
x,y,z
-x,-y,z
1/2-x,y,z
1/2+x,-y,z
x,1/2+y,1/2+z
-x,1/2-y,1/2+z
1/2-x,1/2+y,1/2+z
1/2+x,1/2-y,1/2+z
loop_
_atom_site_type_symbol
_atom_site_label
_atom_site_fract_x
_atom_site_fract_y
_atom_site_fract_z
Si Si1 0.580613 0.798092 0.034720
Si Si2 0.571611 0.919913 0.445189
Si Si3 0.925600 0.578936 0.613804
Si Si4 0.430428 0.254556 0.908044
Si Si5 0.931363 0.266907 0.279638
Si Si6 0.932083 0.415064 0.195911
Si Si7 0.931825 0.084853 0.249371
Si Si8 0.077473 0.387510 0.069226
O O1 0.750000 0.831694 0.038490
O O2 0.469639 0.846663 0.074841
O O3 0.585842 0.707865 0.059002
O O4 0.533714 0.793875 0.966961
O O5 0.750000 0.923235 0.443711
O O6 0.510517 0.840341 0.413927
O O7 0.512754 0.915780 0.512173
O O8 0.500000 0.000000 0.418614
O O9 0.750000 0.567762 0.616007
O O10 0.976411 0.588630 0.680777
O O11 0.000000 0.500000 0.588007
O O12 0.250000 0.269030 0.909646
O O13 0.467882 0.212720 0.846940
O O14 0.750000 0.264458 0.273610
O O15 0.979976 0.336561 0.234334
O O16 0.980452 0.173451 0.271827
O O17 0.750000 0.418890 0.195381
O O18 0.000000 0.500000 0.218227
O O19 0.995291 0.405334 0.129981
O O20 0.750000 0.080119 0.255202
O O21 0.000000 0.000000 0.272047
O O22 0.250000 0.418771 0.069474
#
# Coordination Sequence:
#
# PCOD9362968 Si02
#       8
#     8   8   8   8   8   8   8   8
#     4   9  18  32  52  76 103 134 170 212 264 318
#     4  11  21  34  53  79 110 142 175 216 265 323
#     4  10  19  31  50  75 105 135 168 211 261 316
#     4   9  19  37  56  75 102 139 180 221 265 319
#     4   9  19  37  59  78 106 147 186 222 268 323
#     4  11  22  37  57  82 110 145 187 232 279 329
#     4   9  18  33  53  80 108 138 173 211 258 316
#     4  10  20  35  55  81 111 142 174 217 271 330
#
# _framework density 18.890912
#
# number of rings (size 3 to 8) (size 9 to 14) (size 15 to 20)
#    0.000    2.250    0.000    4.125    0.000    4.500 
#    0.000    5.000    0.000    1.500    0.000    0.000 
#    0.000    0.000    0.000    0.000    0.000    0.000 
#
# Total GULP energy -178439.821251 kJ/mol
# GULP energy per Si atom -5576.244414 kJ/mol
# Density = 1.884792 g / cm^3
# Si number density = 18.890912 Si / 1000 Ang^3
#
#
#
# Elastic Constant Matrix: (Units=GPa)
#
#
# Indices 1 2 3 4 5 6 
#
# 1 40.5221 12.1629 23.2506 0.0000 0.0000 0.0000
# 2 12.1629 72.4276 36.7992 0.0000 0.0000 0.0000
# 3 23.2506 36.7992 88.4459 0.0000 0.0000 0.0000
# 4 0.0000 0.0000 0.0000 10.6611 0.0000 0.0000
# 5 0.0000 0.0000 0.0000 0.0000 15.5420 0.0000
# 6 0.0000 0.0000 0.0000 0.0000 0.0000 31.7856
#
#
#
# Elastic Compliance Matrix: (Units=1/GPa)
#
#
# Indices 1 2 3 4 5 6 
#
# 1 0.029153 -0.001271 -0.007135 0.000000 0.000000 0.000000
# 2 -0.001271 0.017563 -0.006974 0.000000 0.000000 0.000000
# 3 -0.007135 -0.006974 0.016083 0.000000 0.000000 0.000000
# 4 0.000000 0.000000 0.000000 0.093799 0.000000 0.000000
# 5 0.000000 0.000000 0.000000 0.000000 0.064342 0.000000
# 6 0.000000 0.000000 0.000000 0.000000 0.000000 0.031461
#
#
# Mechanical properties :
#
#
# Convention : Reuss Voigt Hill
#
# Bulk Modulus (GPa) = 31.20932 38.42455 34.81694
# Shear Modulus (GPa) = 17.01604 20.20993 18.61298
#
# Velocity S-wave (km/s) = 3.00451 3.27436 3.14233
# Velocity P-wave (km/s) = 5.34722 5.88894 5.62461
#
# Compressibility (1/GPa) = 0.03204171
#
# Stress axis : x y z
#
# Youngs Moduli (GPa) = 34.30149 56.93664 62.17567
#
# Poissons Ratio (x) = 0.07234 0.44363
# Poissons Ratio (y) = 0.04358 0.43358
# Poissons Ratio (z) = 0.24475 0.39705
#
# Static dielectric constant tensor:
#      x y z
#    x 1.656120 0.000000 0.000000 
#    y 0.000000 1.684270 0.000000 
#    z 0.000000 0.000000 1.659020 
# 
# From -- ./inp_files/24222.got.cif
#   From: 2010.05.17/outbox.cif.g08.bks.cpg/sg40_13_cif.got.tgz:24222.got - 2010.06.03 18:35:42.
