data_PCOD9362295
_publ_section_title
;
Structure prediction by ZEFSAII (Michael W. Deem and Ramdas Pophale) SiO2 
 PCOD9362295
Probable space group: A M A 2
;
_chemical_formula_sum "Si O2"
_cell_formula_units_Z 56
_cell_length_a 9.084022
_cell_length_b 23.068574
_cell_length_c 18.004646
_cell_angle_alpha 90.000000
_cell_angle_beta 90.000000
_cell_angle_gamma 90.000000
_cell_volume 3772.971402
_symmetry_space_group_name_H-M "A M A 2"
_symmetry_group_IT_number 40
_symmetry_cell_setting 'orthorhombic'
loop_
_space_group_symop_operation_xyz
x,y,z
-x,-y,z
1/2-x,y,z
1/2+x,-y,z
x,1/2+y,1/2+z
-x,1/2-y,1/2+z
1/2-x,1/2+y,1/2+z
1/2+x,1/2-y,1/2+z
loop_
_atom_site_type_symbol
_atom_site_label
_atom_site_fract_x
_atom_site_fract_y
_atom_site_fract_z
Si Si1 0.573159 0.562433 0.295280
Si Si2 0.427434 0.344927 0.419555
Si Si3 0.425770 0.350101 0.165245
Si Si4 0.918960 0.183712 0.079597
Si Si5 0.919662 0.316701 0.019726
Si Si6 0.924158 0.780832 0.222521
Si Si7 0.925756 0.723042 0.876389
O O1 0.500000 0.500000 0.296202
O O2 0.750000 0.556514 0.293660
O O3 0.536084 0.601004 0.367549
O O4 0.530021 0.600359 0.223219
O O5 0.250000 0.334135 0.414122
O O6 0.461637 0.352951 0.506803
O O7 0.510219 0.287755 0.390761
O O8 0.250000 0.353232 0.153009
O O9 0.508479 0.352326 0.086869
O O10 0.453805 0.287005 0.202435
O O11 0.750000 0.170735 0.100320
O O12 0.922003 0.249932 0.048879
O O13 0.021837 0.182997 0.151192
O O14 0.750000 0.332488 0.006935
O O15 0.010799 0.315670 0.943664
O O16 0.750000 0.786812 0.234362
O O17 0.012322 0.795879 0.296682
O O18 0.750000 0.723959 0.877723
#
# Coordination Sequence:
#
# PCOD9362295 Si02
#       7
#     8   8   8   8   8   8   8
#     4  10  20  33  47  65  88 117 153 192 228 261
#     4   9  17  32  46  58  83 116 147 184 226 259
#     4   9  17  30  45  59  83 115 148 185 224 259
#     4   8  15  26  41  60  81 108 143 177 213 260
#     4   9  17  28  42  60  84 112 144 177 217 264
#     4  10  17  27  42  60  87 117 144 175 217 261
#     4  11  19  26  41  64  88 114 148 179 212 261
#
# _framework density 14.842413000000001
#
# number of rings (size 3 to 8) (size 9 to 14) (size 15 to 20)
#    0.000    2.571    1.429    3.000    0.000    5.143 
#    0.000    0.000    0.000    0.000    0.000    0.000 
#    0.000    1.143    0.000    7.143    0.000    4.857 
#
# Total GULP energy -156007.317043 kJ/mol
# GULP energy per Si atom -5571.689894 kJ/mol
# Density = 1.480863 g / cm^3
# Si number density = 14.842413 Si / 1000 Ang^3
#
#
#
# Elastic Constant Matrix: (Units=GPa)
#
#
# Indices 1 2 3 4 5 6 
#
# 1 68.2438 23.3988 71.5930 0.0000 0.0000 0.0000
# 2 23.3988 52.6418 48.5583 0.0000 0.0000 0.0000
# 3 71.5930 48.5583 148.8292 0.0000 0.0000 0.0000
# 4 0.0000 0.0000 0.0000 12.7508 0.0000 0.0000
# 5 0.0000 0.0000 0.0000 0.0000 28.2043 0.0000
# 6 0.0000 0.0000 0.0000 0.0000 0.0000 16.2684
#
#
#
# Elastic Compliance Matrix: (Units=1/GPa)
#
#
# Indices 1 2 3 4 5 6 
#
# 1 0.029582 -0.000032 -0.014220 0.000000 0.000000 0.000000
# 2 -0.000032 0.027175 -0.008851 0.000000 0.000000 0.000000
# 3 -0.014220 -0.008851 0.016447 0.000000 0.000000 0.000000
# 4 0.000000 0.000000 0.000000 0.078426 0.000000 0.000000
# 5 0.000000 0.000000 0.000000 0.000000 0.035456 0.000000
# 6 0.000000 0.000000 0.000000 0.000000 0.000000 0.061469
#
#
# Mechanical properties :
#
#
# Convention : Reuss Voigt Hill
#
# Bulk Modulus (GPa) = 37.03913 61.86832 49.45372
# Shear Modulus (GPa) = 16.46041 19.85568 18.15804
#
# Velocity S-wave (km/s) = 3.33380 3.66152 3.50149
# Velocity P-wave (km/s) = 6.31094 7.72331 7.05257
#
# Compressibility (1/GPa) = 0.02699848
#
# Stress axis : x y z
#
# Youngs Moduli (GPa) = 33.80455 36.79871 60.80125
#
# Poissons Ratio (x) = 0.00119 0.86457
# Poissons Ratio (y) = 0.00109 0.53814
# Poissons Ratio (z) = 0.48069 0.32570
#
# Static dielectric constant tensor:
#      x y z
#    x 1.495400 0.000000 0.000000 
#    y 0.000000 1.454430 0.000000 
#    z 0.000000 0.000000 1.514300 
# 
# From -- ./inp_files/19461.got.cif
#   From: 2010.05.17/outbox.cif.g08.bks.cpg/sg40_10_cif.got.tgz:19461.got - 2010.06.03 18:35:42.
