data_PCOD9362072
_publ_section_title
;
Structure prediction by ZEFSAII (Michael W. Deem and Ramdas Pophale) SiO2 
 PCOD9362072
Probable space group: A B M 2
;
_chemical_formula_sum "Si O2"
_cell_formula_units_Z 40
_cell_length_a 8.321846
_cell_length_b 25.038312
_cell_length_c 8.601855
_cell_angle_alpha 90.000000
_cell_angle_beta 90.000000
_cell_angle_gamma 90.000000
_cell_volume 1792.325315
_symmetry_space_group_name_H-M "A B M 2"
_symmetry_group_IT_number 39
_symmetry_cell_setting 'orthorhombic'
loop_
_space_group_symop_operation_xyz
x,y,z
-x,-y,z
-x,1/2+y,z
x,1/2-y,z
x,1/2+y,1/2+z
-x,1/2-y,1/2+z
-x,y,1/2+z
x,-y,1/2+z
loop_
_atom_site_type_symbol
_atom_site_label
_atom_site_fract_x
_atom_site_fract_y
_atom_site_fract_z
Si Si1 0.763408 0.148515 0.495040
Si Si2 0.834351 0.029255 0.815759
Si Si3 0.394310 0.750000 0.334776
Si Si4 0.102972 0.646119 0.846152
Si Si5 0.733253 0.750000 0.479833
Si Si6 0.358086 0.962174 0.526873
O O1 0.675761 0.199523 0.426300
O O2 0.842910 0.155880 0.666710
O O3 0.630268 0.101095 0.503246
O O4 0.913048 0.138029 0.377770
O O5 0.823750 0.088124 0.889679
O O6 0.800159 0.035612 0.634534
O O7 0.000000 0.000000 0.842536
O O8 0.694548 0.991218 0.872085
O O9 0.585642 0.750000 0.357906
O O10 0.336533 0.750000 0.155372
O O11 0.163881 0.696565 0.945450
O O12 0.500000 0.000000 0.586526
#
# Coordination Sequence:
#
# PCOD9362072 Si02
#       6
#     8   8   4   8   4   8
#     4  11  24  45  70 104 142 185 244 290 360 426
#     4  11  23  43  69 101 141 185 240 289 352 428
#     4  12  27  48  71 104 142 186 230 298 361 434
#     4  11  24  43  71 103 136 189 235 300 347 425
#     4  12  27  48  73 102 144 184 236 296 361 428
#     4  11  25  42  67 103 144 187 232 296 356 428
#
# _framework density 22.317378000000001
#
# number of rings (size 3 to 8) (size 9 to 14) (size 15 to 20)
#    0.000    0.800    2.000    4.800    5.600    1.600 
#    0.000    0.000    0.000    0.000    0.000    0.000 
#    0.000    0.000    0.000    0.000    0.000    0.000 
#
# Total GULP energy -111639.530963 kJ/mol
# GULP energy per Si atom -5581.976548 kJ/mol
# Density = 2.226658 g / cm^3
# Si number density = 22.317378 Si / 1000 Ang^3
#
#
#
# Elastic Constant Matrix: (Units=GPa)
#
#
# Indices 1 2 3 4 5 6 
#
# 1 81.5241 45.8474 17.6293 0.0000 0.0000 0.0000
# 2 45.8474 175.5381 62.2100 0.0000 0.0000 0.0000
# 3 17.6293 62.2100 61.2588 0.0000 0.0000 0.0000
# 4 0.0000 0.0000 0.0000 16.4495 0.0000 0.0000
# 5 0.0000 0.0000 0.0000 0.0000 25.2830 0.0000
# 6 0.0000 0.0000 0.0000 0.0000 0.0000 32.6531
#
#
#
# Elastic Compliance Matrix: (Units=1/GPa)
#
#
# Indices 1 2 3 4 5 6 
#
# 1 0.014388 -0.003578 -0.000507 0.000000 0.000000 0.000000
# 2 -0.003578 0.009790 -0.008912 0.000000 0.000000 0.000000
# 3 -0.000507 -0.008912 0.025520 0.000000 0.000000 0.000000
# 4 0.000000 0.000000 0.000000 0.060792 0.000000 0.000000
# 5 0.000000 0.000000 0.000000 0.000000 0.039552 0.000000
# 6 0.000000 0.000000 0.000000 0.000000 0.000000 0.030625
#
#
# Mechanical properties :
#
#
# Convention : Reuss Voigt Hill
#
# Bulk Modulus (GPa) = 42.18664 63.29937 52.74301
# Shear Modulus (GPa) = 23.30313 27.71939 25.51126
#
# Velocity S-wave (km/s) = 3.23487 3.52810 3.38466
# Velocity P-wave (km/s) = 5.73555 6.70981 6.24172
#
# Compressibility (1/GPa) = 0.02370419
#
# Stress axis : x y z
#
# Youngs Moduli (GPa) = 69.50090 102.14782 39.18438
#
# Poissons Ratio (x) = 0.36552 0.01986
# Poissons Ratio (y) = 0.24870 0.34921
# Poissons Ratio (z) = 0.03522 0.91034
#
# Static dielectric constant tensor:
#      x y z
#    x 1.836840 0.000000 0.000000 
#    y 0.000000 1.862540 0.000000 
#    z 0.000000 0.000000 1.804110 
# 
# From -- ./inp_files/2127.got.cif
#   From: 2010.05.17/outbox.cif.g08.bks.cpg/sg39_2_cif.got.tgz:2127.got - 2010.06.03 18:22:40.
