data_PCOD9362079
_publ_section_title
;
Structure prediction by ZEFSAII (Michael W. Deem and Ramdas Pophale) SiO2 
 PCOD9362079
Probable space group: A B M 2
;
_chemical_formula_sum "Si O2"
_cell_formula_units_Z 28
_cell_length_a 7.527940
_cell_length_b 8.122549
_cell_length_c 19.334672
_cell_angle_alpha 90.000000
_cell_angle_beta 90.000000
_cell_angle_gamma 90.000000
_cell_volume 1182.239044
_symmetry_space_group_name_H-M "A B M 2"
_symmetry_group_IT_number 39
_symmetry_cell_setting 'orthorhombic'
loop_
_space_group_symop_operation_xyz
x,y,z
-x,-y,z
-x,1/2+y,z
x,1/2-y,z
x,1/2+y,1/2+z
-x,1/2-y,1/2+z
-x,y,1/2+z
x,-y,1/2+z
loop_
_atom_site_type_symbol
_atom_site_label
_atom_site_fract_x
_atom_site_fract_y
_atom_site_fract_z
Si Si1 0.183531 0.062810 0.029270
Si Si2 0.704664 0.949218 0.880867
Si Si3 0.196362 0.944699 0.731158
Si Si4 0.500000 0.000000 0.635877
O O1 0.147933 0.250000 0.013253
O O2 0.353193 0.059837 0.079490
O O3 0.221641 0.984909 0.954253
O O4 0.000000 0.000000 0.060394
O O5 0.719700 0.750000 0.876202
O O6 0.500000 0.000000 0.879644
O O7 0.789883 0.028224 0.813143
O O8 0.228000 0.750000 0.714825
O O9 0.349013 0.051164 0.692625
O O10 0.000000 0.000000 0.710761
#
# Coordination Sequence:
#
# PCOD9362079 Si02
#       4
#     8   8   8   4
#     4  11  26  46  72 105 140 186 234 288 350 416
#     4  11  23  44  74 105 139 183 234 291 352 414
#     4  12  27  46  73 105 142 188 236 290 351 416
#     4  12  26  46  68 102 142 188 234 288 346 418
#
# _framework density 23.683871
#
# number of rings (size 3 to 8) (size 9 to 14) (size 15 to 20)
#    0.000    0.571    2.857    4.286    0.000   10.286 
#    0.000    0.000    0.000    0.000    0.000    0.000 
#    0.000    0.000    0.000    0.000    0.000    0.000 
#
# Total GULP energy -77986.790460 kJ/mol
# GULP energy per Si atom -5570.485033 kJ/mol
# Density = 2.362997 g / cm^3
# Si number density = 23.683871 Si / 1000 Ang^3
#
#
#
# Elastic Constant Matrix: (Units=GPa)
#
#
# Indices 1 2 3 4 5 6 
#
# 1 203.7814 27.5105 52.3401 0.0000 0.0000 0.0000
# 2 27.5105 68.8135 21.1722 0.0000 0.0000 0.0000
# 3 52.3401 21.1722 194.2249 0.0000 0.0000 0.0000
# 4 0.0000 0.0000 0.0000 -194.4994 0.0000 0.0000
# 5 0.0000 0.0000 0.0000 0.0000 -4.2586 0.0000
# 6 0.0000 0.0000 0.0000 0.0000 0.0000 14.2845
#
#
#
# Elastic Compliance Matrix: (Units=1/GPa)
#
#
# Indices 1 2 3 4 5 6 
#
# 1 0.005479 -0.001796 -0.001281 0.000000 0.000000 0.000000
# 2 -0.001796 0.015625 -0.001219 0.000000 0.000000 0.000000
# 3 -0.001281 -0.001219 0.005627 0.000000 0.000000 0.000000
# 4 0.000000 0.000000 0.000000 -0.005141 0.000000 0.000000
# 5 0.000000 0.000000 0.000000 0.000000 -0.234820 0.000000
# 6 0.000000 0.000000 0.000000 0.000000 0.000000 0.070006
#
#
# Mechanical properties :
#
#
# Convention : Reuss Voigt Hill
#
# Bulk Modulus (GPa) = 55.13159 74.31837 64.72498
# Shear Modulus (GPa) = -38.88414 -12.50823 -25.69618
#
# Velocity S-wave (km/s) = -4.05631 -2.30061 -3.29745
# Velocity P-wave (km/s) = 1.17919 4.93866 3.59032
#
# Compressibility (1/GPa) = 0.01813842
#
# Stress axis : x y z
#
# Youngs Moduli (GPa) = 182.52755 63.99888 177.72494
#
# Poissons Ratio (x) = 0.11496 0.22759
# Poissons Ratio (y) = 0.32787 0.21669
# Poissons Ratio (z) = 0.23374 0.07803
#
# Static dielectric constant tensor:
#      x y z
#    x 1.809660 0.000000 0.000000 
#    y 0.000000 1.929780 0.000000 
#    z 0.000000 0.000000 1.936780 
# 
# From -- ./inp_files/13733.got.cif
#   From: 2010.05.17/outbox.cif.g08.bks.cpg/sg39_7_cif.got.tgz:13733.got - 2010.06.03 18:22:40.
