data_PCOD9362970
_publ_section_title
;
Structure prediction by ZEFSAII (Michael W. Deem and Ramdas Pophale) SiO2 
 PCOD9362970
Probable space group: A M A 2
;
_chemical_formula_sum "Si O2"
_cell_formula_units_Z 64
_cell_length_a 17.884251
_cell_length_b 19.443535
_cell_length_c 6.894424
_cell_angle_alpha 90.000000
_cell_angle_beta 90.000000
_cell_angle_gamma 90.000000
_cell_volume 2397.419156
_symmetry_space_group_name_H-M "A M A 2"
_symmetry_group_IT_number 40
_symmetry_cell_setting 'orthorhombic'
loop_
_space_group_symop_operation_xyz
x,y,z
-x,-y,z
1/2-x,y,z
1/2+x,-y,z
x,1/2+y,1/2+z
-x,1/2-y,1/2+z
1/2-x,1/2+y,1/2+z
1/2+x,1/2-y,1/2+z
loop_
_atom_site_type_symbol
_atom_site_label
_atom_site_fract_x
_atom_site_fract_y
_atom_site_fract_z
Si Si1 0.663971 0.555539 0.402450
Si Si2 0.455643 0.192613 0.072142
Si Si3 0.337099 0.917951 0.367416
Si Si4 0.159343 0.566885 0.905958
Si Si5 0.664788 0.710584 0.348474
Si Si6 0.162783 0.766317 0.314648
Si Si7 0.438174 0.052167 0.029970
Si Si8 0.560882 0.313432 0.951065
O O1 0.750000 0.536189 0.357435
O O2 0.661320 0.570733 0.634670
O O3 0.649334 0.630970 0.313808
O O4 0.606321 0.494337 0.375204
O O5 0.388231 0.212263 0.920038
O O6 0.476581 0.120747 0.951005
O O7 0.512268 0.258149 0.058864
O O8 0.486743 0.154331 0.278252
O O9 0.250000 0.917484 0.421665
O O10 0.359677 0.840155 0.402273
O O11 0.365101 0.989139 0.457828
O O12 0.250000 0.573651 0.910827
O O13 0.127222 0.574732 0.684460
O O14 0.118162 0.628735 0.019400
O O15 0.750000 0.725022 0.292309
O O16 0.658463 0.727638 0.579825
O O17 0.606355 0.768299 0.276074
O O18 0.250000 0.753522 0.353295
O O19 0.500000 0.000000 0.114788
#
# Coordination Sequence:
#
# PCOD9362970 Si02
#       8
#     8   8   8   8   8   8   8   8
#     4   8  14  27  50  77 103 135 178 224 266 318
#     4  11  24  36  53  78 108 145 185 228 278 335
#     4   7  12  26  49  76 103 129 166 216 263 306
#     4   9  18  32  54  83 109 137 181 236 281 325
#     4   9  17  32  57  83 108 141 177 217 274 337
#     4   9  18  34  57  84 113 144 179 222 272 329
#     4  10  19  31  50  77 107 139 179 235 286 322
#     4  11  22  36  52  76 111 146 183 230 280 334
#
# _framework density 26.695374999999999
#
# number of rings (size 3 to 8) (size 9 to 14) (size 15 to 20)
#    0.000    2.750    0.000    4.500    0.000    8.000 
#    0.000    0.000    0.000    7.500    0.000    4.375 
#    0.000    0.000    0.000    0.000    0.000    0.000 
#
# Total GULP energy -178248.701866 kJ/mol
# GULP energy per Si atom -5570.271933 kJ/mol
# Density = 2.663462 g / cm^3
# Si number density = 26.695375 Si / 1000 Ang^3
#
#
#
# Elastic Constant Matrix: (Units=GPa)
#
#
# Indices 1 2 3 4 5 6 
#
# 1 141.4769 44.2559 10.8353 0.0000 0.0000 0.0000
# 2 44.2559 171.6669 -4.3641 0.0000 0.0000 0.0000
# 3 10.8353 -4.3641 107.7714 0.0000 0.0000 0.0000
# 4 0.0000 0.0000 0.0000 15.4017 0.0000 0.0000
# 5 0.0000 0.0000 0.0000 0.0000 16.7572 0.0000
# 6 0.0000 0.0000 0.0000 0.0000 0.0000 58.1254
#
#
#
# Elastic Compliance Matrix: (Units=1/GPa)
#
#
# Indices 1 2 3 4 5 6 
#
# 1 0.007768 -0.002024 -0.000863 0.000000 0.000000 0.000000
# 2 -0.002024 0.006359 0.000461 0.000000 0.000000 0.000000
# 3 -0.000863 0.000461 0.009384 0.000000 0.000000 0.000000
# 4 0.000000 0.000000 0.000000 0.064928 0.000000 0.000000
# 5 0.000000 0.000000 0.000000 0.000000 0.059676 0.000000
# 6 0.000000 0.000000 0.000000 0.000000 0.000000 0.017204
#
#
# Mechanical properties :
#
#
# Convention : Reuss Voigt Hill
#
# Bulk Modulus (GPa) = 53.59588 58.04103 55.81845
# Shear Modulus (GPa) = 28.34616 42.73607 35.54111
#
# Velocity S-wave (km/s) = 3.26212 4.00544 3.65274
# Velocity P-wave (km/s) = 5.85739 6.57119 6.22453
#
# Compressibility (1/GPa) = 0.01865815
#
# Stress axis : x y z
#
# Youngs Moduli (GPa) = 128.73900 157.26087 106.56059
#
# Poissons Ratio (x) = 0.31837 0.09195
# Poissons Ratio (y) = 0.26063 -0.04913
# Poissons Ratio (z) = 0.11109 -0.07250
#
# Static dielectric constant tensor:
#      x y z
#    x 2.226680 0.000000 0.000000 
#    y 0.000000 2.232450 0.000000 
#    z 0.000000 0.000000 2.244260 
# 
# From -- ./inp_files/13738.got.cif
#   From: 2010.05.17/outbox.cif.g08.bks.cpg/sg40_7_cif.got.tgz:13738.got - 2010.06.03 18:35:42.
