data_PCOD9362560
_publ_section_title
;
Structure prediction by ZEFSAII (Michael W. Deem and Ramdas Pophale) SiO2 
 PCOD9362560
Probable space group: A M A 2
;
_chemical_formula_sum "Si O2"
_cell_formula_units_Z 64
_cell_length_a 19.145388
_cell_length_b 22.740365
_cell_length_c 7.855770
_cell_angle_alpha 90.000000
_cell_angle_beta 90.000000
_cell_angle_gamma 90.000000
_cell_volume 3420.191026
_symmetry_space_group_name_H-M "A M A 2"
_symmetry_group_IT_number 40
_symmetry_cell_setting 'orthorhombic'
loop_
_space_group_symop_operation_xyz
x,y,z
-x,-y,z
1/2-x,y,z
1/2+x,-y,z
x,1/2+y,1/2+z
-x,1/2-y,1/2+z
1/2-x,1/2+y,1/2+z
1/2+x,1/2-y,1/2+z
loop_
_atom_site_type_symbol
_atom_site_label
_atom_site_fract_x
_atom_site_fract_y
_atom_site_fract_z
Si Si1 0.173222 0.866836 0.900390
Si Si2 0.532024 0.921385 0.487458
Si Si3 0.962815 0.440598 0.387259
Si Si4 0.668283 0.001869 0.990656
Si Si5 0.827013 0.144646 0.500466
Si Si6 0.388352 0.973679 0.366079
Si Si7 0.472620 0.303107 0.035744
Si Si8 0.469259 0.821932 0.942352
O O1 0.250000 0.859948 0.979071
O O2 0.176472 0.847988 0.704389
O O3 0.110882 0.833587 0.994303
O O4 0.156678 0.936275 0.894805
O O5 0.518466 0.934111 0.687760
O O6 0.465703 0.945148 0.380848
O O7 0.528828 0.851074 0.467143
O O8 0.598832 0.961048 0.442495
O O9 0.881119 0.452346 0.412094
O O10 0.000000 0.500000 0.452177
O O11 0.988760 0.381860 0.478869
O O12 0.750000 0.987639 0.986393
O O13 0.642696 0.016111 0.180776
O O14 0.750000 0.160891 0.431542
O O15 0.841673 0.075796 0.459037
O O16 0.897095 0.180941 0.453177
O O17 0.468089 0.314532 0.237668
O O18 0.496426 0.236699 0.011920
#
# Coordination Sequence:
#
# PCOD9362560 Si02
#       8
#     8   8   8   8   8   8   8   8
#     4   9  18  33  54  78 105 139 180 226 276 333
#     4   9  19  34  55  79 106 145 191 227 264 326
#     4  11  19  36  60  81 106 145 194 229 270 329
#     4  11  23  33  49  85 121 142 173 230 296 338
#     4   9  17  33  55  76 105 145 187 225 268 333
#     4  10  18  30  51  81 113 139 173 227 284 320
#     4   9  20  34  51  80 107 137 186 226 273 327
#     4  10  20  34  56  79 105 142 182 233 271 325
#
# _framework density 18.712403999999999
#
# number of rings (size 3 to 8) (size 9 to 14) (size 15 to 20)
#    0.000    2.250    2.500    1.875    1.750    3.000 
#    0.000    1.250    0.000    7.500    0.000    0.000 
#    0.000    0.000    0.000    0.000    0.000    0.000 
#
# Total GULP energy -178289.125367 kJ/mol
# GULP energy per Si atom -5571.535168 kJ/mol
# Density = 1.866981 g / cm^3
# Si number density = 18.712404 Si / 1000 Ang^3
#
#
#
# Elastic Constant Matrix: (Units=GPa)
#
#
# Indices 1 2 3 4 5 6 
#
# 1 118.1665 66.8553 7.4302 0.0000 0.0000 0.0000
# 2 66.8553 135.6647 5.5958 0.0000 0.0000 0.0000
# 3 7.4302 5.5958 19.4023 0.0000 0.0000 0.0000
# 4 0.0000 0.0000 0.0000 23.9632 0.0000 0.0000
# 5 0.0000 0.0000 0.0000 0.0000 16.3999 0.0000
# 6 0.0000 0.0000 0.0000 0.0000 0.0000 23.8152
#
#
#
# Elastic Compliance Matrix: (Units=1/GPa)
#
#
# Indices 1 2 3 4 5 6 
#
# 1 0.011893 -0.005741 -0.002899 0.000000 0.000000 0.000000
# 2 -0.005741 0.010231 -0.000752 0.000000 0.000000 0.000000
# 3 -0.002899 -0.000752 0.052867 0.000000 0.000000 0.000000
# 4 0.000000 0.000000 0.000000 0.041731 0.000000 0.000000
# 5 0.000000 0.000000 0.000000 0.000000 0.060976 0.000000
# 6 0.000000 0.000000 0.000000 0.000000 0.000000 0.041990
#
#
# Mechanical properties :
#
#
# Convention : Reuss Voigt Hill
#
# Bulk Modulus (GPa) = 17.79126 48.11069 32.95097
# Shear Modulus (GPa) = 19.43946 25.72581 22.58263
#
# Velocity S-wave (km/s) = 3.22662 3.71185 3.47771
# Velocity P-wave (km/s) = 4.83837 6.64356 5.81148
#
# Compressibility (1/GPa) = 0.05620738
#
# Stress axis : x y z
#
# Youngs Moduli (GPa) = 84.08155 97.73756 18.91533
#
# Poissons Ratio (x) = 0.56115 0.05483
# Poissons Ratio (y) = 0.48274 0.01423
# Poissons Ratio (z) = 0.24373 0.07352
#
# Static dielectric constant tensor:
#      x y z
#    x 1.690680 0.000000 0.000000 
#    y 0.000000 1.651860 0.000000 
#    z 0.000000 0.000000 1.691190 
# 
# From -- ./inp_files/7881.got.cif
#   From: 2010.05.17/outbox.cif.g08.bks.cpg/sg40_4_cif.got.tgz:7881.got - 2010.06.03 18:35:42.
