data_PCOD9362286
_publ_section_title
;
Structure prediction by ZEFSAII (Michael W. Deem and Ramdas Pophale) SiO2 
 PCOD9362286
Probable space group: A M A 2
;
_chemical_formula_sum "Si O2"
_cell_formula_units_Z 64
_cell_length_a 8.787070
_cell_length_b 13.616885
_cell_length_c 23.515341
_cell_angle_alpha 90.000000
_cell_angle_beta 90.000000
_cell_angle_gamma 90.000000
_cell_volume 2813.669849
_symmetry_space_group_name_H-M "A M A 2"
_symmetry_group_IT_number 40
_symmetry_cell_setting 'orthorhombic'
loop_
_space_group_symop_operation_xyz
x,y,z
-x,-y,z
1/2-x,y,z
1/2+x,-y,z
x,1/2+y,1/2+z
-x,1/2-y,1/2+z
1/2-x,1/2+y,1/2+z
1/2+x,1/2-y,1/2+z
loop_
_atom_site_type_symbol
_atom_site_label
_atom_site_fract_x
_atom_site_fract_y
_atom_site_fract_z
Si Si1 0.916840 0.373508 0.085680
Si Si2 0.575450 0.866020 0.982424
Si Si3 0.065463 0.175238 0.215255
Si Si4 0.566243 0.320374 0.838515
Si Si5 0.927926 0.599243 0.366070
Si Si6 0.075709 0.900383 0.696510
Si Si7 0.070118 0.662091 0.962850
Si Si8 0.921874 0.136617 0.097997
O O1 0.750000 0.406429 0.107151
O O2 0.912524 0.254748 0.088575
O O3 0.049232 0.402024 0.128387
O O4 0.933668 0.401681 0.019874
O O5 0.750000 0.891280 0.970339
O O6 0.526243 0.895974 0.045562
O O7 0.462515 0.902340 0.933454
O O8 0.547362 0.749156 0.976501
O O9 0.250000 0.170914 0.209460
O O10 0.015323 0.138362 0.277665
O O11 0.019561 0.291629 0.213868
O O12 0.991669 0.123953 0.160596
O O13 0.750000 0.317474 0.834453
O O14 0.514537 0.206051 0.845240
O O15 0.532184 0.372247 0.898882
O O16 0.750000 0.596857 0.355500
O O17 0.000000 0.500000 0.342426
O O18 0.250000 0.902897 0.712602
O O19 0.000000 0.000000 0.717953
O O20 0.250000 0.696934 0.960284
O O21 0.750000 0.097685 0.094240
#
# Coordination Sequence:
#
# PCOD9362286 Si02
#       8
#     8   8   8   8   8   8   8   8
#     4   8  14  25  41  58  76  99 130 166 207 249
#     4  10  17  26  42  62  81 104 135 173 215 258
#     4   9  17  29  43  60  82 112 146 176 204 241
#     4   8  15  28  44  60  83 113 143 172 204 243
#     4  10  19  31  44  60  84 115 148 181 214 250
#     4  10  19  28  39  55  78 108 141 174 206 237
#     4   8  14  26  43  61  81 106 132 165 210 254
#     4   9  16  27  42  60  81 105 133 171 215 254
#
# _framework density 22.746093999999999
#
# number of rings (size 3 to 8) (size 9 to 14) (size 15 to 20)
#    0.000    3.000    0.000    3.750    0.000    4.000 
#    0.000    3.125    0.000    0.000    0.000    0.000 
#    0.000    1.000    0.000    5.000    0.000    4.000 
#
# Total GULP energy -178328.171509 kJ/mol
# GULP energy per Si atom -5572.755360 kJ/mol
# Density = 2.269432 g / cm^3
# Si number density = 22.746094 Si / 1000 Ang^3
#
#
#
# Elastic Constant Matrix: (Units=GPa)
#
#
# Indices 1 2 3 4 5 6 
#
# 1 46.0346 11.0514 22.3532 0.0000 0.0000 0.0000
# 2 11.0514 36.7220 -13.7384 0.0000 0.0000 0.0000
# 3 22.3532 -13.7384 201.7130 0.0000 0.0000 0.0000
# 4 0.0000 0.0000 0.0000 -14.3813 0.0000 0.0000
# 5 0.0000 0.0000 0.0000 0.0000 10.0497 0.0000
# 6 0.0000 0.0000 0.0000 0.0000 0.0000 8.2352
#
#
#
# Elastic Compliance Matrix: (Units=1/GPa)
#
#
# Indices 1 2 3 4 5 6 
#
# 1 0.025550 -0.008977 -0.003443 0.000000 0.000000 0.000000
# 2 -0.008977 0.031098 0.003113 0.000000 0.000000 0.000000
# 3 -0.003443 0.003113 0.005551 0.000000 0.000000 0.000000
# 4 0.000000 0.000000 0.000000 -0.069535 0.000000 0.000000
# 5 0.000000 0.000000 0.000000 0.000000 0.099505 0.000000
# 6 0.000000 0.000000 0.000000 0.000000 0.000000 0.121430
#
#
# Mechanical properties :
#
#
# Convention : Reuss Voigt Hill
#
# Bulk Modulus (GPa) = 22.94393 35.97801 29.46097
# Shear Modulus (GPa) = 20.26412 18.43427 19.34920
#
# Velocity S-wave (km/s) = 2.98801 2.84991 2.91977
# Velocity P-wave (km/s) = 4.69181 5.16535 4.93427
#
# Compressibility (1/GPa) = 0.04358451
#
# Stress axis : x y z
#
# Youngs Moduli (GPa) = 39.13963 32.15665 180.14565
#
# Poissons Ratio (x) = 0.28867 0.62019
# Poissons Ratio (y) = 0.35136 -0.56076
# Poissons Ratio (z) = 0.13475 -0.10010
#
# Static dielectric constant tensor:
#      x y z
#    x 1.806600 0.000000 0.000000 
#    y 0.000000 1.939980 0.000000 
#    z 0.000000 0.000000 1.897510 
# 
# From -- ./inp_files/24398.got.cif
#   From: 2010.05.17/outbox.cif.g08.bks.cpg/sg40_13_cif.got.tgz:24398.got - 2010.06.03 18:35:42.
