data_PCOD9362814
_publ_section_title
;
Structure prediction by ZEFSAII (Michael W. Deem and Ramdas Pophale) SiO2 
 PCOD9362814
Probable space group: A M A 2
;
_chemical_formula_sum "Si O2"
_cell_formula_units_Z 64
_cell_length_a 22.861381
_cell_length_b 14.460641
_cell_length_c 9.003271
_cell_angle_alpha 90.000000
_cell_angle_beta 90.000000
_cell_angle_gamma 90.000000
_cell_volume 2976.393371
_symmetry_space_group_name_H-M "A M A 2"
_symmetry_group_IT_number 40
_symmetry_cell_setting 'orthorhombic'
loop_
_space_group_symop_operation_xyz
x,y,z
-x,-y,z
1/2-x,y,z
1/2+x,-y,z
x,1/2+y,1/2+z
-x,1/2-y,1/2+z
1/2-x,1/2+y,1/2+z
1/2+x,1/2-y,1/2+z
loop_
_atom_site_type_symbol
_atom_site_label
_atom_site_fract_x
_atom_site_fract_y
_atom_site_fract_z
Si Si1 0.008137 0.212024 0.394740
Si Si2 0.861575 0.816158 0.504653
Si Si3 0.520269 0.109137 0.079779
Si Si4 0.612023 0.151826 0.524878
Si Si5 0.815455 0.996117 0.375756
Si Si6 0.316304 0.250679 0.792274
Si Si7 0.657764 0.070209 0.098701
Si Si8 0.684441 0.145224 0.813483
O O1 0.999349 0.169111 0.227465
O O2 0.955282 0.169564 0.491786
O O3 0.071775 0.179880 0.450802
O O4 0.006273 0.322863 0.438175
O O5 0.823081 0.901611 0.458425
O O6 0.856278 0.807653 0.681305
O O7 0.831078 0.730953 0.419738
O O8 0.590168 0.097965 0.089400
O O9 0.500000 0.000000 0.076113
O O10 0.650196 0.231919 0.445057
O O11 0.634377 0.141813 0.691258
O O12 0.633969 0.060882 0.440297
O O13 0.750000 0.032160 0.403158
O O14 0.828664 0.983003 0.201349
O O15 0.250000 0.217659 0.808787
O O16 0.314061 0.348609 0.701129
O O17 0.681596 0.062994 0.933359
O O18 0.750000 0.151973 0.750463
#
# Coordination Sequence:
#
# PCOD9362814 Si02
#       8
#     8   8   8   8   8   8   8   8
#     4  12  23  44  68 101 147 185 243 297 358 450
#     4  11  22  38  66  95 129 178 225 289 353 423
#     4  12  25  45  72 103 145 194 239 297 360 436
#     4  11  23  38  63  95 132 183 221 287 362 414
#     4  11  21  39  64  98 132 171 236 290 348 436
#     4  10  18  37  62  90 125 172 226 274 346 423
#     4  10  19  39  60  90 125 175 224 276 354 411
#     4  11  21  39  63  91 124 173 228 283 356 418
#
# _framework density 21.502534000000001
#
# number of rings (size 3 to 8) (size 9 to 14) (size 15 to 20)
#    0.000    1.000    5.000    6.375    0.000    0.000 
#    0.000    4.375    0.000    0.000    0.000    0.000 
#    0.000    0.000    0.000    0.000    0.000    0.000 
#
# Total GULP energy -178388.615884 kJ/mol
# GULP energy per Si atom -5574.644246 kJ/mol
# Density = 2.145359 g / cm^3
# Si number density = 21.502534 Si / 1000 Ang^3
#
#
#
# Elastic Constant Matrix: (Units=GPa)
#
#
# Indices 1 2 3 4 5 6 
#
# 1 110.3215 15.2907 -13.7752 0.0000 0.0000 0.0000
# 2 15.2907 60.6986 24.8436 0.0000 0.0000 0.0000
# 3 -13.7752 24.8436 81.2060 0.0000 0.0000 0.0000
# 4 0.0000 0.0000 0.0000 18.4499 0.0000 0.0000
# 5 0.0000 0.0000 0.0000 0.0000 3.1530 0.0000
# 6 0.0000 0.0000 0.0000 0.0000 0.0000 12.0499
#
#
#
# Elastic Compliance Matrix: (Units=1/GPa)
#
#
# Indices 1 2 3 4 5 6 
#
# 1 0.009919 -0.003644 0.002797 0.000000 0.000000 0.000000
# 2 -0.003644 0.020171 -0.006789 0.000000 0.000000 0.000000
# 3 0.002797 -0.006789 0.014866 0.000000 0.000000 0.000000
# 4 0.000000 0.000000 0.000000 0.054201 0.000000 0.000000
# 5 0.000000 0.000000 0.000000 0.000000 0.317156 0.000000
# 6 0.000000 0.000000 0.000000 0.000000 0.000000 0.082988
#
#
# Mechanical properties :
#
#
# Convention : Reuss Voigt Hill
#
# Bulk Modulus (GPa) = 33.68698 33.88270 33.78484
# Shear Modulus (GPa) = 9.53349 21.78837 15.66093
#
# Velocity S-wave (km/s) = 2.10791 3.18668 2.70169
# Velocity P-wave (km/s) = 4.65026 5.41587 5.04760
#
# Compressibility (1/GPa) = 0.02968506
#
# Stress axis : x y z
#
# Youngs Moduli (GPa) = 100.81987 49.57496 67.26805
#
# Poissons Ratio (x) = 0.18063 -0.18816
# Poissons Ratio (y) = 0.36734 0.45670
# Poissons Ratio (z) = -0.28201 0.33657
#
# Static dielectric constant tensor:
#      x y z
#    x 1.759220 0.000000 0.000000 
#    y 0.000000 1.875910 0.000000 
#    z 0.000000 0.000000 1.861330 
# 
# From -- ./inp_files/8950.got.cif
#   From: 2010.05.17/outbox.cif.g08.bks.cpg/sg40_5_cif.got.tgz:8950.got - 2010.06.03 18:35:42.
