data_PCOD9362797
_publ_section_title
;
Structure prediction by ZEFSAII (Michael W. Deem and Ramdas Pophale) SiO2 
 PCOD9362797
Probable space group: A M A 2
;
_chemical_formula_sum "Si O2"
_cell_formula_units_Z 44
_cell_length_a 17.828478
_cell_length_b 9.549123
_cell_length_c 11.826583
_cell_angle_alpha 90.000000
_cell_angle_beta 90.000000
_cell_angle_gamma 90.000000
_cell_volume 2013.432344
_symmetry_space_group_name_H-M "A M A 2"
_symmetry_group_IT_number 40
_symmetry_cell_setting 'orthorhombic'
loop_
_space_group_symop_operation_xyz
x,y,z
-x,-y,z
1/2-x,y,z
1/2+x,-y,z
x,1/2+y,1/2+z
-x,1/2-y,1/2+z
1/2-x,1/2+y,1/2+z
1/2+x,1/2-y,1/2+z
loop_
_atom_site_type_symbol
_atom_site_label
_atom_site_fract_x
_atom_site_fract_y
_atom_site_fract_z
Si Si1 0.250000 0.395920 0.075270
Si Si2 0.977809 0.305287 0.990179
Si Si3 0.385881 0.428264 0.398673
Si Si4 0.250000 0.280344 0.308341
Si Si5 0.500000 0.500000 0.202038
Si Si6 0.750000 0.428565 0.506902
Si Si7 0.120052 0.440958 0.912280
Si Si8 0.750000 0.041661 0.243405
O O1 0.250000 0.396079 0.209093
O O2 0.250000 0.231589 0.044218
O O3 0.176868 0.458591 0.017488
O O4 0.983308 0.371332 0.115973
O O5 0.944859 0.149652 0.981124
O O6 0.929183 0.417003 0.915668
O O7 0.060988 0.318297 0.938069
O O8 0.324964 0.307590 0.375216
O O9 0.430803 0.468238 0.285570
O O10 0.328935 0.545971 0.443585
O O11 0.250000 0.123857 0.267154
O O12 0.750000 0.543559 0.608638
O O13 0.174285 0.408725 0.806278
#
# Coordination Sequence:
#
# PCOD9362797 Si02
#       8
#     4   8   8   4   4   4   8   4
#     4  10  20  37  62  85 124 161 206 253 308 374
#     4  10  21  40  65  97 118 157 219 252 315 383
#     4  11  23  42  60  87 129 161 206 260 307 375
#     4  10  18  36  62  83 113 163 198 251 304 364
#     4  10  24  42  64  94 128 170 204 262 328 364
#     4  10  26  39  53  94 127 161 211 248 311 388
#     4   9  19  36  64  90 116 157 206 262 303 373
#     4  10  18  38  59  88 122 153 199 256 315 358
#
# _framework density 21.85323
#
# number of rings (size 3 to 8) (size 9 to 14) (size 15 to 20)
#    0.000    2.182    1.818    2.182    2.545    1.455 
#    3.273    3.636    0.000    0.000    0.000    0.000 
#    0.000    0.000    0.000    0.000    0.000    0.000 
#
# Total GULP energy -122652.849753 kJ/mol
# GULP energy per Si atom -5575.129534 kJ/mol
# Density = 2.180349 g / cm^3
# Si number density = 21.853230 Si / 1000 Ang^3
#
#
#
# Elastic Constant Matrix: (Units=GPa)
#
#
# Indices 1 2 3 4 5 6 
#
# 1 156.0535 28.5802 41.2672 0.0000 0.0000 0.0000
# 2 28.5802 42.0340 14.7983 0.0000 0.0000 0.0000
# 3 41.2672 14.7983 90.3107 0.0000 0.0000 0.0000
# 4 0.0000 0.0000 0.0000 17.6972 0.0000 0.0000
# 5 0.0000 0.0000 0.0000 0.0000 3.9762 0.0000
# 6 0.0000 0.0000 0.0000 0.0000 0.0000 16.2482
#
#
#
# Elastic Compliance Matrix: (Units=1/GPa)
#
#
# Indices 1 2 3 4 5 6 
#
# 1 0.007989 -0.004400 -0.002929 0.000000 0.000000 0.000000
# 2 -0.004400 0.027671 -0.002523 0.000000 0.000000 0.000000
# 3 -0.002929 -0.002523 0.012825 0.000000 0.000000 0.000000
# 4 0.000000 0.000000 0.000000 0.056506 0.000000 0.000000
# 5 0.000000 0.000000 0.000000 0.000000 0.251499 0.000000
# 6 0.000000 0.000000 0.000000 0.000000 0.000000 0.061545
#
#
# Mechanical properties :
#
#
# Convention : Reuss Voigt Hill
#
# Bulk Modulus (GPa) = 34.74883 50.85439 42.80161
# Shear Modulus (GPa) = 11.17734 21.16781 16.17258
#
# Velocity S-wave (km/s) = 2.26403 3.11567 2.72335
# Velocity P-wave (km/s) = 4.77179 6.02201 5.43298
#
# Compressibility (1/GPa) = 0.02877795
#
# Stress axis : x y z
#
# Youngs Moduli (GPa) = 125.17834 36.13951 77.97334
#
# Poissons Ratio (x) = 0.15903 0.22841
# Poissons Ratio (y) = 0.55083 0.19675
# Poissons Ratio (z) = 0.36669 0.09119
#
# Static dielectric constant tensor:
#      x y z
#    x 1.849280 0.000000 0.000000 
#    y 0.000000 1.815870 0.000000 
#    z 0.000000 0.000000 1.877710 
# 
# From -- ./inp_files/12856.got.cif
#   From: 2010.05.17/outbox.cif.g08.bks.cpg/sg40_7_cif.got.tgz:12856.got - 2010.06.03 18:35:42.
