data_PCOD9362130
_publ_section_title
;
Structure prediction by ZEFSAII (Michael W. Deem and Ramdas Pophale) SiO2 
 PCOD9362130
Probable space group: A B M 2
;
_chemical_formula_sum "Si O2"
_cell_formula_units_Z 40
_cell_length_a 7.614587
_cell_length_b 21.275113
_cell_length_c 9.420334
_cell_angle_alpha 90.000000
_cell_angle_beta 90.000000
_cell_angle_gamma 90.000000
_cell_volume 1526.105402
_symmetry_space_group_name_H-M "A B M 2"
_symmetry_group_IT_number 39
_symmetry_cell_setting 'orthorhombic'
loop_
_space_group_symop_operation_xyz
x,y,z
-x,-y,z
-x,1/2+y,z
x,1/2-y,z
x,1/2+y,1/2+z
-x,1/2-y,1/2+z
-x,y,1/2+z
x,-y,1/2+z
loop_
_atom_site_type_symbol
_atom_site_label
_atom_site_fract_x
_atom_site_fract_y
_atom_site_fract_z
Si Si1 0.805994 0.002473 0.250000
Si Si2 0.699141 0.861159 0.343466
Si Si3 0.972161 0.179657 0.186033
Si Si4 0.444123 0.109483 0.623635
Si Si5 0.809628 0.389274 0.447518
O O1 0.657121 0.044820 0.169139
O O2 0.840263 0.041112 0.393162
O O3 0.742984 0.933824 0.298777
O O4 0.000000 0.000000 0.180749
O O5 0.850068 0.818780 0.281368
O O6 0.679694 0.855629 0.511402
O O7 0.519102 0.852231 0.257147
O O8 0.924748 0.250000 0.143859
O O9 0.837845 0.149200 0.299611
O O10 0.047663 0.137913 0.056442
O O11 0.622167 0.104754 0.526671
#
# Coordination Sequence:
#
# PCOD9362130 Si02
#       5
#     8   8   8   8   8
#     4  12  26  43  73 117 161 201 256 325 416 496
#     4  11  26  42  72 109 155 204 263 318 412 480
#     4  11  26  51  77 106 152 208 274 339 392 472
#     4  11  26  44  71 112 158 206 253 333 402 482
#     4  11  26  48  75 117 151 209 273 328 413 479
#
# _framework density 26.210509999999999
#
# number of rings (size 3 to 8) (size 9 to 14) (size 15 to 20)
#    0.000    0.800    4.000    1.200   11.200    0.800 
#    0.000    5.000    0.000    0.000    0.000    0.000 
#    0.000    0.000    0.000    0.000    0.000    0.000 
#
# Total GULP energy -111770.034322 kJ/mol
# GULP energy per Si atom -5588.501716 kJ/mol
# Density = 2.615085 g / cm^3
# Si number density = 26.210510 Si / 1000 Ang^3
#
#
#
# Elastic Constant Matrix: (Units=GPa)
#
#
# Indices 1 2 3 4 5 6 
#
# 1 180.7082 17.3215 7.4231 0.0000 0.0000 0.0000
# 2 17.3215 111.0749 14.8220 0.0000 0.0000 0.0000
# 3 7.4231 14.8220 143.2550 0.0000 0.0000 0.0000
# 4 0.0000 0.0000 0.0000 25.3307 0.0000 0.0000
# 5 0.0000 0.0000 0.0000 0.0000 52.3490 0.0000
# 6 0.0000 0.0000 0.0000 0.0000 0.0000 0.1936
#
#
#
# Elastic Compliance Matrix: (Units=1/GPa)
#
#
# Indices 1 2 3 4 5 6 
#
# 1 0.005624 -0.000850 -0.000203 0.000000 0.000000 0.000000
# 2 -0.000850 0.009257 -0.000914 0.000000 0.000000 0.000000
# 3 -0.000203 -0.000914 0.007086 0.000000 0.000000 0.000000
# 4 0.000000 0.000000 0.000000 0.039478 0.000000 0.000000
# 5 0.000000 0.000000 0.000000 0.000000 0.019103 0.000000
# 6 0.000000 0.000000 0.000000 0.000000 0.000000 5.165218
#
#
# Mechanical properties :
#
#
# Convention : Reuss Voigt Hill
#
# Bulk Modulus (GPa) = 55.45549 57.13016 56.29282
# Shear Modulus (GPa) = 0.95135 41.93942 21.44538
#
# Velocity S-wave (km/s) = 0.60312 4.00446 2.86352
# Velocity P-wave (km/s) = 4.65711 6.57457 5.69709
#
# Compressibility (1/GPa) = 0.01803248
#
# Stress axis : x y z
#
# Youngs Moduli (GPa) = 177.82202 108.02177 141.13035
#
# Poissons Ratio (x) = 0.09180 0.02872
# Poissons Ratio (y) = 0.15112 0.12896
# Poissons Ratio (z) = 0.03618 0.09871
#
# Static dielectric constant tensor:
#      x y z
#    x 2.312760 0.000000 0.000000 
#    y 0.000000 1.976140 0.000000 
#    z 0.000000 0.000000 2.131350 
# 
# From -- ./inp_files/2113.got.cif
#   From: 2010.05.17/outbox.cif.g08.bks.cpg/sg39_2_cif.got.tgz:2113.got - 2010.06.03 18:22:40.
