data_PCOD9362826
_publ_section_title
;
Structure prediction by ZEFSAII (Michael W. Deem and Ramdas Pophale) SiO2 
 PCOD9362826
Probable space group: A M A 2
;
_chemical_formula_sum "Si O2"
_cell_formula_units_Z 60
_cell_length_a 26.552450
_cell_length_b 12.526988
_cell_length_c 7.423087
_cell_angle_alpha 90.000000
_cell_angle_beta 90.000000
_cell_angle_gamma 90.000000
_cell_volume 2469.083696
_symmetry_space_group_name_H-M "A M A 2"
_symmetry_group_IT_number 40
_symmetry_cell_setting 'orthorhombic'
loop_
_space_group_symop_operation_xyz
x,y,z
-x,-y,z
1/2-x,y,z
1/2+x,-y,z
x,1/2+y,1/2+z
-x,1/2-y,1/2+z
1/2-x,1/2+y,1/2+z
1/2+x,1/2-y,1/2+z
loop_
_atom_site_type_symbol
_atom_site_label
_atom_site_fract_x
_atom_site_fract_y
_atom_site_fract_z
Si Si1 0.191626 0.364458 0.955010
Si Si2 0.963803 0.106132 0.653927
Si Si3 0.640121 0.845911 0.815642
Si Si4 0.105061 0.951740 0.994567
Si Si5 0.691851 0.680474 0.368135
Si Si6 0.464133 0.718079 0.378007
Si Si7 0.000000 0.000000 0.083256
Si Si8 0.189841 0.088100 0.446820
O O1 0.250000 0.353451 0.902254
O O2 0.164651 0.258527 0.896331
O O3 0.169030 0.475101 0.881156
O O4 0.189779 0.373501 0.172596
O O5 0.921120 0.070424 0.795098
O O6 0.952513 0.168814 0.470335
O O7 0.988400 0.211355 0.749132
O O8 0.000000 0.000000 0.629455
O O9 0.583787 0.814450 0.759403
O O10 0.670515 0.888140 0.646632
O O11 0.633131 0.935888 0.967619
O O12 0.149890 0.865745 0.002048
O O13 0.057114 0.956081 0.129207
O O14 0.750000 0.671661 0.434194
O O15 0.679714 0.804964 0.337632
O O16 0.478096 0.609810 0.491873
O O17 0.250000 0.075161 0.452489
#
# Coordination Sequence:
#
# PCOD9362826 Si02
#       8
#     8   8   8   8   8   8   4   8
#     4  10  21  38  60  87 123 163 207 252 307 375
#     4  11  21  43  63  87 122 164 200 259 312 368
#     4  11  20  36  63  90 117 163 204 251 312 364
#     4  10  18  38  63  85 122 160 203 252 308 370
#     4  10  21  38  61  89 122 161 203 257 313 366
#     4  10  21  37  66  86 120 159 204 252 309 371
#     4   8  18  38  54  86 118 156 194 252 304 354
#     4  10  22  40  60  87 125 163 207 258 310 371
#
# _framework density 24.300512000000001
#
# number of rings (size 3 to 8) (size 9 to 14) (size 15 to 20)
#    0.000    1.867    5.333    1.200    0.000    2.667 
#    3.600    0.000    0.000    0.000    0.000    0.000 
#    0.000    0.000    0.000    0.000    0.000    0.000 
#
# Total GULP energy -167071.693223 kJ/mol
# GULP energy per Si atom -5569.056441 kJ/mol
# Density = 2.424520 g / cm^3
# Si number density = 24.300512 Si / 1000 Ang^3
#
#
#
# Elastic Constant Matrix: (Units=GPa)
#
#
# Indices 1 2 3 4 5 6 
#
# 1 64.7171 62.0921 -5.8655 0.0000 0.0000 0.0000
# 2 62.0921 161.8199 35.6216 0.0000 0.0000 0.0000
# 3 -5.8655 35.6216 45.5202 0.0000 0.0000 0.0000
# 4 0.0000 0.0000 0.0000 26.6651 0.0000 0.0000
# 5 0.0000 0.0000 0.0000 0.0000 1.9780 0.0000
# 6 0.0000 0.0000 0.0000 0.0000 0.0000 394.9798
#
#
#
# Elastic Compliance Matrix: (Units=1/GPa)
#
#
# Indices 1 2 3 4 5 6 
#
# 1 0.032505 -0.016182 0.016852 0.000000 0.000000 0.000000
# 2 -0.016182 0.015522 -0.014232 0.000000 0.000000 0.000000
# 3 0.016852 -0.014232 0.035277 0.000000 0.000000 0.000000
# 4 0.000000 0.000000 0.000000 0.037502 0.000000 0.000000
# 5 0.000000 0.000000 0.000000 0.000000 0.505557 0.000000
# 6 0.000000 0.000000 0.000000 0.000000 0.000000 0.002532
#
#
# Mechanical properties :
#
#
# Convention : Reuss Voigt Hill
#
# Bulk Modulus (GPa) = 17.80025 50.63931 34.21978
# Shear Modulus (GPa) = 7.41021 96.73851 52.07436
#
# Velocity S-wave (km/s) = 1.74815 6.31630 4.63420
# Velocity P-wave (km/s) = 3.37871 8.60687 6.53812
#
# Compressibility (1/GPa) = 0.05617899
#
# Stress axis : x y z
#
# Youngs Moduli (GPa) = 30.76466 64.42572 28.34745
#
# Poissons Ratio (x) = 1.04254 -0.47770
# Poissons Ratio (y) = 0.49783 0.40343
# Poissons Ratio (z) = -0.51843 0.91688
#
# Static dielectric constant tensor:
#      x y z
#    x 2.258180 0.000000 0.000000 
#    y 0.000000 1.992880 0.000000 
#    z 0.000000 0.000000 2.041550 
# 
# From -- ./inp_files/9168.got.cif
#   From: 2010.05.17/outbox.cif.g08.bks.cpg/sg40_5_cif.got.tgz:9168.got - 2010.06.03 18:35:42.
