data_PCOD9362812
_publ_section_title
;
Structure prediction by ZEFSAII (Michael W. Deem and Ramdas Pophale) SiO2 
 PCOD9362812
Probable space group: A M A 2
;
_chemical_formula_sum "Si O2"
_cell_formula_units_Z 48
_cell_length_a 17.405827
_cell_length_b 10.079625
_cell_length_c 15.785182
_cell_angle_alpha 90.000000
_cell_angle_beta 90.000000
_cell_angle_gamma 90.000000
_cell_volume 2769.418770
_symmetry_space_group_name_H-M "A M A 2"
_symmetry_group_IT_number 40
_symmetry_cell_setting 'orthorhombic'
loop_
_space_group_symop_operation_xyz
x,y,z
-x,-y,z
1/2-x,y,z
1/2+x,-y,z
x,1/2+y,1/2+z
-x,1/2-y,1/2+z
1/2-x,1/2+y,1/2+z
1/2+x,1/2-y,1/2+z
loop_
_atom_site_type_symbol
_atom_site_label
_atom_site_fract_x
_atom_site_fract_y
_atom_site_fract_z
Si Si1 0.011136 0.351924 0.102890
Si Si2 0.592454 0.251572 0.961141
Si Si3 0.426750 0.094911 0.178202
Si Si4 0.658640 0.967164 0.001006
Si Si5 0.339935 0.023846 0.345357
Si Si6 0.578303 0.716999 0.929890
O O1 0.042114 0.244303 0.167859
O O2 0.000000 0.500000 0.135045
O O3 0.070262 0.353097 0.022772
O O4 0.934684 0.296380 0.055593
O O5 0.641189 0.364805 0.915715
O O6 0.510219 0.244264 0.912328
O O7 0.632943 0.110197 0.966164
O O8 0.385033 0.056284 0.090195
O O9 0.369573 0.077711 0.255857
O O10 0.500000 0.000000 0.189413
O O11 0.750000 0.961276 0.011522
O O12 0.628893 0.847949 0.941270
O O13 0.250000 0.995146 0.344097
O O14 0.387210 0.891199 0.367794
#
# Coordination Sequence:
#
# PCOD9362812 Si02
#       6
#     8   8   8   8   8   8
#     4   9  17  35  62  84 104 146 207 238 269 340
#     4  10  18  37  58  85 108 154 195 236 284 352
#     4  11  21  37  58  82 116 157 195 236 288 359
#     4  11  20  34  57  88 118 149 193 248 291 339
#     4  12  23  36  56  88 121 149 187 252 304 335
#     4   9  18  35  58  81 110 151 200 229 282 349
#
# _framework density 17.332156999999999
#
# number of rings (size 3 to 8) (size 9 to 14) (size 15 to 20)
#    1.000    0.667    3.333    3.500    0.000    0.000 
#    0.000    3.333    0.000    0.000    0.000    0.000 
#    0.000    0.000    0.000    0.000    0.000    0.000 
#
# Total GULP energy -133772.424841 kJ/mol
# GULP energy per Si atom -5573.851035 kJ/mol
# Density = 1.729271 g / cm^3
# Si number density = 17.332157 Si / 1000 Ang^3
#
#
#
# Elastic Constant Matrix: (Units=GPa)
#
#
# Indices 1 2 3 4 5 6 
#
# 1 78.1134 17.0792 -5.6670 0.0000 0.0000 0.0000
# 2 17.0792 110.5294 8.9433 0.0000 0.0000 0.0000
# 3 -5.6670 8.9433 31.5329 0.0000 0.0000 0.0000
# 4 0.0000 0.0000 0.0000 -0.7564 0.0000 0.0000
# 5 0.0000 0.0000 0.0000 0.0000 24.6060 0.0000
# 6 0.0000 0.0000 0.0000 0.0000 0.0000 25.3847
#
#
#
# Elastic Compliance Matrix: (Units=1/GPa)
#
#
# Indices 1 2 3 4 5 6 
#
# 1 0.013539 -0.002343 0.003098 0.000000 0.000000 0.000000
# 2 -0.002343 0.009665 -0.003162 0.000000 0.000000 0.000000
# 3 0.003098 -0.003162 0.033166 0.000000 0.000000 0.000000
# 4 0.000000 0.000000 0.000000 -1.322102 0.000000 0.000000
# 5 0.000000 0.000000 0.000000 0.000000 0.040641 0.000000
# 6 0.000000 0.000000 0.000000 0.000000 0.000000 0.039394
#
#
# Mechanical properties :
#
#
# Convention : Reuss Voigt Hill
#
# Bulk Modulus (GPa) = 19.39644 28.98742 24.19193
# Shear Modulus (GPa) = -4.29665 23.16820 9.43578
#
# Velocity S-wave (km/s) = -1.57619 3.66008 2.33579
# Velocity P-wave (km/s) = 2.81119 5.88409 4.61115
#
# Compressibility (1/GPa) = 0.05155586
#
# Stress axis : x y z
#
# Youngs Moduli (GPa) = 73.86154 103.46363 30.15092
#
# Poissons Ratio (x) = 0.24238 -0.09340
# Poissons Ratio (y) = 0.17303 0.09535
# Poissons Ratio (z) = -0.22879 0.32718
#
# Static dielectric constant tensor:
#      x y z
#    x 1.580060 0.000000 0.000000 
#    y 0.000000 1.610300 0.000000 
#    z 0.000000 0.000000 1.593630 
# 
# From -- ./inp_files/21297.got.cif
#   From: 2010.05.17/outbox.cif.g08.bks.cpg/sg40_11_cif.got.tgz:21297.got - 2010.06.03 18:35:42.
