data_PCOD9362506
_publ_section_title
;
Structure prediction by ZEFSAII (Michael W. Deem and Ramdas Pophale) SiO2 
 PCOD9362506
Probable space group: A M A 2
;
_chemical_formula_sum "Si O2"
_cell_formula_units_Z 36
_cell_length_a 7.474464
_cell_length_b 24.153473
_cell_length_c 7.564277
_cell_angle_alpha 90.000000
_cell_angle_beta 90.000000
_cell_angle_gamma 90.000000
_cell_volume 1365.611184
_symmetry_space_group_name_H-M "A M A 2"
_symmetry_group_IT_number 40
_symmetry_cell_setting 'orthorhombic'
loop_
_space_group_symop_operation_xyz
x,y,z
-x,-y,z
1/2-x,y,z
1/2+x,-y,z
x,1/2+y,1/2+z
-x,1/2-y,1/2+z
1/2-x,1/2+y,1/2+z
1/2+x,1/2-y,1/2+z
loop_
_atom_site_type_symbol
_atom_site_label
_atom_site_fract_x
_atom_site_fract_y
_atom_site_fract_z
Si Si1 0.455838 0.332008 0.071000
Si Si2 0.250000 0.154309 0.960752
Si Si3 0.963622 0.563686 0.481086
Si Si4 0.537274 0.561645 0.895536
Si Si5 0.943041 0.718583 0.677427
O O1 0.250000 0.336446 0.131568
O O2 0.535818 0.391383 0.022778
O O3 0.553120 0.285491 0.184602
O O4 0.455394 0.304355 0.874922
O O5 0.409833 0.109971 0.898545
O O6 0.402875 0.192589 0.062493
O O7 0.750000 0.573107 0.465140
O O8 0.000000 0.500000 0.425757
O O9 0.020518 0.566526 0.690941
O O10 0.500000 0.500000 0.956925
O O11 0.750000 0.570220 0.891524
O O12 0.750000 0.702082 0.603897
#
# Coordination Sequence:
#
# PCOD9362506 Si02
#       5
#     8   4   8   8   8
#     4  10  21  39  55  85 119 150 197 240 286 352
#     4  12  20  34  52  76 118 154 188 236 292 346
#     4  10  18  29  48  78 111 150 186 234 294 344
#     4   9  18  29  49  78 112 141 185 237 286 337
#     4  11  24  37  58  83 117 159 196 238 289 351
#
# _framework density 26.361820000000002
#
# number of rings (size 3 to 8) (size 9 to 14) (size 15 to 20)
#    0.000    1.778    4.444    0.667    3.111    0.889 
#    0.000    0.000    0.000    0.000    0.000    3.111 
#    6.667    0.000    0.000    0.000    0.000    0.000 
#
# Total GULP energy -100357.391972 kJ/mol
# GULP energy per Si atom -5575.410665 kJ/mol
# Density = 2.630182 g / cm^3
# Si number density = 26.361820 Si / 1000 Ang^3
#
#
#
# Elastic Constant Matrix: (Units=GPa)
#
#
# Indices 1 2 3 4 5 6 
#
# 1 156.1703 -8.1262 14.4901 0.0000 0.0000 0.0000
# 2 -8.1262 164.2222 27.3443 0.0000 0.0000 0.0000
# 3 14.4901 27.3443 86.3820 0.0000 0.0000 0.0000
# 4 0.0000 0.0000 0.0000 17.9413 0.0000 0.0000
# 5 0.0000 0.0000 0.0000 0.0000 -35.7733 0.0000
# 6 0.0000 0.0000 0.0000 0.0000 0.0000 57.3689
#
#
#
# Elastic Compliance Matrix: (Units=1/GPa)
#
#
# Indices 1 2 3 4 5 6 
#
# 1 0.006549 0.000535 -0.001268 0.000000 0.000000 0.000000
# 2 0.000535 0.006472 -0.002138 0.000000 0.000000 0.000000
# 3 -0.001268 -0.002138 0.012466 0.000000 0.000000 0.000000
# 4 0.000000 0.000000 0.000000 0.055737 0.000000 0.000000
# 5 0.000000 0.000000 0.000000 0.000000 -0.027954 0.000000
# 6 0.000000 0.000000 0.000000 0.000000 0.000000 0.017431
#
#
# Mechanical properties :
#
#
# Convention : Reuss Voigt Hill
#
# Bulk Modulus (GPa) = 50.64748 52.68788 51.66768
# Shear Modulus (GPa) = 60.22283 32.77849 46.50066
#
# Velocity S-wave (km/s) = 4.78480 3.53002 4.20448
# Velocity P-wave (km/s) = 7.05549 6.05348 6.57360
#
# Compressibility (1/GPa) = 0.01974432
#
# Stress axis : x y z
#
# Youngs Moduli (GPa) = 152.70079 154.51512 80.21759
#
# Poissons Ratio (x) = -0.08269 0.10171
# Poissons Ratio (y) = -0.08172 0.17154
# Poissons Ratio (z) = 0.19361 0.33042
#
# Static dielectric constant tensor:
#      x y z
#    x 1.996370 0.000000 0.000000 
#    y 0.000000 2.130050 0.000000 
#    z 0.000000 0.000000 2.167750 
# 
# From -- ./inp_files/10015.got.cif
#   From: 2010.05.17/outbox.cif.g08.bks.cpg/sg40_6_cif.got.tgz:10015.got - 2010.06.03 18:35:42.
