data_PCOD9362011
_publ_section_title
;
Structure prediction by ZEFSAII (Michael W. Deem and Ramdas Pophale) SiO2 
 PCOD9362011
Probable space group: A B M 2
;
_chemical_formula_sum "Si O2"
_cell_formula_units_Z 64
_cell_length_a 13.489581
_cell_length_b 13.928806
_cell_length_c 13.136438
_cell_angle_alpha 90.000000
_cell_angle_beta 90.000000
_cell_angle_gamma 90.000000
_cell_volume 2468.254686
_symmetry_space_group_name_H-M "A B M 2"
_symmetry_group_IT_number 39
_symmetry_cell_setting 'orthorhombic'
loop_
_space_group_symop_operation_xyz
x,y,z
-x,-y,z
-x,1/2+y,z
x,1/2-y,z
x,1/2+y,1/2+z
-x,1/2-y,1/2+z
-x,y,1/2+z
x,-y,1/2+z
loop_
_atom_site_type_symbol
_atom_site_label
_atom_site_fract_x
_atom_site_fract_y
_atom_site_fract_z
Si Si1 0.655110 0.643087 0.513940
Si Si2 0.856749 0.634467 0.563039
Si Si3 0.355204 0.637461 0.367979
Si Si4 0.432443 0.866640 0.804788
Si Si5 0.856083 0.132515 0.403743
Si Si6 0.072856 0.366418 0.339426
Si Si7 0.074520 0.632488 0.622670
Si Si8 0.550395 0.397768 0.582834
O O1 0.691711 0.750000 0.486484
O O2 0.744225 0.599976 0.580739
O O3 0.626919 0.597640 0.404310
O O4 0.554010 0.656958 0.575288
O O5 0.860484 0.750000 0.583475
O O6 0.871625 0.611118 0.443225
O O7 0.958946 0.601155 0.613862
O O8 0.350263 0.750000 0.339861
O O9 0.453192 0.598286 0.313572
O O10 0.245324 0.597488 0.353882
O O11 0.381375 0.630910 0.488511
O O12 0.435026 0.750000 0.814646
O O13 0.397825 0.888660 0.691289
O O14 0.853582 0.250000 0.401894
O O15 0.958149 0.103179 0.350939
O O16 0.867563 0.102615 0.521694
O O17 0.070921 0.250000 0.337781
O O18 0.115435 0.398160 0.231693
O O19 0.075046 0.750000 0.619396
O O20 0.500000 0.500000 0.567061
#
# Coordination Sequence:
#
# PCOD9362011 Si02
#       8
#     8   8   8   8   8   8   8   8
#     4   9  18  33  52  72  95 125 161 199 236 278
#     4   8  14  24  39  63  93 122 152 184 223 273
#     4   9  18  33  52  72  95 125 161 199 236 278
#     4   9  18  32  49  69  93 123 161 201 238 280
#     4   8  14  24  39  63  93 122 152 184 223 273
#     4   8  13  21  34  59  95 126 148 176 222 274
#     4   8  13  21  36  61  95 126 146 176 224 274
#     4  11  22  34  49  69  95 125 157 199 246 290
#
# _framework density 25.929252000000002
#
# number of rings (size 3 to 8) (size 9 to 14) (size 15 to 20)
#    0.000    3.250    0.000    3.375    0.000    4.000 
#    0.000    7.500    0.000    0.000    0.000    3.500 
#    0.000    2.000    0.000    0.000    0.000    0.000 
#
# Total GULP energy -178690.796239 kJ/mol
# GULP energy per Si atom -5584.087382 kJ/mol
# Density = 2.587024 g / cm^3
# Si number density = 25.929252 Si / 1000 Ang^3
#
#
#
# Elastic Constant Matrix: (Units=GPa)
#
#
# Indices 1 2 3 4 5 6 
#
# 1 74.4986 17.1419 -28.7361 0.0000 0.0000 0.0000
# 2 17.1419 75.6008 -4.2380 0.0000 0.0000 0.0000
# 3 -28.7361 -4.2380 80.3307 0.0000 0.0000 0.0000
# 4 0.0000 0.0000 0.0000 21.2524 0.0000 0.0000
# 5 0.0000 0.0000 0.0000 0.0000 -7.7516 0.0000
# 6 0.0000 0.0000 0.0000 0.0000 0.0000 26.4944
#
#
#
# Elastic Compliance Matrix: (Units=1/GPa)
#
#
# Indices 1 2 3 4 5 6 
#
# 1 0.016399 -0.003400 0.005687 0.000000 0.000000 0.000000
# 2 -0.003400 0.013971 -0.000479 0.000000 0.000000 0.000000
# 3 0.005687 -0.000479 0.014458 0.000000 0.000000 0.000000
# 4 0.000000 0.000000 0.000000 0.047054 0.000000 0.000000
# 5 0.000000 0.000000 0.000000 0.000000 -0.129006 0.000000
# 6 0.000000 0.000000 0.000000 0.000000 0.000000 0.037744
#
#
# Mechanical properties :
#
#
# Convention : Reuss Voigt Hill
#
# Bulk Modulus (GPa) = 20.64214 22.08507 21.36360
# Shear Modulus (GPa) = 380.22379 24.41654 202.32016
#
# Velocity S-wave (km/s) = 12.12259 3.07198 8.84292
# Velocity P-wave (km/s) = 14.28010 4.59550 10.60754
#
# Compressibility (1/GPa) = 0.04844460
#
# Stress axis : x y z
#
# Youngs Moduli (GPa) = 60.97977 71.57513 69.16771
#
# Poissons Ratio (x) = 0.24332 -0.39335
# Poissons Ratio (y) = 0.20730 0.03313
# Poissons Ratio (z) = -0.34679 0.03428
#
# Static dielectric constant tensor:
#      x y z
#    x 2.008890 0.000000 0.000000 
#    y 0.000000 1.796990 0.000000 
#    z 0.000000 0.000000 1.965630 
# 
# From -- ./inp_files/9905.got.cif
#   From: 2010.05.17/outbox.cif.g08.bks.cpg/sg39_5_cif.got.tgz:9905.got - 2010.06.03 18:22:40.
