data_PCOD9362142
_publ_section_title
;
Structure prediction by ZEFSAII (Michael W. Deem and Ramdas Pophale) SiO2 
 PCOD9362142
Probable space group: A B M 2
;
_chemical_formula_sum "Si O2"
_cell_formula_units_Z 32
_cell_length_a 4.722902
_cell_length_b 14.676040
_cell_length_c 18.989259
_cell_angle_alpha 90.000000
_cell_angle_beta 90.000000
_cell_angle_gamma 90.000000
_cell_volume 1316.211978
_symmetry_space_group_name_H-M "A B M 2"
_symmetry_group_IT_number 39
_symmetry_cell_setting 'orthorhombic'
loop_
_space_group_symop_operation_xyz
x,y,z
-x,-y,z
-x,1/2+y,z
x,1/2-y,z
x,1/2+y,1/2+z
-x,1/2-y,1/2+z
-x,y,1/2+z
x,-y,1/2+z
loop_
_atom_site_type_symbol
_atom_site_label
_atom_site_fract_x
_atom_site_fract_y
_atom_site_fract_z
Si Si1 0.121488 0.358267 0.573040
Si Si2 0.330699 0.750000 0.783091
Si Si3 0.783706 0.438711 0.705640
Si Si4 0.633250 0.904659 0.978614
Si Si5 0.195374 0.250000 0.873070
O O1 0.072024 0.250000 0.578174
O O2 0.988664 0.407400 0.640699
O O3 0.946040 0.402154 0.509755
O O4 0.442684 0.371934 0.546154
O O5 0.282880 0.656416 0.742116
O O6 0.663999 0.750000 0.797363
O O7 0.136554 0.750000 0.854520
O O8 0.500000 0.500000 0.691317
O O9 0.000000 0.500000 0.751353
O O10 0.500000 0.000000 0.956489
O O11 0.674073 0.835251 0.914855
#
# Coordination Sequence:
#
# PCOD9362142 Si02
#       5
#     8   4   8   8   4
#     4  12  22  44  72 105 142 179 225 297 379 439
#     4  12  28  48  70 100 144 194 250 296 349 426
#     4  12  26  46  74 107 145 189 239 301 372 441
#     4  12  25  43  71 104 139 180 233 297 367 436
#     4  12  26  46  70  98 142 192 242 296 349 422
#
# _framework density 24.312192
#
# number of rings (size 3 to 8) (size 9 to 14) (size 15 to 20)
#    0.000    0.000    3.750    7.500    0.000    3.000 
#    0.000    0.000    0.000    0.000    0.000    0.000 
#    0.000    0.000    0.000    0.000    0.000    0.000 
#
# Total GULP energy -89356.780959 kJ/mol
# GULP energy per Si atom -5584.798810 kJ/mol
# Density = 2.425686 g / cm^3
# Si number density = 24.312192 Si / 1000 Ang^3
#
#
#
# Elastic Constant Matrix: (Units=GPa)
#
#
# Indices 1 2 3 4 5 6 
#
# 1 126.5148 31.4802 10.6690 0.0000 0.0000 0.0000
# 2 31.4802 195.7912 25.2109 0.0000 0.0000 0.0000
# 3 10.6690 25.2109 39.4791 0.0000 0.0000 0.0000
# 4 0.0000 0.0000 0.0000 25.9900 0.0000 0.0000
# 5 0.0000 0.0000 0.0000 0.0000 -101.1640 0.0000
# 6 0.0000 0.0000 0.0000 0.0000 0.0000 29.1129
#
#
#
# Elastic Compliance Matrix: (Units=1/GPa)
#
#
# Indices 1 2 3 4 5 6 
#
# 1 0.008316 -0.001142 -0.001518 0.000000 0.000000 0.000000
# 2 -0.001142 0.005722 -0.003345 0.000000 0.000000 0.000000
# 3 -0.001518 -0.003345 0.027876 0.000000 0.000000 0.000000
# 4 0.000000 0.000000 0.000000 0.038476 0.000000 0.000000
# 5 0.000000 0.000000 0.000000 0.000000 -0.009885 0.000000
# 6 0.000000 0.000000 0.000000 0.000000 0.000000 0.034349
#
#
# Mechanical properties :
#
#
# Convention : Reuss Voigt Hill
#
# Bulk Modulus (GPa) = 33.44054 55.16726 44.30390
# Shear Modulus (GPa) = 39.42169 10.41612 24.91890
#
# Velocity S-wave (km/s) = 4.03113 2.07210 3.20497
# Velocity P-wave (km/s) = 5.95409 5.33529 5.65316
#
# Compressibility (1/GPa) = 0.02990382
#
# Stress axis : x y z
#
# Youngs Moduli (GPa) = 120.24533 174.77024 35.87255
#
# Poissons Ratio (x) = 0.19952 0.05447
# Poissons Ratio (y) = 0.13727 0.12001
# Poissons Ratio (z) = 0.18258 0.58467
#
# Static dielectric constant tensor:
#      x y z
#    x 1.945690 0.000000 0.000000 
#    y 0.000000 1.951610 0.000000 
#    z 0.000000 0.000000 1.964290 
# 
# From -- ./inp_files/10831.got.cif
#   From: 2010.05.17/outbox.cif.g08.bks.cpg/sg39_6_cif.got.tgz:10831.got - 2010.06.03 18:22:40.
