data_PCOD9362431
_publ_section_title
;
Structure prediction by ZEFSAII (Michael W. Deem and Ramdas Pophale) SiO2 
 PCOD9362431
Probable space group: A M A 2
;
_chemical_formula_sum "Si O2"
_cell_formula_units_Z 64
_cell_length_a 8.808746
_cell_length_b 27.132131
_cell_length_c 18.600499
_cell_angle_alpha 90.000000
_cell_angle_beta 90.000000
_cell_angle_gamma 90.000000
_cell_volume 4445.520199
_symmetry_space_group_name_H-M "A M A 2"
_symmetry_group_IT_number 40
_symmetry_cell_setting 'orthorhombic'
loop_
_space_group_symop_operation_xyz
x,y,z
-x,-y,z
1/2-x,y,z
1/2+x,-y,z
x,1/2+y,1/2+z
-x,1/2-y,1/2+z
1/2-x,1/2+y,1/2+z
1/2+x,1/2-y,1/2+z
loop_
_atom_site_type_symbol
_atom_site_label
_atom_site_fract_x
_atom_site_fract_y
_atom_site_fract_z
Si Si1 0.429758 0.260821 0.978530
Si Si2 0.924909 0.299286 0.198028
Si Si3 0.575907 0.200692 0.099163
Si Si4 0.566992 0.855042 0.559733
Si Si5 0.932092 0.053602 0.477616
Si Si6 0.431679 0.147662 0.227047
Si Si7 0.067097 0.053096 0.320123
Si Si8 0.429999 0.243394 0.322463
O O1 0.250000 0.267610 0.982745
O O2 0.483102 0.252944 0.897260
O O3 0.480510 0.215528 0.029358
O O4 0.510629 0.309711 0.010219
O O5 0.750000 0.307652 0.219648
O O6 0.927304 0.249984 0.148713
O O7 0.974020 0.341504 0.142209
O O8 0.024791 0.286569 0.266956
O O9 0.750000 0.190991 0.079557
O O10 0.509770 0.158863 0.151094
O O11 0.750000 0.857536 0.555335
O O12 0.491737 0.904619 0.531101
O O13 0.750000 0.051742 0.475894
O O14 0.996026 0.065469 0.397874
O O15 0.000000 0.000000 0.496117
O O16 0.250000 0.149900 0.217163
O O17 0.470784 0.095936 0.263747
O O18 0.471047 0.191959 0.282388
O O19 0.250000 0.050211 0.327250
O O20 0.000000 0.000000 0.299240
O O21 0.250000 0.243180 0.335293
#
# Coordination Sequence:
#
# PCOD9362431 Si02
#       8
#     8   8   8   8   8   8   8   8
#     4  11  20  29  43  63  88 116 147 178 212 256
#     4   8  16  29  43  60  83 110 139 174 214 255
#     4   9  17  29  44  61  83 110 141 177 214 254
#     4  10  19  32  47  63  86 114 146 181 217 256
#     4  11  21  32  46  64  87 115 148 183 219 255
#     4   9  18  30  44  61  83 113 145 179 217 256
#     4  10  19  31  45  62  87 116 148 185 221 255
#     4  10  18  28  43  62  86 114 145 179 214 253
#
# _framework density 14.396515000000001
#
# number of rings (size 3 to 8) (size 9 to 14) (size 15 to 20)
#    0.000    2.250    0.000    6.000    0.000    6.000 
#    0.000    0.000    0.000    0.000    0.000    0.000 
#    0.000    1.000    0.000    8.250    0.000    5.250 
#
# Total GULP energy -178431.315118 kJ/mol
# GULP energy per Si atom -5575.978597 kJ/mol
# Density = 1.436375 g / cm^3
# Si number density = 14.396515 Si / 1000 Ang^3
#
#
#
# Elastic Constant Matrix: (Units=GPa)
#
#
# Indices 1 2 3 4 5 6 
#
# 1 75.4966 32.9401 38.4687 0.0000 0.0000 0.0000
# 2 32.9401 75.1570 39.6235 0.0000 0.0000 0.0000
# 3 38.4687 39.6235 70.4525 0.0000 0.0000 0.0000
# 4 0.0000 0.0000 0.0000 26.6398 0.0000 0.0000
# 5 0.0000 0.0000 0.0000 0.0000 25.6296 0.0000
# 6 0.0000 0.0000 0.0000 0.0000 0.0000 22.1819
#
#
#
# Elastic Compliance Matrix: (Units=1/GPa)
#
#
# Indices 1 2 3 4 5 6 
#
# 1 0.019203 -0.004106 -0.008176 0.000000 0.000000 0.000000
# 2 -0.004106 0.019791 -0.008889 0.000000 0.000000 0.000000
# 3 -0.008176 -0.008889 0.023658 0.000000 0.000000 0.000000
# 4 0.000000 0.000000 0.000000 0.037538 0.000000 0.000000
# 5 0.000000 0.000000 0.000000 0.000000 0.039017 0.000000
# 6 0.000000 0.000000 0.000000 0.000000 0.000000 0.045082
#
#
# Mechanical properties :
#
#
# Convention : Reuss Voigt Hill
#
# Bulk Modulus (GPa) = 49.23678 49.24120 49.23899
# Shear Modulus (GPa) = 21.42231 22.22851 21.82541
#
# Velocity S-wave (km/s) = 3.86167 3.93367 3.89783
# Velocity P-wave (km/s) = 7.35922 7.41009 7.38470
#
# Compressibility (1/GPa) = 0.02031002
#
# Stress axis : x y z
#
# Youngs Moduli (GPa) = 52.07465 50.52693 42.26957
#
# Poissons Ratio (x) = 0.20746 0.34560
# Poissons Ratio (y) = 0.21381 0.37574
# Poissons Ratio (z) = 0.42577 0.44914
#
# Static dielectric constant tensor:
#      x y z
#    x 1.482600 0.000000 0.000000 
#    y 0.000000 1.465390 0.000000 
#    z 0.000000 0.000000 1.465650 
# 
# From -- ./inp_files/15655.got.cif
#   From: 2010.05.17/outbox.cif.g08.bks.cpg/sg40_8_cif.got.tgz:15655.got - 2010.06.03 18:35:42.
