data_PCOD9362839
_publ_section_title
;
Structure prediction by ZEFSAII (Michael W. Deem and Ramdas Pophale) SiO2 
 PCOD9362839
Probable space group: A M A 2
;
_chemical_formula_sum "Si O2"
_cell_formula_units_Z 44
_cell_length_a 11.686936
_cell_length_b 13.372877
_cell_length_c 12.276800
_cell_angle_alpha 90.000000
_cell_angle_beta 90.000000
_cell_angle_gamma 90.000000
_cell_volume 1918.715998
_symmetry_space_group_name_H-M "A M A 2"
_symmetry_group_IT_number 40
_symmetry_cell_setting 'orthorhombic'
loop_
_space_group_symop_operation_xyz
x,y,z
-x,-y,z
1/2-x,y,z
1/2+x,-y,z
x,1/2+y,1/2+z
-x,1/2-y,1/2+z
1/2-x,1/2+y,1/2+z
1/2+x,1/2-y,1/2+z
loop_
_atom_site_type_symbol
_atom_site_label
_atom_site_fract_x
_atom_site_fract_y
_atom_site_fract_z
Si Si1 0.485893 0.392085 0.476730
Si Si2 0.114722 0.690613 0.675183
Si Si3 0.035694 0.112645 0.631020
Si Si4 0.750000 0.121380 0.107137
Si Si5 0.750000 0.627637 0.855191
Si Si6 0.497286 0.167677 0.400364
Si Si7 0.250000 0.680445 0.235400
O O1 0.500000 0.500000 0.421321
O O2 0.579498 0.376655 0.572293
O O3 0.363641 0.396746 0.538599
O O4 0.495125 0.289218 0.409499
O O5 0.250000 0.699663 0.686715
O O6 0.056484 0.799445 0.653713
O O7 0.057057 0.645731 0.783576
O O8 0.136122 0.121856 0.717833
O O9 0.071861 0.131930 0.505524
O O10 0.000000 0.000000 0.636141
O O11 0.750000 0.079601 0.232582
O O12 0.750000 0.238468 0.137600
O O13 0.624249 0.616645 0.907290
O O14 0.750000 0.748680 0.838651
#
# Coordination Sequence:
#
# PCOD9362839 Si02
#       7
#     8   8   8   4   4   8   4
#     4  11  25  41  64  94 123 163 206 252 308 362
#     4  11  24  43  63  91 129 160 203 259 303 359
#     4  11  25  41  64  94 123 163 206 252 308 362
#     4  10  18  45  63  82 125 176 193 243 308 380
#     4  10  18  40  66  84 120 170 198 248 308 368
#     4  11  22  41  64  91 124 160 208 249 312 357
#     4  10  18  45  63  82 125 176 193 243 308 380
#
# _framework density 22.932002000000001
#
# number of rings (size 3 to 8) (size 9 to 14) (size 15 to 20)
#    0.545    0.727    7.273    0.000   10.182    1.455 
#    0.000    0.000    0.000    0.000    0.000    0.000 
#    0.000    0.000    0.000    0.000    0.000    0.000 
#
# Total GULP energy -122791.799459 kJ/mol
# GULP energy per Si atom -5581.445430 kJ/mol
# Density = 2.287981 g / cm^3
# Si number density = 22.932002 Si / 1000 Ang^3
#
#
#
# Elastic Constant Matrix: (Units=GPa)
#
#
# Indices 1 2 3 4 5 6 
#
# 1 78.6949 13.5263 0.7324 0.0000 0.0000 0.0000
# 2 13.5263 75.2990 -16.2744 0.0000 0.0000 0.0000
# 3 0.7324 -16.2744 63.7779 0.0000 0.0000 0.0000
# 4 0.0000 0.0000 0.0000 -6.5207 0.0000 0.0000
# 5 0.0000 0.0000 0.0000 0.0000 26.0416 0.0000
# 6 0.0000 0.0000 0.0000 0.0000 0.0000 -16.3055
#
#
#
# Elastic Compliance Matrix: (Units=1/GPa)
#
#
# Indices 1 2 3 4 5 6 
#
# 1 0.013150 -0.002535 -0.000798 0.000000 0.000000 0.000000
# 2 -0.002535 0.014544 0.003740 0.000000 0.000000 0.000000
# 3 -0.000798 0.003740 0.016643 0.000000 0.000000 0.000000
# 4 0.000000 0.000000 0.000000 -0.153359 0.000000 0.000000
# 5 0.000000 0.000000 0.000000 0.000000 0.038400 0.000000
# 6 0.000000 0.000000 0.000000 0.000000 0.000000 -0.061329
#
#
# Mechanical properties :
#
#
# Convention : Reuss Voigt Hill
#
# Bulk Modulus (GPa) = 22.14680 23.74895 22.94788
# Shear Modulus (GPa) = -42.47548 15.29560 -13.58994
#
# Velocity S-wave (km/s) = -4.30843 2.58543 -2.43702
# Velocity P-wave (km/s) = 3.88221 4.39219 1.45255
#
# Compressibility (1/GPa) = 0.04515325
#
# Stress axis : x y z
#
# Youngs Moduli (GPa) = 76.04337 68.75640 60.08531
#
# Poissons Ratio (x) = 0.17428 0.04794
# Poissons Ratio (y) = 0.19275 -0.22474
# Poissons Ratio (z) = 0.06067 -0.25717
#
# Static dielectric constant tensor:
#      x y z
#    x 1.680880 0.000000 0.000000 
#    y 0.000000 1.854950 0.000000 
#    z 0.000000 0.000000 1.872840 
# 
# From -- ./inp_files/16322.got.cif
#   From: 2010.05.17/outbox.cif.g08.bks.cpg/sg40_9_cif.got.tgz:16322.got - 2010.06.03 18:35:42.
