data_PCOD9362098
_publ_section_title
;
Structure prediction by ZEFSAII (Michael W. Deem and Ramdas Pophale) SiO2 
 PCOD9362098
Probable space group: A B M 2
;
_chemical_formula_sum "Si O2"
_cell_formula_units_Z 60
_cell_length_a 12.082979
_cell_length_b 25.365662
_cell_length_c 9.204554
_cell_angle_alpha 90.000000
_cell_angle_beta 90.000000
_cell_angle_gamma 90.000000
_cell_volume 2821.129172
_symmetry_space_group_name_H-M "A B M 2"
_symmetry_group_IT_number 39
_symmetry_cell_setting 'orthorhombic'
loop_
_space_group_symop_operation_xyz
x,y,z
-x,-y,z
-x,1/2+y,z
x,1/2-y,z
x,1/2+y,1/2+z
-x,1/2-y,1/2+z
-x,y,1/2+z
x,-y,1/2+z
loop_
_atom_site_type_symbol
_atom_site_label
_atom_site_fract_x
_atom_site_fract_y
_atom_site_fract_z
Si Si1 0.703465 0.544128 0.008640
Si Si2 0.326255 0.836327 0.579388
Si Si3 0.928460 0.446763 0.691239
Si Si4 0.326287 0.553706 0.174929
Si Si5 0.687973 0.250000 0.344237
Si Si6 0.749316 0.312414 0.888684
Si Si7 0.422367 0.664556 0.126432
Si Si8 0.886405 0.898989 0.508544
O O1 0.662252 0.603603 0.029179
O O2 0.821543 0.543488 0.091164
O O3 0.635716 0.497247 0.084646
O O4 0.706517 0.535740 0.836419
O O5 0.278561 0.796703 0.461233
O O6 0.256050 0.833958 0.726053
O O7 0.451108 0.817977 0.614656
O O8 0.901576 0.428174 0.854104
O O9 0.000000 0.500000 0.699208
O O10 0.005792 0.405137 0.606716
O O11 0.408576 0.603773 0.176429
O O12 0.216963 0.575615 0.093798
O O13 0.642473 0.296288 0.232387
O O14 0.755818 0.250000 0.888462
O O15 0.849447 0.339644 0.973861
O O16 0.636755 0.329770 0.970229
#
# Coordination Sequence:
#
# PCOD9362098 Si02
#       8
#     8   8   8   8   4   8   8   8
#     4  12  25  44  67 101 136 178 227 278 345 415
#     4  12  25  41  70 103 139 178 233 287 335 401
#     4  12  23  40  69  99 125 170 221 279 338 404
#     4  11  25  44  64  98 143 178 222 277 344 412
#     4  12  22  44  68 100 132 180 240 280 326 392
#     4  11  24  43  67  97 135 175 225 285 343 399
#     4  11  25  42  67 101 138 185 225 281 340 398
#     4  11  24  42  67 100 131 170 224 280 342 404
#
# _framework density 21.268080999999999
#
# number of rings (size 3 to 8) (size 9 to 14) (size 15 to 20)
#    0.000    0.533    5.333    3.200    3.733    0.533 
#    0.000    2.000    1.467    0.000    0.000    0.000 
#    0.000    0.000    0.000    0.000    0.000    0.000 
#
# Total GULP energy -167307.554474 kJ/mol
# GULP energy per Si atom -5576.918482 kJ/mol
# Density = 2.121967 g / cm^3
# Si number density = 21.268081 Si / 1000 Ang^3
#
#
#
# Elastic Constant Matrix: (Units=GPa)
#
#
# Indices 1 2 3 4 5 6 
#
# 1 38.4135 -10.8750 -1.5552 0.0000 0.0000 0.0000
# 2 -10.8750 130.8702 31.5032 0.0000 0.0000 0.0000
# 3 -1.5552 31.5032 119.1483 0.0000 0.0000 0.0000
# 4 0.0000 0.0000 0.0000 41.3832 0.0000 0.0000
# 5 0.0000 0.0000 0.0000 0.0000 5.5428 0.0000
# 6 0.0000 0.0000 0.0000 0.0000 0.0000 21.9562
#
#
#
# Elastic Compliance Matrix: (Units=1/GPa)
#
#
# Indices 1 2 3 4 5 6 
#
# 1 0.026667 0.002277 -0.000254 0.000000 0.000000 0.000000
# 2 0.002277 0.008355 -0.002179 0.000000 0.000000 0.000000
# 3 -0.000254 -0.002179 0.008966 0.000000 0.000000 0.000000
# 4 0.000000 0.000000 0.000000 0.024164 0.000000 0.000000
# 5 0.000000 0.000000 0.000000 0.000000 0.180413 0.000000
# 6 0.000000 0.000000 0.000000 0.000000 0.000000 0.045545
#
#
# Mechanical properties :
#
#
# Convention : Reuss Voigt Hill
#
# Bulk Modulus (GPa) = 22.89631 36.28642 29.59137
# Shear Modulus (GPa) = 16.18223 31.73372 23.95798
#
# Velocity S-wave (km/s) = 2.76138 3.86694 3.35994
# Velocity P-wave (km/s) = 4.57776 6.08573 5.38479
#
# Compressibility (1/GPa) = 0.04367516
#
# Stress axis : x y z
#
# Youngs Moduli (GPa) = 37.49973 119.68879 111.53469
#
# Poissons Ratio (x) = -0.27254 0.02833
# Poissons Ratio (y) = -0.08539 0.24307
# Poissons Ratio (z) = 0.00952 0.26085
#
# Static dielectric constant tensor:
#      x y z
#    x 1.789930 0.000000 0.000000 
#    y 0.000000 1.782570 0.000000 
#    z 0.000000 0.000000 1.771130 
# 
# From -- ./inp_files/2832.got.cif
#   From: 2010.05.17/outbox.cif.g08.bks.cpg/sg39_2_cif.got.tgz:2832.got - 2010.06.03 18:22:40.
