data_PCOD9362055
_publ_section_title
;
Structure prediction by ZEFSAII (Michael W. Deem and Ramdas Pophale) SiO2 
 PCOD9362055
Probable space group: A B M 2
;
_chemical_formula_sum "Si O2"
_cell_formula_units_Z 40
_cell_length_a 9.008498
_cell_length_b 24.086571
_cell_length_c 8.563781
_cell_angle_alpha 90.000000
_cell_angle_beta 90.000000
_cell_angle_gamma 90.000000
_cell_volume 1858.201972
_symmetry_space_group_name_H-M "A B M 2"
_symmetry_group_IT_number 39
_symmetry_cell_setting 'orthorhombic'
loop_
_space_group_symop_operation_xyz
x,y,z
-x,-y,z
-x,1/2+y,z
x,1/2-y,z
x,1/2+y,1/2+z
-x,1/2-y,1/2+z
-x,y,1/2+z
x,-y,1/2+z
loop_
_atom_site_type_symbol
_atom_site_label
_atom_site_fract_x
_atom_site_fract_y
_atom_site_fract_z
Si Si1 0.618698 0.602955 0.123580
Si Si2 0.319042 0.083511 0.464435
Si Si3 0.148900 0.027246 0.943478
Si Si4 0.824331 0.685263 0.015252
Si Si5 0.084864 0.626713 0.206318
O O1 0.627800 0.612078 0.307021
O O2 0.659980 0.661170 0.043310
O O3 0.461159 0.577841 0.075492
O O4 0.746899 0.562341 0.057807
O O5 0.196032 0.116659 0.562133
O O6 0.251224 0.025347 0.405012
O O7 0.093994 0.068521 0.805161
O O8 0.000000 0.000000 0.012804
O O9 0.838469 0.750000 0.046557
O O10 0.934429 0.650188 0.129740
O O11 0.866005 0.670602 0.837280
#
# Coordination Sequence:
#
# PCOD9362055 Si02
#       5
#     8   8   8   8   8
#     4  11  24  41  63  92 130 172 222 271 331 410
#     4  12  24  42  63  93 133 175 217 275 340 409
#     4  11  23  40  64  96 133 173 215 268 333 409
#     4  11  23  44  69  97 130 172 223 285 343 397
#     4  11  24  41  67  98 131 170 225 279 335 413
#
# _framework density 21.526185999999999
#
# number of rings (size 3 to 8) (size 9 to 14) (size 15 to 20)
#    0.000    0.800    0.000    9.600    0.000    4.800 
#    0.000    6.000    0.000    0.000    0.000    0.000 
#    0.000    0.000    0.000    0.000    0.000    0.000 
#
# Total GULP energy -111734.186674 kJ/mol
# GULP energy per Si atom -5586.709334 kJ/mol
# Density = 2.147719 g / cm^3
# Si number density = 21.526186 Si / 1000 Ang^3
#
#
#
# Elastic Constant Matrix: (Units=GPa)
#
#
# Indices 1 2 3 4 5 6 
#
# 1 77.3968 53.7390 -2.4172 0.0000 0.0000 0.0000
# 2 53.7390 98.5724 13.1921 0.0000 0.0000 0.0000
# 3 -2.4172 13.1921 75.5735 0.0000 0.0000 0.0000
# 4 0.0000 0.0000 0.0000 22.4072 0.0000 0.0000
# 5 0.0000 0.0000 0.0000 0.0000 24.4304 0.0000
# 6 0.0000 0.0000 0.0000 0.0000 0.0000 18.3171
#
#
#
# Elastic Compliance Matrix: (Units=1/GPa)
#
#
# Indices 1 2 3 4 5 6 
#
# 1 0.021345 -0.012009 0.002779 0.000000 0.000000 0.000000
# 2 -0.012009 0.017144 -0.003377 0.000000 0.000000 0.000000
# 3 0.002779 -0.003377 0.013910 0.000000 0.000000 0.000000
# 4 0.000000 0.000000 0.000000 0.044628 0.000000 0.000000
# 5 0.000000 0.000000 0.000000 0.000000 0.040933 0.000000
# 6 0.000000 0.000000 0.000000 0.000000 0.000000 0.054594
#
#
# Mechanical properties :
#
#
# Convention : Reuss Voigt Hill
#
# Bulk Modulus (GPa) = 36.78313 42.28562 39.53437
# Shear Modulus (GPa) = 22.04298 25.49952 23.77125
#
# Velocity S-wave (km/s) = 3.20348 3.44551 3.32670
# Velocity P-wave (km/s) = 5.55048 5.95946 5.75860
#
# Compressibility (1/GPa) = 0.02718638
#
# Stress axis : x y z
#
# Youngs Moduli (GPa) = 46.84869 58.33069 71.88822
#
# Poissons Ratio (x) = 0.70048 -0.19978
# Poissons Ratio (y) = 0.56260 0.24275
# Poissons Ratio (z) = -0.13019 0.19697
#
# Static dielectric constant tensor:
#      x y z
#    x 1.806240 0.000000 0.000000 
#    y 0.000000 1.797920 0.000000 
#    z 0.000000 0.000000 1.784340 
# 
# From -- ./inp_files/2097.got.cif
#   From: 2010.05.17/outbox.cif.g08.bks.cpg/sg39_2_cif.got.tgz:2097.got - 2010.06.03 18:22:40.
