data_PCOD9362096
_publ_section_title
;
Structure prediction by ZEFSAII (Michael W. Deem and Ramdas Pophale) SiO2 
 PCOD9362096
Probable space group: A B M 2
;
_chemical_formula_sum "Si O2"
_cell_formula_units_Z 40
_cell_length_a 7.572230
_cell_length_b 22.643453
_cell_length_c 9.239387
_cell_angle_alpha 90.000000
_cell_angle_beta 90.000000
_cell_angle_gamma 90.000000
_cell_volume 1584.198545
_symmetry_space_group_name_H-M "A B M 2"
_symmetry_group_IT_number 39
_symmetry_cell_setting 'orthorhombic'
loop_
_space_group_symop_operation_xyz
x,y,z
-x,-y,z
-x,1/2+y,z
x,1/2-y,z
x,1/2+y,1/2+z
-x,1/2-y,1/2+z
-x,y,1/2+z
x,-y,1/2+z
loop_
_atom_site_type_symbol
_atom_site_label
_atom_site_fract_x
_atom_site_fract_y
_atom_site_fract_z
Si Si1 0.256544 0.250000 0.854250
Si Si2 0.348903 0.633045 0.764145
Si Si3 0.892090 0.060558 0.168269
Si Si4 0.509357 0.935399 0.520682
Si Si5 0.504663 0.750000 0.116347
Si Si6 0.973907 0.135021 0.418808
O O1 0.306726 0.250000 0.683225
O O2 0.144481 0.307454 0.898047
O O3 0.438017 0.250000 0.948998
O O4 0.365753 0.582401 0.640915
O O5 0.411597 0.691357 0.683929
O O6 0.163353 0.643024 0.841886
O O7 0.475896 0.612605 0.894790
O O8 0.695936 0.060758 0.105160
O O9 0.888799 0.079498 0.334941
O O10 0.986119 0.113745 0.080056
O O11 0.000000 0.000000 0.150319
O O12 0.500000 0.000000 0.452072
#
# Coordination Sequence:
#
# PCOD9362096 Si02
#       6
#     4   8   8   8   4   8
#     4  12  27  48  74 102 137 176 226 282 343 418
#     4  11  24  44  70 100 137 182 232 284 343 404
#     4  11  24  42  67  99 139 184 232 286 344 405
#     4  11  24  41  66 101 139 182 233 287 342 404
#     4  12  25  44  72 102 137 178 224 282 341 408
#     4  11  25  45  70 101 137 182 230 282 341 408
#
# _framework density 25.249359999999999
#
# number of rings (size 3 to 8) (size 9 to 14) (size 15 to 20)
#    0.000    0.800    0.000    6.600    0.000   10.400 
#    0.000    1.000    0.000    0.000    0.000    0.000 
#    0.000    0.000    0.000    0.000    0.000    0.000 
#
# Total GULP energy -112095.232470 kJ/mol
# GULP energy per Si atom -5604.761623 kJ/mol
# Density = 2.519189 g / cm^3
# Si number density = 25.249360 Si / 1000 Ang^3
#
#
#
# Elastic Constant Matrix: (Units=GPa)
#
#
# Indices 1 2 3 4 5 6 
#
# 1 97.3387 21.5554 10.9657 0.0000 0.0000 0.0000
# 2 21.5554 128.0828 16.1531 0.0000 0.0000 0.0000
# 3 10.9657 16.1531 110.0856 0.0000 0.0000 0.0000
# 4 0.0000 0.0000 0.0000 32.5867 0.0000 0.0000
# 5 0.0000 0.0000 0.0000 0.0000 39.4855 0.0000
# 6 0.0000 0.0000 0.0000 0.0000 0.0000 33.5990
#
#
#
# Elastic Compliance Matrix: (Units=1/GPa)
#
#
# Indices 1 2 3 4 5 6 
#
# 1 0.010743 -0.001705 -0.000820 0.000000 0.000000 0.000000
# 2 -0.001705 0.008225 -0.001037 0.000000 0.000000 0.000000
# 3 -0.000820 -0.001037 0.009318 0.000000 0.000000 0.000000
# 4 0.000000 0.000000 0.000000 0.030687 0.000000 0.000000
# 5 0.000000 0.000000 0.000000 0.000000 0.025326 0.000000
# 6 0.000000 0.000000 0.000000 0.000000 0.000000 0.029763
#
#
# Mechanical properties :
#
#
# Convention : Reuss Voigt Hill
#
# Bulk Modulus (GPa) = 47.25306 48.09505 47.67405
# Shear Modulus (GPa) = 38.98953 40.25645 39.62299
#
# Velocity S-wave (km/s) = 3.93387 3.99727 3.96570
# Velocity P-wave (km/s) = 6.27606 6.35560 6.31595
#
# Compressibility (1/GPa) = 0.02116265
#
# Stress axis : x y z
#
# Youngs Moduli (GPa) = 93.08162 121.57889 107.32261
#
# Poissons Ratio (x) = 0.20724 0.08801
# Poissons Ratio (y) = 0.15867 0.11130
# Poissons Ratio (z) = 0.07633 0.12609
#
# Static dielectric constant tensor:
#      x y z
#    x 2.032720 0.000000 0.000000 
#    y 0.000000 1.943250 0.000000 
#    z 0.000000 0.000000 1.957440 
# 
# From -- ./inp_files/2134.got.cif
#   From: 2010.05.17/outbox.cif.g08.bks.cpg/sg39_2_cif.got.tgz:2134.got - 2010.06.03 18:22:40.
