data_PCOD9362485
_publ_section_title
;
Structure prediction by ZEFSAII (Michael W. Deem and Ramdas Pophale) SiO2 
 PCOD9362485
Probable space group: A M A 2
;
_chemical_formula_sum "Si O2"
_cell_formula_units_Z 56
_cell_length_a 8.196662
_cell_length_b 19.086916
_cell_length_c 21.559798
_cell_angle_alpha 90.000000
_cell_angle_beta 90.000000
_cell_angle_gamma 90.000000
_cell_volume 3373.008817
_symmetry_space_group_name_H-M "A M A 2"
_symmetry_group_IT_number 40
_symmetry_cell_setting 'orthorhombic'
loop_
_space_group_symop_operation_xyz
x,y,z
-x,-y,z
1/2-x,y,z
1/2+x,-y,z
x,1/2+y,1/2+z
-x,1/2-y,1/2+z
1/2-x,1/2+y,1/2+z
1/2+x,1/2-y,1/2+z
loop_
_atom_site_type_symbol
_atom_site_label
_atom_site_fract_x
_atom_site_fract_y
_atom_site_fract_z
Si Si1 0.439489 0.711041 0.360780
Si Si2 0.050281 0.350289 0.916184
Si Si3 0.447209 0.579454 0.293134
Si Si4 0.554839 0.579095 0.786394
Si Si5 0.555212 0.341596 0.167671
Si Si6 0.554545 0.580259 0.044350
Si Si7 0.560392 0.282823 0.738416
O O1 0.250000 0.701572 0.377422
O O2 0.508470 0.769976 0.406910
O O3 0.509149 0.634334 0.345468
O O4 0.452483 0.749851 0.293990
O O5 0.250000 0.348849 0.915999
O O6 0.001333 0.394767 0.855334
O O7 0.995723 0.385748 0.979708
O O8 0.500000 0.500000 0.301749
O O9 0.250000 0.582151 0.293851
O O10 0.500024 0.609512 0.225787
O O11 0.500000 0.500000 0.776062
O O12 0.750000 0.583073 0.784100
O O13 0.482454 0.635456 0.738267
O O14 0.750000 0.335784 0.170992
O O15 0.506532 0.376752 0.103497
O O16 0.479536 0.264956 0.179400
O O17 0.500000 0.500000 0.048609
O O18 0.750000 0.582212 0.044171
O O19 0.750000 0.274236 0.754521
#
# Coordination Sequence:
#
# PCOD9362485 Si02
#       7
#     8   8   8   8   8   8   8
#     4   8  15  30  46  62  87 121 153 185 227 275
#     4   8  16  30  47  64  89 123 158 191 226 268
#     4   9  17  27  43  64  88 115 145 180 224 269
#     4  10  18  30  47  69  96 125 154 189 230 274
#     4  10  20  34  47  62  88 124 157 189 227 271
#     4  11  21  32  46  67  92 122 157 192 226 268
#     4  10  18  29  46  68  90 116 150 190 232 277
#
# _framework density 16.602387
#
# number of rings (size 3 to 8) (size 9 to 14) (size 15 to 20)
#    0.000    2.571    0.000    5.143    0.000    4.000 
#    0.000    6.429    0.000    0.000    0.000    1.000 
#    0.000    4.571    0.000    0.000    0.000    0.000 
#
# Total GULP energy -155987.500946 kJ/mol
# GULP energy per Si atom -5570.982177 kJ/mol
# Density = 1.656460 g / cm^3
# Si number density = 16.602387 Si / 1000 Ang^3
#
#
#
# Elastic Constant Matrix: (Units=GPa)
#
#
# Indices 1 2 3 4 5 6 
#
# 1 33.6103 17.1672 11.3043 0.0000 0.0000 0.0000
# 2 17.1672 172.4134 66.0504 0.0000 0.0000 0.0000
# 3 11.3043 66.0504 71.1070 0.0000 0.0000 0.0000
# 4 0.0000 0.0000 0.0000 29.1226 0.0000 0.0000
# 5 0.0000 0.0000 0.0000 0.0000 134.9649 0.0000
# 6 0.0000 0.0000 0.0000 0.0000 0.0000 25.5932
#
#
#
# Elastic Compliance Matrix: (Units=1/GPa)
#
#
# Indices 1 2 3 4 5 6 
#
# 1 0.031834 -0.001911 -0.003286 0.000000 0.000000 0.000000
# 2 -0.001911 0.009119 -0.008167 0.000000 0.000000 0.000000
# 3 -0.003286 -0.008167 0.022171 0.000000 0.000000 0.000000
# 4 0.000000 0.000000 0.000000 0.034338 0.000000 0.000000
# 5 0.000000 0.000000 0.000000 0.000000 0.007409 0.000000
# 6 0.000000 0.000000 0.000000 0.000000 0.000000 0.039073
#
#
# Mechanical properties :
#
#
# Convention : Reuss Voigt Hill
#
# Bulk Modulus (GPa) = 27.47426 51.79717 39.63571
# Shear Modulus (GPa) = 27.35180 50.11006 38.73093
#
# Velocity S-wave (km/s) = 4.06330 5.49982 4.83520
# Velocity P-wave (km/s) = 6.21274 8.46150 7.42277
#
# Compressibility (1/GPa) = 0.03639771
#
# Stress axis : x y z
#
# Youngs Moduli (GPa) = 31.41296 109.66300 45.10297
#
# Poissons Ratio (x) = 0.20956 0.14820
# Poissons Ratio (y) = 0.06003 0.36834
# Poissons Ratio (z) = 0.10322 0.89557
#
# Static dielectric constant tensor:
#      x y z
#    x 1.572530 0.000000 0.000000 
#    y 0.000000 1.590740 0.000000 
#    z 0.000000 0.000000 1.548210 
# 
# From -- ./inp_files/22146.got.cif
#   From: 2010.05.17/outbox.cif.g08.bks.cpg/sg40_12_cif.got.tgz:22146.got - 2010.06.03 18:35:42.
