data_PCOD9362505
_publ_section_title
;
Structure prediction by ZEFSAII (Michael W. Deem and Ramdas Pophale) SiO2 
 PCOD9362505
Probable space group: A M A 2
;
_chemical_formula_sum "Si O2"
_cell_formula_units_Z 56
_cell_length_a 8.092017
_cell_length_b 21.117603
_cell_length_c 14.305733
_cell_angle_alpha 90.000000
_cell_angle_beta 90.000000
_cell_angle_gamma 90.000000
_cell_volume 2444.620913
_symmetry_space_group_name_H-M "A M A 2"
_symmetry_group_IT_number 40
_symmetry_cell_setting 'orthorhombic'
loop_
_space_group_symop_operation_xyz
x,y,z
-x,-y,z
1/2-x,y,z
1/2+x,-y,z
x,1/2+y,1/2+z
-x,1/2-y,1/2+z
1/2-x,1/2+y,1/2+z
1/2+x,1/2-y,1/2+z
loop_
_atom_site_type_symbol
_atom_site_label
_atom_site_fract_x
_atom_site_fract_y
_atom_site_fract_z
Si Si1 0.950414 0.431756 0.234950
Si Si2 0.057483 0.430753 0.643529
Si Si3 0.561844 0.336065 0.089412
Si Si4 0.436934 0.430784 0.947168
Si Si5 0.438442 0.831127 0.280746
Si Si6 0.057833 0.595918 0.440035
Si Si7 0.553545 0.237567 0.935975
O O1 0.750000 0.428233 0.233934
O O2 0.013503 0.368855 0.181129
O O3 0.009416 0.429619 0.341865
O O4 0.000000 0.500000 0.193259
O O5 0.250000 0.426975 0.665334
O O6 0.984283 0.366784 0.691094
O O7 0.000000 0.500000 0.676787
O O8 0.031178 0.427174 0.532923
O O9 0.750000 0.317605 0.111214
O O10 0.556358 0.395542 0.018836
O O11 0.491246 0.279960 0.024646
O O12 0.500000 0.500000 0.926768
O O13 0.250000 0.431816 0.985848
O O14 0.433127 0.388692 0.854665
O O15 0.250000 0.809393 0.260995
O O16 0.526017 0.775873 0.339248
O O17 0.250000 0.578306 0.448397
O O18 0.038533 0.671465 0.434540
O O19 0.750000 0.227566 0.948070
#
# Coordination Sequence:
#
# PCOD9362505 Si02
#       7
#     8   8   8   8   8   8   8
#     4  10  22  39  59  83 112 148 188 233 285 338
#     4  11  23  40  62  88 118 154 198 247 300 354
#     4   9  19  36  56  80 111 146 184 229 282 339
#     4  10  18  29  48  77 111 146 183 225 278 338
#     4   9  20  37  57  82 115 153 190 234 289 348
#     4  11  24  41  60  83 116 157 199 245 294 345
#     4  10  21  38  61  89 119 152 193 237 286 348
#
# _framework density 22.907437999999999
#
# number of rings (size 3 to 8) (size 9 to 14) (size 15 to 20)
#    0.000    2.000    0.000    3.000    0.000    7.429 
#    0.000    2.857    0.000    0.000    0.000    0.000 
#    0.000    0.000    0.000    0.000    0.000    0.000 
#
# Total GULP energy -156316.819307 kJ/mol
# GULP energy per Si atom -5582.743547 kJ/mol
# Density = 2.285530 g / cm^3
# Si number density = 22.907438 Si / 1000 Ang^3
#
#
#
# Elastic Constant Matrix: (Units=GPa)
#
#
# Indices 1 2 3 4 5 6 
#
# 1 34.7270 -7.2682 -1.3049 0.0000 0.0000 0.0000
# 2 -7.2682 93.4704 12.4828 0.0000 0.0000 0.0000
# 3 -1.3049 12.4828 91.0656 0.0000 0.0000 0.0000
# 4 0.0000 0.0000 0.0000 30.0179 0.0000 0.0000
# 5 0.0000 0.0000 0.0000 0.0000 43.3811 0.0000
# 6 0.0000 0.0000 0.0000 0.0000 0.0000 14.6366
#
#
#
# Elastic Compliance Matrix: (Units=1/GPa)
#
#
# Indices 1 2 3 4 5 6 
#
# 1 0.029274 0.002262 0.000109 0.000000 0.000000 0.000000
# 2 0.002262 0.011073 -0.001485 0.000000 0.000000 0.000000
# 3 0.000109 -0.001485 0.011186 0.000000 0.000000 0.000000
# 4 0.000000 0.000000 0.000000 0.033314 0.000000 0.000000
# 5 0.000000 0.000000 0.000000 0.000000 0.023052 0.000000
# 6 0.000000 0.000000 0.000000 0.000000 0.000000 0.068322
#
#
# Mechanical properties :
#
#
# Convention : Reuss Voigt Hill
#
# Bulk Modulus (GPa) = 18.76031 25.23139 21.99585
# Shear Modulus (GPa) = 26.01236 31.96397 28.98816
#
# Velocity S-wave (km/s) = 3.37344 3.73950 3.56117
# Velocity P-wave (km/s) = 4.83537 5.44826 5.15094
#
# Compressibility (1/GPa) = 0.05330401
#
# Stress axis : x y z
#
# Youngs Moduli (GPa) = 34.16057 90.31127 89.39527
#
# Poissons Ratio (x) = -0.20425 -0.00978
# Poissons Ratio (y) = -0.07726 0.13279
# Poissons Ratio (z) = -0.00374 0.13415
#
# Static dielectric constant tensor:
#      x y z
#    x 1.781660 0.000000 0.000000 
#    y 0.000000 1.852020 0.000000 
#    z 0.000000 0.000000 1.912910 
# 
# From -- ./inp_files/15283.got.cif
#   From: 2010.05.17/outbox.cif.g08.bks.cpg/sg40_8_cif.got.tgz:15283.got - 2010.06.03 18:35:42.
