data_PCOD9362149
_publ_section_title
;
Structure prediction by ZEFSAII (Michael W. Deem and Ramdas Pophale) SiO2 
 PCOD9362149
Probable space group: A B M 2
;
_chemical_formula_sum "Si O2"
_cell_formula_units_Z 44
_cell_length_a 5.491146
_cell_length_b 15.613791
_cell_length_c 25.538758
_cell_angle_alpha 90.000000
_cell_angle_beta 90.000000
_cell_angle_gamma 90.000000
_cell_volume 2189.631971
_symmetry_space_group_name_H-M "A B M 2"
_symmetry_group_IT_number 39
_symmetry_cell_setting 'orthorhombic'
loop_
_space_group_symop_operation_xyz
x,y,z
-x,-y,z
-x,1/2+y,z
x,1/2-y,z
x,1/2+y,1/2+z
-x,1/2-y,1/2+z
-x,y,1/2+z
x,-y,1/2+z
loop_
_atom_site_type_symbol
_atom_site_label
_atom_site_fract_x
_atom_site_fract_y
_atom_site_fract_z
Si Si1 0.105704 0.250000 0.877060
Si Si2 0.963267 0.403773 0.458090
Si Si3 0.000000 0.000000 0.664736
Si Si4 0.475357 0.847846 0.010644
Si Si5 0.613798 0.595658 0.623111
Si Si6 0.399506 0.909190 0.732845
Si Si7 0.609198 0.750000 0.310645
O O1 0.083056 0.165820 0.913120
O O2 0.362975 0.250000 0.845891
O O3 0.863421 0.250000 0.841642
O O4 0.715532 0.399380 0.492732
O O5 0.000000 0.500000 0.437983
O O6 0.214857 0.379892 0.488356
O O7 0.895157 0.928042 0.625911
O O8 0.158548 0.942991 0.704194
O O9 0.507774 0.750000 0.992797
O O10 0.460865 0.851211 0.073570
O O11 0.500000 0.500000 0.618492
O O12 0.551839 0.623888 0.682101
O O13 0.388847 0.835039 0.774750
O O14 0.500000 0.000000 0.754534
#
# Coordination Sequence:
#
# PCOD9362149 Si02
#       7
#     4   8   4   8   8   8   4
#     4  12  28  50  68 103 133 160 242 296 342 398
#     4  12  26  49  74  97 137 181 227 284 347 405
#     4   8  18  40  62  90 148 170 232 266 308 410
#     4  12  24  42  70 106 144 179 225 274 335 413
#     4   9  20  36  62  99 141 180 223 260 323 404
#     4   9  22  42  66  99 140 177 224 269 332 402
#     4  12  28  44  76  97 133 174 224 294 346 398
#
# _framework density 20.094702000000002
#
# number of rings (size 3 to 8) (size 9 to 14) (size 15 to 20)
#    0.000    1.818    1.818    2.727   12.727    1.455 
#    1.636    0.000    0.000    0.000    0.000    0.000 
#    0.000    0.000    0.000    0.000    0.000    0.000 
#
# Total GULP energy -122541.325447 kJ/mol
# GULP energy per Si atom -5570.060248 kJ/mol
# Density = 2.004897 g / cm^3
# Si number density = 20.094702 Si / 1000 Ang^3
#
#
#
# Elastic Constant Matrix: (Units=GPa)
#
#
# Indices 1 2 3 4 5 6 
#
# 1 109.8653 27.1716 38.7696 0.0000 0.0000 0.0000
# 2 27.1716 123.3286 52.7840 0.0000 0.0000 0.0000
# 3 38.7696 52.7840 93.6046 0.0000 0.0000 0.0000
# 4 0.0000 0.0000 0.0000 -32.9896 0.0000 0.0000
# 5 0.0000 0.0000 0.0000 0.0000 14.2284 0.0000
# 6 0.0000 0.0000 0.0000 0.0000 0.0000 11.7366
#
#
#
# Elastic Compliance Matrix: (Units=1/GPa)
#
#
# Indices 1 2 3 4 5 6 
#
# 1 0.010694 -0.000607 -0.004087 0.000000 0.000000 0.000000
# 2 -0.000607 0.010722 -0.005795 0.000000 0.000000 0.000000
# 3 -0.004087 -0.005795 0.015644 0.000000 0.000000 0.000000
# 4 0.000000 0.000000 0.000000 -0.030313 0.000000 0.000000
# 5 0.000000 0.000000 0.000000 0.000000 0.070282 0.000000
# 6 0.000000 0.000000 0.000000 0.000000 0.000000 0.085203
#
#
# Mechanical properties :
#
#
# Convention : Reuss Voigt Hill
#
# Bulk Modulus (GPa) = 62.17952 62.69432 62.43692
# Shear Modulus (GPa) = 26.51497 12.46664 19.49080
#
# Velocity S-wave (km/s) = 3.63643 2.49347 3.11778
# Velocity P-wave (km/s) = 6.97438 6.28944 6.64075
#
# Compressibility (1/GPa) = 0.01608247
#
# Stress axis : x y z
#
# Youngs Moduli (GPa) = 93.50617 93.26305 63.92240
#
# Poissons Ratio (x) = 0.05660 0.26127
# Poissons Ratio (y) = 0.05674 0.37043
# Poissons Ratio (z) = 0.38219 0.54046
#
# Static dielectric constant tensor:
#      x y z
#    x 1.923400 0.000000 0.000000 
#    y 0.000000 1.695520 0.000000 
#    z 0.000000 0.000000 1.699770 
# 
# From -- ./inp_files/16476.got.cif
#   From: 2010.05.17/outbox.cif.g08.bks.cpg/sg39_9_cif.got.tgz:16476.got - 2010.06.03 18:22:40.
