data_PCOD9362469
_publ_section_title
;
Structure prediction by ZEFSAII (Michael W. Deem and Ramdas Pophale) SiO2 
 PCOD9362469
Probable space group: A M A 2
;
_chemical_formula_sum "Si O2"
_cell_formula_units_Z 64
_cell_length_a 8.917214
_cell_length_b 19.219889
_cell_length_c 21.561831
_cell_angle_alpha 90.000000
_cell_angle_beta 90.000000
_cell_angle_gamma 90.000000
_cell_volume 3695.436143
_symmetry_space_group_name_H-M "A M A 2"
_symmetry_group_IT_number 40
_symmetry_cell_setting 'orthorhombic'
loop_
_space_group_symop_operation_xyz
x,y,z
-x,-y,z
1/2-x,y,z
1/2+x,-y,z
x,1/2+y,1/2+z
-x,1/2-y,1/2+z
1/2-x,1/2+y,1/2+z
1/2+x,1/2-y,1/2+z
loop_
_atom_site_type_symbol
_atom_site_label
_atom_site_fract_x
_atom_site_fract_y
_atom_site_fract_z
Si Si1 0.927036 0.318132 0.265380
Si Si2 0.428905 0.712024 0.848768
Si Si3 0.571263 0.634082 0.034425
Si Si4 0.922037 0.070273 0.845263
Si Si5 0.079074 0.928626 0.994723
Si Si6 0.569736 0.425287 0.158211
Si Si7 0.928063 0.574070 0.897709
Si Si8 0.431968 0.773293 0.984740
O O1 0.750000 0.306224 0.262237
O O2 0.973411 0.362303 0.204829
O O3 0.009518 0.248352 0.286788
O O4 0.972416 0.369578 0.320911
O O5 0.250000 0.709100 0.846424
O O6 0.498773 0.636391 0.858950
O O7 0.467168 0.755331 0.912340
O O8 0.750000 0.636896 0.044908
O O9 0.489967 0.595687 0.090659
O O10 0.544094 0.593393 0.969976
O O11 0.504751 0.711322 0.024130
O O12 0.750000 0.078454 0.823342
O O13 0.916956 0.068561 0.919588
O O14 0.000000 0.000000 0.823344
O O15 0.250000 0.930085 0.017473
O O16 0.016762 0.850550 0.005633
O O17 0.000000 0.000000 0.015677
O O18 0.500000 0.500000 0.175664
O O19 0.750000 0.431069 0.159001
O O20 0.750000 0.572741 0.888213
O O21 0.000000 0.500000 0.883618
O O22 0.250000 0.771548 0.989654
#
# Coordination Sequence:
#
# PCOD9362469 Si02
#       8
#     8   8   8   8   8   8   8   8
#     4  11  22  34  49  71 100 136 175 214 255 302
#     4  10  19  33  52  74 102 136 171 211 259 312
#     4  10  21  35  54  78 102 134 176 220 264 310
#     4  10  18  29  43  64  93 130 170 205 246 292
#     4   9  17  28  42  66  97 131 166 203 247 298
#     4  11  24  39  54  74 103 141 181 221 260 302
#     4  10  20  34  53  80 108 135 169 212 264 317
#     4   9  17  32  50  71 101 135 171 212 261 313
#
# _framework density 17.318660000000001
#
# number of rings (size 3 to 8) (size 9 to 14) (size 15 to 20)
#    0.000    2.000    1.250    3.000    0.000    7.000 
#    0.000    0.000    0.000    0.000    0.000    0.875 
#    0.000    4.000    0.000    0.000    0.000    0.125 
#
# Total GULP energy -178420.274661 kJ/mol
# GULP energy per Si atom -5575.633583 kJ/mol
# Density = 1.727924 g / cm^3
# Si number density = 17.318660 Si / 1000 Ang^3
#
#
#
# Elastic Constant Matrix: (Units=GPa)
#
#
# Indices 1 2 3 4 5 6 
#
# 1 45.0920 45.9848 29.6231 0.0000 0.0000 0.0000
# 2 45.9848 147.0993 34.3724 0.0000 0.0000 0.0000
# 3 29.6231 34.3724 51.9942 0.0000 0.0000 0.0000
# 4 0.0000 0.0000 0.0000 20.7143 0.0000 0.0000
# 5 0.0000 0.0000 0.0000 0.0000 -32.0924 0.0000
# 6 0.0000 0.0000 0.0000 0.0000 0.0000 32.7519
#
#
#
# Elastic Compliance Matrix: (Units=1/GPa)
#
#
# Indices 1 2 3 4 5 6 
#
# 1 0.044228 -0.009388 -0.018992 0.000000 0.000000 0.000000
# 2 -0.009388 0.010033 -0.001284 0.000000 0.000000 0.000000
# 3 -0.018992 -0.001284 0.030902 0.000000 0.000000 0.000000
# 4 0.000000 0.000000 0.000000 0.048276 0.000000 0.000000
# 5 0.000000 0.000000 0.000000 0.000000 -0.031160 0.000000
# 6 0.000000 0.000000 0.000000 0.000000 0.000000 0.030533
#
#
# Mechanical properties :
#
#
# Convention : Reuss Voigt Hill
#
# Bulk Modulus (GPa) = 38.70729 51.57180 45.13954
# Shear Modulus (GPa) = 24.90654 13.22178 19.06416
#
# Velocity S-wave (km/s) = 3.79639 2.76604 3.32141
# Velocity P-wave (km/s) = 6.45099 6.32804 6.38981
#
# Compressibility (1/GPa) = 0.02583493
#
# Stress axis : x y z
#
# Youngs Moduli (GPa) = 22.61026 99.67145 32.36034
#
# Poissons Ratio (x) = 0.93574 0.61458
# Poissons Ratio (y) = 0.21227 0.04154
# Poissons Ratio (z) = 0.42941 0.12795
#
# Static dielectric constant tensor:
#      x y z
#    x 1.584780 0.000000 0.000000 
#    y 0.000000 1.603530 0.000000 
#    z 0.000000 0.000000 1.579880 
# 
# From -- ./inp_files/22394.got.cif
#   From: 2010.05.17/outbox.cif.g08.bks.cpg/sg40_12_cif.got.tgz:22394.got - 2010.06.03 18:35:42.
