data_PCOD9362377
_publ_section_title
;
Structure prediction by ZEFSAII (Michael W. Deem and Ramdas Pophale) SiO2 
 PCOD9362377
Probable space group: A M A 2
;
_chemical_formula_sum "Si O2"
_cell_formula_units_Z 64
_cell_length_a 8.591897
_cell_length_b 18.976909
_cell_length_c 27.467927
_cell_angle_alpha 90.000000
_cell_angle_beta 90.000000
_cell_angle_gamma 90.000000
_cell_volume 4478.580879
_symmetry_space_group_name_H-M "A M A 2"
_symmetry_group_IT_number 40
_symmetry_cell_setting 'orthorhombic'
loop_
_space_group_symop_operation_xyz
x,y,z
-x,-y,z
1/2-x,y,z
1/2+x,-y,z
x,1/2+y,1/2+z
-x,1/2-y,1/2+z
1/2-x,1/2+y,1/2+z
1/2+x,1/2-y,1/2+z
loop_
_atom_site_type_symbol
_atom_site_label
_atom_site_fract_x
_atom_site_fract_y
_atom_site_fract_z
Si Si1 0.070718 0.796221 0.715640
Si Si2 0.429806 0.204765 0.115598
Si Si3 0.439549 0.838758 0.564837
Si Si4 0.437903 0.922022 0.470412
Si Si5 0.438211 0.578683 0.675692
Si Si6 0.436861 0.833875 0.267320
Si Si7 0.565032 0.921870 0.658319
Si Si8 0.437877 0.921859 0.359946
O O1 0.250000 0.810722 0.727508
O O2 0.068985 0.749800 0.665820
O O3 0.995550 0.744735 0.755404
O O4 0.984910 0.867976 0.701081
O O5 0.250000 0.192466 0.101699
O O6 0.497787 0.259549 0.076722
O O7 0.496074 0.129534 0.131688
O O8 0.250000 0.837758 0.567171
O O9 0.487889 0.868777 0.512675
O O10 0.496773 0.889712 0.608060
O O11 0.250000 0.924114 0.470901
O O12 0.487886 0.904340 0.415219
O O13 0.500000 0.000000 0.481656
O O14 0.500000 0.500000 0.671643
O O15 0.250000 0.579590 0.676017
O O16 0.496623 0.614555 0.725559
O O17 0.250000 0.834740 0.264385
O O18 0.486264 0.865676 0.319281
O O19 0.750000 0.923870 0.654582
O O20 0.500000 0.000000 0.665934
O O21 0.250000 0.924955 0.359410
O O22 0.500000 0.000000 0.348126
#
# Coordination Sequence:
#
# PCOD9362377 Si02
#       8
#     8   8   8   8   8   8   8   8
#     4   9  17  30  44  59  80 105 135 168 203 242
#     4   7  13  25  39  54  73  98 126 160 198 238
#     4   9  16  28  44  59  78 107 141 173 207 244
#     4   9  17  28  41  57  79 107 138 173 208 241
#     4  10  18  27  39  56  79 105 135 168 202 243
#     4  10  18  28  42  59  80 107 138 169 205 245
#     4  11  20  29  42  61  85 111 139 169 203 242
#     4   9  18  29  40  57  81 108 139 174 208 243
#
# _framework density 14.290241
#
# number of rings (size 3 to 8) (size 9 to 14) (size 15 to 20)
#    0.000    2.750    0.000    4.500    0.000    3.500 
#    0.000    0.625    0.000    0.000    0.000    0.000 
#    0.000    1.000    0.000    4.000    0.000    2.125 
#
# Total GULP energy -178169.247231 kJ/mol
# GULP energy per Si atom -5567.788976 kJ/mol
# Density = 1.425772 g / cm^3
# Si number density = 14.290241 Si / 1000 Ang^3
#
#
#
# Elastic Constant Matrix: (Units=GPa)
#
#
# Indices 1 2 3 4 5 6 
#
# 1 37.3570 23.7803 18.6010 0.0000 0.0000 0.0000
# 2 23.7803 109.2079 56.6821 0.0000 0.0000 0.0000
# 3 18.6010 56.6821 87.1485 0.0000 0.0000 0.0000
# 4 0.0000 0.0000 0.0000 27.5287 0.0000 0.0000
# 5 0.0000 0.0000 0.0000 0.0000 13.1342 0.0000
# 6 0.0000 0.0000 0.0000 0.0000 0.0000 20.9783
#
#
#
# Elastic Compliance Matrix: (Units=1/GPa)
#
#
# Indices 1 2 3 4 5 6 
#
# 1 0.031746 -0.005126 -0.003442 0.000000 0.000000 0.000000
# 2 -0.005126 0.014651 -0.008435 0.000000 0.000000 0.000000
# 3 -0.003442 -0.008435 0.017695 0.000000 0.000000 0.000000
# 4 0.000000 0.000000 0.000000 0.036326 0.000000 0.000000
# 5 0.000000 0.000000 0.000000 0.000000 0.076137 0.000000
# 6 0.000000 0.000000 0.000000 0.000000 0.000000 0.047668
#
#
# Mechanical properties :
#
#
# Convention : Reuss Voigt Hill
#
# Bulk Modulus (GPa) = 33.23778 47.98226 40.61002
# Shear Modulus (GPa) = 18.63873 21.30490 19.97181
#
# Velocity S-wave (km/s) = 3.61542 3.86537 3.74248
# Velocity P-wave (km/s) = 6.38263 7.31924 6.86692
#
# Compressibility (1/GPa) = 0.03008625
#
# Stress axis : x y z
#
# Youngs Moduli (GPa) = 31.50034 68.25382 56.51159
#
# Poissons Ratio (x) = 0.34990 0.19449
# Poissons Ratio (y) = 0.16148 0.47668
# Poissons Ratio (z) = 0.10841 0.57573
#
# Static dielectric constant tensor:
#      x y z
#    x 1.487990 0.000000 0.000000 
#    y 0.000000 1.475720 0.000000 
#    z 0.000000 0.000000 1.473600 
# 
# From -- ./inp_files/25548.got.cif
#   From: 2010.05.17/outbox.cif.g08.bks.cpg/sg40_13_cif.got.tgz:25548.got - 2010.06.03 18:35:42.
