data_PCOD9362533
_publ_section_title
;
Structure prediction by ZEFSAII (Michael W. Deem and Ramdas Pophale) SiO2 
 PCOD9362533
Probable space group: A M A 2
;
_chemical_formula_sum "Si O2"
_cell_formula_units_Z 64
_cell_length_a 8.588455
_cell_length_b 31.178929
_cell_length_c 14.908076
_cell_angle_alpha 90.000000
_cell_angle_beta 90.000000
_cell_angle_gamma 90.000000
_cell_volume 3992.067129
_symmetry_space_group_name_H-M "A M A 2"
_symmetry_group_IT_number 40
_symmetry_cell_setting 'orthorhombic'
loop_
_space_group_symop_operation_xyz
x,y,z
-x,-y,z
1/2-x,y,z
1/2+x,-y,z
x,1/2+y,1/2+z
-x,1/2-y,1/2+z
1/2-x,1/2+y,1/2+z
1/2+x,1/2-y,1/2+z
loop_
_atom_site_type_symbol
_atom_site_label
_atom_site_fract_x
_atom_site_fract_y
_atom_site_fract_z
Si Si1 0.434827 0.453542 0.293210
Si Si2 0.068204 0.225000 0.180245
Si Si3 0.433496 0.129999 0.870739
Si Si4 0.934109 0.867972 0.506016
Si Si5 0.435473 0.293965 0.487088
Si Si6 0.937876 0.953092 0.592417
Si Si7 0.569917 0.816035 0.690514
Si Si8 0.059209 0.207449 0.380596
O O1 0.500000 0.500000 0.320974
O O2 0.250000 0.456044 0.283881
O O3 0.481979 0.415441 0.359965
O O4 0.506590 0.444302 0.194422
O O5 0.250000 0.214637 0.169827
O O6 0.012547 0.207517 0.276588
O O7 0.979779 0.210613 0.091096
O O8 0.043748 0.275996 0.188220
O O9 0.250000 0.122556 0.881673
O O10 0.458019 0.154821 0.776650
O O11 0.493281 0.163046 0.945156
O O12 0.750000 0.872937 0.485911
O O13 0.995534 0.915575 0.525949
O O14 0.946067 0.843331 0.600551
O O15 0.997575 0.835045 0.432189
O O16 0.250000 0.295608 0.477377
O O17 0.490033 0.251139 0.432462
O O18 0.750000 0.953008 0.593383
O O19 0.000000 0.000000 0.567978
O O20 0.750000 0.800355 0.694024
O O21 0.250000 0.207824 0.383458
#
# Coordination Sequence:
#
# PCOD9362533 Si02
#       8
#     8   8   8   8   8   8   8   8
#     4  11  21  33  50  73 103 136 170 207 253 303
#     4  11  21  33  48  72 100 129 170 215 253 292
#     4  11  21  34  51  75 104 135 172 211 252 302
#     4   9  16  30  49  69  93 133 172 202 243 299
#     4  11  21  35  52  72  99 135 171 207 254 304
#     4  10  18  30  48  71 100 132 168 207 255 305
#     4  10  18  30  49  70  99 134 169 203 246 297
#     4   9  18  31  49  70  95 128 170 209 245 297
#
# _framework density 16.031794999999999
#
# number of rings (size 3 to 8) (size 9 to 14) (size 15 to 20)
#    0.000    1.750    3.750    3.375    0.000    0.500 
#    0.000    0.000    0.000    0.000    0.000    0.875 
#    0.000    4.000    0.000    0.000    0.000    0.000 
#
# Total GULP energy -178492.459494 kJ/mol
# GULP energy per Si atom -5577.889359 kJ/mol
# Density = 1.599531 g / cm^3
# Si number density = 16.031795 Si / 1000 Ang^3
#
#
#
# Elastic Constant Matrix: (Units=GPa)
#
#
# Indices 1 2 3 4 5 6 
#
# 1 41.8626 28.8755 16.3792 0.0000 0.0000 0.0000
# 2 28.8755 116.1774 43.3181 0.0000 0.0000 0.0000
# 3 16.3792 43.3181 79.3010 0.0000 0.0000 0.0000
# 4 0.0000 0.0000 0.0000 11.0546 0.0000 0.0000
# 5 0.0000 0.0000 0.0000 0.0000 14.4852 0.0000
# 6 0.0000 0.0000 0.0000 0.0000 0.0000 18.2645
#
#
#
# Elastic Compliance Matrix: (Units=1/GPa)
#
#
# Indices 1 2 3 4 5 6 
#
# 1 0.029251 -0.006301 -0.002600 0.000000 0.000000 0.000000
# 2 -0.006301 0.012166 -0.005344 0.000000 0.000000 0.000000
# 3 -0.002600 -0.005344 0.016067 0.000000 0.000000 0.000000
# 4 0.000000 0.000000 0.000000 0.090460 0.000000 0.000000
# 5 0.000000 0.000000 0.000000 0.000000 0.069036 0.000000
# 6 0.000000 0.000000 0.000000 0.000000 0.000000 0.054751
#
#
# Mechanical properties :
#
#
# Convention : Reuss Voigt Hill
#
# Bulk Modulus (GPa) = 34.49026 46.05406 40.27216
# Shear Modulus (GPa) = 16.13498 18.67874 17.40686
#
# Velocity S-wave (km/s) = 3.17588 3.41707 3.29868
# Velocity P-wave (km/s) = 5.91681 6.66015 6.29945
#
# Compressibility (1/GPa) = 0.02899369
#
# Stress axis : x y z
#
# Youngs Moduli (GPa) = 34.18683 82.19410 62.24114
#
# Poissons Ratio (x) = 0.51790 0.16181
# Poissons Ratio (y) = 0.21541 0.33264
# Poissons Ratio (z) = 0.08888 0.43928
#
# Static dielectric constant tensor:
#      x y z
#    x 1.548980 0.000000 0.000000 
#    y 0.000000 1.545200 0.000000 
#    z 0.000000 0.000000 1.529040 
# 
# From -- ./inp_files/15902.got.cif
#   From: 2010.05.17/outbox.cif.g08.bks.cpg/sg40_8_cif.got.tgz:15902.got - 2010.06.03 18:35:42.
