data_PCOD9362493
_publ_section_title
;
Structure prediction by ZEFSAII (Michael W. Deem and Ramdas Pophale) SiO2 
 PCOD9362493
Probable space group: A M A 2
;
_chemical_formula_sum "Si O2"
_cell_formula_units_Z 56
_cell_length_a 8.324135
_cell_length_b 21.466174
_cell_length_c 14.391349
_cell_angle_alpha 90.000000
_cell_angle_beta 90.000000
_cell_angle_gamma 90.000000
_cell_volume 2571.551732
_symmetry_space_group_name_H-M "A M A 2"
_symmetry_group_IT_number 40
_symmetry_cell_setting 'orthorhombic'
loop_
_space_group_symop_operation_xyz
x,y,z
-x,-y,z
1/2-x,y,z
1/2+x,-y,z
x,1/2+y,1/2+z
-x,1/2-y,1/2+z
1/2-x,1/2+y,1/2+z
1/2+x,1/2-y,1/2+z
loop_
_atom_site_type_symbol
_atom_site_label
_atom_site_fract_x
_atom_site_fract_y
_atom_site_fract_z
Si Si1 0.944719 0.432978 0.219500
Si Si2 0.940275 0.434174 0.622384
Si Si3 0.568737 0.334903 0.077062
Si Si4 0.568482 0.433278 0.911843
Si Si5 0.434460 0.842091 0.268387
Si Si6 0.053662 0.603422 0.422376
Si Si7 0.442882 0.246679 0.920874
O O1 0.750000 0.431133 0.214231
O O2 0.003334 0.370760 0.165674
O O3 0.997447 0.427976 0.326515
O O4 0.000000 0.500000 0.181441
O O5 0.750000 0.438159 0.619222
O O6 0.005232 0.427488 0.517366
O O7 0.000000 0.500000 0.663895
O O8 0.983811 0.371337 0.678089
O O9 0.750000 0.313986 0.100534
O O10 0.576960 0.390988 0.002707
O O11 0.486422 0.280555 0.017781
O O12 0.500000 0.500000 0.934410
O O13 0.750000 0.436551 0.872243
O O14 0.451208 0.399011 0.840797
O O15 0.250000 0.828328 0.246262
O O16 0.504720 0.785222 0.330292
O O17 0.250000 0.602297 0.423699
O O18 0.003759 0.675656 0.420767
O O19 0.250000 0.248304 0.913227
#
# Coordination Sequence:
#
# PCOD9362493 Si02
#       7
#     8   8   8   8   8   8   8
#     4  10  20  36  57  81 110 142 179 221 268 319
#     4  11  22  37  57  80 109 143 181 224 270 318
#     4   9  19  33  52  79 109 140 173 218 269 315
#     4  10  18  29  46  72 106 140 175 215 264 318
#     4  10  20  34  54  79 106 138 177 220 265 318
#     4   9  20  38  58  79 107 144 181 223 270 314
#     4   9  19  37  58  80 108 143 181 217 263 324
#
# _framework density 21.776734999999999
#
# number of rings (size 3 to 8) (size 9 to 14) (size 15 to 20)
#    0.000    2.286    0.000    2.571    0.000    2.857 
#    0.000    4.286    0.000    0.000    0.000    0.000 
#    0.000    0.000    0.000    0.000    0.000    0.000 
#
# Total GULP energy -156207.229859 kJ/mol
# GULP energy per Si atom -5578.829638 kJ/mol
# Density = 2.172717 g / cm^3
# Si number density = 21.776735 Si / 1000 Ang^3
#
#
#
# Elastic Constant Matrix: (Units=GPa)
#
#
# Indices 1 2 3 4 5 6 
#
# 1 18.8603 4.6483 -0.9646 0.0000 0.0000 0.0000
# 2 4.6483 108.3846 13.9602 0.0000 0.0000 0.0000
# 3 -0.9646 13.9602 87.1572 0.0000 0.0000 0.0000
# 4 0.0000 0.0000 0.0000 29.4507 0.0000 0.0000
# 5 0.0000 0.0000 0.0000 0.0000 30.3822 0.0000
# 6 0.0000 0.0000 0.0000 0.0000 0.0000 15.0672
#
#
#
# Elastic Compliance Matrix: (Units=1/GPa)
#
#
# Indices 1 2 3 4 5 6 
#
# 1 0.053670 -0.002428 0.000983 0.000000 0.000000 0.000000
# 2 -0.002428 0.009531 -0.001553 0.000000 0.000000 0.000000
# 3 0.000983 -0.001553 0.011733 0.000000 0.000000 0.000000
# 4 0.000000 0.000000 0.000000 0.033955 0.000000 0.000000
# 5 0.000000 0.000000 0.000000 0.000000 0.032914 0.000000
# 6 0.000000 0.000000 0.000000 0.000000 0.000000 0.066369
#
#
# Mechanical properties :
#
#
# Convention : Reuss Voigt Hill
#
# Bulk Modulus (GPa) = 14.50612 27.74332 21.12472
# Shear Modulus (GPa) = 21.08378 28.09722 24.59050
#
# Velocity S-wave (km/s) = 3.11493 3.59589 3.36402
# Velocity P-wave (km/s) = 4.42864 5.47796 4.98101
#
# Compressibility (1/GPa) = 0.06893643
#
# Stress axis : x y z
#
# Youngs Moduli (GPa) = 18.63228 104.92485 85.22817
#
# Poissons Ratio (x) = 0.25479 -0.08377
# Poissons Ratio (y) = 0.04525 0.13239
# Poissons Ratio (z) = -0.01831 0.16299
#
# Static dielectric constant tensor:
#      x y z
#    x 1.785460 0.000000 0.000000 
#    y 0.000000 1.773640 0.000000 
#    z 0.000000 0.000000 1.850360 
# 
# From -- ./inp_files/15341.got.cif
#   From: 2010.05.17/outbox.cif.g08.bks.cpg/sg40_8_cif.got.tgz:15341.got - 2010.06.03 18:35:42.
