data_PCOD9362270
_publ_section_title
;
Structure prediction by ZEFSAII (Michael W. Deem and Ramdas Pophale) SiO2 
 PCOD9362270
Probable space group: A M A 2
;
_chemical_formula_sum "Si O2"
_cell_formula_units_Z 28
_cell_length_a 10.725315
_cell_length_b 8.672246
_cell_length_c 11.276698
_cell_angle_alpha 90.000000
_cell_angle_beta 90.000000
_cell_angle_gamma 90.000000
_cell_volume 1048.874663
_symmetry_space_group_name_H-M "A M A 2"
_symmetry_group_IT_number 40
_symmetry_cell_setting 'orthorhombic'
loop_
_space_group_symop_operation_xyz
x,y,z
-x,-y,z
1/2-x,y,z
1/2+x,-y,z
x,1/2+y,1/2+z
-x,1/2-y,1/2+z
1/2-x,1/2+y,1/2+z
1/2+x,1/2-y,1/2+z
loop_
_atom_site_type_symbol
_atom_site_label
_atom_site_fract_x
_atom_site_fract_y
_atom_site_fract_z
Si Si1 0.104104 0.298500 0.879100
Si Si2 0.250000 0.068035 0.304472
Si Si3 0.000000 0.000000 0.906116
Si Si4 0.250000 0.649235 0.082709
Si Si5 0.500000 0.000000 0.583022
Si Si6 0.750000 0.499213 0.561872
O O1 0.250000 0.247775 0.892948
O O2 0.128068 0.457754 0.810190
O O3 0.045778 0.356099 0.002146
O O4 0.013258 0.162219 0.837061
O O5 0.250000 0.143186 0.436460
O O6 0.250000 0.125385 0.169638
O O7 0.123222 0.002448 0.986266
O O8 0.369980 0.561657 0.132827
O O9 0.250000 0.826680 0.115495
#
# Coordination Sequence:
#
# PCOD9362270 Si02
#       6
#     8   4   4   4   4   4
#     4   9  19  36  59  82 120 158 196 253 319 371
#     4   8  21  41  59  89 126 162 213 265 311 388
#     4  12  22  37  63  92 126 164 202 264 331 375
#     4  10  20  34  62  84 120 162 206 254 329 360
#     4  10  16  33  59  84 100 164 206 234 307 395
#     4  12  23  37  63  99 124 162 221 265 312 396
#
# _framework density 26.695277000000001
#
# number of rings (size 3 to 8) (size 9 to 14) (size 15 to 20)
#    0.857    1.143    5.714    0.000    0.000    4.571 
#    0.000    1.429    0.000    6.857    0.000    0.000 
#    0.000    0.000    0.000    0.000    0.000    0.000 
#
# Total GULP energy -78036.721730 kJ/mol
# GULP energy per Si atom -5574.051552 kJ/mol
# Density = 2.663452 g / cm^3
# Si number density = 26.695277 Si / 1000 Ang^3
#
#
#
# Elastic Constant Matrix: (Units=GPa)
#
#
# Indices 1 2 3 4 5 6 
#
# 1 193.1255 2.0317 33.5232 0.0000 0.0000 0.0000
# 2 2.0317 48.3731 -2.9295 0.0000 0.0000 0.0000
# 3 33.5232 -2.9295 109.8361 0.0000 0.0000 0.0000
# 4 0.0000 0.0000 0.0000 12.7125 0.0000 0.0000
# 5 0.0000 0.0000 0.0000 0.0000 8.7249 0.0000
# 6 0.0000 0.0000 0.0000 0.0000 0.0000 56.6631
#
#
#
# Elastic Compliance Matrix: (Units=1/GPa)
#
#
# Indices 1 2 3 4 5 6 
#
# 1 0.005473 -0.000332 -0.001679 0.000000 0.000000 0.000000
# 2 -0.000332 0.020726 0.000654 0.000000 0.000000 0.000000
# 3 -0.001679 0.000654 0.009634 0.000000 0.000000 0.000000
# 4 0.000000 0.000000 0.000000 0.078663 0.000000 0.000000
# 5 0.000000 0.000000 0.000000 0.000000 0.114615 0.000000
# 6 0.000000 0.000000 0.000000 0.000000 0.000000 0.017648
#
#
# Mechanical properties :
#
#
# Convention : Reuss Voigt Hill
#
# Bulk Modulus (GPa) = 30.19328 46.28728 38.24028
# Shear Modulus (GPa) = 19.19289 36.86736 28.03013
#
# Velocity S-wave (km/s) = 2.68426 3.72027 3.24389
# Velocity P-wave (km/s) = 4.57623 5.98587 5.32788
#
# Compressibility (1/GPa) = 0.03311995
#
# Stress axis : x y z
#
# Youngs Moduli (GPa) = 182.71660 48.24815 103.79424
#
# Poissons Ratio (x) = 0.01600 0.17430
# Poissons Ratio (y) = 0.06058 -0.06788
# Poissons Ratio (z) = 0.30683 -0.03155
#
# Static dielectric constant tensor:
#      x y z
#    x 2.025750 0.000000 0.000000 
#    y 0.000000 2.302070 0.000000 
#    z 0.000000 0.000000 2.221330 
# 
# From -- ./inp_files/10872.got.cif
#   From: 2010.05.17/outbox.cif.g08.bks.cpg/sg40_6_cif.got.tgz:10872.got - 2010.06.03 18:35:42.
