data_PCOD9362965
_publ_section_title
;
Structure prediction by ZEFSAII (Michael W. Deem and Ramdas Pophale) SiO2 
 PCOD9362965
Probable space group: A M A 2
;
_chemical_formula_sum "Si O2"
_cell_formula_units_Z 64
_cell_length_a 7.731699
_cell_length_b 14.222281
_cell_length_c 25.277758
_cell_angle_alpha 90.000000
_cell_angle_beta 90.000000
_cell_angle_gamma 90.000000
_cell_volume 2779.602830
_symmetry_space_group_name_H-M "A M A 2"
_symmetry_group_IT_number 40
_symmetry_cell_setting 'orthorhombic'
loop_
_space_group_symop_operation_xyz
x,y,z
-x,-y,z
1/2-x,y,z
1/2+x,-y,z
x,1/2+y,1/2+z
-x,1/2-y,1/2+z
1/2-x,1/2+y,1/2+z
1/2+x,1/2-y,1/2+z
loop_
_atom_site_type_symbol
_atom_site_label
_atom_site_fract_x
_atom_site_fract_y
_atom_site_fract_z
Si Si1 0.541631 0.610017 0.796430
Si Si2 0.043251 0.390769 0.684011
Si Si3 0.458368 0.389910 0.178086
Si Si4 0.953148 0.604833 0.567938
Si Si5 0.054606 0.248421 0.383604
Si Si6 0.545443 0.695401 0.068853
Si Si7 0.045879 0.104683 0.464879
Si Si8 0.958491 0.109433 0.797206
O O1 0.500000 0.500000 0.799905
O O2 0.750000 0.621940 0.801140
O O3 0.481880 0.650858 0.739268
O O4 0.442713 0.664277 0.841374
O O5 0.250000 0.376463 0.682492
O O6 0.965914 0.374691 0.626206
O O7 0.000000 0.500000 0.691019
O O8 0.500000 0.500000 0.169003
O O9 0.250000 0.380178 0.179142
O O10 0.525871 0.329868 0.127735
O O11 0.523404 0.366170 0.237547
O O12 0.750000 0.597773 0.574512
O O13 0.000000 0.500000 0.548314
O O14 0.988521 0.705334 0.542448
O O15 0.250000 0.279360 0.398472
O O16 0.968117 0.193673 0.432698
O O17 0.973859 0.331026 0.347452
O O18 0.750000 0.698095 0.073686
O O19 0.497861 0.616231 0.026459
O O20 0.250000 0.113387 0.458426
O O21 0.000000 0.000000 0.445881
O O22 0.750000 0.122059 0.796606
O O23 0.000000 0.000000 0.804670
#
# Coordination Sequence:
#
# PCOD9362965 Si02
#       8
#     8   8   8   8   8   8   8   8
#     4  10  19  31  49  77 112 149 191 234 284 344
#     4   8  16  29  45  70 105 145 185 226 277 335
#     4   9  19  35  57  86 119 153 192 239 296 357
#     4  10  20  36  56  81 117 158 199 246 296 350
#     4  10  22  38  59  84 114 153 197 241 298 356
#     4  11  23  38  60  90 119 158 206 250 301 363
#     4  11  24  43  64  88 119 157 198 250 303 357
#     4   9  19  38  60  86 119 153 190 240 295 354
#
# _framework density 23.024874000000001
#
# number of rings (size 3 to 8) (size 9 to 14) (size 15 to 20)
#    0.000    2.250    0.000    2.250    1.750    5.500 
#    0.000    0.625    0.000    1.500    0.000    0.000 
#    0.000    0.000    0.000    0.000    0.000    0.000 
#
# Total GULP energy -178294.571905 kJ/mol
# GULP energy per Si atom -5571.705372 kJ/mol
# Density = 2.297247 g / cm^3
# Si number density = 23.024874 Si / 1000 Ang^3
#
#
#
# Elastic Constant Matrix: (Units=GPa)
#
#
# Indices 1 2 3 4 5 6 
#
# 1 58.0802 -5.6264 6.1596 0.0000 0.0000 0.0000
# 2 -5.6264 146.8224 43.6110 0.0000 0.0000 0.0000
# 3 6.1596 43.6110 71.3861 0.0000 0.0000 0.0000
# 4 0.0000 0.0000 0.0000 48.6881 0.0000 0.0000
# 5 0.0000 0.0000 0.0000 0.0000 31.2315 0.0000
# 6 0.0000 0.0000 0.0000 0.0000 0.0000 25.4460
#
#
#
# Elastic Compliance Matrix: (Units=1/GPa)
#
#
# Indices 1 2 3 4 5 6 
#
# 1 0.017601 0.001375 -0.002359 0.000000 0.000000 0.000000
# 2 0.001375 0.008428 -0.005268 0.000000 0.000000 0.000000
# 3 -0.002359 -0.005268 0.017430 0.000000 0.000000 0.000000
# 4 0.000000 0.000000 0.000000 0.020539 0.000000 0.000000
# 5 0.000000 0.000000 0.000000 0.000000 0.032019 0.000000
# 6 0.000000 0.000000 0.000000 0.000000 0.000000 0.039299
#
#
# Mechanical properties :
#
#
# Convention : Reuss Voigt Hill
#
# Bulk Modulus (GPa) = 32.30333 40.50858 36.40595
# Shear Modulus (GPa) = 31.61808 36.54944 34.08376
#
# Velocity S-wave (km/s) = 3.70971 3.98853 3.85164
# Velocity P-wave (km/s) = 5.69293 6.23239 5.96876
#
# Compressibility (1/GPa) = 0.03095656
#
# Stress axis : x y z
#
# Youngs Moduli (GPa) = 56.81518 118.64773 57.37251
#
# Poissons Ratio (x) = -0.16316 0.13533
# Poissons Ratio (y) = -0.07813 0.30222
# Poissons Ratio (z) = 0.13401 0.62500
#
# Static dielectric constant tensor:
#      x y z
#    x 1.758410 0.000000 0.000000 
#    y 0.000000 1.897670 0.000000 
#    z 0.000000 0.000000 1.953410 
# 
# From -- ./inp_files/24285.got.cif
#   From: 2010.05.17/outbox.cif.g08.bks.cpg/sg40_13_cif.got.tgz:24285.got - 2010.06.03 18:35:42.
