data_PCOD9362689
_publ_section_title
;
Structure prediction by ZEFSAII (Michael W. Deem and Ramdas Pophale) SiO2 
 PCOD9362689
Probable space group: A M A 2
;
_chemical_formula_sum "Si O2"
_cell_formula_units_Z 60
_cell_length_a 18.423369
_cell_length_b 11.026915
_cell_length_c 14.130104
_cell_angle_alpha 90.000000
_cell_angle_beta 90.000000
_cell_angle_gamma 90.000000
_cell_volume 2870.571944
_symmetry_space_group_name_H-M "A M A 2"
_symmetry_group_IT_number 40
_symmetry_cell_setting 'orthorhombic'
loop_
_space_group_symop_operation_xyz
x,y,z
-x,-y,z
1/2-x,y,z
1/2+x,-y,z
x,1/2+y,1/2+z
-x,1/2-y,1/2+z
1/2-x,1/2+y,1/2+z
1/2+x,1/2-y,1/2+z
loop_
_atom_site_type_symbol
_atom_site_label
_atom_site_fract_x
_atom_site_fract_y
_atom_site_fract_z
Si Si1 0.889716 0.427333 0.583850
Si Si2 0.828422 0.844293 0.896879
Si Si3 0.956189 0.745978 0.793907
Si Si4 0.947226 0.897565 0.429327
Si Si5 0.000000 0.000000 0.738758
Si Si6 0.664970 0.354342 0.788602
Si Si7 0.050443 0.317171 0.577269
Si Si8 0.162806 0.933840 0.752251
O O1 0.837486 0.367530 0.507501
O O2 0.866285 0.408193 0.691247
O O3 0.898335 0.568542 0.559898
O O4 0.968130 0.365263 0.570342
O O5 0.750000 0.796595 0.873304
O O6 0.886833 0.750706 0.859529
O O7 0.837940 0.971069 0.839437
O O8 0.990329 0.879555 0.799858
O O9 0.939013 0.725253 0.684876
O O10 0.009551 0.648592 0.836438
O O11 0.870025 0.918047 0.380620
O O12 0.939553 0.791253 0.504901
O O13 0.000000 0.000000 0.470762
O O14 0.084819 0.973659 0.697819
O O15 0.750000 0.373401 0.789862
O O16 0.653201 0.206975 0.782518
O O17 0.250000 0.942207 0.715532
#
# Coordination Sequence:
#
# PCOD9362689 Si02
#       8
#     8   8   8   8   4   8   8   8
#     4  11  21  38  67  94 128 161 221 277 322 391
#     4  10  21  38  61  93 129 168 217 273 330 393
#     4  11  22  39  62  92 126 172 221 270 328 398
#     4  12  24  42  64  94 133 171 217 273 331 409
#     4  10  18  32  64  84 122 166 218 266 328 386
#     4  11  22  40  65  96 133 174 218 275 339 400
#     4  11  24  39  64 100 125 167 219 276 326 393
#     4   9  18  32  56  91 126 164 214 267 328 395
#
# _framework density 20.901757
#
# number of rings (size 3 to 8) (size 9 to 14) (size 15 to 20)
#    0.000    1.333    4.000    2.000    2.800    0.000 
#    0.000    4.667    0.000    0.000    0.000    0.000 
#    0.000    0.000    0.000    0.000    0.000    0.000 
#
# Total GULP energy -167156.889019 kJ/mol
# GULP energy per Si atom -5571.896301 kJ/mol
# Density = 2.085418 g / cm^3
# Si number density = 20.901757 Si / 1000 Ang^3
#
#
#
# Elastic Constant Matrix: (Units=GPa)
#
#
# Indices 1 2 3 4 5 6 
#
# 1 98.9816 1.9876 9.2708 0.0000 0.0000 0.0000
# 2 1.9876 35.4537 -1.5175 0.0000 0.0000 0.0000
# 3 9.2708 -1.5175 81.9801 0.0000 0.0000 0.0000
# 4 0.0000 0.0000 0.0000 -33.0405 0.0000 0.0000
# 5 0.0000 0.0000 0.0000 0.0000 43.6841 0.0000
# 6 0.0000 0.0000 0.0000 0.0000 0.0000 8.8360
#
#
#
# Elastic Compliance Matrix: (Units=1/GPa)
#
#
# Indices 1 2 3 4 5 6 
#
# 1 0.010225 -0.000623 -0.001168 0.000000 0.000000 0.000000
# 2 -0.000623 0.028266 0.000594 0.000000 0.000000 0.000000
# 3 -0.001168 0.000594 0.012341 0.000000 0.000000 0.000000
# 4 0.000000 0.000000 0.000000 -0.030266 0.000000 0.000000
# 5 0.000000 0.000000 0.000000 0.000000 0.022892 0.000000
# 6 0.000000 0.000000 0.000000 0.000000 0.000000 0.113173
#
#
# Mechanical properties :
#
#
# Convention : Reuss Voigt Hill
#
# Bulk Modulus (GPa) = 20.64520 26.21080 23.42800
# Shear Modulus (GPa) = 28.54343 17.67423 23.10883
#
# Velocity S-wave (km/s) = 3.69941 2.91105 3.32865
# Velocity P-wave (km/s) = 5.30530 4.88530 5.09963
#
# Compressibility (1/GPa) = 0.04843741
#
# Stress axis : x y z
#
# Youngs Moduli (GPa) = 97.80157 35.37800 81.02986
#
# Poissons Ratio (x) = 0.02205 0.09463
# Poissons Ratio (y) = 0.06095 -0.04811
# Poissons Ratio (z) = 0.11421 -0.02100
#
# Static dielectric constant tensor:
#      x y z
#    x 1.879430 0.000000 0.000000 
#    y 0.000000 1.779570 0.000000 
#    z 0.000000 0.000000 1.725940 
# 
# From -- ./inp_files/17796.got.cif
#   From: 2010.05.17/outbox.cif.g08.bks.cpg/sg40_9_cif.got.tgz:17796.got - 2010.06.03 18:35:42.
