data_PCOD9362211
_publ_section_title
;
Structure prediction by ZEFSAII (Michael W. Deem and Ramdas Pophale) SiO2 
 PCOD9362211
Probable space group: A B M 2
;
_chemical_formula_sum "Si O2"
_cell_formula_units_Z 20
_cell_length_a 9.000000
_cell_length_b 9.000000
_cell_length_c 24.000000
_cell_angle_alpha 90.000000
_cell_angle_beta 90.000000
_cell_angle_gamma 90.000000
_cell_volume 1944.000000
_symmetry_space_group_name_H-M "A B M 2"
_symmetry_group_IT_number 39
_symmetry_cell_setting 'orthorhombic'
loop_
_space_group_symop_operation_xyz
x,y,z
-x,-y,z
-x,1/2+y,z
x,1/2-y,z
x,1/2+y,1/2+z
-x,1/2-y,1/2+z
-x,y,1/2+z
x,-y,1/2+z
loop_
_atom_site_type_symbol
_atom_site_label
_atom_site_fract_x
_atom_site_fract_y
_atom_site_fract_z
Si Si1 0.844158 0.927707 0.613200
Si Si2 0.656464 0.072783 0.701534
Si Si3 0.634324 0.418237 0.317371
Si Si4 0.342778 0.570403 0.517792
Si Si5 0.855167 0.585914 0.916988
O O1 0.848798 0.750000 0.611780
O O2 0.793328 0.991064 0.672485
O O3 0.722271 0.997299 0.572779
O O4 0.000000 0.000000 0.596981
O O5 0.657808 0.250000 0.692906
O O6 0.500000 0.000000 0.681611
O O7 0.665404 0.025314 0.765836
O O8 0.500000 0.500000 0.348298
O O9 0.597765 0.250000 0.297970
O O10 0.763347 0.407508 0.360965
O O11 0.500000 0.500000 0.506981
O O12 0.349237 0.750000 0.521691
O O13 0.238681 0.521678 0.467195
O O14 0.896165 0.750000 0.936028
O O15 0.000000 0.500000 0.905059
#
# Coordination Sequence:
#
# PCOD9362211 Si02
#       5
#     8   8   8   8   8
#     4  12  25  42  62  88 120 156 195 243 296 353
#     4  11  22  39  62  89 119 157 199 245 294 348
#     4  10  20  37  59  87 118 154 198 245 291 346
#     4  11  23  41  63  90 119 155 198 243 292 349
#     4  10  23  39  59  86 120 156 195 240 293 350
#
# _framework density 10.288066000000001
#
# number of rings (size 3 to 8) (size 9 to 14) (size 15 to 20)
#    0.000    1.200    0.000    7.800    0.000    5.600 
#    0.000    2.000    0.000    0.000    0.000    0.000 
#    0.000    0.000    0.000    0.000    0.000    0.000 
#
# Total GULP energy -111556.357117 kJ/mol
# GULP energy per Si atom -5577.817856 kJ/mol
# Density = 1.026465 g / cm^3
# Si number density = 10.288066 Si / 1000 Ang^3
#
#
#
# Elastic Constant Matrix: (Units=GPa)
#
#
# Indices 1 2 3 4 5 6 
#
# 1 -9.5215 22.9786 3.7976 0.0000 0.0000 0.0000
# 2 22.9786 127.2864 19.2169 0.0000 0.0000 0.0000
# 3 3.7976 19.2169 36.0241 0.0000 0.0000 0.0000
# 4 0.0000 0.0000 0.0000 71.0864 0.0000 0.0000
# 5 0.0000 0.0000 0.0000 0.0000 57.1412 0.0000
# 6 0.0000 0.0000 0.0000 0.0000 0.0000 30.7895
#
#
#
# Elastic Compliance Matrix: (Units=1/GPa)
#
#
# Indices 1 2 3 4 5 6 
#
# 1 -0.073137 0.013094 0.000725 0.000000 0.000000 0.000000
# 2 0.013094 0.006200 -0.004688 0.000000 0.000000 0.000000
# 3 0.000725 -0.004688 0.030183 0.000000 0.000000 0.000000
# 4 0.000000 0.000000 0.000000 0.014067 0.000000 0.000000
# 5 0.000000 0.000000 0.000000 0.000000 0.017500 0.000000
# 6 0.000000 0.000000 0.000000 0.000000 0.000000 0.032479
#
#
# Mechanical properties :
#
#
# Convention : Reuss Voigt Hill
#
# Bulk Modulus (GPa) = -54.08006 27.30835 -13.38585
# Shear Modulus (GPa) = 1743.80977 38.98981 891.39979
#
# Velocity S-wave (km/s) = 29.14329 4.35777 20.83653
# Velocity P-wave (km/s) = 33.25811 6.21457 23.92408
#
# Compressibility (1/GPa) = -0.01849111
#
# Stress axis : x y z
#
# Youngs Moduli (GPa) = -13.67296 161.28301 33.13071
#
# Poissons Ratio (x) = -2.11179 -0.02403
# Poissons Ratio (y) = 0.17903 0.15531
# Poissons Ratio (z) = 0.00992 0.75607
#
# Static dielectric constant tensor:
#      x y z
#    x 1.430910 0.000000 0.000000 
#    y 0.000000 1.652680 0.000000 
#    z 0.000000 0.000000 1.758000 
# 
# From -- ./inp_files/15454.got.cif
#   From: 2010.05.17/outbox.ucp.g08.bks.cvg/sg39_8_cif.got.tgz:15454.got - 2010.06.11 10:41:16.
