data_PCOD9362628
_publ_section_title
;
Structure prediction by ZEFSAII (Michael W. Deem and Ramdas Pophale) SiO2 
 PCOD9362628
Probable space group: A M A 2
;
_chemical_formula_sum "Si O2"
_cell_formula_units_Z 64
_cell_length_a 8.885130
_cell_length_b 30.935413
_cell_length_c 14.765800
_cell_angle_alpha 90.000000
_cell_angle_beta 90.000000
_cell_angle_gamma 90.000000
_cell_volume 4058.604070
_symmetry_space_group_name_H-M "A M A 2"
_symmetry_group_IT_number 40
_symmetry_cell_setting 'orthorhombic'
loop_
_space_group_symop_operation_xyz
x,y,z
-x,-y,z
1/2-x,y,z
1/2+x,-y,z
x,1/2+y,1/2+z
-x,1/2-y,1/2+z
1/2-x,1/2+y,1/2+z
1/2+x,1/2-y,1/2+z
loop_
_atom_site_type_symbol
_atom_site_label
_atom_site_fract_x
_atom_site_fract_y
_atom_site_fract_z
Si Si1 0.431383 0.704834 0.375000
Si Si2 0.079551 0.825861 0.198610
Si Si3 0.927086 0.633433 0.500066
Si Si4 0.068772 0.953723 0.084677
Si Si5 0.430361 0.792337 0.481983
Si Si6 0.425927 0.723028 0.175449
Si Si7 0.426948 0.632342 0.865104
Si Si8 0.069589 0.953150 0.296760
O O1 0.250000 0.706085 0.374041
O O2 0.487029 0.663392 0.429799
O O3 0.480409 0.749232 0.425888
O O4 0.481477 0.703391 0.270420
O O5 0.250000 0.837441 0.230353
O O6 0.061182 0.844394 0.098587
O O7 0.069371 0.774485 0.192246
O O8 0.962458 0.845051 0.268743
O O9 0.750000 0.632387 0.476128
O O10 0.981767 0.584682 0.518482
O O11 0.250000 0.955543 0.080631
O O12 0.031074 0.944052 0.190345
O O13 0.000000 0.000000 0.062106
O O14 0.250000 0.794395 0.475971
O O15 0.482484 0.787776 0.585578
O O16 0.500458 0.835080 0.437521
O O17 0.250000 0.711315 0.161088
O O18 0.250000 0.628203 0.880108
O O19 0.502992 0.585309 0.857069
O O20 0.250000 0.954559 0.303886
O O21 0.000000 0.000000 0.318244
#
# Coordination Sequence:
#
# PCOD9362628 Si02
#       8
#     8   8   8   8   8   8   8   8
#     4  10  21  34  50  73 102 134 171 213 257 302
#     4  10  18  32  50  70 103 140 170 213 257 296
#     4  10  19  32  50  72 100 136 173 207 254 302
#     4   9  18  31  48  71 100 134 167 206 253 301
#     4  11  22  36  52  74 102 135 174 215 257 303
#     4  10  20  36  52  70 101 137 172 214 259 300
#     4  12  23  33  50  76 103 140 181 212 253 308
#     4  10  19  34  52  74 105 136 170 212 260 308
#
# _framework density 15.768967999999999
#
# number of rings (size 3 to 8) (size 9 to 14) (size 15 to 20)
#    0.000    1.750    3.750    1.875    0.000    3.000 
#    0.000    0.000    0.000    0.000    0.000    0.875 
#    0.000    4.000    0.000    0.000    0.000    0.000 
#
# Total GULP energy -178556.561930 kJ/mol
# GULP energy per Si atom -5579.892560 kJ/mol
# Density = 1.573308 g / cm^3
# Si number density = 15.768968 Si / 1000 Ang^3
#
#
#
# Elastic Constant Matrix: (Units=GPa)
#
#
# Indices 1 2 3 4 5 6 
#
# 1 49.5197 32.5984 33.0906 0.0000 0.0000 0.0000
# 2 32.5984 104.6624 49.1906 0.0000 0.0000 0.0000
# 3 33.0906 49.1906 83.0745 0.0000 0.0000 0.0000
# 4 0.0000 0.0000 0.0000 22.8303 0.0000 0.0000
# 5 0.0000 0.0000 0.0000 0.0000 25.9478 0.0000
# 6 0.0000 0.0000 0.0000 0.0000 0.0000 27.9256
#
#
#
# Elastic Compliance Matrix: (Units=1/GPa)
#
#
# Indices 1 2 3 4 5 6 
#
# 1 0.029326 -0.005049 -0.008692 0.000000 0.000000 0.000000
# 2 -0.005049 0.014108 -0.006343 0.000000 0.000000 0.000000
# 3 -0.008692 -0.006343 0.019255 0.000000 0.000000 0.000000
# 4 0.000000 0.000000 0.000000 0.043801 0.000000 0.000000
# 5 0.000000 0.000000 0.000000 0.000000 0.038539 0.000000
# 6 0.000000 0.000000 0.000000 0.000000 0.000000 0.035809
#
#
# Mechanical properties :
#
#
# Convention : Reuss Voigt Hill
#
# Bulk Modulus (GPa) = 44.39984 51.89065 48.14524
# Shear Modulus (GPa) = 21.88066 23.49919 22.68993
#
# Velocity S-wave (km/s) = 3.72906 3.86452 3.79740
# Velocity P-wave (km/s) = 6.83804 7.27262 7.05867
#
# Compressibility (1/GPa) = 0.02252260
#
# Stress axis : x y z
#
# Youngs Moduli (GPa) = 34.09994 70.88142 51.93422
#
# Poissons Ratio (x) = 0.35787 0.45139
# Poissons Ratio (y) = 0.17217 0.32940
# Poissons Ratio (z) = 0.29638 0.44958
#
# Static dielectric constant tensor:
#      x y z
#    x 1.536080 0.000000 0.000000 
#    y 0.000000 1.531840 0.000000 
#    z 0.000000 0.000000 1.512340 
# 
# From -- ./inp_files/15896.got.cif
#   From: 2010.05.17/outbox.cif.g08.bks.cpg/sg40_8_cif.got.tgz:15896.got - 2010.06.03 18:35:42.
