data_PCOD9362075
_publ_section_title
;
Structure prediction by ZEFSAII (Michael W. Deem and Ramdas Pophale) SiO2 
 PCOD9362075
Probable space group: A B M 2
;
_chemical_formula_sum "Si O2"
_cell_formula_units_Z 36
_cell_length_a 7.910875
_cell_length_b 8.430910
_cell_length_c 21.526108
_cell_angle_alpha 90.000000
_cell_angle_beta 90.000000
_cell_angle_gamma 90.000000
_cell_volume 1435.702612
_symmetry_space_group_name_H-M "A B M 2"
_symmetry_group_IT_number 39
_symmetry_cell_setting 'orthorhombic'
loop_
_space_group_symop_operation_xyz
x,y,z
-x,-y,z
-x,1/2+y,z
x,1/2-y,z
x,1/2+y,1/2+z
-x,1/2-y,1/2+z
-x,y,1/2+z
x,-y,1/2+z
loop_
_atom_site_type_symbol
_atom_site_label
_atom_site_fract_x
_atom_site_fract_y
_atom_site_fract_z
Si Si1 0.000000 0.500000 0.753230
Si Si2 0.800560 0.944483 0.478495
Si Si3 0.655377 0.750000 0.645255
Si Si4 0.500000 0.000000 0.236782
Si Si5 0.338527 0.250000 0.052572
Si Si6 0.248238 0.576992 0.836872
Si Si7 0.945997 0.250000 0.655888
O O1 0.139293 0.444001 0.801926
O O2 0.914176 0.388566 0.704022
O O3 0.792449 0.750000 0.492318
O O4 0.728161 0.961015 0.408470
O O5 0.697350 0.081190 0.516922
O O6 0.000000 0.000000 0.480674
O O7 0.611103 0.602989 0.689618
O O8 0.519843 0.750000 0.588372
O O9 0.858007 0.750000 0.632944
O O10 0.396664 0.095721 0.288177
O O11 0.188182 0.250000 0.102536
O O12 0.159793 0.750000 0.837889
#
# Coordination Sequence:
#
# PCOD9362075 Si02
#       7
#     4   8   4   4   4   8   4
#     4  12  22  42  78 112 144 192 248 326 414 478
#     4  11  25  48  82 115 153 215 270 331 401 477
#     4  12  28  49  77 114 156 214 264 327 406 485
#     4  12  24  48  74 112 156 194 254 338 408 478
#     4  12  30  54  77 114 167 212 280 328 376 488
#     4  11  23  43  76 115 152 190 254 330 409 482
#     4  12  28  45  78 112 153 210 262 321 416 471
#
# _framework density 25.074829999999999
#
# number of rings (size 3 to 8) (size 9 to 14) (size 15 to 20)
#    0.000    0.444    6.667    1.333    1.556    1.778 
#    2.000    3.333    0.000    0.000    0.000    0.000 
#    0.000    0.000    0.000    0.000    0.000    0.000 
#
# Total GULP energy -100227.650355 kJ/mol
# GULP energy per Si atom -5568.202797 kJ/mol
# Density = 2.501776 g / cm^3
# Si number density = 25.074830 Si / 1000 Ang^3
#
#
#
# Elastic Constant Matrix: (Units=GPa)
#
#
# Indices 1 2 3 4 5 6 
#
# 1 141.1249 48.6637 80.9922 0.0000 0.0000 0.0000
# 2 48.6637 164.6016 87.7057 0.0000 0.0000 0.0000
# 3 80.9922 87.7057 213.7526 0.0000 0.0000 0.0000
# 4 0.0000 0.0000 0.0000 16.0115 0.0000 0.0000
# 5 0.0000 0.0000 0.0000 0.0000 36.3804 0.0000
# 6 0.0000 0.0000 0.0000 0.0000 0.0000 29.4041
#
#
#
# Elastic Compliance Matrix: (Units=1/GPa)
#
#
# Indices 1 2 3 4 5 6 
#
# 1 0.009209 -0.001105 -0.003036 0.000000 0.000000 0.000000
# 2 -0.001105 0.007908 -0.002826 0.000000 0.000000 0.000000
# 3 -0.003036 -0.002826 0.006988 0.000000 0.000000 0.000000
# 4 0.000000 0.000000 0.000000 0.062455 0.000000 0.000000
# 5 0.000000 0.000000 0.000000 0.000000 0.027487 0.000000
# 6 0.000000 0.000000 0.000000 0.000000 0.000000 0.034009
#
#
# Mechanical properties :
#
#
# Convention : Reuss Voigt Hill
#
# Bulk Modulus (GPa) = 98.31621 106.02246 102.16934
# Shear Modulus (GPa) = 30.23321 36.50037 33.36679
#
# Velocity S-wave (km/s) = 3.47611 3.81945 3.65182
# Velocity P-wave (km/s) = 7.44348 7.86290 7.65606
#
# Compressibility (1/GPa) = 0.01017126
#
# Stress axis : x y z
#
# Youngs Moduli (GPa) = 108.58493 126.45847 143.09743
#
# Poissons Ratio (x) = 0.13973 0.43446
# Poissons Ratio (y) = 0.11998 0.40439
# Poissons Ratio (z) = 0.32968 0.35737
#
# Static dielectric constant tensor:
#      x y z
#    x 2.169660 0.000000 0.000000 
#    y 0.000000 2.228090 0.000000 
#    z 0.000000 0.000000 1.915490 
# 
# From -- ./inp_files/13818.got.cif
#   From: 2010.05.17/outbox.cif.g08.bks.cpg/sg39_7_cif.got.tgz:13818.got - 2010.06.03 18:22:40.
