data_PCOD9362713
_publ_section_title
;
Structure prediction by ZEFSAII (Michael W. Deem and Ramdas Pophale) SiO2 
 PCOD9362713
Probable space group: A M A 2
;
_chemical_formula_sum "Si O2"
_cell_formula_units_Z 64
_cell_length_a 19.521581
_cell_length_b 15.626033
_cell_length_c 9.464808
_cell_angle_alpha 90.000000
_cell_angle_beta 90.000000
_cell_angle_gamma 90.000000
_cell_volume 2887.191116
_symmetry_space_group_name_H-M "A M A 2"
_symmetry_group_IT_number 40
_symmetry_cell_setting 'orthorhombic'
loop_
_space_group_symop_operation_xyz
x,y,z
-x,-y,z
1/2-x,y,z
1/2+x,-y,z
x,1/2+y,1/2+z
-x,1/2-y,1/2+z
1/2-x,1/2+y,1/2+z
1/2+x,1/2-y,1/2+z
loop_
_atom_site_type_symbol
_atom_site_label
_atom_site_fract_x
_atom_site_fract_y
_atom_site_fract_z
Si Si1 0.170903 0.136421 0.421640
Si Si2 0.826180 0.165363 0.847419
Si Si3 0.573208 0.851199 0.938036
Si Si4 0.825681 0.116592 0.267586
Si Si5 0.455124 0.640577 0.104247
Si Si6 0.107546 0.341851 0.041121
Si Si7 0.826536 0.932320 0.126698
Si Si8 0.935729 0.663468 0.557827
O O1 0.250000 0.103628 0.438923
O O2 0.177331 0.239527 0.416547
O O3 0.114250 0.103490 0.532994
O O4 0.143828 0.115169 0.264604
O O5 0.750000 0.127688 0.858710
O O6 0.852665 0.168046 0.688257
O O7 0.886256 0.124696 0.939217
O O8 0.552607 0.857203 0.773935
O O9 0.596786 0.754714 0.979538
O O10 0.633177 0.914000 0.985226
O O11 0.509426 0.877756 0.038403
O O12 0.750000 0.157867 0.252816
O O13 0.845273 0.107505 0.430507
O O14 0.891412 0.161603 0.199186
O O15 0.823001 0.028593 0.181966
O O16 0.532911 0.613754 0.064736
O O17 0.452955 0.736649 0.040018
O O18 0.750000 0.898012 0.108546
#
# Coordination Sequence:
#
# PCOD9362713 Si02
#       8
#     8   8   8   8   8   8   8   8
#     4   9  19  36  58  84 116 156 199 246 305 361
#     4  10  18  33  57  86 119 154 196 249 306 362
#     4  11  21  37  62  90 122 157 203 254 303 367
#     4  11  24  41  60  89 124 160 202 250 306 369
#     4  10  21  36  59  91 121 150 199 258 303 357
#     4  11  21  36  60  92 122 155 201 256 309 362
#     4  10  23  41  61  86 120 160 203 250 302 365
#     4  10  21  36  58  89 122 156 192 252 312 357
#
# _framework density 22.166872999999999
#
# number of rings (size 3 to 8) (size 9 to 14) (size 15 to 20)
#    0.000    1.750    3.750    0.750    1.750    2.000 
#    0.000    1.250    2.750    3.000    0.000    0.000 
#    0.000    0.000    0.000    0.000    0.000    0.000 
#
# Total GULP energy -178344.626184 kJ/mol
# GULP energy per Si atom -5573.269568 kJ/mol
# Density = 2.211642 g / cm^3
# Si number density = 22.166873 Si / 1000 Ang^3
#
#
#
# Elastic Constant Matrix: (Units=GPa)
#
#
# Indices 1 2 3 4 5 6 
#
# 1 119.3486 1.3146 47.1708 0.0000 0.0000 0.0000
# 2 1.3146 13.1839 -4.7894 0.0000 0.0000 0.0000
# 3 47.1708 -4.7894 98.5200 0.0000 0.0000 0.0000
# 4 0.0000 0.0000 0.0000 13.4853 0.0000 0.0000
# 5 0.0000 0.0000 0.0000 0.0000 40.5985 0.0000
# 6 0.0000 0.0000 0.0000 0.0000 0.0000 13.3186
#
#
#
# Elastic Compliance Matrix: (Units=1/GPa)
#
#
# Indices 1 2 3 4 5 6 
#
# 1 0.010443 -0.002909 -0.005141 0.000000 0.000000 0.000000
# 2 -0.002909 0.078024 0.005186 0.000000 0.000000 0.000000
# 3 -0.005141 0.005186 0.012864 0.000000 0.000000 0.000000
# 4 0.000000 0.000000 0.000000 0.074155 0.000000 0.000000
# 5 0.000000 0.000000 0.000000 0.000000 0.024631 0.000000
# 6 0.000000 0.000000 0.000000 0.000000 0.000000 0.075083
#
#
# Mechanical properties :
#
#
# Convention : Reuss Voigt Hill
#
# Bulk Modulus (GPa) = 10.46009 35.38273 22.92141
# Shear Modulus (GPa) = 15.98486 25.97094 20.97790
#
# Velocity S-wave (km/s) = 2.68827 3.42659 3.07964
# Velocity P-wave (km/s) = 3.79009 5.62601 4.79671
#
# Compressibility (1/GPa) = 0.09560143
#
# Stress axis : x y z
#
# Youngs Moduli (GPa) = 95.75856 12.81660 77.73622
#
# Poissons Ratio (x) = 0.03728 0.39968
# Poissons Ratio (y) = 0.27857 -0.40313
# Poissons Ratio (z) = 0.49234 -0.06646
#
# Static dielectric constant tensor:
#      x y z
#    x 1.753560 0.000000 0.000000 
#    y 0.000000 1.875070 0.000000 
#    z 0.000000 0.000000 1.820040 
# 
# From -- ./inp_files/7783.got.cif
#   From: 2010.05.17/outbox.cif.g08.bks.cpg/sg40_4_cif.got.tgz:7783.got - 2010.06.03 18:35:42.
