data_PCOD9362502
_publ_section_title
;
Structure prediction by ZEFSAII (Michael W. Deem and Ramdas Pophale) SiO2 
 PCOD9362502
Probable space group: A M A 2
;
_chemical_formula_sum "Si O2"
_cell_formula_units_Z 60
_cell_length_a 9.176675
_cell_length_b 14.756594
_cell_length_c 24.497423
_cell_angle_alpha 90.000000
_cell_angle_beta 90.000000
_cell_angle_gamma 90.000000
_cell_volume 3317.354479
_symmetry_space_group_name_H-M "A M A 2"
_symmetry_group_IT_number 40
_symmetry_cell_setting 'orthorhombic'
loop_
_space_group_symop_operation_xyz
x,y,z
-x,-y,z
1/2-x,y,z
1/2+x,-y,z
x,1/2+y,1/2+z
-x,1/2-y,1/2+z
1/2-x,1/2+y,1/2+z
1/2+x,1/2-y,1/2+z
loop_
_atom_site_type_symbol
_atom_site_label
_atom_site_fract_x
_atom_site_fract_y
_atom_site_fract_z
Si Si1 0.904580 0.380838 0.192620
Si Si2 0.573325 0.795997 0.069795
Si Si3 0.082489 0.795019 0.267459
Si Si4 0.000000 0.500000 0.286192
Si Si5 0.578542 0.089890 0.586733
Si Si6 0.927882 0.596133 0.667314
Si Si7 0.427506 0.900973 0.969539
Si Si8 0.081311 0.322589 0.353693
O O1 0.750000 0.382438 0.162049
O O2 0.922385 0.285506 0.222559
O O3 0.897987 0.449655 0.242987
O O4 0.031165 0.401241 0.150272
O O5 0.750000 0.807815 0.071514
O O6 0.542020 0.688737 0.062571
O O7 0.499592 0.832367 0.125433
O O8 0.498624 0.852907 0.021689
O O9 0.250000 0.809892 0.282989
O O10 0.032548 0.878794 0.230177
O O11 0.000087 0.754972 0.319532
O O12 0.936627 0.580590 0.322724
O O13 0.750000 0.077322 0.582654
O O14 0.500000 0.000000 0.564666
O O15 0.750000 0.596200 0.662479
O O16 0.000000 0.500000 0.653325
O O17 0.250000 0.907893 0.973563
O O18 0.465286 0.842552 0.915551
O O19 0.500000 0.000000 0.963863
O O20 0.250000 0.298774 0.354034
#
# Coordination Sequence:
#
# PCOD9362502 Si02
#       8
#     8   8   8   4   8   8   8   8
#     4  10  18  29  48  75 110 147 180 217 267 326
#     4  11  24  41  59  83 114 154 196 244 293 345
#     4   9  20  35  53  79 113 149 185 227 281 334
#     4  10  18  30  48  80 116 148 182 214 270 330
#     4  11  23  36  55  81 113 148 188 231 284 342
#     4  11  22  38  59  87 118 156 198 242 290 345
#     4  11  23  40  61  86 115 153 195 242 291 346
#     4  10  21  35  55  83 115 150 189 229 279 338
#
# _framework density 18.086703
#
# number of rings (size 3 to 8) (size 9 to 14) (size 15 to 20)
#    0.000    1.600    2.667    2.400    0.000    6.400 
#    0.000    0.000    0.000    0.800    0.000    0.000 
#    0.000    0.000    0.000    0.000    0.000    0.000 
#
# Total GULP energy -167202.719460 kJ/mol
# GULP energy per Si atom -5573.423982 kJ/mol
# Density = 1.804554 g / cm^3
# Si number density = 18.086703 Si / 1000 Ang^3
#
#
#
# Elastic Constant Matrix: (Units=GPa)
#
#
# Indices 1 2 3 4 5 6 
#
# 1 78.5943 44.2044 41.8575 0.0000 0.0000 0.0000
# 2 44.2044 77.1036 23.5658 0.0000 0.0000 0.0000
# 3 41.8575 23.5658 98.4399 0.0000 0.0000 0.0000
# 4 0.0000 0.0000 0.0000 28.3416 0.0000 0.0000
# 5 0.0000 0.0000 0.0000 0.0000 16.7600 0.0000
# 6 0.0000 0.0000 0.0000 0.0000 0.0000 12.7862
#
#
#
# Elastic Compliance Matrix: (Units=1/GPa)
#
#
# Indices 1 2 3 4 5 6 
#
# 1 0.022500 -0.010763 -0.006991 0.000000 0.000000 0.000000
# 2 -0.010763 0.019142 -0.000006 0.000000 0.000000 0.000000
# 3 -0.006991 -0.000006 0.013132 0.000000 0.000000 0.000000
# 4 0.000000 0.000000 0.000000 0.035284 0.000000 0.000000
# 5 0.000000 0.000000 0.000000 0.000000 0.059666 0.000000
# 6 0.000000 0.000000 0.000000 0.000000 0.000000 0.078209
#
#
# Mechanical properties :
#
#
# Convention : Reuss Voigt Hill
#
# Bulk Modulus (GPa) = 51.93378 52.59927 52.26653
# Shear Modulus (GPa) = 18.52734 21.21154 19.86944
#
# Velocity S-wave (km/s) = 3.20404 3.42829 3.31806
# Velocity P-wave (km/s) = 6.51644 6.69446 6.60605
#
# Compressibility (1/GPa) = 0.01925529
#
# Stress axis : x y z
#
# Youngs Moduli (GPa) = 44.44419 52.24139 76.14757
#
# Poissons Ratio (x) = 0.56227 0.53232
# Poissons Ratio (y) = 0.47835 0.00045
# Poissons Ratio (z) = 0.31069 0.00031
#
# Static dielectric constant tensor:
#      x y z
#    x 1.634890 0.000000 0.000000 
#    y 0.000000 1.670520 0.000000 
#    z 0.000000 0.000000 1.598470 
# 
# From -- ./inp_files/24215.got.cif
#   From: 2010.05.17/outbox.cif.g08.bks.cpg/sg40_13_cif.got.tgz:24215.got - 2010.06.03 18:35:42.
