data_PCOD9362429
_publ_section_title
;
Structure prediction by ZEFSAII (Michael W. Deem and Ramdas Pophale) SiO2 
 PCOD9362429
Probable space group: A M A 2
;
_chemical_formula_sum "Si O2"
_cell_formula_units_Z 64
_cell_length_a 8.987874
_cell_length_b 26.995695
_cell_length_c 18.816078
_cell_angle_alpha 90.000000
_cell_angle_beta 90.000000
_cell_angle_gamma 90.000000
_cell_volume 4565.418486
_symmetry_space_group_name_H-M "A M A 2"
_symmetry_group_IT_number 40
_symmetry_cell_setting 'orthorhombic'
loop_
_space_group_symop_operation_xyz
x,y,z
-x,-y,z
1/2-x,y,z
1/2+x,-y,z
x,1/2+y,1/2+z
-x,1/2-y,1/2+z
1/2-x,1/2+y,1/2+z
1/2+x,1/2-y,1/2+z
loop_
_atom_site_type_symbol
_atom_site_label
_atom_site_fract_x
_atom_site_fract_y
_atom_site_fract_z
Si Si1 0.425585 0.297520 0.410160
Si Si2 0.926569 0.447469 0.032207
Si Si3 0.574025 0.143982 0.455639
Si Si4 0.071077 0.852755 0.772221
Si Si5 0.073650 0.740032 0.189293
Si Si6 0.927197 0.747607 0.036658
Si Si7 0.925511 0.207918 0.328881
Si Si8 0.571618 0.446906 0.199110
O O1 0.250000 0.298137 0.424054
O O2 0.462910 0.341558 0.355297
O O3 0.512883 0.289812 0.483322
O O4 0.470982 0.249152 0.364593
O O5 0.750000 0.451729 0.025721
O O6 0.961310 0.437228 0.115457
O O7 0.000000 0.500000 0.013495
O O8 0.985987 0.402490 0.985185
O O9 0.750000 0.134701 0.464334
O O10 0.538434 0.193981 0.500502
O O11 0.545907 0.158052 0.373011
O O12 0.250000 0.852486 0.763904
O O13 0.001840 0.808021 0.725556
O O14 0.000932 0.903469 0.744899
O O15 0.250000 0.730844 0.182481
O O16 0.053512 0.785528 0.244938
O O17 0.002862 0.749840 0.113152
O O18 0.750000 0.750925 0.042841
O O19 0.750000 0.220372 0.343394
O O20 0.500000 0.500000 0.216557
O O21 0.750000 0.448166 0.207716
#
# Coordination Sequence:
#
# PCOD9362429 Si02
#       8
#     8   8   8   8   8   8   8   8
#     4   9  17  28  42  60  82 109 141 175 207 245
#     4  10  20  31  43  60  81 107 139 174 209 243
#     4   9  17  29  43  58  80 110 140 170 206 246
#     4  10  19  30  44  62  85 113 144 176 212 252
#     4  10  18  28  43  62  85 113 145 176 207 248
#     4  10  19  29  42  61  86 114 142 174 212 250
#     4   8  16  29  42  58  82 111 139 170 209 248
#     4  10  20  32  45  61  83 111 143 179 215 250
#
# _framework density 14.01843
#
# number of rings (size 3 to 8) (size 9 to 14) (size 15 to 20)
#    0.000    2.500    0.000    3.750    0.000    8.000 
#    0.000    0.000    0.000    0.000    0.000    0.000 
#    0.000    1.000    0.000    4.750    0.000    4.125 
#
# Total GULP energy -178264.559650 kJ/mol
# GULP energy per Si atom -5570.767489 kJ/mol
# Density = 1.398652 g / cm^3
# Si number density = 14.018430 Si / 1000 Ang^3
#
#
#
# Elastic Constant Matrix: (Units=GPa)
#
#
# Indices 1 2 3 4 5 6 
#
# 1 59.2922 48.2698 54.2741 0.0000 0.0000 0.0000
# 2 48.2698 89.4471 58.5434 0.0000 0.0000 0.0000
# 3 54.2741 58.5434 110.3625 0.0000 0.0000 0.0000
# 4 0.0000 0.0000 0.0000 24.0723 0.0000 0.0000
# 5 0.0000 0.0000 0.0000 0.0000 20.8409 0.0000
# 6 0.0000 0.0000 0.0000 0.0000 0.0000 23.0571
#
#
#
# Elastic Compliance Matrix: (Units=1/GPa)
#
#
# Indices 1 2 3 4 5 6 
#
# 1 0.038310 -0.012780 -0.012061 0.000000 0.000000 0.000000
# 2 -0.012780 0.021389 -0.005061 0.000000 0.000000 0.000000
# 3 -0.012061 -0.005061 0.017677 0.000000 0.000000 0.000000
# 4 0.000000 0.000000 0.000000 0.041542 0.000000 0.000000
# 5 0.000000 0.000000 0.000000 0.000000 0.047983 0.000000
# 6 0.000000 0.000000 0.000000 0.000000 0.000000 0.043371
#
#
# Mechanical properties :
#
#
# Convention : Reuss Voigt Hill
#
# Bulk Modulus (GPa) = 56.90820 64.58625 60.74723
# Shear Modulus (GPa) = 18.12046 20.12836 19.12441
#
# Velocity S-wave (km/s) = 3.59920 3.79337 3.69756
# Velocity P-wave (km/s) = 7.61286 8.08447 7.85221
#
# Compressibility (1/GPa) = 0.01757216
#
# Stress axis : x y z
#
# Youngs Moduli (GPa) = 26.10309 46.75299 56.57074
#
# Poissons Ratio (x) = 0.59750 0.68228
# Poissons Ratio (y) = 0.33360 0.28631
# Poissons Ratio (z) = 0.31482 0.23663
#
# Static dielectric constant tensor:
#      x y z
#    x 1.467810 0.000000 0.000000 
#    y 0.000000 1.438320 0.000000 
#    z 0.000000 0.000000 1.475370 
# 
# From -- ./inp_files/19641.got.cif
#   From: 2010.05.17/outbox.cif.g08.bks.cpg/sg40_10_cif.got.tgz:19641.got - 2010.06.03 18:35:42.
