data_PCOD9362898
_publ_section_title
;
Structure prediction by ZEFSAII (Michael W. Deem and Ramdas Pophale) SiO2 
 PCOD9362898
Probable space group: A M A 2
;
_chemical_formula_sum "Si O2"
_cell_formula_units_Z 64
_cell_length_a 8.502677
_cell_length_b 29.188164
_cell_length_c 14.785126
_cell_angle_alpha 90.000000
_cell_angle_beta 90.000000
_cell_angle_gamma 90.000000
_cell_volume 3669.336062
_symmetry_space_group_name_H-M "A M A 2"
_symmetry_group_IT_number 40
_symmetry_cell_setting 'orthorhombic'
loop_
_space_group_symop_operation_xyz
x,y,z
-x,-y,z
1/2-x,y,z
1/2+x,-y,z
x,1/2+y,1/2+z
-x,1/2-y,1/2+z
1/2-x,1/2+y,1/2+z
1/2+x,1/2-y,1/2+z
loop_
_atom_site_type_symbol
_atom_site_label
_atom_site_fract_x
_atom_site_fract_y
_atom_site_fract_z
Si Si1 0.561295 0.359116 0.350080
Si Si2 0.939736 0.450541 0.663167
Si Si3 0.940309 0.361176 0.768293
Si Si4 0.560236 0.450218 0.453882
Si Si5 0.427910 0.732508 0.703065
Si Si6 0.441730 0.829619 0.656405
Si Si7 0.435875 0.830393 0.459632
Si Si8 0.572432 0.235304 0.912429
O O1 0.750000 0.357503 0.350549
O O2 0.508318 0.406936 0.394371
O O3 0.502606 0.353757 0.246791
O O4 0.499800 0.315312 0.407089
O O5 0.750000 0.450857 0.664188
O O6 0.993882 0.408776 0.725689
O O7 0.989931 0.443858 0.558628
O O8 0.000000 0.500000 0.693458
O O9 0.750000 0.359043 0.763386
O O10 0.001292 0.317766 0.709256
O O11 0.985582 0.353329 0.872406
O O12 0.500000 0.500000 0.423418
O O13 0.750000 0.451051 0.452415
O O14 0.250000 0.727729 0.666074
O O15 0.503100 0.776922 0.658278
O O16 0.417375 0.748358 0.807726
O O17 0.250000 0.827970 0.662108
O O18 0.485348 0.849015 0.558179
O O19 0.250000 0.836190 0.450882
O O20 0.473805 0.775977 0.457122
O O21 0.750000 0.234087 0.948699
#
# Coordination Sequence:
#
# PCOD9362898 Si02
#       8
#     8   8   8   8   8   8   8   8
#     4  10  19  31  50  75  99 125 163 207 244 286
#     4   9  18  33  52  73  97 125 157 196 246 299
#     4   9  17  30  49  70  94 128 164 198 242 294
#     4   9  19  34  52  75  99 123 154 195 245 298
#     4   7  12  25  43  61  84 118 157 188 220 271
#     4   9  18  31  47  69  99 135 166 195 240 290
#     4  10  19  30  47  72 101 133 169 206 239 279
#     4   9  17  30  46  65  94 131 165 197 238 283
#
# _framework density 17.441846999999999
#
# number of rings (size 3 to 8) (size 9 to 14) (size 15 to 20)
#    0.000    3.000    0.000    2.625    0.000    3.500 
#    0.000    3.750    0.000    5.250    0.000    0.000 
#    0.000    0.000    0.000    0.000    0.000    0.000 
#
# Total GULP energy -178159.480799 kJ/mol
# GULP energy per Si atom -5567.483775 kJ/mol
# Density = 1.740215 g / cm^3
# Si number density = 17.441847 Si / 1000 Ang^3
#
#
#
# Elastic Constant Matrix: (Units=GPa)
#
#
# Indices 1 2 3 4 5 6 
#
# 1 14.9884 17.1320 6.3719 0.0000 0.0000 0.0000
# 2 17.1320 152.5625 61.3166 0.0000 0.0000 0.0000
# 3 6.3719 61.3166 72.3706 0.0000 0.0000 0.0000
# 4 0.0000 0.0000 0.0000 23.7621 0.0000 0.0000
# 5 0.0000 0.0000 0.0000 0.0000 18.1769 0.0000
# 6 0.0000 0.0000 0.0000 0.0000 0.0000 24.8915
#
#
#
# Elastic Compliance Matrix: (Units=1/GPa)
#
#
# Indices 1 2 3 4 5 6 
#
# 1 0.076575 -0.008930 0.000824 0.000000 0.000000 0.000000
# 2 -0.008930 0.010981 -0.008517 0.000000 0.000000 0.000000
# 3 0.000824 -0.008517 0.020961 0.000000 0.000000 0.000000
# 4 0.000000 0.000000 0.000000 0.042084 0.000000 0.000000
# 5 0.000000 0.000000 0.000000 0.000000 0.055015 0.000000
# 6 0.000000 0.000000 0.000000 0.000000 0.000000 0.040174
#
#
# Mechanical properties :
#
#
# Convention : Reuss Voigt Hill
#
# Bulk Modulus (GPa) = 13.28533 45.50695 29.39614
# Shear Modulus (GPa) = 16.44047 23.70617 20.07332
#
# Velocity S-wave (km/s) = 3.07349 3.69067 3.39613
# Velocity P-wave (km/s) = 4.49762 6.65648 5.68055
#
# Compressibility (1/GPa) = 0.07527098
#
# Stress axis : x y z
#
# Youngs Moduli (GPa) = 13.05901 91.06894 47.70653
#
# Poissons Ratio (x) = 0.81327 -0.03932
# Poissons Ratio (y) = 0.11662 0.40633
# Poissons Ratio (z) = -0.01076 0.77565
#
# Static dielectric constant tensor:
#      x y z
#    x 1.614020 0.000000 0.000000 
#    y 0.000000 1.596200 0.000000 
#    z 0.000000 0.000000 1.611210 
# 
# From -- ./inp_files/15874.got.cif
#   From: 2010.05.17/outbox.cif.g08.bks.cpg/sg40_8_cif.got.tgz:15874.got - 2010.06.03 18:35:42.
