data_PCOD9362850
_publ_section_title
;
Structure prediction by ZEFSAII (Michael W. Deem and Ramdas Pophale) SiO2 
 PCOD9362850
Probable space group: A M A 2
;
_chemical_formula_sum "Si O2"
_cell_formula_units_Z 64
_cell_length_a 8.903995
_cell_length_b 18.644385
_cell_length_c 26.769774
_cell_angle_alpha 90.000000
_cell_angle_beta 90.000000
_cell_angle_gamma 90.000000
_cell_volume 4444.037086
_symmetry_space_group_name_H-M "A M A 2"
_symmetry_group_IT_number 40
_symmetry_cell_setting 'orthorhombic'
loop_
_space_group_symop_operation_xyz
x,y,z
-x,-y,z
1/2-x,y,z
1/2+x,-y,z
x,1/2+y,1/2+z
-x,1/2-y,1/2+z
1/2-x,1/2+y,1/2+z
1/2+x,1/2-y,1/2+z
loop_
_atom_site_type_symbol
_atom_site_label
_atom_site_fract_x
_atom_site_fract_y
_atom_site_fract_z
Si Si1 0.071960 0.577923 0.923160
Si Si2 0.071330 0.422439 0.623932
Si Si3 0.431243 0.663198 0.536417
Si Si4 0.422249 0.800852 0.481230
Si Si5 0.069889 0.421335 0.442407
Si Si6 0.071619 0.922478 0.241903
Si Si7 0.069969 0.672476 0.825761
Si Si8 0.423691 0.701111 0.381768
O O1 0.250000 0.571237 0.923942
O O2 0.029943 0.618139 0.871361
O O3 0.000000 0.500000 0.925646
O O4 0.018778 0.630135 0.967654
O O5 0.250000 0.424139 0.614569
O O6 0.047115 0.409381 0.682895
O O7 0.000000 0.500000 0.612080
O O8 0.991735 0.364628 0.588937
O O9 0.250000 0.657306 0.532890
O O10 0.471858 0.745883 0.524293
O O11 0.505260 0.613984 0.493355
O O12 0.250000 0.822563 0.489984
O O13 0.424667 0.750624 0.431723
O O14 0.250000 0.423917 0.444533
O O15 0.000000 0.500000 0.437096
O O16 0.014310 0.369475 0.397712
O O17 0.250000 0.925220 0.251084
O O18 0.996259 0.862268 0.275963
O O19 0.000000 0.000000 0.253990
O O20 0.250000 0.677669 0.823641
O O21 0.999550 0.749257 0.839924
O O22 0.250000 0.684756 0.370314
#
# Coordination Sequence:
#
# PCOD9362850 Si02
#       8
#     8   8   8   8   8   8   8   8
#     4  10  19  28  41  61  85 112 142 174 208 248
#     4  10  20  32  45  62  85 113 146 183 220 256
#     4  10  19  31  46  63  84 113 146 179 218 259
#     4   8  16  29  43  59  81 108 138 172 209 250
#     4  11  20  30  44  63  88 116 147 180 214 255
#     4  10  20  32  45  62  85 114 147 184 221 255
#     4  10  19  30  45  64  85 114 148 179 215 257
#     4   9  17  30  45  62  85 112 142 177 215 254
#
# _framework density 14.40132
#
# number of rings (size 3 to 8) (size 9 to 14) (size 15 to 20)
#    0.000    2.250    0.000    4.875    0.000    7.500 
#    0.000    0.000    0.000    0.000    0.000    0.000 
#    0.000    1.000    0.000    6.750    0.000    5.000 
#
# Total GULP energy -178452.521985 kJ/mol
# GULP energy per Si atom -5576.641312 kJ/mol
# Density = 1.436854 g / cm^3
# Si number density = 14.401320 Si / 1000 Ang^3
#
#
#
# Elastic Constant Matrix: (Units=GPa)
#
#
# Indices 1 2 3 4 5 6 
#
# 1 83.6174 50.3553 33.1671 0.0000 0.0000 0.0000
# 2 50.3553 85.0274 28.6121 0.0000 0.0000 0.0000
# 3 33.1671 28.6121 46.6645 0.0000 0.0000 0.0000
# 4 0.0000 0.0000 0.0000 28.4496 0.0000 0.0000
# 5 0.0000 0.0000 0.0000 0.0000 19.5370 0.0000
# 6 0.0000 0.0000 0.0000 0.0000 0.0000 26.7031
#
#
#
# Elastic Compliance Matrix: (Units=1/GPa)
#
#
# Indices 1 2 3 4 5 6 
#
# 1 0.021418 -0.009527 -0.009381 0.000000 0.000000 0.000000
# 2 -0.009527 0.019056 -0.004913 0.000000 0.000000 0.000000
# 3 -0.009381 -0.004913 0.031110 0.000000 0.000000 0.000000
# 4 0.000000 0.000000 0.000000 0.035150 0.000000 0.000000
# 5 0.000000 0.000000 0.000000 0.000000 0.051185 0.000000
# 6 0.000000 0.000000 0.000000 0.000000 0.000000 0.037449
#
#
# Mechanical properties :
#
#
# Convention : Reuss Voigt Hill
#
# Bulk Modulus (GPa) = 41.76899 48.84203 45.30551
# Shear Modulus (GPa) = 19.92109 21.81625 20.86867
#
# Velocity S-wave (km/s) = 3.72329 3.89637 3.81081
# Velocity P-wave (km/s) = 6.89568 7.36416 7.13376
#
# Compressibility (1/GPa) = 0.02394121
#
# Stress axis : x y z
#
# Youngs Moduli (GPa) = 46.69022 52.47588 32.14449
#
# Poissons Ratio (x) = 0.49995 0.30155
# Poissons Ratio (y) = 0.44483 0.15792
# Poissons Ratio (z) = 0.43801 0.25780
#
# Static dielectric constant tensor:
#      x y z
#    x 1.480870 0.000000 0.000000 
#    y 0.000000 1.463700 0.000000 
#    z 0.000000 0.000000 1.468570 
# 
# From -- ./inp_files/24380.got.cif
#   From: 2010.05.17/outbox.cif.g08.bks.cpg/sg40_13_cif.got.tgz:24380.got - 2010.06.03 18:35:42.
