data_PCOD9362917
_publ_section_title
;
Structure prediction by ZEFSAII (Michael W. Deem and Ramdas Pophale) SiO2 
 PCOD9362917
Probable space group: A M A 2
;
_chemical_formula_sum "Si O2"
_cell_formula_units_Z 64
_cell_length_a 8.360316
_cell_length_b 25.710823
_cell_length_c 15.585873
_cell_angle_alpha 90.000000
_cell_angle_beta 90.000000
_cell_angle_gamma 90.000000
_cell_volume 3350.192829
_symmetry_space_group_name_H-M "A M A 2"
_symmetry_group_IT_number 40
_symmetry_cell_setting 'orthorhombic'
loop_
_space_group_symop_operation_xyz
x,y,z
-x,-y,z
1/2-x,y,z
1/2+x,-y,z
x,1/2+y,1/2+z
-x,1/2-y,1/2+z
1/2-x,1/2+y,1/2+z
1/2+x,1/2-y,1/2+z
loop_
_atom_site_type_symbol
_atom_site_label
_atom_site_fract_x
_atom_site_fract_y
_atom_site_fract_z
Si Si1 0.056442 0.940764 0.533440
Si Si2 0.940229 0.557145 0.387076
Si Si3 0.559243 0.352265 0.508850
Si Si4 0.441115 0.219481 0.675169
Si Si5 0.054408 0.863736 0.383183
Si Si6 0.057049 0.890604 0.713586
Si Si7 0.942391 0.736715 0.983775
Si Si8 0.557070 0.662614 0.699681
O O1 0.250000 0.939930 0.533989
O O2 0.002438 0.907524 0.450713
O O3 0.001615 0.913352 0.621946
O O4 0.000000 0.000000 0.530265
O O5 0.750000 0.555608 0.382404
O O6 0.001677 0.575091 0.293287
O O7 0.000000 0.500000 0.409312
O O8 0.989619 0.600367 0.455584
O O9 0.750000 0.352867 0.500207
O O10 0.498349 0.295916 0.474808
O O11 0.515444 0.354606 0.609363
O O12 0.250000 0.216824 0.670252
O O13 0.503058 0.168919 0.723806
O O14 0.512845 0.218574 0.579432
O O15 0.483323 0.276165 0.712320
O O16 0.250000 0.863650 0.383840
O O17 0.001099 0.807454 0.418782
O O18 0.004965 0.868487 0.284254
O O19 0.250000 0.891450 0.712596
O O20 0.750000 0.738398 0.977403
O O21 0.750000 0.659370 0.692387
#
# Coordination Sequence:
#
# PCOD9362917 Si02
#       8
#     8   8   8   8   8   8   8   8
#     4  10  20  36  57  79 109 147 188 228 275 330
#     4  11  24  41  61  84 113 149 193 243 289 341
#     4  10  21  37  60  85 113 149 189 237 291 343
#     4  10  19  30  51  83 117 147 185 233 276 328
#     4   9  17  33  57  80 108 151 192 229 277 334
#     4  10  21  37  56  80 114 153 185 224 281 346
#     4   9  17  33  56  79 111 151 190 226 277 345
#     4   9  19  35  56  82 115 152 191 232 281 336
#
# _framework density 19.103380000000001
#
# number of rings (size 3 to 8) (size 9 to 14) (size 15 to 20)
#    0.000    2.250    1.250    1.500    1.750    2.500 
#    0.000    1.875    0.000    1.500    0.000    0.000 
#    0.000    0.000    0.000    0.000    0.000    0.000 
#
# Total GULP energy -178600.617043 kJ/mol
# GULP energy per Si atom -5581.269283 kJ/mol
# Density = 1.905990 g / cm^3
# Si number density = 19.103380 Si / 1000 Ang^3
#
#
#
# Elastic Constant Matrix: (Units=GPa)
#
#
# Indices 1 2 3 4 5 6 
#
# 1 4.2679 19.7923 13.2765 0.0000 0.0000 0.0000
# 2 19.7923 123.3912 63.2340 0.0000 0.0000 0.0000
# 3 13.2765 63.2340 88.6643 0.0000 0.0000 0.0000
# 4 0.0000 0.0000 0.0000 27.5218 0.0000 0.0000
# 5 0.0000 0.0000 0.0000 0.0000 14.5273 0.0000
# 6 0.0000 0.0000 0.0000 0.0000 0.0000 28.7918
#
#
#
# Elastic Compliance Matrix: (Units=1/GPa)
#
#
# Indices 1 2 3 4 5 6 
#
# 1 1.088542 -0.143534 -0.060631 0.000000 0.000000 0.000000
# 2 -0.143534 0.031699 -0.001114 0.000000 0.000000 0.000000
# 3 -0.060631 -0.001114 0.021152 0.000000 0.000000 0.000000
# 4 0.000000 0.000000 0.000000 0.036335 0.000000 0.000000
# 5 0.000000 0.000000 0.000000 0.000000 0.068836 0.000000
# 6 0.000000 0.000000 0.000000 0.000000 0.000000 0.034732
#
#
# Mechanical properties :
#
#
# Convention : Reuss Voigt Hill
#
# Bulk Modulus (GPa) = 1.36830 45.43655 23.40242
# Shear Modulus (GPa) = 2.58336 22.16954 12.37645
#
# Velocity S-wave (km/s) = 1.16415 3.41031 2.54808
# Velocity P-wave (km/s) = 1.58896 6.27241 4.57537
#
# Compressibility (1/GPa) = 0.73083506
#
# Stress axis : x y z
#
# Youngs Moduli (GPa) = 0.91866 31.54708 47.27679
#
# Poissons Ratio (x) = 4.52808 2.86642
# Poissons Ratio (y) = 0.13186 0.05269
# Poissons Ratio (z) = 0.05570 0.03516
#
# Static dielectric constant tensor:
#      x y z
#    x 1.658200 0.000000 0.000000 
#    y 0.000000 1.646800 0.000000 
#    z 0.000000 0.000000 1.692280 
# 
# From -- ./inp_files/15657.got.cif
#   From: 2010.05.17/outbox.cif.g08.bks.cpg/sg40_8_cif.got.tgz:15657.got - 2010.06.03 18:35:42.
