data_PCOD9362509
_publ_section_title
;
Structure prediction by ZEFSAII (Michael W. Deem and Ramdas Pophale) SiO2 
 PCOD9362509
Probable space group: A M A 2
;
_chemical_formula_sum "Si O2"
_cell_formula_units_Z 56
_cell_length_a 7.786358
_cell_length_b 23.128014
_cell_length_c 14.069721
_cell_angle_alpha 90.000000
_cell_angle_beta 90.000000
_cell_angle_gamma 90.000000
_cell_volume 2533.717522
_symmetry_space_group_name_H-M "A M A 2"
_symmetry_group_IT_number 40
_symmetry_cell_setting 'orthorhombic'
loop_
_space_group_symop_operation_xyz
x,y,z
-x,-y,z
1/2-x,y,z
1/2+x,-y,z
x,1/2+y,1/2+z
-x,1/2-y,1/2+z
1/2-x,1/2+y,1/2+z
1/2+x,1/2-y,1/2+z
loop_
_atom_site_type_symbol
_atom_site_label
_atom_site_fract_x
_atom_site_fract_y
_atom_site_fract_z
Si Si1 0.545082 0.433048 0.685880
Si Si2 0.544223 0.242377 0.072905
Si Si3 0.452562 0.624331 0.494232
Si Si4 0.544757 0.126971 0.382320
Si Si5 0.958546 0.239084 0.286503
Si Si6 0.551504 0.623136 0.082854
Si Si7 0.455081 0.629778 0.292227
O O1 0.500000 0.500000 0.679970
O O2 0.750000 0.425100 0.687119
O O3 0.472120 0.402813 0.590348
O O4 0.481338 0.408587 0.786423
O O5 0.750000 0.246693 0.064018
O O6 0.503239 0.219201 0.179106
O O7 0.469670 0.307053 0.071460
O O8 0.474125 0.193954 0.002011
O O9 0.250000 0.611356 0.496416
O O10 0.520847 0.603295 0.391549
O O11 0.750000 0.132598 0.395444
O O12 0.475055 0.191422 0.359433
O O13 0.475894 0.101726 0.481905
O O14 0.750000 0.241111 0.294625
O O15 0.024026 0.304316 0.292088
O O16 0.750000 0.607557 0.087167
O O17 0.482529 0.605736 0.186384
O O18 0.250000 0.633233 0.302177
#
# Coordination Sequence:
#
# PCOD9362509 Si02
#       7
#     8   8   8   8   8   8   8
#     4  11  24  40  60  85 108 135 179 232 284 336
#     4  10  18  29  49  77 110 149 186 219 266 326
#     4  10  20  35  55  78 105 140 183 230 276 322
#     4  10  19  35  56  76 107 146 182 226 276 321
#     4   8  14  26  46  72 103 142 177 209 259 315
#     4  10  20  32  50  79 113 149 186 221 261 318
#     4   9  18  33  51  75 111 149 182 219 266 319
#
# _framework density 22.101911000000001
#
# number of rings (size 3 to 8) (size 9 to 14) (size 15 to 20)
#    0.000    2.286    1.429    3.000    0.000    4.571 
#    0.000    0.000    0.000    0.857    0.000    4.000 
#    0.000    0.000    0.000    0.000    0.000    0.000 
#
# Total GULP energy -156106.425273 kJ/mol
# GULP energy per Si atom -5575.229474 kJ/mol
# Density = 2.205161 g / cm^3
# Si number density = 22.101911 Si / 1000 Ang^3
#
#
#
# Elastic Constant Matrix: (Units=GPa)
#
#
# Indices 1 2 3 4 5 6 
#
# 1 27.6071 -9.8783 14.9247 0.0000 0.0000 0.0000
# 2 -9.8783 23.9969 18.2184 0.0000 0.0000 0.0000
# 3 14.9247 18.2184 222.4758 0.0000 0.0000 0.0000
# 4 0.0000 0.0000 0.0000 10.1827 0.0000 0.0000
# 5 0.0000 0.0000 0.0000 0.0000 17.4316 0.0000
# 6 0.0000 0.0000 0.0000 0.0000 0.0000 -16.1950
#
#
#
# Elastic Compliance Matrix: (Units=1/GPa)
#
#
# Indices 1 2 3 4 5 6 
#
# 1 0.047325 0.023343 -0.005086 0.000000 0.000000 0.000000
# 2 0.023343 0.055948 -0.006147 0.000000 0.000000 0.000000
# 3 -0.005086 -0.006147 0.005339 0.000000 0.000000 0.000000
# 4 0.000000 0.000000 0.000000 0.098206 0.000000 0.000000
# 5 0.000000 0.000000 0.000000 0.000000 0.057367 0.000000
# 6 0.000000 0.000000 0.000000 0.000000 0.000000 -0.061748
#
#
# Mechanical properties :
#
#
# Convention : Reuss Voigt Hill
#
# Bulk Modulus (GPa) = 7.52844 35.62329 21.57587
# Shear Modulus (GPa) = 22.47222 19.00485 20.73854
#
# Velocity S-wave (km/s) = 3.19212 2.93554 3.06651
# Velocity P-wave (km/s) = 4.12308 5.25762 4.72453
#
# Compressibility (1/GPa) = 0.13282964
#
# Stress axis : x y z
#
# Youngs Moduli (GPa) = 21.13068 17.87371 187.28360
#
# Poissons Ratio (x) = -0.41722 0.95257
# Poissons Ratio (y) = -0.49324 1.15132
# Poissons Ratio (z) = 0.10748 0.10988
#
# Static dielectric constant tensor:
#      x y z
#    x 1.796250 0.000000 0.000000 
#    y 0.000000 1.771930 0.000000 
#    z 0.000000 0.000000 1.947960 
# 
# From -- ./inp_files/15352.got.cif
#   From: 2010.05.17/outbox.cif.g08.bks.cpg/sg40_8_cif.got.tgz:15352.got - 2010.06.03 18:35:42.
