data_PCOD9362911
_publ_section_title
;
Structure prediction by ZEFSAII (Michael W. Deem and Ramdas Pophale) SiO2 
 PCOD9362911
Probable space group: A M A 2
;
_chemical_formula_sum "Si O2"
_cell_formula_units_Z 64
_cell_length_a 8.614741
_cell_length_b 23.957533
_cell_length_c 19.735517
_cell_angle_alpha 90.000000
_cell_angle_beta 90.000000
_cell_angle_gamma 90.000000
_cell_volume 4073.172734
_symmetry_space_group_name_H-M "A M A 2"
_symmetry_group_IT_number 40
_symmetry_cell_setting 'orthorhombic'
loop_
_space_group_symop_operation_xyz
x,y,z
-x,-y,z
1/2-x,y,z
1/2+x,-y,z
x,1/2+y,1/2+z
-x,1/2-y,1/2+z
1/2-x,1/2+y,1/2+z
1/2+x,1/2-y,1/2+z
loop_
_atom_site_type_symbol
_atom_site_label
_atom_site_fract_x
_atom_site_fract_y
_atom_site_fract_z
Si Si1 0.564410 0.724030 0.130480
Si Si2 0.561600 0.835301 0.211545
Si Si3 0.562101 0.768693 0.338221
Si Si4 0.936258 0.437999 0.348163
Si Si5 0.936713 0.938391 0.123447
Si Si6 0.062899 0.253088 0.488491
Si Si7 0.435743 0.163332 0.755407
Si Si8 0.563433 0.615881 0.486252
O O1 0.750000 0.722230 0.132470
O O2 0.514109 0.783748 0.163071
O O3 0.498794 0.677217 0.180857
O O4 0.506137 0.723070 0.053893
O O5 0.750000 0.836201 0.211200
O O6 0.512557 0.818089 0.287285
O O7 0.509428 0.893461 0.179762
O O8 0.750000 0.766287 0.337355
O O9 0.512606 0.771844 0.416114
O O10 0.502085 0.711498 0.304705
O O11 0.750000 0.439604 0.352694
O O12 0.980426 0.396041 0.287315
O O13 0.000000 0.500000 0.338833
O O14 0.001587 0.411874 0.417636
O O15 0.750000 0.939531 0.122521
O O16 0.995707 0.915874 0.051134
O O17 0.000000 0.000000 0.135893
O O18 0.250000 0.250632 0.492239
O O19 0.018366 0.318721 0.489207
O O20 0.250000 0.167381 0.754933
O O21 0.750000 0.612583 0.487199
#
# Coordination Sequence:
#
# PCOD9362911 Si02
#       8
#     8   8   8   8   8   8   8   8
#     4  10  19  32  51  71  96 129 163 198 244 297
#     4   8  16  30  48  67  90 122 160 198 236 284
#     4   9  17  32  51  72  96 127 160 197 248 298
#     4  11  23  36  51  70  97 133 171 207 244 289
#     4  11  21  34  48  67  95 131 171 207 241 286
#     4  10  19  30  49  75 102 128 160 200 243 295
#     4  10  20  33  49  72  98 126 162 206 249 290
#     4  11  21  33  48  70 100 133 167 204 241 283
#
# _framework density 15.712567
#
# number of rings (size 3 to 8) (size 9 to 14) (size 15 to 20)
#    0.000    2.000    2.500    3.000    0.000    2.500 
#    0.000    0.625    0.000    0.000    0.000    0.875 
#    0.000    2.000    0.000    0.000    0.000    0.000 
#
# Total GULP energy -178535.118652 kJ/mol
# GULP energy per Si atom -5579.222458 kJ/mol
# Density = 1.567680 g / cm^3
# Si number density = 15.712567 Si / 1000 Ang^3
#
#
#
# Elastic Constant Matrix: (Units=GPa)
#
#
# Indices 1 2 3 4 5 6 
#
# 1 32.6043 30.3915 34.2760 0.0000 0.0000 0.0000
# 2 30.3915 102.8740 78.8013 0.0000 0.0000 0.0000
# 3 34.2760 78.8013 156.8770 0.0000 0.0000 0.0000
# 4 0.0000 0.0000 0.0000 19.4500 0.0000 0.0000
# 5 0.0000 0.0000 0.0000 0.0000 19.1450 0.0000
# 6 0.0000 0.0000 0.0000 0.0000 0.0000 16.2080
#
#
#
# Elastic Compliance Matrix: (Units=1/GPa)
#
#
# Indices 1 2 3 4 5 6 
#
# 1 0.044696 -0.009304 -0.005092 0.000000 0.000000 0.000000
# 2 -0.009304 0.017737 -0.006877 0.000000 0.000000 0.000000
# 3 -0.005092 -0.006877 0.010941 0.000000 0.000000 0.000000
# 4 0.000000 0.000000 0.000000 0.051414 0.000000 0.000000
# 5 0.000000 0.000000 0.000000 0.000000 0.052233 0.000000
# 6 0.000000 0.000000 0.000000 0.000000 0.000000 0.061698
#
#
# Mechanical properties :
#
#
# Convention : Reuss Voigt Hill
#
# Bulk Modulus (GPa) = 32.43687 64.36587 48.40137
# Shear Modulus (GPa) = 17.15026 20.88637 19.01832
#
# Velocity S-wave (km/s) = 3.30737 3.64988 3.48284
# Velocity P-wave (km/s) = 5.93916 7.66914 6.85891
#
# Compressibility (1/GPa) = 0.03082911
#
# Stress axis : x y z
#
# Youngs Moduli (GPa) = 22.37312 56.38056 91.39739
#
# Poissons Ratio (x) = 0.52455 0.46543
# Poissons Ratio (y) = 0.20815 0.62850
# Poissons Ratio (z) = 0.11393 0.38770
#
# Static dielectric constant tensor:
#      x y z
#    x 1.527810 0.000000 0.000000 
#    y 0.000000 1.508620 0.000000 
#    z 0.000000 0.000000 1.525850 
# 
# From -- ./inp_files/19713.got.cif
#   From: 2010.05.17/outbox.cif.g08.bks.cpg/sg40_10_cif.got.tgz:19713.got - 2010.06.03 18:35:42.
