data_PCOD9362535
_publ_section_title
;
Structure prediction by ZEFSAII (Michael W. Deem and Ramdas Pophale) SiO2 
 PCOD9362535
Probable space group: A M A 2
;
_chemical_formula_sum "Si O2"
_cell_formula_units_Z 56
_cell_length_a 8.115282
_cell_length_b 19.682285
_cell_length_c 18.591849
_cell_angle_alpha 90.000000
_cell_angle_beta 90.000000
_cell_angle_gamma 90.000000
_cell_volume 2969.625716
_symmetry_space_group_name_H-M "A M A 2"
_symmetry_group_IT_number 40
_symmetry_cell_setting 'orthorhombic'
loop_
_space_group_symop_operation_xyz
x,y,z
-x,-y,z
1/2-x,y,z
1/2+x,-y,z
x,1/2+y,1/2+z
-x,1/2-y,1/2+z
1/2-x,1/2+y,1/2+z
1/2+x,1/2-y,1/2+z
loop_
_atom_site_type_symbol
_atom_site_label
_atom_site_fract_x
_atom_site_fract_y
_atom_site_fract_z
Si Si1 0.449831 0.792503 0.393810
Si Si2 0.945065 0.577263 0.805920
Si Si3 0.940638 0.573204 0.426472
Si Si4 0.553008 0.280390 0.246808
Si Si5 0.438837 0.152906 0.165307
Si Si6 0.446257 0.069807 0.763839
Si Si7 0.941506 0.804037 0.013238
O O1 0.250000 0.796619 0.400047
O O2 0.510593 0.864933 0.361983
O O3 0.482380 0.738100 0.330048
O O4 0.511804 0.760678 0.469073
O O5 0.750000 0.579002 0.813350
O O6 0.000000 0.500000 0.817853
O O7 0.985203 0.602728 0.724855
O O8 0.750000 0.584478 0.444000
O O9 0.000000 0.500000 0.454216
O O10 0.963497 0.571227 0.340645
O O11 0.048107 0.633387 0.458421
O O12 0.750000 0.268238 0.236577
O O13 0.451902 0.226863 0.201316
O O14 0.516154 0.358078 0.228191
O O15 0.250000 0.130704 0.155906
O O16 0.517029 0.166351 0.086958
O O17 0.250000 0.068083 0.776848
O O18 0.500000 0.000000 0.726313
O O19 0.750000 0.788153 0.029673
#
# Coordination Sequence:
#
# PCOD9362535 Si02
#       7
#     8   8   8   8   8   8   8
#     4   8  15  31  54  74  95 130 170 208 257 309
#     4  10  20  36  57  79 105 137 175 219 267 319
#     4  11  21  31  46  71 101 134 166 204 243 291
#     4   9  17  32  52  70  98 135 167 208 255 305
#     4  10  21  33  52  78 104 134 171 216 257 311
#     4  10  18  30  48  71  98 130 164 203 248 294
#     4  10  19  35  53  73 103 138 173 210 260 313
#
# _framework density 18.857595
#
# number of rings (size 3 to 8) (size 9 to 14) (size 15 to 20)
#    0.000    2.286    1.429    4.286    0.000    2.857 
#    0.000    0.714    0.000    0.857    0.000    4.000 
#    0.000    0.000    0.000    0.000    0.000    0.000 
#
# Total GULP energy -155927.171765 kJ/mol
# GULP energy per Si atom -5568.827563 kJ/mol
# Density = 1.881467 g / cm^3
# Si number density = 18.857595 Si / 1000 Ang^3
#
#
#
# Elastic Constant Matrix: (Units=GPa)
#
#
# Indices 1 2 3 4 5 6 
#
# 1 26.8504 4.5367 -2.5090 0.0000 0.0000 0.0000
# 2 4.5367 124.5182 14.3847 0.0000 0.0000 0.0000
# 3 -2.5090 14.3847 38.5421 0.0000 0.0000 0.0000
# 4 0.0000 0.0000 0.0000 8.9104 0.0000 0.0000
# 5 0.0000 0.0000 0.0000 0.0000 0.5287 0.0000
# 6 0.0000 0.0000 0.0000 0.0000 0.0000 55.9885
#
#
#
# Elastic Compliance Matrix: (Units=1/GPa)
#
#
# Indices 1 2 3 4 5 6 
#
# 1 0.037828 -0.001738 0.003111 0.000000 0.000000 0.000000
# 2 -0.001738 0.008473 -0.003275 0.000000 0.000000 0.000000
# 3 0.003111 -0.003275 0.027371 0.000000 0.000000 0.000000
# 4 0.000000 0.000000 0.000000 0.112228 0.000000 0.000000
# 5 0.000000 0.000000 0.000000 0.000000 1.891387 0.000000
# 6 0.000000 0.000000 0.000000 0.000000 0.000000 0.017861
#
#
# Mechanical properties :
#
#
# Convention : Reuss Voigt Hill
#
# Bulk Modulus (GPa) = 14.31290 24.74840 19.53065
# Shear Modulus (GPa) = 2.35600 24.65208 13.50404
#
# Velocity S-wave (km/s) = 1.11896 3.61955 2.67892
# Velocity P-wave (km/s) = 3.04564 5.53358 4.46634
#
# Compressibility (1/GPa) = 0.06986705
#
# Stress axis : x y z
#
# Youngs Moduli (GPa) = 26.43571 118.02708 36.53559
#
# Poissons Ratio (x) = 0.20509 -0.11366
# Poissons Ratio (y) = 0.04593 0.11966
# Poissons Ratio (z) = -0.08224 0.38657
#
# Static dielectric constant tensor:
#      x y z
#    x 1.685080 0.000000 0.000000 
#    y 0.000000 1.690600 0.000000 
#    z 0.000000 0.000000 1.680940 
# 
# From -- ./inp_files/19502.got.cif
#   From: 2010.05.17/outbox.cif.g08.bks.cpg/sg40_10_cif.got.tgz:19502.got - 2010.06.03 18:35:42.
