data_PCOD9362872
_publ_section_title
;
Structure prediction by ZEFSAII (Michael W. Deem and Ramdas Pophale) SiO2 
 PCOD9362872
Probable space group: A M A 2
;
_chemical_formula_sum "Si O2"
_cell_formula_units_Z 56
_cell_length_a 9.326321
_cell_length_b 14.451436
_cell_length_c 24.037156
_cell_angle_alpha 90.000000
_cell_angle_beta 90.000000
_cell_angle_gamma 90.000000
_cell_volume 3239.697384
_symmetry_space_group_name_H-M "A M A 2"
_symmetry_group_IT_number 40
_symmetry_cell_setting 'orthorhombic'
loop_
_space_group_symop_operation_xyz
x,y,z
-x,-y,z
1/2-x,y,z
1/2+x,-y,z
x,1/2+y,1/2+z
-x,1/2-y,1/2+z
1/2-x,1/2+y,1/2+z
1/2+x,1/2-y,1/2+z
loop_
_atom_site_type_symbol
_atom_site_label
_atom_site_fract_x
_atom_site_fract_y
_atom_site_fract_z
Si Si1 0.580329 0.766329 0.065840
Si Si2 0.918639 0.594665 0.349975
Si Si3 0.907491 0.083244 0.121599
Si Si4 0.576404 0.400137 0.462597
Si Si5 0.416477 0.275804 0.242405
Si Si6 0.910492 0.586831 0.753253
Si Si7 0.578453 0.598047 0.135710
O O1 0.750000 0.778294 0.075491
O O2 0.492025 0.823850 0.110818
O O3 0.548512 0.659528 0.080194
O O4 0.547782 0.819935 0.008340
O O5 0.750000 0.578215 0.363296
O O6 0.923874 0.662237 0.297668
O O7 0.000000 0.500000 0.334655
O O8 0.004827 0.629534 0.404119
O O9 0.750000 0.085481 0.096290
O O10 0.894745 0.068179 0.187194
O O11 0.000000 0.000000 0.097766
O O12 0.500000 0.500000 0.474192
O O13 0.750000 0.411537 0.459185
O O14 0.250000 0.248984 0.232047
O O15 0.507449 0.184060 0.254227
O O16 0.461734 0.339184 0.189679
O O17 0.750000 0.592613 0.777009
O O18 0.000000 0.500000 0.776633
O O19 0.500000 0.500000 0.136006
O O20 0.750000 0.583335 0.139115
#
# Coordination Sequence:
#
# PCOD9362872 Si02
#       7
#     8   8   8   8   8   8   8
#     4  10  20  34  52  73 102 138 173 211 261 310
#     4  10  20  34  54  80 107 140 177 219 265 310
#     4  10  19  29  45  71 101 134 168 203 248 303
#     4  10  20  34  53  78 106 138 173 215 264 316
#     4  10  20  35  55  77 106 142 177 215 262 313
#     4  10  20  32  49  74 105 139 173 211 256 309
#     4  10  21  36  53  75 105 137 172 216 260 311
#
# _framework density 17.285564000000001
#
# number of rings (size 3 to 8) (size 9 to 14) (size 15 to 20)
#    0.000    2.000    1.429    3.429    0.000    5.714 
#    0.000    0.000    0.000    0.857    0.000    4.000 
#    0.000    0.000    0.000    0.000    0.000    0.000 
#
# Total GULP energy -155979.420523 kJ/mol
# GULP energy per Si atom -5570.693590 kJ/mol
# Density = 1.724622 g / cm^3
# Si number density = 17.285564 Si / 1000 Ang^3
#
#
#
# Elastic Constant Matrix: (Units=GPa)
#
#
# Indices 1 2 3 4 5 6 
#
# 1 82.1069 72.5630 28.7580 0.0000 0.0000 0.0000
# 2 72.5630 137.4439 36.5814 0.0000 0.0000 0.0000
# 3 28.7580 36.5814 67.1801 0.0000 0.0000 0.0000
# 4 0.0000 0.0000 0.0000 25.7819 0.0000 0.0000
# 5 0.0000 0.0000 0.0000 0.0000 36.7220 0.0000
# 6 0.0000 0.0000 0.0000 0.0000 0.0000 28.2530
#
#
#
# Elastic Compliance Matrix: (Units=1/GPa)
#
#
# Indices 1 2 3 4 5 6 
#
# 1 0.023672 -0.011461 -0.003892 0.000000 0.000000 0.000000
# 2 -0.011461 0.014058 -0.002749 0.000000 0.000000 0.000000
# 3 -0.003892 -0.002749 0.018048 0.000000 0.000000 0.000000
# 4 0.000000 0.000000 0.000000 0.038787 0.000000 0.000000
# 5 0.000000 0.000000 0.000000 0.000000 0.027232 0.000000
# 6 0.000000 0.000000 0.000000 0.000000 0.000000 0.035394
#
#
# Mechanical properties :
#
#
# Convention : Reuss Voigt Hill
#
# Bulk Modulus (GPa) = 51.08953 62.50397 56.79675
# Shear Modulus (GPa) = 25.00993 28.07328 26.54161
#
# Velocity S-wave (km/s) = 3.80790 4.03437 3.92277
# Velocity P-wave (km/s) = 6.99670 7.61181 7.31073
#
# Compressibility (1/GPa) = 0.01957348
#
# Stress axis : x y z
#
# Youngs Moduli (GPa) = 42.24458 71.13215 55.40699
#
# Poissons Ratio (x) = 0.81528 0.21565
# Poissons Ratio (y) = 0.48418 0.15230
# Poissons Ratio (z) = 0.16442 0.19553
#
# Static dielectric constant tensor:
#      x y z
#    x 1.603980 0.000000 0.000000 
#    y 0.000000 1.577340 0.000000 
#    z 0.000000 0.000000 1.612850 
# 
# From -- ./inp_files/26419.got.cif
#   From: 2010.05.17/outbox.cif.g08.bks.cpg/sg40_14_cif.got.tgz:26419.got - 2010.06.03 18:35:42.
