data_PCOD9362087
_publ_section_title
;
Structure prediction by ZEFSAII (Michael W. Deem and Ramdas Pophale) SiO2 
 PCOD9362087
Probable space group: A B M 2
;
_chemical_formula_sum "Si O2"
_cell_formula_units_Z 40
_cell_length_a 19.281521
_cell_length_b 10.223747
_cell_length_c 8.745587
_cell_angle_alpha 90.000000
_cell_angle_beta 90.000000
_cell_angle_gamma 90.000000
_cell_volume 1724.012252
_symmetry_space_group_name_H-M "A B M 2"
_symmetry_group_IT_number 39
_symmetry_cell_setting 'orthorhombic'
loop_
_space_group_symop_operation_xyz
x,y,z
-x,-y,z
-x,1/2+y,z
x,1/2-y,z
x,1/2+y,1/2+z
-x,1/2-y,1/2+z
-x,y,1/2+z
x,-y,1/2+z
loop_
_atom_site_type_symbol
_atom_site_label
_atom_site_fract_x
_atom_site_fract_y
_atom_site_fract_z
Si Si1 0.647945 0.547243 0.171070
Si Si2 0.456423 0.250000 0.298583
Si Si3 0.401277 0.250000 0.643364
Si Si4 0.258521 0.046282 0.911453
Si Si5 0.845568 0.545205 0.673574
Si Si6 0.940381 0.107224 0.902159
O O1 0.579346 0.623051 0.220894
O O2 0.638701 0.389051 0.157748
O O3 0.704355 0.563915 0.306893
O O4 0.677874 0.601383 0.011355
O O5 0.436907 0.250000 0.476439
O O6 0.537598 0.250000 0.267642
O O7 0.205174 0.114668 0.795259
O O8 0.207989 0.000922 0.045299
O O9 0.884055 0.434612 0.774344
O O10 0.904501 0.609456 0.569156
O O11 0.968755 0.250000 0.866407
O O12 0.000000 0.000000 0.902641
#
# Coordination Sequence:
#
# PCOD9362087 Si02
#       6
#     8   4   4   8   8   8
#     4  11  23  46  72 100 139 185 232 290 354 411
#     4  12  28  46  70 102 142 182 237 291 344 418
#     4  12  28  46  70 102 142 182 237 291 344 418
#     4   9  20  44  66 100 137 180 225 292 346 411
#     4   9  21  44  66 100 137 181 230 280 346 405
#     4  11  24  44  72 102 143 184 232 285 338 409
#
# _framework density 23.201691
#
# number of rings (size 3 to 8) (size 9 to 14) (size 15 to 20)
#    0.000    1.600    2.000    1.200    2.800    4.800 
#   36.000    2.000    0.000    0.000    0.000    0.000 
#    0.000    0.000    0.000    0.000    0.000    0.000 
#
# Total GULP energy -111491.425161 kJ/mol
# GULP energy per Si atom -5574.571258 kJ/mol
# Density = 2.314888 g / cm^3
# Si number density = 23.201691 Si / 1000 Ang^3
#
#
#
# Elastic Constant Matrix: (Units=GPa)
#
#
# Indices 1 2 3 4 5 6 
#
# 1 106.9040 45.1218 36.2162 0.0000 0.0000 0.0000
# 2 45.1218 148.8208 29.6299 0.0000 0.0000 0.0000
# 3 36.2162 29.6299 158.2198 0.0000 0.0000 0.0000
# 4 0.0000 0.0000 0.0000 8.8877 0.0000 0.0000
# 5 0.0000 0.0000 0.0000 0.0000 49.4156 0.0000
# 6 0.0000 0.0000 0.0000 0.0000 0.0000-1965.2443
#
#
#
# Elastic Compliance Matrix: (Units=1/GPa)
#
#
# Indices 1 2 3 4 5 6 
#
# 1 0.011318 -0.003029 -0.002023 0.000000 0.000000 0.000000
# 2 -0.003029 0.007790 -0.000766 0.000000 0.000000 0.000000
# 3 -0.002023 -0.000766 0.006927 0.000000 0.000000 0.000000
# 4 0.000000 0.000000 0.000000 0.112515 0.000000 0.000000
# 5 0.000000 0.000000 0.000000 0.000000 0.020237 0.000000
# 6 0.000000 0.000000 0.000000 0.000000 0.000000 -0.000509
#
#
# Mechanical properties :
#
#
# Convention : Reuss Voigt Hill
#
# Bulk Modulus (GPa) = 69.44682 70.65338 70.05010
# Shear Modulus (GPa) = 28.61838 -361.18974 -166.28568
#
# Velocity S-wave (km/s) = 3.51588 -12.49047 -8.47498
# Velocity P-wave (km/s) = 6.81752 13.32283 8.09380
#
# Compressibility (1/GPa) = 0.01439951
#
# Stress axis : x y z
#
# Youngs Moduli (GPa) = 88.35453 128.36621 144.36538
#
# Poissons Ratio (x) = 0.38878 0.29212
# Poissons Ratio (y) = 0.26760 0.11053
# Poissons Ratio (z) = 0.17878 0.09828
#
# Static dielectric constant tensor:
#      x y z
#    x 1.885020 0.000000 0.000000 
#    y 0.000000 1.765430 0.000000 
#    z 0.000000 0.000000 1.877370 
# 
# From -- ./inp_files/3626.got.cif
#   From: 2010.05.17/outbox.cif.g08.bks.cpg/sg39_2_cif.got.tgz:3626.got - 2010.06.03 18:22:40.
