data_PCOD9362931
_publ_section_title
;
Structure prediction by ZEFSAII (Michael W. Deem and Ramdas Pophale) SiO2 
 PCOD9362931
Probable space group: A M A 2
;
_chemical_formula_sum "Si O2"
_cell_formula_units_Z 64
_cell_length_a 8.807316
_cell_length_b 14.729849
_cell_length_c 28.792484
_cell_angle_alpha 90.000000
_cell_angle_beta 90.000000
_cell_angle_gamma 90.000000
_cell_volume 3735.261468
_symmetry_space_group_name_H-M "A M A 2"
_symmetry_group_IT_number 40
_symmetry_cell_setting 'orthorhombic'
loop_
_space_group_symop_operation_xyz
x,y,z
-x,-y,z
1/2-x,y,z
1/2+x,-y,z
x,1/2+y,1/2+z
-x,1/2-y,1/2+z
1/2-x,1/2+y,1/2+z
1/2+x,1/2-y,1/2+z
loop_
_atom_site_type_symbol
_atom_site_label
_atom_site_fract_x
_atom_site_fract_y
_atom_site_fract_z
Si Si1 0.433838 0.207165 0.515760
Si Si2 0.932291 0.790914 0.791911
Si Si3 0.433666 0.907867 0.982203
Si Si4 0.429506 0.407287 0.823101
Si Si5 0.931750 0.100465 0.601418
Si Si6 0.577960 0.355843 0.916026
Si Si7 0.433345 0.100294 0.700602
Si Si8 0.421843 0.353970 0.383096
O O1 0.250000 0.202695 0.519812
O O2 0.474687 0.312769 0.506698
O O3 0.512709 0.165709 0.560491
O O4 0.473889 0.149380 0.469340
O O5 0.750000 0.789108 0.793863
O O6 0.986052 0.687005 0.800041
O O7 0.976958 0.833948 0.742921
O O8 0.989535 0.851541 0.835002
O O9 0.250000 0.911339 0.981000
O O10 0.489114 0.901603 0.928548
O O11 0.500000 0.000000 0.003233
O O12 0.500000 0.500000 0.804182
O O13 0.250000 0.411052 0.817934
O O14 0.472393 0.400557 0.877638
O O15 0.750000 0.095305 0.603422
O O16 0.998540 0.130338 0.651237
O O17 0.000000 0.000000 0.592881
O O18 0.750000 0.393201 0.913524
O O19 0.587050 0.250607 0.900207
O O20 0.250000 0.095554 0.697572
O O21 0.500000 0.000000 0.709597
O O22 0.250000 0.386729 0.375011
#
# Coordination Sequence:
#
# PCOD9362931 Si02
#       8
#     8   8   8   8   8   8   8   8
#     4   9  18  34  53  73 100 133 168 206 248 292
#     4   9  19  33  50  72  98 129 164 201 242 290
#     4   9  18  31  48  72 103 138 172 205 242 286
#     4  10  19  31  47  70 100 133 167 201 239 282
#     4  11  22  36  55  78 100 124 158 200 250 304
#     4   8  15  29  47  66  91 126 165 200 235 277
#     4  10  20  36  55  75  99 125 156 197 247 298
#     4   8  15  28  45  66  94 128 164 200 236 275
#
# _framework density 17.134007
#
# number of rings (size 3 to 8) (size 9 to 14) (size 15 to 20)
#    0.000    2.750    0.000    4.125    0.000    4.000 
#    0.000    5.000    0.000    0.750    0.000    1.750 
#    0.000    0.000    0.000    0.000    0.000    0.000 
#
# Total GULP energy -178308.872274 kJ/mol
# GULP energy per Si atom -5572.152259 kJ/mol
# Density = 1.709501 g / cm^3
# Si number density = 17.134007 Si / 1000 Ang^3
#
#
#
# Elastic Constant Matrix: (Units=GPa)
#
#
# Indices 1 2 3 4 5 6 
#
# 1 44.4167 31.3533 43.8037 0.0000 0.0000 0.0000
# 2 31.3533 78.6473 65.6671 0.0000 0.0000 0.0000
# 3 43.8037 65.6671 138.3966 0.0000 0.0000 0.0000
# 4 0.0000 0.0000 0.0000 22.7169 0.0000 0.0000
# 5 0.0000 0.0000 0.0000 0.0000 25.1681 0.0000
# 6 0.0000 0.0000 0.0000 0.0000 0.0000 -21.1172
#
#
#
# Elastic Compliance Matrix: (Units=1/GPa)
#
#
# Indices 1 2 3 4 5 6 
#
# 1 0.035461 -0.007892 -0.007479 0.000000 0.000000 0.000000
# 2 -0.007892 0.022814 -0.008327 0.000000 0.000000 0.000000
# 3 -0.007479 -0.008327 0.013544 0.000000 0.000000 0.000000
# 4 0.000000 0.000000 0.000000 0.044020 0.000000 0.000000
# 5 0.000000 0.000000 0.000000 0.000000 0.039733 0.000000
# 6 0.000000 0.000000 0.000000 0.000000 0.000000 -0.047355
#
#
# Mechanical properties :
#
#
# Convention : Reuss Voigt Hill
#
# Bulk Modulus (GPa) = 40.94596 60.34543 50.64570
# Shear Modulus (GPa) = 30.53379 13.39600 21.96490
#
# Velocity S-wave (km/s) = 4.22602 2.79917 3.58431
# Velocity P-wave (km/s) = 6.91099 6.76338 6.83758
#
# Compressibility (1/GPa) = 0.02442243
#
# Stress axis : x y z
#
# Youngs Moduli (GPa) = 28.20027 43.83305 73.83477
#
# Poissons Ratio (x) = 0.34593 0.55220
# Poissons Ratio (y) = 0.22256 0.61482
# Poissons Ratio (z) = 0.21091 0.36499
#
# Static dielectric constant tensor:
#      x y z
#    x 1.586540 0.000000 0.000000 
#    y 0.000000 1.604640 0.000000 
#    z 0.000000 0.000000 1.572600 
# 
# From -- ./inp_files/26485.got.cif
#   From: 2010.05.17/outbox.cif.g08.bks.cpg/sg40_14_cif.got.tgz:26485.got - 2010.06.03 18:35:42.
