data_PCOD9362190
_publ_section_title
;
Structure prediction by ZEFSAII (Michael W. Deem and Ramdas Pophale) SiO2 
 PCOD9362190
Probable space group: A B M 2
;
_chemical_formula_sum "Si O2"
_cell_formula_units_Z 32
_cell_length_a 24.000000
_cell_length_b 9.000000
_cell_length_c 15.000000
_cell_angle_alpha 90.000000
_cell_angle_beta 90.000000
_cell_angle_gamma 90.000000
_cell_volume 3240.000000
_symmetry_space_group_name_H-M "A B M 2"
_symmetry_group_IT_number 39
_symmetry_cell_setting 'orthorhombic'
loop_
_space_group_symop_operation_xyz
x,y,z
-x,-y,z
-x,1/2+y,z
x,1/2-y,z
x,1/2+y,1/2+z
-x,1/2-y,1/2+z
-x,y,1/2+z
x,-y,1/2+z
loop_
_atom_site_type_symbol
_atom_site_label
_atom_site_fract_x
_atom_site_fract_y
_atom_site_fract_z
Si Si1 0.942492 0.922210 0.302700
Si Si2 0.441231 0.071994 0.598367
Si Si3 0.942760 0.423163 0.018990
Si Si4 0.245686 0.074141 0.412185
Si Si5 0.830887 0.924625 0.048645
Si Si6 0.640301 0.572727 0.960185
Si Si7 0.557437 0.927075 0.804989
Si Si8 0.821494 0.428747 0.746715
O O1 0.945874 0.750000 0.275317
O O2 0.939512 0.927091 0.410712
O O3 0.883735 0.987181 0.267835
O O4 0.000000 0.000000 0.275505
O O5 0.444128 0.250000 0.590046
O O6 0.432781 0.031683 0.702247
O O7 0.500000 0.000000 0.570186
O O8 0.392074 0.005647 0.540039
O O9 0.938344 0.250000 0.045684
O O10 0.894649 0.527799 0.056105
O O11 0.000000 0.500000 0.045511
O O12 0.256937 0.250000 0.410677
O O13 0.225036 0.019705 0.315696
O O14 0.195031 0.034071 0.476821
O O15 0.297867 0.985762 0.449110
O O16 0.825107 0.750000 0.025633
O O17 0.804744 0.952407 0.145290
O O18 0.638946 0.750000 0.971516
O O19 0.607122 0.531787 0.870097
O O20 0.550701 0.750000 0.808276
O O21 0.500000 0.000000 0.835405
O O22 0.825702 0.250000 0.760470
#
# Coordination Sequence:
#
# PCOD9362190 Si02
#       8
#     8   8   8   8   8   8   8   8
#     4   9  17  33  55  80 110 144 181 224 276 339
#     4  10  20  37  60  90 124 160 194 234 285 339
#     4  10  19  34  57  84 116 151 187 230 285 346
#     4  11  23  43  62  80 112 154 196 241 290 342
#     4  11  22  38  61  87 114 147 189 238 291 346
#     4  11  23  39  59  87 118 153 197 244 287 339
#     4   9  20  37  59  87 123 156 191 235 283 338
#     4   9  20  39  60  81 111 149 188 234 288 347
#
# _framework density 9.8765429999999999
#
# number of rings (size 3 to 8) (size 9 to 14) (size 15 to 20)
#    0.000    2.000    1.250    2.250    0.000    4.500 
#    0.000    7.500    0.000    0.000    0.000    0.000 
#    0.000    0.000    0.000    0.000    0.000    0.000 
#
# Total GULP energy -178633.465580 kJ/mol
# GULP energy per Si atom -5582.295799 kJ/mol
# Density = 0.985406 g / cm^3
# Si number density = 9.876543 Si / 1000 Ang^3
#
#
#
# Elastic Constant Matrix: (Units=GPa)
#
#
# Indices 1 2 3 4 5 6 
#
# 1 39.7867 -8.0470 -4.0583 0.0000 0.0000 0.0000
# 2 -8.0470 29.4800 4.1389 0.0000 0.0000 0.0000
# 3 -4.0583 4.1389 27.9468 0.0000 0.0000 0.0000
# 4 0.0000 0.0000 0.0000 19.5189 0.0000 0.0000
# 5 0.0000 0.0000 0.0000 0.0000 -30.0990 0.0000
# 6 0.0000 0.0000 0.0000 0.0000 0.0000 33.2422
#
#
#
# Elastic Compliance Matrix: (Units=1/GPa)
#
#
# Indices 1 2 3 4 5 6 
#
# 1 0.026826 0.006920 0.002871 0.000000 0.000000 0.000000
# 2 0.006920 0.036426 -0.004390 0.000000 0.000000 0.000000
# 3 0.002871 -0.004390 0.036849 0.000000 0.000000 0.000000
# 4 0.000000 0.000000 0.000000 0.051233 0.000000 0.000000
# 5 0.000000 0.000000 0.000000 0.000000 -0.033224 0.000000
# 6 0.000000 0.000000 0.000000 0.000000 0.000000 0.030082
#
#
# Mechanical properties :
#
#
# Convention : Reuss Voigt Hill
#
# Bulk Modulus (GPa) = 9.01687 9.03118 9.02403
# Shear Modulus (GPa) = 28.67631 11.54439 20.11035
#
# Velocity S-wave (km/s) = 3.81430 2.42013 3.19421
# Velocity P-wave (km/s) = 4.89625 3.52013 4.26407
#
# Compressibility (1/GPa) = 0.11090322
#
# Stress axis : x y z
#
# Youngs Moduli (GPa) = 37.27673 27.45259 27.13754
#
# Poissons Ratio (x) = -0.18996 -0.07791
# Poissons Ratio (y) = -0.25794 0.11913
# Poissons Ratio (z) = -0.10701 0.12051
#
# Static dielectric constant tensor:
#      x y z
#    x 1.834540 0.000000 0.000000 
#    y 0.000000 1.661300 0.000000 
#    z 0.000000 0.000000 1.719690 
# 
# From -- ./inp_files/10556.got.cif
#   From: 2010.05.17/outbox.ucp.g08.bks.cvg/sg39_6_cif.got.tgz:10556.got - 2010.06.11 10:41:16.
