data_PCOD9362457
_publ_section_title
;
Structure prediction by ZEFSAII (Michael W. Deem and Ramdas Pophale) SiO2 
 PCOD9362457
Probable space group: A M A 2
;
_chemical_formula_sum "Si O2"
_cell_formula_units_Z 48
_cell_length_a 8.412373
_cell_length_b 24.633852
_cell_length_c 14.246536
_cell_angle_alpha 90.000000
_cell_angle_beta 90.000000
_cell_angle_gamma 90.000000
_cell_volume 2952.297566
_symmetry_space_group_name_H-M "A M A 2"
_symmetry_group_IT_number 40
_symmetry_cell_setting 'orthorhombic'
loop_
_space_group_symop_operation_xyz
x,y,z
-x,-y,z
1/2-x,y,z
1/2+x,-y,z
x,1/2+y,1/2+z
-x,1/2-y,1/2+z
1/2-x,1/2+y,1/2+z
1/2+x,1/2-y,1/2+z
loop_
_atom_site_type_symbol
_atom_site_label
_atom_site_fract_x
_atom_site_fract_y
_atom_site_fract_z
Si Si1 0.440602 0.773511 0.444640
Si Si2 0.559232 0.440603 0.659231
Si Si3 0.940693 0.059397 0.946699
Si Si4 0.557712 0.166392 0.840869
Si Si5 0.058014 0.666121 0.766564
Si Si6 0.556488 0.225685 0.656930
O O1 0.250000 0.772456 0.444907
O O2 0.501259 0.715356 0.407418
O O3 0.497386 0.817774 0.369232
O O4 0.498168 0.783235 0.550848
O O5 0.500000 0.500000 0.689005
O O6 0.750000 0.440955 0.657512
O O7 0.499953 0.431255 0.552982
O O8 0.504669 0.391493 0.725646
O O9 0.750000 0.058793 0.947988
O O10 0.996202 0.108605 0.880682
O O11 0.000000 0.000000 0.916943
O O12 0.750000 0.166693 0.841503
O O13 0.505395 0.182201 0.735494
O O14 0.250000 0.666306 0.769043
O O15 0.008876 0.715196 0.696880
O O16 0.750000 0.225097 0.655394
#
# Coordination Sequence:
#
# PCOD9362457 Si02
#       6
#     8   8   8   8   8   8
#     4  10  18  28  47  71  91 115 150 189 223 262
#     4  10  19  31  48  68  93 123 152 186 227 271
#     4  10  19  30  47  69  93 121 152 188 227 269
#     4   9  18  32  47  64  91 124 151 179 223 274
#     4   9  18  32  47  64  92 125 149 177 224 274
#     4   8  15  29  46  64  88 118 148 177 218 268
#
# _framework density 16.258524000000001
#
# number of rings (size 3 to 8) (size 9 to 14) (size 15 to 20)
#    0.000    2.667    0.000    4.500    0.000    4.000 
#    0.000    8.333    0.000    1.000    0.000    4.667 
#    0.000    0.000    0.000    0.000    0.000    0.000 
#
# Total GULP energy -133784.842154 kJ/mol
# GULP energy per Si atom -5574.368423 kJ/mol
# Density = 1.622152 g / cm^3
# Si number density = 16.258524 Si / 1000 Ang^3
#
#
#
# Elastic Constant Matrix: (Units=GPa)
#
#
# Indices 1 2 3 4 5 6 
#
# 1 19.5396 22.1949 18.4069 0.0000 0.0000 0.0000
# 2 22.1949 155.4791 101.9856 0.0000 0.0000 0.0000
# 3 18.4069 101.9856 148.5469 0.0000 0.0000 0.0000
# 4 0.0000 0.0000 0.0000 33.9487 0.0000 0.0000
# 5 0.0000 0.0000 0.0000 0.0000 18.5115 0.0000
# 6 0.0000 0.0000 0.0000 0.0000 0.0000 -7.6963
#
#
#
# Elastic Compliance Matrix: (Units=1/GPa)
#
#
# Indices 1 2 3 4 5 6 
#
# 1 0.061767 -0.006908 -0.002911 0.000000 0.000000 0.000000
# 2 -0.006908 0.012474 -0.007708 0.000000 0.000000 0.000000
# 3 -0.002911 -0.007708 0.012385 0.000000 0.000000 0.000000
# 4 0.000000 0.000000 0.000000 0.029456 0.000000 0.000000
# 5 0.000000 0.000000 0.000000 0.000000 0.054021 0.000000
# 6 0.000000 0.000000 0.000000 0.000000 0.000000 -0.129933
#
#
# Mechanical properties :
#
#
# Convention : Reuss Voigt Hill
#
# Bulk Modulus (GPa) = 19.39051 67.63782 43.51416
# Shear Modulus (GPa) = 54.10446 21.01799 37.56123
#
# Velocity S-wave (km/s) = 5.77493 3.59937 4.81172
# Velocity P-wave (km/s) = 7.51124 7.67891 7.59554
#
# Compressibility (1/GPa) = 0.05157163
#
# Stress axis : x y z
#
# Youngs Moduli (GPa) = 16.18983 80.16760 80.74554
#
# Poissons Ratio (x) = 0.55378 0.23506
# Poissons Ratio (y) = 0.11184 0.62239
# Poissons Ratio (z) = 0.04713 0.61793
#
# Static dielectric constant tensor:
#      x y z
#    x 1.560780 0.000000 0.000000 
#    y 0.000000 1.541060 0.000000 
#    z 0.000000 0.000000 1.541130 
# 
# From -- ./inp_files/15153.got.cif
#   From: 2010.05.17/outbox.cif.g08.bks.cpg/sg40_8_cif.got.tgz:15153.got - 2010.06.03 18:35:42.
