data_PCOD9362463
_publ_section_title
;
Structure prediction by ZEFSAII (Michael W. Deem and Ramdas Pophale) SiO2 
 PCOD9362463
Probable space group: A M A 2
;
_chemical_formula_sum "Si O2"
_cell_formula_units_Z 52
_cell_length_a 9.274132
_cell_length_b 15.097882
_cell_length_c 20.077890
_cell_angle_alpha 90.000000
_cell_angle_beta 90.000000
_cell_angle_gamma 90.000000
_cell_volume 2811.301150
_symmetry_space_group_name_H-M "A M A 2"
_symmetry_group_IT_number 40
_symmetry_cell_setting 'orthorhombic'
loop_
_space_group_symop_operation_xyz
x,y,z
-x,-y,z
1/2-x,y,z
1/2+x,-y,z
x,1/2+y,1/2+z
-x,1/2-y,1/2+z
1/2-x,1/2+y,1/2+z
1/2+x,1/2-y,1/2+z
loop_
_atom_site_type_symbol
_atom_site_label
_atom_site_fract_x
_atom_site_fract_y
_atom_site_fract_z
Si Si1 0.581098 0.173207 0.046900
Si Si2 0.000000 0.500000 0.624805
Si Si3 0.424708 0.404914 0.273085
Si Si4 0.903779 0.373008 0.733771
Si Si5 0.925757 0.214342 0.901644
Si Si6 0.577420 0.278151 0.174135
Si Si7 0.584745 0.414829 0.886237
O O1 0.750000 0.192853 0.041125
O O2 0.565748 0.076531 0.079258
O O3 0.526930 0.246025 0.100428
O O4 0.522188 0.175187 0.972083
O O5 0.098614 0.554101 0.676198
O O6 0.500000 0.500000 0.281713
O O7 0.250000 0.412171 0.269852
O O8 0.465105 0.342422 0.336592
O O9 0.491137 0.358422 0.207364
O O10 0.750000 0.322264 0.732809
O O11 0.914327 0.416205 0.805743
O O12 0.034444 0.307243 0.718912
O O13 0.750000 0.215889 0.899886
O O14 0.973886 0.316752 0.901117
O O15 0.750000 0.292492 0.174515
O O16 0.500000 0.500000 0.911486
O O17 0.750000 0.419061 0.909553
#
# Coordination Sequence:
#
# PCOD9362463 Si02
#       7
#     8   4   8   8   8   8   8
#     4   9  19  34  53  78 110 151 189 228 282 344
#     4  10  18  28  50  80 112 142 180 228 278 346
#     4  11  22  38  61  86 115 153 197 243 287 340
#     4  10  18  30  49  78 111 140 173 222 283 335
#     4   9  19  37  56  77 113 153 188 228 285 345
#     4  10  20  35  56  81 109 144 188 234 280 335
#     4  10  19  33  54  80 107 141 179 226 278 328
#
# _framework density 18.496772
#
# number of rings (size 3 to 8) (size 9 to 14) (size 15 to 20)
#    0.000    2.154    2.308    1.385    1.077    1.231 
#    0.000    0.769    0.000   10.154    0.000    0.000 
#    0.000    0.000    0.000    0.000    0.000    0.000 
#
# Total GULP energy -144757.427312 kJ/mol
# GULP energy per Si atom -5567.593358 kJ/mol
# Density = 1.845467 g / cm^3
# Si number density = 18.496772 Si / 1000 Ang^3
#
#
#
# Elastic Constant Matrix: (Units=GPa)
#
#
# Indices 1 2 3 4 5 6 
#
# 1 48.5313 23.0517 9.5645 0.0000 0.0000 0.0000
# 2 23.0517 116.0240 33.9436 0.0000 0.0000 0.0000
# 3 9.5645 33.9436 83.4109 0.0000 0.0000 0.0000
# 4 0.0000 0.0000 0.0000 15.7341 0.0000 0.0000
# 5 0.0000 0.0000 0.0000 0.0000 16.8243 0.0000
# 6 0.0000 0.0000 0.0000 0.0000 0.0000 28.1548
#
#
#
# Elastic Compliance Matrix: (Units=1/GPa)
#
#
# Indices 1 2 3 4 5 6 
#
# 1 0.022809 -0.004275 -0.000876 0.000000 0.000000 0.000000
# 2 -0.004275 0.010585 -0.003817 0.000000 0.000000 0.000000
# 3 -0.000876 -0.003817 0.013643 0.000000 0.000000 0.000000
# 4 0.000000 0.000000 0.000000 0.063556 0.000000 0.000000
# 5 0.000000 0.000000 0.000000 0.000000 0.059438 0.000000
# 6 0.000000 0.000000 0.000000 0.000000 0.000000 0.035518
#
#
# Mechanical properties :
#
#
# Convention : Reuss Voigt Hill
#
# Bulk Modulus (GPa) = 34.36449 42.34287 38.35368
# Shear Modulus (GPa) = 21.44220 24.23640 22.83930
#
# Velocity S-wave (km/s) = 3.40846 3.62374 3.51774
# Velocity P-wave (km/s) = 5.84030 6.36006 6.10571
#
# Compressibility (1/GPa) = 0.02909981
#
# Stress axis : x y z
#
# Youngs Moduli (GPa) = 43.84308 94.47206 73.29945
#
# Poissons Ratio (x) = 0.40391 0.06417
# Poissons Ratio (y) = 0.18745 0.27981
# Poissons Ratio (z) = 0.03839 0.36063
#
# Static dielectric constant tensor:
#      x y z
#    x 1.639480 0.000000 0.000000 
#    y 0.000000 1.648760 0.000000 
#    z 0.000000 0.000000 1.661660 
# 
# From -- ./inp_files/22068.got.cif
#   From: 2010.05.17/outbox.cif.g08.bks.cpg/sg40_12_cif.got.tgz:22068.got - 2010.06.03 18:35:42.
