data_PCOD9362049
_publ_section_title
;
Structure prediction by ZEFSAII (Michael W. Deem and Ramdas Pophale) SiO2 
 PCOD9362049
Probable space group: A B M 2
;
_chemical_formula_sum "Si O2"
_cell_formula_units_Z 56
_cell_length_a 20.736921
_cell_length_b 9.336447
_cell_length_c 14.554729
_cell_angle_alpha 90.000000
_cell_angle_beta 90.000000
_cell_angle_gamma 90.000000
_cell_volume 2817.928912
_symmetry_space_group_name_H-M "A B M 2"
_symmetry_group_IT_number 39
_symmetry_cell_setting 'orthorhombic'
loop_
_space_group_symop_operation_xyz
x,y,z
-x,-y,z
-x,1/2+y,z
x,1/2-y,z
x,1/2+y,1/2+z
-x,1/2-y,1/2+z
-x,y,1/2+z
x,-y,1/2+z
loop_
_atom_site_type_symbol
_atom_site_label
_atom_site_fract_x
_atom_site_fract_y
_atom_site_fract_z
Si Si1 0.834050 0.423081 0.171040
Si Si2 0.563318 0.086903 0.446676
Si Si3 0.688279 0.413483 0.171667
Si Si4 0.310658 0.584978 0.947228
Si Si5 0.436821 0.412527 0.171457
Si Si6 0.829949 0.077229 0.957847
Si Si7 0.068649 0.922793 0.805103
O O1 0.842745 0.250000 0.180735
O O2 0.760389 0.456601 0.200348
O O3 0.886627 0.512419 0.225428
O O4 0.839030 0.461442 0.063625
O O5 0.560643 0.250000 0.414936
O O6 0.563408 0.088425 0.559077
O O7 0.500000 0.000000 0.418747
O O8 0.629051 0.009436 0.417988
O O9 0.676228 0.250000 0.200813
O O10 0.629844 0.513959 0.200236
O O11 0.689441 0.412154 0.059447
O O12 0.318164 0.750000 0.916659
O O13 0.239891 0.525439 0.922445
O O14 0.500000 0.500000 0.199311
O O15 0.440636 0.250000 0.203461
O O16 0.824019 0.250000 0.955679
O O17 0.890737 0.039139 0.896512
O O18 0.062466 0.750000 0.798567
O O19 0.000000 0.000000 0.804631
#
# Coordination Sequence:
#
# PCOD9362049 Si02
#       7
#     8   8   8   8   8   8   8
#     4   9  18  36  59  82 109 143 180 220 266 318
#     4   9  15  21  31  54  89 128 167 211 257 302
#     4   8  14  25  43  65  92 127 168 211 257 307
#     4   8  13  25  44  64  88 125 169 211 254 304
#     4   9  15  21  32  54  89 129 170 214 259 304
#     4   8  17  35  58  80 107 143 180 217 264 319
#     4  11  23  39  58  83 112 141 175 216 262 318
#
# _framework density 19.87275
#
# number of rings (size 3 to 8) (size 9 to 14) (size 15 to 20)
#    0.000    3.143    0.000    3.000    0.000    4.571 
#    0.000    6.429    0.000    0.000    0.000    1.000 
#    0.000    6.857    0.000    0.857    0.000    0.000 
#
# Total GULP energy -156269.756502 kJ/mol
# GULP energy per Si atom -5581.062732 kJ/mol
# Density = 1.982752 g / cm^3
# Si number density = 19.872750 Si / 1000 Ang^3
#
#
#
# Elastic Constant Matrix: (Units=GPa)
#
#
# Indices 1 2 3 4 5 6 
#
# 1 229.2656 120.2576 49.9167 0.0000 0.0000 0.0000
# 2 120.2576 119.4048 32.2765 0.0000 0.0000 0.0000
# 3 49.9167 32.2765 67.8759 0.0000 0.0000 0.0000
# 4 0.0000 0.0000 0.0000 6.5855 0.0000 0.0000
# 5 0.0000 0.0000 0.0000 0.0000 55.7639 0.0000
# 6 0.0000 0.0000 0.0000 0.0000 0.0000 32.2546
#
#
#
# Elastic Compliance Matrix: (Units=1/GPa)
#
#
# Indices 1 2 3 4 5 6 
#
# 1 0.009706 -0.009003 -0.002857 0.000000 0.000000 0.000000
# 2 -0.009003 0.017962 -0.001920 0.000000 0.000000 0.000000
# 3 -0.002857 -0.001920 0.017747 0.000000 0.000000 0.000000
# 4 0.000000 0.000000 0.000000 0.151848 0.000000 0.000000
# 5 0.000000 0.000000 0.000000 0.000000 0.017933 0.000000
# 6 0.000000 0.000000 0.000000 0.000000 0.000000 0.031003
#
#
# Mechanical properties :
#
#
# Convention : Reuss Voigt Hill
#
# Bulk Modulus (GPa) = 56.00904 91.27200 73.64052
# Shear Modulus (GPa) = 17.87561 33.19385 25.53473
#
# Velocity S-wave (km/s) = 3.00243 4.09139 3.58846
# Velocity P-wave (km/s) = 6.34543 8.26724 7.36925
#
# Compressibility (1/GPa) = 0.01785426
#
# Stress axis : x y z
#
# Youngs Moduli (GPa) = 103.02512 55.67434 56.34861
#
# Poissons Ratio (x) = 0.50126 0.16098
# Poissons Ratio (y) = 0.92758 0.10818
# Poissons Ratio (z) = 0.29433 0.10689
#
# Static dielectric constant tensor:
#      x y z
#    x 1.678610 0.000000 0.000000 
#    y 0.000000 1.676820 0.000000 
#    z 0.000000 0.000000 1.787990 
# 
# From -- ./inp_files/10349.got.cif
#   From: 2010.05.17/outbox.cif.g08.bks.cpg/sg39_6_cif.got.tgz:10349.got - 2010.06.03 18:22:40.
