data_PCOD9362369
_publ_section_title
;
Structure prediction by ZEFSAII (Michael W. Deem and Ramdas Pophale) SiO2 
 PCOD9362369
Probable space group: A M A 2
;
_chemical_formula_sum "Si O2"
_cell_formula_units_Z 48
_cell_length_a 20.833952
_cell_length_b 13.528400
_cell_length_c 7.336202
_cell_angle_alpha 90.000000
_cell_angle_beta 90.000000
_cell_angle_gamma 90.000000
_cell_volume 2067.708800
_symmetry_space_group_name_H-M "A M A 2"
_symmetry_group_IT_number 40
_symmetry_cell_setting 'orthorhombic'
loop_
_space_group_symop_operation_xyz
x,y,z
-x,-y,z
1/2-x,y,z
1/2+x,-y,z
x,1/2+y,1/2+z
-x,1/2-y,1/2+z
1/2-x,1/2+y,1/2+z
1/2+x,1/2-y,1/2+z
loop_
_atom_site_type_symbol
_atom_site_label
_atom_site_fract_x
_atom_site_fract_y
_atom_site_fract_z
Si Si1 0.352242 0.300553 0.234020
Si Si2 0.947925 0.920303 0.449531
Si Si3 0.360129 0.904054 0.077621
Si Si4 0.603561 0.888892 0.052587
Si Si5 0.975815 0.194757 0.940602
Si Si6 0.319891 0.975613 0.473504
O O1 0.329155 0.322938 0.441308
O O2 0.348998 0.194702 0.134944
O O3 0.429137 0.317458 0.265456
O O4 0.323659 0.383953 0.108949
O O5 0.935466 0.923762 0.231923
O O6 0.969939 0.809647 0.486313
O O7 0.877525 0.950058 0.520100
O O8 0.000000 0.000000 0.507401
O O9 0.433565 0.864662 0.090156
O O10 0.330943 0.927087 0.273126
O O11 0.363136 0.012035 0.980863
O O12 0.548116 0.843025 0.926091
O O13 0.250000 0.023422 0.477701
#
# Coordination Sequence:
#
# PCOD9362369 Si02
#       6
#     8   8   8   8   8   8
#     4   9  22  39  59  97 128 167 222 276 330 404
#     4  10  20  37  64  96 133 168 215 279 333 402
#     4   9  21  41  64  90 129 174 220 275 338 402
#     4  10  17  37  64  92 136 172 219 270 339 409
#     4   9  19  37  61  94 130 174 212 265 344 400
#     4  11  23  44  68  93 129 177 228 281 346 413
#
# _framework density 23.214099000000001
#
# number of rings (size 3 to 8) (size 9 to 14) (size 15 to 20)
#    1.000    1.333    0.000    3.500    0.000    2.000 
#   15.000    8.333    0.000    0.000    0.000    0.000 
#    0.000    0.000    0.000    0.000    0.000    0.000 
#
# Total GULP energy -133777.669607 kJ/mol
# GULP energy per Si atom -5574.069567 kJ/mol
# Density = 2.316126 g / cm^3
# Si number density = 23.214099 Si / 1000 Ang^3
#
#
#
# Elastic Constant Matrix: (Units=GPa)
#
#
# Indices 1 2 3 4 5 6 
#
# 1 86.1986 14.0865 11.4154 0.0000 0.0000 0.0000
# 2 14.0865 96.0835 2.3662 0.0000 0.0000 0.0000
# 3 11.4154 2.3662 49.0842 0.0000 0.0000 0.0000
# 4 0.0000 0.0000 0.0000 27.9087 0.0000 0.0000
# 5 0.0000 0.0000 0.0000 0.0000 0.7798 0.0000
# 6 0.0000 0.0000 0.0000 0.0000 0.0000 13.3962
#
#
#
# Elastic Compliance Matrix: (Units=1/GPa)
#
#
# Indices 1 2 3 4 5 6 
#
# 1 0.012250 -0.001728 -0.002766 0.000000 0.000000 0.000000
# 2 -0.001728 0.010664 -0.000112 0.000000 0.000000 0.000000
# 3 -0.002766 -0.000112 0.021022 0.000000 0.000000 0.000000
# 4 0.000000 0.000000 0.000000 0.035831 0.000000 0.000000
# 5 0.000000 0.000000 0.000000 0.000000 1.282353 0.000000
# 6 0.000000 0.000000 0.000000 0.000000 0.000000 0.074648
#
#
# Mechanical properties :
#
#
# Convention : Reuss Voigt Hill
#
# Bulk Modulus (GPa) = 28.79860 31.90028 30.34944
# Shear Modulus (GPa) = 3.43041 21.98349 12.70695
#
# Velocity S-wave (km/s) = 1.21694 3.08066 2.34216
# Velocity P-wave (km/s) = 3.79568 5.14058 4.51845
#
# Compressibility (1/GPa) = 0.03472391
#
# Stress axis : x y z
#
# Youngs Moduli (GPa) = 81.63448 93.77622 47.56974
#
# Poissons Ratio (x) = 0.16202 0.13156
# Poissons Ratio (y) = 0.14105 0.00534
# Poissons Ratio (z) = 0.22577 0.01053
#
# Static dielectric constant tensor:
#      x y z
#    x 1.926420 0.000000 0.000000 
#    y 0.000000 1.892580 0.000000 
#    z 0.000000 0.000000 1.935360 
# 
# From -- ./inp_files/8731.got.cif
#   From: 2010.05.17/outbox.cif.g08.bks.cpg/sg40_5_cif.got.tgz:8731.got - 2010.06.03 18:35:42.
