data_PCOD9362077
_publ_section_title
;
Structure prediction by ZEFSAII (Michael W. Deem and Ramdas Pophale) SiO2 
 PCOD9362077
Probable space group: A B M 2
;
_chemical_formula_sum "Si O2"
_cell_formula_units_Z 52
_cell_length_a 7.148481
_cell_length_b 26.566387
_cell_length_c 11.525745
_cell_angle_alpha 90.000000
_cell_angle_beta 90.000000
_cell_angle_gamma 90.000000
_cell_volume 2188.846311
_symmetry_space_group_name_H-M "A B M 2"
_symmetry_group_IT_number 39
_symmetry_cell_setting 'orthorhombic'
loop_
_space_group_symop_operation_xyz
x,y,z
-x,-y,z
-x,1/2+y,z
x,1/2-y,z
x,1/2+y,1/2+z
-x,1/2-y,1/2+z
-x,y,1/2+z
x,-y,1/2+z
loop_
_atom_site_type_symbol
_atom_site_label
_atom_site_fract_x
_atom_site_fract_y
_atom_site_fract_z
Si Si1 0.638342 0.750000 0.054621
Si Si2 0.843924 0.068001 0.702524
Si Si3 0.367427 0.750000 0.821819
Si Si4 0.761399 0.145657 0.899597
Si Si5 0.725302 0.459665 0.160849
Si Si6 0.623711 0.898918 0.853666
Si Si7 0.126806 0.150080 0.015123
Si Si8 0.500000 0.000000 0.957936
O O1 0.552791 0.750000 0.187855
O O2 0.773298 0.798343 0.045842
O O3 0.503054 0.750000 0.938607
O O4 0.826000 0.099387 0.819310
O O5 0.798949 0.106422 0.599301
O O6 0.057202 0.052484 0.677405
O O7 0.716335 0.018066 0.706344
O O8 0.243947 0.800454 0.835439
O O9 0.543807 0.131759 0.911670
O O10 0.901829 0.150916 0.007390
O O11 0.618083 0.412240 0.217957
O O12 0.648429 0.468315 0.033156
O O13 0.804720 0.867722 0.888205
O O14 0.619339 0.956525 0.897048
#
# Coordination Sequence:
#
# PCOD9362077 Si02
#       8
#     4   8   4   8   8   8   8   4
#     4  12  27  54  84 117 159 198 268 328 405 471
#     4  11  23  44  70 101 146 198 249 311 375 464
#     4  12  27  52  84 117 153 204 264 332 397 485
#     4  12  25  48  74 107 148 196 256 314 396 460
#     4  11  24  41  67 103 144 197 249 303 375 454
#     4  12  25  43  71 101 147 193 251 306 386 455
#     4  12  25  49  75 107 149 202 249 325 390 463
#     4  12  22  40  64 100 144 194 242 304 370 448
#
# _framework density 23.756805
#
# number of rings (size 3 to 8) (size 9 to 14) (size 15 to 20)
#    0.000    0.308    6.154    3.692    0.000    0.000 
#    5.538    0.000    0.000    0.000    0.000    0.000 
#    0.000    0.000    0.000    0.000    0.000    0.000 
#
# Total GULP energy -145113.691279 kJ/mol
# GULP energy per Si atom -5581.295818 kJ/mol
# Density = 2.370273 g / cm^3
# Si number density = 23.756805 Si / 1000 Ang^3
#
#
#
# Elastic Constant Matrix: (Units=GPa)
#
#
# Indices 1 2 3 4 5 6 
#
# 1 76.2066 9.3226 7.8132 0.0000 0.0000 0.0000
# 2 9.3226 148.9656 27.8369 0.0000 0.0000 0.0000
# 3 7.8132 27.8369 73.0520 0.0000 0.0000 0.0000
# 4 0.0000 0.0000 0.0000 27.0302 0.0000 0.0000
# 5 0.0000 0.0000 0.0000 0.0000 21.8052 0.0000
# 6 0.0000 0.0000 0.0000 0.0000 0.0000 31.5880
#
#
#
# Elastic Compliance Matrix: (Units=1/GPa)
#
#
# Indices 1 2 3 4 5 6 
#
# 1 0.013319 -0.000611 -0.001192 0.000000 0.000000 0.000000
# 2 -0.000611 0.007256 -0.002699 0.000000 0.000000 0.000000
# 3 -0.001192 -0.002699 0.014845 0.000000 0.000000 0.000000
# 4 0.000000 0.000000 0.000000 0.036996 0.000000 0.000000
# 5 0.000000 0.000000 0.000000 0.000000 0.045861 0.000000
# 6 0.000000 0.000000 0.000000 0.000000 0.000000 0.031658
#
#
# Mechanical properties :
#
#
# Convention : Reuss Voigt Hill
#
# Bulk Modulus (GPa) = 37.85641 43.12996 40.49318
# Shear Modulus (GPa) = 29.80750 32.96812 31.38781
#
# Velocity S-wave (km/s) = 3.54601 3.72927 3.63879
# Velocity P-wave (km/s) = 5.72146 6.06114 5.89375
#
# Compressibility (1/GPa) = 0.02641561
#
# Stress axis : x y z
#
# Youngs Moduli (GPa) = 75.07995 137.82397 67.36276
#
# Poissons Ratio (x) = 0.08419 0.08028
# Poissons Ratio (y) = 0.04586 0.18184
# Poissons Ratio (z) = 0.08948 0.37205
#
# Static dielectric constant tensor:
#      x y z
#    x 1.963280 0.000000 0.000000 
#    y 0.000000 1.859220 0.000000 
#    z 0.000000 0.000000 2.016990 
# 
# From -- ./inp_files/5300.got.cif
#   From: 2010.05.17/outbox.cif.g08.bks.cpg/sg39_3_cif.got.tgz:5300.got - 2010.06.03 18:22:40.
