data_PCOD9362233
_publ_section_title
;
Structure prediction by ZEFSAII (Michael W. Deem and Ramdas Pophale) SiO2 
 PCOD9362233
Probable space group: A M A 2
;
_chemical_formula_sum "Si O2"
_cell_formula_units_Z 44
_cell_length_a 24.789713
_cell_length_b 7.342696
_cell_length_c 12.397309
_cell_angle_alpha 90.000000
_cell_angle_beta 90.000000
_cell_angle_gamma 90.000000
_cell_volume 2256.599424
_symmetry_space_group_name_H-M "A M A 2"
_symmetry_group_IT_number 40
_symmetry_cell_setting 'orthorhombic'
loop_
_space_group_symop_operation_xyz
x,y,z
-x,-y,z
1/2-x,y,z
1/2+x,-y,z
x,1/2+y,1/2+z
-x,1/2-y,1/2+z
1/2-x,1/2+y,1/2+z
1/2+x,1/2-y,1/2+z
loop_
_atom_site_type_symbol
_atom_site_label
_atom_site_fract_x
_atom_site_fract_y
_atom_site_fract_z
Si Si1 0.865558 0.678048 0.281640
Si Si2 0.563895 0.003826 0.214696
Si Si3 0.250000 0.516397 0.523208
Si Si4 0.750000 0.747229 0.322689
Si Si5 0.250000 0.854228 0.390305
Si Si6 0.133265 0.942083 0.016395
Si Si7 0.634395 0.279786 0.335773
O O1 0.909777 0.804528 0.228634
O O2 0.804856 0.740180 0.255166
O O3 0.868795 0.692553 0.413456
O O4 0.871079 0.461984 0.262779
O O5 0.500000 0.000000 0.218968
O O6 0.590756 0.131084 0.305382
O O7 0.587243 0.082693 0.102867
O O8 0.250000 0.428710 0.401091
O O9 0.250000 0.732178 0.499199
O O10 0.193196 0.445751 0.568129
O O11 0.750000 0.928035 0.395887
O O12 0.305285 0.798827 0.330433
O O13 0.127311 0.137014 0.955719
#
# Coordination Sequence:
#
# PCOD9362233 Si02
#       7
#     8   8   4   4   4   8   8
#     4   9  20  39  59  87 120 146 189 244 295 344
#     4  12  24  38  59  84 113 166 210 230 280 338
#     4   8  16  34  54  88 120 146 180 234 300 362
#     4  10  14  29  63  89 115 149 176 234 305 357
#     4  10  14  29  63  89 115 149 176 234 305 357
#     4   8  20  40  59  85 122 143 192 245 293 344
#     4   9  20  39  59  87 120 146 189 244 295 344
#
# _framework density 19.498366999999998
#
# number of rings (size 3 to 8) (size 9 to 14) (size 15 to 20)
#    1.091    1.455    3.636    0.000    0.000    3.636 
#    3.273    0.000    0.000    0.000    0.000    0.000 
#    0.000    0.000    0.000    0.000    0.000    0.000 
#
# Total GULP energy -122471.777577 kJ/mol
# GULP energy per Si atom -5566.898981 kJ/mol
# Density = 1.945399 g / cm^3
# Si number density = 19.498367 Si / 1000 Ang^3
#
#
#
# Elastic Constant Matrix: (Units=GPa)
#
#
# Indices 1 2 3 4 5 6 
#
# 1 178.4777 22.6524 23.8771 0.0000 0.0000 0.0000
# 2 22.6524 60.2947 -3.9673 0.0000 0.0000 0.0000
# 3 23.8771 -3.9673 40.2760 0.0000 0.0000 0.0000
# 4 0.0000 0.0000 0.0000 20.0785 0.0000 0.0000
# 5 0.0000 0.0000 0.0000 0.0000 15.6369 0.0000
# 6 0.0000 0.0000 0.0000 0.0000 0.0000 24.7550
#
#
#
# Elastic Compliance Matrix: (Units=1/GPa)
#
#
# Indices 1 2 3 4 5 6 
#
# 1 0.006498 -0.002712 -0.004120 0.000000 0.000000 0.000000
# 2 -0.002712 0.017826 0.003364 0.000000 0.000000 0.000000
# 3 -0.004120 0.003364 0.027602 0.000000 0.000000 0.000000
# 4 0.000000 0.000000 0.000000 0.049804 0.000000 0.000000
# 5 0.000000 0.000000 0.000000 0.000000 0.063951 0.000000
# 6 0.000000 0.000000 0.000000 0.000000 0.000000 0.040396
#
#
# Mechanical properties :
#
#
# Convention : Reuss Voigt Hill
#
# Bulk Modulus (GPa) = 22.22721 40.46364 31.34542
# Shear Modulus (GPa) = 21.92877 27.85983 24.89430
#
# Velocity S-wave (km/s) = 3.35721 3.78409 3.57702
# Velocity P-wave (km/s) = 5.14316 6.31584 5.75942
#
# Compressibility (1/GPa) = 0.04498991
#
# Stress axis : x y z
#
# Youngs Moduli (GPa) = 153.88544 56.09909 36.22882
#
# Poissons Ratio (x) = 0.15217 0.14925
# Poissons Ratio (y) = 0.41741 -0.12187
# Poissons Ratio (z) = 0.63395 -0.18871
#
# Static dielectric constant tensor:
#      x y z
#    x 1.667770 0.000000 0.000000 
#    y 0.000000 1.689110 0.000000 
#    z 0.000000 0.000000 1.726980 
# 
# From -- ./inp_files/13889.got.cif
#   From: 2010.05.17/outbox.cif.g08.bks.cpg/sg40_7_cif.got.tgz:13889.got - 2010.06.03 18:35:42.
