data_PCOD9362768
_publ_section_title
;
Structure prediction by ZEFSAII (Michael W. Deem and Ramdas Pophale) SiO2 
 PCOD9362768
Probable space group: A M A 2
;
_chemical_formula_sum "Si O2"
_cell_formula_units_Z 60
_cell_length_a 13.541547
_cell_length_b 12.580056
_cell_length_c 17.948293
_cell_angle_alpha 90.000000
_cell_angle_beta 90.000000
_cell_angle_gamma 90.000000
_cell_volume 3057.553088
_symmetry_space_group_name_H-M "A M A 2"
_symmetry_group_IT_number 40
_symmetry_cell_setting 'orthorhombic'
loop_
_space_group_symop_operation_xyz
x,y,z
-x,-y,z
1/2-x,y,z
1/2+x,-y,z
x,1/2+y,1/2+z
-x,1/2-y,1/2+z
1/2-x,1/2+y,1/2+z
1/2+x,1/2-y,1/2+z
loop_
_atom_site_type_symbol
_atom_site_label
_atom_site_fract_x
_atom_site_fract_y
_atom_site_fract_z
Si Si1 0.484596 0.855531 0.321790
Si Si2 0.139650 0.399951 0.601081
Si Si3 0.500000 0.000000 0.542646
Si Si4 0.056853 0.670161 0.407887
Si Si5 0.134175 0.034084 0.405394
Si Si6 0.636280 0.380004 0.688353
Si Si7 0.856260 0.051442 0.926906
Si Si8 0.463751 0.760882 0.574621
O O1 0.427166 0.748630 0.339225
O O2 0.572021 0.861922 0.384004
O O3 0.547815 0.863308 0.247240
O O4 0.408566 0.949256 0.344848
O O5 0.250000 0.359814 0.617846
O O6 0.121758 0.503062 0.652212
O O7 0.138440 0.442614 0.516517
O O8 0.058968 0.307832 0.600527
O O9 0.405749 0.004412 0.486703
O O10 0.513332 0.113663 0.582786
O O11 0.130565 0.571678 0.407944
O O12 0.058969 0.730767 0.487960
O O13 0.948858 0.617624 0.398871
O O14 0.250000 0.043705 0.401920
O O15 0.750000 0.376331 0.717562
O O16 0.622113 0.289212 0.625691
O O17 0.750000 0.093159 0.902331
#
# Coordination Sequence:
#
# PCOD9362768 Si02
#       8
#     8   8   4   8   8   8   8   8
#     4  10  22  39  55  86 120 152 194 243 306 359
#     4   9  19  33  56  88 118 152 192 244 306 351
#     4  10  22  40  56  88 126 160 202 254 304 356
#     4  10  18  35  56  81 120 155 190 245 297 345
#     4  10  21  37  59  84 116 155 195 242 297 362
#     4  11  23  38  61  90 120 156 198 252 309 371
#     4   9  18  31  54  87 116 147 194 241 286 348
#     4  11  20  37  58  83 122 159 202 247 298 359
#
# _framework density 19.623535
#
# number of rings (size 3 to 8) (size 9 to 14) (size 15 to 20)
#    0.000    2.133    4.000    0.800    3.733    2.667 
#    0.000    1.333    0.000    0.000    0.000    0.000 
#    0.000    0.000    0.000    0.000    0.000    0.000 
#
# Total GULP energy -167198.395354 kJ/mol
# GULP energy per Si atom -5573.279845 kJ/mol
# Density = 1.957887 g / cm^3
# Si number density = 19.623535 Si / 1000 Ang^3
#
#
#
# Elastic Constant Matrix: (Units=GPa)
#
#
# Indices 1 2 3 4 5 6 
#
# 1 65.6924 -4.9388 -0.8785 0.0000 0.0000 0.0000
# 2 -4.9388 99.6929 14.7774 0.0000 0.0000 0.0000
# 3 -0.8785 14.7774 35.2737 0.0000 0.0000 0.0000
# 4 0.0000 0.0000 0.0000 18.2775 0.0000 0.0000
# 5 0.0000 0.0000 0.0000 0.0000 17.7385 0.0000
# 6 0.0000 0.0000 0.0000 0.0000 0.0000 9.5706
#
#
#
# Elastic Compliance Matrix: (Units=1/GPa)
#
#
# Indices 1 2 3 4 5 6 
#
# 1 0.015280 0.000747 0.000068 0.000000 0.000000 0.000000
# 2 0.000747 0.010731 -0.004477 0.000000 0.000000 0.000000
# 3 0.000068 -0.004477 0.030227 0.000000 0.000000 0.000000
# 4 0.000000 0.000000 0.000000 0.054712 0.000000 0.000000
# 5 0.000000 0.000000 0.000000 0.000000 0.056374 0.000000
# 6 0.000000 0.000000 0.000000 0.000000 0.000000 0.104487
#
#
# Mechanical properties :
#
#
# Convention : Reuss Voigt Hill
#
# Bulk Modulus (GPa) = 20.44456 24.28658 22.36557
# Shear Modulus (GPa) = 16.92386 21.89726 19.41056
#
# Velocity S-wave (km/s) = 2.93990 3.34408 3.14848
# Velocity P-wave (km/s) = 4.68668 5.22625 4.96380
#
# Compressibility (1/GPa) = 0.04891277
#
# Stress axis : x y z
#
# Youngs Moduli (GPa) = 65.44703 93.18399 33.08293
#
# Poissons Ratio (x) = -0.06960 -0.00224
# Poissons Ratio (y) = -0.04888 0.14812
# Poissons Ratio (z) = -0.00443 0.41720
#
# Static dielectric constant tensor:
#      x y z
#    x 1.708040 0.000000 0.000000 
#    y 0.000000 1.713680 0.000000 
#    z 0.000000 0.000000 1.724550 
# 
# From -- ./inp_files/20727.got.cif
#   From: 2010.05.17/outbox.cif.g08.bks.cpg/sg40_11_cif.got.tgz:20727.got - 2010.06.03 18:35:42.
