data_PCOD9362383
_publ_section_title
;
Structure prediction by ZEFSAII (Michael W. Deem and Ramdas Pophale) SiO2 
 PCOD9362383
Probable space group: A M A 2
;
_chemical_formula_sum "Si O2"
_cell_formula_units_Z 64
_cell_length_a 9.095705
_cell_length_b 27.090098
_cell_length_c 18.706021
_cell_angle_alpha 90.000000
_cell_angle_beta 90.000000
_cell_angle_gamma 90.000000
_cell_volume 4609.229791
_symmetry_space_group_name_H-M "A M A 2"
_symmetry_group_IT_number 40
_symmetry_cell_setting 'orthorhombic'
loop_
_space_group_symop_operation_xyz
x,y,z
-x,-y,z
1/2-x,y,z
1/2+x,-y,z
x,1/2+y,1/2+z
-x,1/2-y,1/2+z
1/2-x,1/2+y,1/2+z
1/2+x,1/2-y,1/2+z
loop_
_atom_site_type_symbol
_atom_site_label
_atom_site_fract_x
_atom_site_fract_y
_atom_site_fract_z
Si Si1 0.576650 0.142318 0.656920
Si Si2 0.923693 0.206657 0.528778
Si Si3 0.923151 0.255750 0.386921
Si Si4 0.575184 0.246594 0.735474
Si Si5 0.075556 0.296617 0.608461
Si Si6 0.573528 0.948268 0.899423
Si Si7 0.925429 0.948016 0.732658
Si Si8 0.926241 0.851345 0.985951
O O1 0.750000 0.131880 0.666358
O O2 0.551739 0.157148 0.573896
O O3 0.542853 0.192185 0.702099
O O4 0.484115 0.096760 0.685210
O O5 0.250000 0.779752 0.541204
O O6 0.025811 0.247773 0.564761
O O7 0.946552 0.211616 0.444247
O O8 0.750000 0.257078 0.368139
O O9 0.955910 0.306249 0.430649
O O10 0.017608 0.251666 0.315995
O O11 0.750000 0.253293 0.731544
O O12 0.495891 0.287075 0.685726
O O13 0.250000 0.300523 0.613074
O O14 0.006968 0.339993 0.560258
O O15 0.750000 0.952999 0.903391
O O16 0.536364 0.937953 0.816187
O O17 0.500000 0.000000 0.919552
O O18 0.529435 0.902422 0.948802
O O19 0.750000 0.952149 0.727408
O O20 0.000000 0.000000 0.713269
O O21 0.750000 0.851343 0.997475
#
# Coordination Sequence:
#
# PCOD9362383 Si02
#       8
#     8   8   8   8   8   8   8   8
#     4   9  17  29  43  58  79 110 142 169 203 244
#     4   8  16  30  43  57  82 111 135 166 209 248
#     4   9  16  27  43  61  82 109 141 172 202 243
#     4  10  19  29  41  59  85 113 139 170 208 246
#     4  10  18  27  41  60  80 105 140 175 203 240
#     4   9  18  30  43  59  81 109 139 172 208 243
#     4  10  19  30  43  60  82 108 139 174 208 240
#     4   9  17  30  44  58  82 113 139 168 211 250
#
# _framework density 13.885183
#
# number of rings (size 3 to 8) (size 9 to 14) (size 15 to 20)
#    0.000    2.750    0.000    4.125    0.000    6.500 
#    0.000    0.000    0.000    0.000    0.000    0.000 
#    0.000    1.000    0.000    7.250    0.000    3.500 
#
# Total GULP energy -178219.427963 kJ/mol
# GULP energy per Si atom -5569.357124 kJ/mol
# Density = 1.385358 g / cm^3
# Si number density = 13.885183 Si / 1000 Ang^3
#
#
#
# Elastic Constant Matrix: (Units=GPa)
#
#
# Indices 1 2 3 4 5 6 
#
# 1 53.0418 43.7830 50.8956 0.0000 0.0000 0.0000
# 2 43.7830 87.5085 54.3346 0.0000 0.0000 0.0000
# 3 50.8956 54.3346 95.0451 0.0000 0.0000 0.0000
# 4 0.0000 0.0000 0.0000 24.8809 0.0000 0.0000
# 5 0.0000 0.0000 0.0000 0.0000 23.7616 0.0000
# 6 0.0000 0.0000 0.0000 0.0000 0.0000 20.7398
#
#
#
# Elastic Compliance Matrix: (Units=1/GPa)
#
#
# Indices 1 2 3 4 5 6 
#
# 1 0.045525 -0.011845 -0.017606 0.000000 0.000000 0.000000
# 2 -0.011845 0.020798 -0.005547 0.000000 0.000000 0.000000
# 3 -0.017606 -0.005547 0.023120 0.000000 0.000000 0.000000
# 4 0.000000 0.000000 0.000000 0.040192 0.000000 0.000000
# 5 0.000000 0.000000 0.000000 0.000000 0.042085 0.000000
# 6 0.000000 0.000000 0.000000 0.000000 0.000000 0.048216
#
#
# Mechanical properties :
#
#
# Convention : Reuss Voigt Hill
#
# Bulk Modulus (GPa) = 51.42376 59.29133 55.35754
# Shear Modulus (GPa) = 16.86832 19.64860 18.25846
#
# Velocity S-wave (km/s) = 3.48924 3.76583 3.63017
# Velocity P-wave (km/s) = 7.30400 7.85509 7.58456
#
# Compressibility (1/GPa) = 0.01944626
#
# Stress axis : x y z
#
# Youngs Moduli (GPa) = 21.96613 48.08164 43.25252
#
# Poissons Ratio (x) = 0.56955 0.76151
# Poissons Ratio (y) = 0.26020 0.23990
# Poissons Ratio (z) = 0.38674 0.26668
#
# Static dielectric constant tensor:
#      x y z
#    x 1.461100 0.000000 0.000000 
#    y 0.000000 1.441470 0.000000 
#    z 0.000000 0.000000 1.464520 
# 
# From -- ./inp_files/19690.got.cif
#   From: 2010.05.17/outbox.cif.g08.bks.cpg/sg40_10_cif.got.tgz:19690.got - 2010.06.03 18:35:42.
