data_PCOD9362241
_publ_section_title
;
Structure prediction by ZEFSAII (Michael W. Deem and Ramdas Pophale) SiO2 
 PCOD9362241
Probable space group: A M A 2
;
_chemical_formula_sum "Si O2"
_cell_formula_units_Z 48
_cell_length_a 17.163462
_cell_length_b 8.912362
_cell_length_c 11.605336
_cell_angle_alpha 90.000000
_cell_angle_beta 90.000000
_cell_angle_gamma 90.000000
_cell_volume 1775.233275
_symmetry_space_group_name_H-M "A M A 2"
_symmetry_group_IT_number 40
_symmetry_cell_setting 'orthorhombic'
loop_
_space_group_symop_operation_xyz
x,y,z
-x,-y,z
1/2-x,y,z
1/2+x,-y,z
x,1/2+y,1/2+z
-x,1/2-y,1/2+z
1/2-x,1/2+y,1/2+z
1/2+x,1/2-y,1/2+z
loop_
_atom_site_type_symbol
_atom_site_label
_atom_site_fract_x
_atom_site_fract_y
_atom_site_fract_z
Si Si1 0.250000 0.422994 0.879801
Si Si2 0.917479 0.765642 0.094892
Si Si3 0.750000 0.041693 0.788792
Si Si4 0.250000 0.748457 0.147626
Si Si5 0.250000 0.711343 0.607421
Si Si6 0.081751 0.986275 0.410281
Si Si7 0.584156 0.001264 0.792706
Si Si8 0.083709 0.242737 0.602015
O O1 0.250000 0.308102 0.776263
O O2 0.168551 0.510234 0.863836
O O3 0.250000 0.332737 0.001128
O O4 0.837076 0.856874 0.102859
O O5 0.916698 0.636702 0.196815
O O6 0.003782 0.833236 0.100394
O O7 0.914154 0.673618 0.974675
O O8 0.750000 0.202380 0.729260
O O9 0.750000 0.930461 0.674829
O O10 0.668033 0.016119 0.851866
O O11 0.171187 0.798290 0.086441
O O12 0.072715 0.112985 0.507469
O O13 0.000000 0.000000 0.341904
O O14 0.587031 0.845082 0.723551
O O15 0.500000 0.000000 0.853317
#
# Coordination Sequence:
#
# PCOD9362241 Si02
#       8
#     4   8   4   4   4   8   8   8
#     4  10  16  20  28  48  71  89 116 155 186 221
#     4   7  10  16  29  44  56  74 111 157 172 178
#     4   8  12  18  26  36  56  87 113 135 171 209
#     4  10  16  18  24  42  72  98 108 132 196 238
#     4   8  12  20  32  46  63  84 121 164 175 190
#     4   8  13  22  35  47  62  90 134 162 167 195
#     4   7   9  13  22  35  49  68 100 137 161 176
#     4   8  12  19  28  40  59  88 119 145 171 208
#
# _framework density 27.038699000000001
#
# number of rings (size 3 to 8) (size 9 to 14) (size 15 to 20)
#    0.000    4.000    0.000    5.500    0.000    0.000 
#    0.000    0.000    0.000    0.000    0.000    1.167 
#    0.000    0.000    0.000    0.000    0.000  585.000 
#
# Total GULP energy -133817.704457 kJ/mol
# GULP energy per Si atom -5575.737686 kJ/mol
# Density = 2.697716 g / cm^3
# Si number density = 27.038699 Si / 1000 Ang^3
#
#
#
# Elastic Constant Matrix: (Units=GPa)
#
#
# Indices 1 2 3 4 5 6 
#
# 1 408.8528 16.5993 12.5909 0.0000 0.0000 0.0000
# 2 16.5993 67.0785 25.4389 0.0000 0.0000 0.0000
# 3 12.5909 25.4389 75.3949 0.0000 0.0000 0.0000
# 4 0.0000 0.0000 0.0000 -33.4883 0.0000 0.0000
# 5 0.0000 0.0000 0.0000 0.0000 -46.7391 0.0000
# 6 0.0000 0.0000 0.0000 0.0000 0.0000 -86.4299
#
#
#
# Elastic Compliance Matrix: (Units=1/GPa)
#
#
# Indices 1 2 3 4 5 6 
#
# 1 0.002474 -0.000522 -0.000237 0.000000 0.000000 0.000000
# 2 -0.000522 0.017206 -0.005718 0.000000 0.000000 0.000000
# 3 -0.000237 -0.005718 0.015232 0.000000 0.000000 0.000000
# 4 0.000000 0.000000 0.000000 -0.029861 0.000000 0.000000
# 5 0.000000 0.000000 0.000000 0.000000 -0.021395 0.000000
# 6 0.000000 0.000000 0.000000 0.000000 0.000000 -0.011570
#
#
# Mechanical properties :
#
#
# Convention : Reuss Voigt Hill
#
# Bulk Modulus (GPa) = 45.54251 73.39826 59.47039
# Shear Modulus (GPa) = -654.45904 -0.21833 -327.33869
#
# Velocity S-wave (km/s) = -15.57468 -0.28447 -11.01480
# Velocity P-wave (km/s) = 17.50850 5.20545 11.82055
#
# Compressibility (1/GPa) = 0.02195751
#
# Stress axis : x y z
#
# Youngs Moduli (GPa) = 404.14225 58.12014 65.64954
#
# Poissons Ratio (x) = 0.03037 0.01555
# Poissons Ratio (y) = 0.21115 0.37539
# Poissons Ratio (z) = 0.09576 0.33234
#
# Static dielectric constant tensor:
#      x y z
#    x 2.230070 0.000000 0.000000 
#    y 0.000000 2.060820 0.000000 
#    z 0.000000 0.000000 2.012510 
# 
# From -- ./inp_files/12948.got.cif
#   From: 2010.05.17/outbox.cif.g08.bks.cpg/sg40_7_cif.got.tgz:12948.got - 2010.06.03 18:35:42.
