data_PCOD9362561
_publ_section_title
;
Structure prediction by ZEFSAII (Michael W. Deem and Ramdas Pophale) SiO2 
 PCOD9362561
Probable space group: A M A 2
;
_chemical_formula_sum "Si O2"
_cell_formula_units_Z 64
_cell_length_a 14.344598
_cell_length_b 9.403770
_cell_length_c 18.636072
_cell_angle_alpha 90.000000
_cell_angle_beta 90.000000
_cell_angle_gamma 90.000000
_cell_volume 2513.881257
_symmetry_space_group_name_H-M "A M A 2"
_symmetry_group_IT_number 40
_symmetry_cell_setting 'orthorhombic'
loop_
_space_group_symop_operation_xyz
x,y,z
-x,-y,z
1/2-x,y,z
1/2+x,-y,z
x,1/2+y,1/2+z
-x,1/2-y,1/2+z
1/2-x,1/2+y,1/2+z
1/2+x,1/2-y,1/2+z
loop_
_atom_site_type_symbol
_atom_site_label
_atom_site_fract_x
_atom_site_fract_y
_atom_site_fract_z
Si Si1 0.856407 0.169936 0.966600
Si Si2 0.355099 0.960532 0.197437
Si Si3 0.357949 0.652150 0.450724
Si Si4 0.853167 0.265982 0.804166
Si Si5 0.562474 0.290280 0.109092
Si Si6 0.428381 0.798511 0.319417
Si Si7 0.390887 0.029300 0.732465
Si Si8 0.645632 0.746846 0.114164
O O1 0.750000 0.150334 0.994256
O O2 0.851911 0.244732 0.890268
O O3 0.892776 0.010753 0.949404
O O4 0.910580 0.257297 0.027462
O O5 0.250000 0.912446 0.183061
O O6 0.420997 0.859063 0.150492
O O7 0.380572 0.932026 0.280436
O O8 0.361638 0.121370 0.169704
O O9 0.250000 0.654162 0.426007
O O10 0.414879 0.765397 0.403162
O O11 0.357459 0.692168 0.533903
O O12 0.750000 0.334713 0.789552
O O13 0.963742 0.303040 0.796455
O O14 0.846912 0.114893 0.761212
O O15 0.624086 0.403813 0.153424
O O16 0.453852 0.331041 0.118704
O O17 0.375491 0.662711 0.284776
O O18 0.500000 0.000000 0.741530
O O19 0.750000 0.683476 0.121771
#
# Coordination Sequence:
#
# PCOD9362561 Si02
#       8
#     8   8   8   8   8   8   8   8
#     4  10  19  30  51  84 118 149 186 241 299 349
#     4  10  20  33  50  78 115 156 198 239 291 357
#     4  10  18  30  51  81 117 152 190 242 295 345
#     4  10  20  34  53  81 119 155 193 247 302 354
#     4  11  20  33  56  80 113 157 194 242 300 360
#     4  10  19  32  53  79 112 157 194 234 289 356
#     4   9  20  35  51  77 109 149 198 239 292 355
#     4  10  21  35  53  82 119 156 196 245 298 352
#
# _framework density 25.458641
#
# number of rings (size 3 to 8) (size 9 to 14) (size 15 to 20)
#    0.000    2.000    2.500    1.875    0.000    3.500 
#    0.000    5.625    0.000    3.000    0.000   17.500 
#    0.000   10.000    0.000    0.750    0.000    0.375 
#
# Total GULP energy -178822.435398 kJ/mol
# GULP energy per Si atom -5588.201106 kJ/mol
# Density = 2.540070 g / cm^3
# Si number density = 25.458641 Si / 1000 Ang^3
#
#
#
# Elastic Constant Matrix: (Units=GPa)
#
#
# Indices 1 2 3 4 5 6 
#
# 1 184.8289 31.1546 39.1807 0.0000 0.0000 0.0000
# 2 31.1546 66.2657 19.9772 0.0000 0.0000 0.0000
# 3 39.1807 19.9772 147.0502 0.0000 0.0000 0.0000
# 4 0.0000 0.0000 0.0000 26.9492 0.0000 0.0000
# 5 0.0000 0.0000 0.0000 0.0000 2.8577 0.0000
# 6 0.0000 0.0000 0.0000 0.0000 0.0000 35.2512
#
#
#
# Elastic Compliance Matrix: (Units=1/GPa)
#
#
# Indices 1 2 3 4 5 6 
#
# 1 0.006102 -0.002480 -0.001289 0.000000 0.000000 0.000000
# 2 -0.002480 0.016743 -0.001614 0.000000 0.000000 0.000000
# 3 -0.001289 -0.001614 0.007363 0.000000 0.000000 0.000000
# 4 0.000000 0.000000 0.000000 0.037107 0.000000 0.000000
# 5 0.000000 0.000000 0.000000 0.000000 0.349935 0.000000
# 6 0.000000 0.000000 0.000000 0.000000 0.000000 0.028368
#
#
# Mechanical properties :
#
#
# Convention : Reuss Voigt Hill
#
# Bulk Modulus (GPa) = 51.43376 64.30776 57.87076
# Shear Modulus (GPa) = 10.80232 33.53377 22.16804
#
# Velocity S-wave (km/s) = 2.06211 3.63324 2.95404
# Velocity P-wave (km/s) = 5.09082 6.55097 5.86650
#
# Compressibility (1/GPa) = 0.01944248
#
# Stress axis : x y z
#
# Youngs Moduli (GPa) = 163.88961 59.72531 135.81353
#
# Poissons Ratio (x) = 0.14813 0.17504
# Poissons Ratio (y) = 0.40647 0.21918
# Poissons Ratio (z) = 0.21122 0.09639
#
# Static dielectric constant tensor:
#      x y z
#    x 2.070900 0.000000 0.000000 
#    y 0.000000 2.064040 0.000000 
#    z 0.000000 0.000000 2.010830 
# 
# From -- ./inp_files/20763.got.cif
#   From: 2010.05.17/outbox.cif.g08.bks.cpg/sg40_11_cif.got.tgz:20763.got - 2010.06.03 18:35:42.
