data_PCOD9362676
_publ_section_title
;
Structure prediction by ZEFSAII (Michael W. Deem and Ramdas Pophale) SiO2 
 PCOD9362676
Probable space group: A M A 2
;
_chemical_formula_sum "Si O2"
_cell_formula_units_Z 64
_cell_length_a 16.917690
_cell_length_b 12.527132
_cell_length_c 16.746568
_cell_angle_alpha 90.000000
_cell_angle_beta 90.000000
_cell_angle_gamma 90.000000
_cell_volume 3549.102430
_symmetry_space_group_name_H-M "A M A 2"
_symmetry_group_IT_number 40
_symmetry_cell_setting 'orthorhombic'
loop_
_space_group_symop_operation_xyz
x,y,z
-x,-y,z
1/2-x,y,z
1/2+x,-y,z
x,1/2+y,1/2+z
-x,1/2-y,1/2+z
1/2-x,1/2+y,1/2+z
1/2+x,1/2-y,1/2+z
loop_
_atom_site_type_symbol
_atom_site_label
_atom_site_fract_x
_atom_site_fract_y
_atom_site_fract_z
Si Si1 0.155004 0.117347 0.291010
Si Si2 0.345626 0.372915 0.531724
Si Si3 0.845625 0.903950 0.108970
Si Si4 0.653695 0.648743 0.347610
Si Si5 0.594755 0.000410 0.441364
Si Si6 0.103317 0.326610 0.064455
Si Si7 0.342560 0.986080 0.699033
Si Si8 0.415656 0.655087 0.085675
O O1 0.250000 0.120250 0.289608
O O2 0.127587 0.096133 0.201159
O O3 0.126937 0.234549 0.318534
O O4 0.129907 0.031385 0.356736
O O5 0.250000 0.364791 0.534950
O O6 0.369819 0.486425 0.567453
O O7 0.370227 0.367280 0.438951
O O8 0.381603 0.273509 0.579562
O O9 0.750000 0.899347 0.108012
O O10 0.876089 0.797193 0.066587
O O11 0.750000 0.648518 0.345446
O O12 0.628621 0.558855 0.284133
O O13 0.621028 0.111287 0.482007
O O14 0.500000 0.000000 0.434124
O O15 0.615104 0.910095 0.507667
O O16 0.147829 0.388660 0.135875
O O17 0.010205 0.342654 0.080656
O O18 0.250000 0.013322 0.704723
O O19 0.388689 0.085838 0.661546
#
# Coordination Sequence:
#
# PCOD9362676 Si02
#       8
#     8   8   8   8   8   8   8   8
#     4  10  18  33  56  82 105 136 185 226 259 316
#     4  10  20  36  57  81 109 144 185 227 272 323
#     4  10  21  37  57  80 110 144 182 227 274 326
#     4   9  17  31  56  83 105 135 179 223 265 317
#     4   9  19  34  53  79 109 140 178 228 269 315
#     4  10  20  35  54  78 115 145 180 221 277 327
#     4  10  18  32  57  85 108 136 182 232 269 314
#     4  10  20  34  55  79 112 145 181 226 273 324
#
# _framework density 18.032727999999999
#
# number of rings (size 3 to 8) (size 9 to 14) (size 15 to 20)
#    0.000    2.250    2.500    1.875    0.000    3.000 
#    2.250    1.250    8.250    4.500    0.000    0.000 
#    0.000    0.000    0.000    0.000    0.000    0.000 
#
# Total GULP energy -178517.662565 kJ/mol
# GULP energy per Si atom -5578.676955 kJ/mol
# Density = 1.799168 g / cm^3
# Si number density = 18.032728 Si / 1000 Ang^3
#
#
#
# Elastic Constant Matrix: (Units=GPa)
#
#
# Indices 1 2 3 4 5 6 
#
# 1 17.6464 24.3002 13.7180 0.0000 0.0000 0.0000
# 2 24.3002 154.8342 76.7266 0.0000 0.0000 0.0000
# 3 13.7180 76.7266 111.7720 0.0000 0.0000 0.0000
# 4 0.0000 0.0000 0.0000 32.6274 0.0000 0.0000
# 5 0.0000 0.0000 0.0000 0.0000 3.0429 0.0000
# 6 0.0000 0.0000 0.0000 0.0000 0.0000 18.2881
#
#
#
# Elastic Compliance Matrix: (Units=1/GPa)
#
#
# Indices 1 2 3 4 5 6 
#
# 1 0.072493 -0.010561 -0.001648 0.000000 0.000000 0.000000
# 2 -0.010561 0.011327 -0.006479 0.000000 0.000000 0.000000
# 3 -0.001648 -0.006479 0.013597 0.000000 0.000000 0.000000
# 4 0.000000 0.000000 0.000000 0.030649 0.000000 0.000000
# 5 0.000000 0.000000 0.000000 0.000000 0.328639 0.000000
# 6 0.000000 0.000000 0.000000 0.000000 0.000000 0.054681
#
#
# Mechanical properties :
#
#
# Convention : Reuss Voigt Hill
#
# Bulk Modulus (GPa) = 16.65536 57.08248 36.86892
# Shear Modulus (GPa) = 8.79085 22.09217 15.44151
#
# Velocity S-wave (km/s) = 2.21032 3.50396 2.92944
# Velocity P-wave (km/s) = 3.97118 6.93498 5.65085
#
# Compressibility (1/GPa) = 0.06004074
#
# Stress axis : x y z
#
# Youngs Moduli (GPa) = 13.79452 88.28768 73.54775
#
# Poissons Ratio (x) = 0.93238 0.12118
# Poissons Ratio (y) = 0.14568 0.47652
# Poissons Ratio (z) = 0.02273 0.57202
#
# Static dielectric constant tensor:
#      x y z
#    x 1.612350 0.000000 0.000000 
#    y 0.000000 1.610240 0.000000 
#    z 0.000000 0.000000 1.613850 
# 
# From -- ./inp_files/17852.got.cif
#   From: 2010.05.17/outbox.cif.g08.bks.cpg/sg40_9_cif.got.tgz:17852.got - 2010.06.03 18:35:42.
