data_PCOD9362688
_publ_section_title
;
Structure prediction by ZEFSAII (Michael W. Deem and Ramdas Pophale) SiO2 
 PCOD9362688
Probable space group: A M A 2
;
_chemical_formula_sum "Si O2"
_cell_formula_units_Z 44
_cell_length_a 14.992267
_cell_length_b 9.231254
_cell_length_c 15.510143
_cell_angle_alpha 90.000000
_cell_angle_beta 90.000000
_cell_angle_gamma 90.000000
_cell_volume 2146.563848
_symmetry_space_group_name_H-M "A M A 2"
_symmetry_group_IT_number 40
_symmetry_cell_setting 'orthorhombic'
loop_
_space_group_symop_operation_xyz
x,y,z
-x,-y,z
1/2-x,y,z
1/2+x,-y,z
x,1/2+y,1/2+z
-x,1/2-y,1/2+z
1/2-x,1/2+y,1/2+z
1/2+x,1/2-y,1/2+z
loop_
_atom_site_type_symbol
_atom_site_label
_atom_site_fract_x
_atom_site_fract_y
_atom_site_fract_z
Si Si1 0.599639 0.033025 0.341480
Si Si2 0.455079 0.308020 0.018276
Si Si3 0.651944 0.287787 0.956021
Si Si4 0.151282 0.678425 0.262261
Si Si5 0.651629 0.943267 0.956144
Si Si6 0.500000 0.500000 0.164415
O O1 0.588778 0.113596 0.434945
O O2 0.642092 0.148132 0.276632
O O3 0.500000 0.000000 0.310772
O O4 0.644821 0.881412 0.367806
O O5 0.561823 0.321971 0.007351
O O6 0.420965 0.143892 0.011424
O O7 0.438822 0.394201 0.105548
O O8 0.750000 0.320540 0.993790
O O9 0.644640 0.115189 0.947157
O O10 0.250000 0.647300 0.225370
O O11 0.148227 0.615028 0.358937
O O12 0.067685 0.603821 0.215997
O O13 0.750000 0.908529 0.992130
#
# Coordination Sequence:
#
# PCOD9362688 Si02
#       6
#     8   8   8   8   8   4
#     4   9  18  36  63  88 115 157 208 255 299 370
#     4  10  20  38  55  88 121 160 206 248 305 362
#     4  10  18  32  62  93 115 147 204 262 305 358
#     4  10  23  39  59  90 127 168 209 256 320 379
#     4   9  20  37  64  92 116 158 210 261 307 368
#     4  12  24  38  60  92 130 172 208 260 324 374
#
# _framework density 20.497875000000001
#
# number of rings (size 3 to 8) (size 9 to 14) (size 15 to 20)
#    0.000    2.182    2.727    1.091    7.636    2.182 
#    0.000    1.818    0.000    0.000    0.000    0.000 
#    0.000    0.000    0.000    0.000    0.000    0.000 
#
# Total GULP energy -122514.910192 kJ/mol
# GULP energy per Si atom -5568.859554 kJ/mol
# Density = 2.045122 g / cm^3
# Si number density = 20.497875 Si / 1000 Ang^3
#
#
#
# Elastic Constant Matrix: (Units=GPa)
#
#
# Indices 1 2 3 4 5 6 
#
# 1 104.4424 50.0799 33.8346 0.0000 0.0000 0.0000
# 2 50.0799 118.3940 32.1480 0.0000 0.0000 0.0000
# 3 33.8346 32.1480 27.8387 0.0000 0.0000 0.0000
# 4 0.0000 0.0000 0.0000 21.0616 0.0000 0.0000
# 5 0.0000 0.0000 0.0000 0.0000 5.9923 0.0000
# 6 0.0000 0.0000 0.0000 0.0000 0.0000 23.6937
#
#
#
# Elastic Compliance Matrix: (Units=1/GPa)
#
#
# Indices 1 2 3 4 5 6 
#
# 1 0.016173 -0.002191 -0.017127 0.000000 0.000000 0.000000
# 2 -0.002191 0.012601 -0.011890 0.000000 0.000000 0.000000
# 3 -0.017127 -0.011890 0.070467 0.000000 0.000000 0.000000
# 4 0.000000 0.000000 0.000000 0.047480 0.000000 0.000000
# 5 0.000000 0.000000 0.000000 0.000000 0.166880 0.000000
# 6 0.000000 0.000000 0.000000 0.000000 0.000000 0.042205
#
#
# Mechanical properties :
#
#
# Convention : Reuss Voigt Hill
#
# Bulk Modulus (GPa) = 27.15375 53.64447 40.39911
# Shear Modulus (GPa) = 11.61447 19.12371 15.36909
#
# Velocity S-wave (km/s) = 2.38296 3.05775 2.74120
# Velocity P-wave (km/s) = 4.56587 6.22045 5.45624
#
# Compressibility (1/GPa) = 0.03682732
#
# Stress axis : x y z
#
# Youngs Moduli (GPa) = 61.82957 79.35590 14.19100
#
# Poissons Ratio (x) = 0.17384 0.24305
# Poissons Ratio (y) = 0.13545 0.16873
# Poissons Ratio (z) = 1.05896 0.94351
#
# Static dielectric constant tensor:
#      x y z
#    x 1.774970 0.000000 0.000000 
#    y 0.000000 1.800920 0.000000 
#    z 0.000000 0.000000 1.725400 
# 
# From -- ./inp_files/20474.got.cif
#   From: 2010.05.17/outbox.cif.g08.bks.cpg/sg40_11_cif.got.tgz:20474.got - 2010.06.03 18:35:42.
