data_PCOD9362174
_publ_section_title
;
Structure prediction by ZEFSAII (Michael W. Deem and Ramdas Pophale) SiO2 
 PCOD9362174
Probable space group: A B M 2
;
_chemical_formula_sum "Si O2"
_cell_formula_units_Z 24
_cell_length_a 9.000000
_cell_length_b 9.000000
_cell_length_c 30.000000
_cell_angle_alpha 90.000000
_cell_angle_beta 90.000000
_cell_angle_gamma 90.000000
_cell_volume 2430.000000
_symmetry_space_group_name_H-M "A B M 2"
_symmetry_group_IT_number 39
_symmetry_cell_setting 'orthorhombic'
loop_
_space_group_symop_operation_xyz
x,y,z
-x,-y,z
-x,1/2+y,z
x,1/2-y,z
x,1/2+y,1/2+z
-x,1/2-y,1/2+z
-x,y,1/2+z
x,-y,1/2+z
loop_
_atom_site_type_symbol
_atom_site_label
_atom_site_fract_x
_atom_site_fract_y
_atom_site_fract_z
Si Si1 0.652536 0.580163 0.655480
Si Si2 0.839929 0.928129 0.079999
Si Si3 0.666207 0.570578 0.908631
Si Si4 0.336673 0.072191 0.319868
Si Si5 0.153238 0.080264 0.743769
Si Si6 0.334523 0.070403 0.498800
O O1 0.500000 0.500000 0.666874
O O2 0.630817 0.750000 0.638445
O O3 0.734114 0.476606 0.620101
O O4 0.751529 0.588726 0.699201
O O5 0.847769 0.750000 0.074939
O O6 0.768549 0.008813 0.037530
O O7 0.000000 0.000000 0.088311
O O8 0.500000 0.500000 0.907894
O O9 0.661570 0.750000 0.909662
O O10 0.733543 0.504982 0.863617
O O11 0.730088 0.498479 0.953147
O O12 0.348884 0.250000 0.324839
O O13 0.500000 0.000000 0.313783
O O14 0.239245 0.021875 0.278647
O O15 0.133244 0.250000 0.760549
O O16 0.000000 0.000000 0.733665
O O17 0.343976 0.250000 0.497381
O O18 0.500000 0.000000 0.504899
#
# Coordination Sequence:
#
# PCOD9362174 Si02
#       6
#     8   8   8   8   8   8
#     4  11  24  42  65  92 120 153 195 242 291 345
#     4  12  25  42  62  87 120 157 196 240 294 352
#     4  10  18  32  55  85 118 153 196 245 295 344
#     4  11  21  36  59  87 119 156 199 246 295 347
#     4  11  24  41  61  87 120 157 196 240 294 352
#     4  11  21  37  60  88 120 156 199 245 294 346
#
# _framework density 9.8765429999999999
#
# number of rings (size 3 to 8) (size 9 to 14) (size 15 to 20)
#    0.000    1.000    0.000   10.500    0.000    5.333 
#    0.000    0.833    0.000    0.000    0.000    0.000 
#    0.000    0.000    0.000    0.000    0.000    0.000 
#
# Total GULP energy -134062.812807 kJ/mol
# GULP energy per Si atom -5585.950534 kJ/mol
# Density = 0.985406 g / cm^3
# Si number density = 9.876543 Si / 1000 Ang^3
#
#
#
# Elastic Constant Matrix: (Units=GPa)
#
#
# Indices 1 2 3 4 5 6 
#
# 1 77.8629 40.7116 22.7184 0.0000 0.0000 0.0000
# 2 40.7116 232.4730 41.8185 0.0000 0.0000 0.0000
# 3 22.7184 41.8185 89.4981 0.0000 0.0000 0.0000
# 4 0.0000 0.0000 0.0000 24.7823 0.0000 0.0000
# 5 0.0000 0.0000 0.0000 0.0000 29.1368 0.0000
# 6 0.0000 0.0000 0.0000 0.0000 0.0000 11.4049
#
#
#
# Elastic Compliance Matrix: (Units=1/GPa)
#
#
# Indices 1 2 3 4 5 6 
#
# 1 0.014740 -0.002083 -0.002768 0.000000 0.000000 0.000000
# 2 -0.002083 0.004991 -0.001803 0.000000 0.000000 0.000000
# 3 -0.002768 -0.001803 0.012719 0.000000 0.000000 0.000000
# 4 0.000000 0.000000 0.000000 0.040351 0.000000 0.000000
# 5 0.000000 0.000000 0.000000 0.000000 0.034321 0.000000
# 6 0.000000 0.000000 0.000000 0.000000 0.000000 0.087682
#
#
# Mechanical properties :
#
#
# Convention : Reuss Voigt Hill
#
# Bulk Modulus (GPa) = 52.24631 67.81457 60.03044
# Shear Modulus (GPa) = 23.31079 32.70382 28.00730
#
# Velocity S-wave (km/s) = 3.43900 4.07336 3.76955
# Velocity P-wave (km/s) = 6.50200 7.51855 7.02868
#
# Compressibility (1/GPa) = 0.01914011
#
# Stress axis : x y z
#
# Youngs Moduli (GPa) = 67.84217 200.36943 78.62488
#
# Poissons Ratio (x) = 0.41745 0.21765
# Poissons Ratio (y) = 0.14134 0.14177
# Poissons Ratio (z) = 0.18780 0.36129
#
# Static dielectric constant tensor:
#      x y z
#    x 1.760610 0.000000 0.000000 
#    y 0.000000 1.674730 0.000000 
#    z 0.000000 0.000000 1.783660 
# 
# From -- ./inp_files/17595.got.cif
#   From: 2010.05.17/outbox.ucp.g08.bks.cvg/sg39_9_cif.got.tgz:17595.got - 2010.06.11 10:41:16.
