data_PCOD9362433
_publ_section_title
;
Structure prediction by ZEFSAII (Michael W. Deem and Ramdas Pophale) SiO2 
 PCOD9362433
Probable space group: A M A 2
;
_chemical_formula_sum "Si O2"
_cell_formula_units_Z 56
_cell_length_a 8.631630
_cell_length_b 22.668035
_cell_length_c 18.263594
_cell_angle_alpha 90.000000
_cell_angle_beta 90.000000
_cell_angle_gamma 90.000000
_cell_volume 3573.492990
_symmetry_space_group_name_H-M "A M A 2"
_symmetry_group_IT_number 40
_symmetry_cell_setting 'orthorhombic'
loop_
_space_group_symop_operation_xyz
x,y,z
-x,-y,z
1/2-x,y,z
1/2+x,-y,z
x,1/2+y,1/2+z
-x,1/2-y,1/2+z
1/2-x,1/2+y,1/2+z
1/2+x,1/2-y,1/2+z
loop_
_atom_site_type_symbol
_atom_site_label
_atom_site_fract_x
_atom_site_fract_y
_atom_site_fract_z
Si Si1 0.435846 0.850978 0.048510
Si Si2 0.065169 0.187318 0.194047
Si Si3 0.935141 0.316354 0.153370
Si Si4 0.936144 0.282532 0.996367
Si Si5 0.564888 0.434072 0.422609
Si Si6 0.434601 0.848232 0.800570
Si Si7 0.434123 0.281635 0.839838
O O1 0.250000 0.854055 0.053207
O O2 0.508551 0.855348 0.129480
O O3 0.475462 0.785795 0.016064
O O4 0.500153 0.899238 0.993056
O O5 0.250000 0.193364 0.192738
O O6 0.985275 0.249620 0.173194
O O7 0.007497 0.177345 0.276657
O O8 0.750000 0.321477 0.160432
O O9 0.016597 0.354901 0.215621
O O10 0.976721 0.321550 0.067765
O O11 0.750000 0.284725 0.986793
O O12 0.018615 0.299630 0.921541
O O13 0.500000 0.500000 0.421118
O O14 0.750000 0.434450 0.424378
O O15 0.506701 0.397868 0.351973
O O16 0.250000 0.847763 0.807701
O O17 0.498146 0.784455 0.827187
O O18 0.250000 0.279533 0.831240
#
# Coordination Sequence:
#
# PCOD9362433 Si02
#       7
#     8   8   8   8   8   8   8
#     4  10  19  33  49  65  90 120 154 194 236 277
#     4  10  18  28  43  63  89 120 155 189 229 278
#     4   9  17  29  44  63  88 119 155 191 230 277
#     4   9  17  28  44  65  93 123 154 189 231 278
#     4  12  24  37  52  70  91 121 161 200 239 278
#     4  11  20  32  47  64  90 121 155 194 236 278
#     4  11  19  27  43  66  93 124 159 192 229 277
#
# _framework density 15.670942
#
# number of rings (size 3 to 8) (size 9 to 14) (size 15 to 20)
#    0.000    1.714    1.429    8.571    0.000    2.857 
#    0.000    0.000    0.000    0.000    0.000    0.000 
#    0.000    1.143    0.000    6.286    0.000    6.714 
#
# Total GULP energy -156174.868943 kJ/mol
# GULP energy per Si atom -5577.673891 kJ/mol
# Density = 1.563527 g / cm^3
# Si number density = 15.670942 Si / 1000 Ang^3
#
#
#
# Elastic Constant Matrix: (Units=GPa)
#
#
# Indices 1 2 3 4 5 6 
#
# 1 34.2655 7.5981 21.0941 0.0000 0.0000 0.0000
# 2 7.5981 44.2898 35.0939 0.0000 0.0000 0.0000
# 3 21.0941 35.0939 140.3193 0.0000 0.0000 0.0000
# 4 0.0000 0.0000 0.0000 12.6064 0.0000 0.0000
# 5 0.0000 0.0000 0.0000 0.0000 39.7924 0.0000
# 6 0.0000 0.0000 0.0000 0.0000 0.0000 14.9032
#
#
#
# Elastic Compliance Matrix: (Units=1/GPa)
#
#
# Indices 1 2 3 4 5 6 
#
# 1 0.032318 -0.002114 -0.004330 0.000000 0.000000 0.000000
# 2 -0.002114 0.028297 -0.006759 0.000000 0.000000 0.000000
# 3 -0.004330 -0.006759 0.009468 0.000000 0.000000 0.000000
# 4 0.000000 0.000000 0.000000 0.079325 0.000000 0.000000
# 5 0.000000 0.000000 0.000000 0.000000 0.025130 0.000000
# 6 0.000000 0.000000 0.000000 0.000000 0.000000 0.067100
#
#
# Mechanical properties :
#
#
# Convention : Reuss Voigt Hill
#
# Bulk Modulus (GPa) = 22.89497 38.49409 30.69453
# Shear Modulus (GPa) = 17.69268 23.79962 20.74615
#
# Velocity S-wave (km/s) = 3.36372 3.90129 3.64244
# Velocity P-wave (km/s) = 5.45231 6.70155 6.10895
#
# Compressibility (1/GPa) = 0.04367773
#
# Stress axis : x y z
#
# Youngs Moduli (GPa) = 30.94254 35.33934 105.61884
#
# Poissons Ratio (x) = 0.07469 0.45730
# Poissons Ratio (y) = 0.06540 0.71392
# Poissons Ratio (z) = 0.13397 0.23887
#
# Static dielectric constant tensor:
#      x y z
#    x 1.502770 0.000000 0.000000 
#    y 0.000000 1.491690 0.000000 
#    z 0.000000 0.000000 1.582910 
# 
# From -- ./inp_files/19509.got.cif
#   From: 2010.05.17/outbox.cif.g08.bks.cpg/sg40_10_cif.got.tgz:19509.got - 2010.06.03 18:35:42.
