data_PCOD9362212
_publ_section_title
;
Structure prediction by ZEFSAII (Michael W. Deem and Ramdas Pophale) SiO2 
 PCOD9362212
Probable space group: A B M 2
;
_chemical_formula_sum "Si O2"
_cell_formula_units_Z 24
_cell_length_a 9.000000
_cell_length_b 9.000000
_cell_length_c 30.000000
_cell_angle_alpha 90.000000
_cell_angle_beta 90.000000
_cell_angle_gamma 90.000000
_cell_volume 2430.000000
_symmetry_space_group_name_H-M "A B M 2"
_symmetry_group_IT_number 39
_symmetry_cell_setting 'orthorhombic'
loop_
_space_group_symop_operation_xyz
x,y,z
-x,-y,z
-x,1/2+y,z
x,1/2-y,z
x,1/2+y,1/2+z
-x,1/2-y,1/2+z
-x,y,1/2+z
x,-y,1/2+z
loop_
_atom_site_type_symbol
_atom_site_label
_atom_site_fract_x
_atom_site_fract_y
_atom_site_fract_z
Si Si1 0.355689 0.082155 0.260740
Si Si2 0.849549 0.426850 0.089808
Si Si3 0.846581 0.927251 0.692215
Si Si4 0.155093 0.919724 0.846875
Si Si5 0.837995 0.426878 0.430783
Si Si6 0.343228 0.072665 0.508623
O O1 0.387312 0.250000 0.246382
O O2 0.242154 0.084663 0.301223
O O3 0.500000 0.000000 0.277367
O O4 0.286895 0.989577 0.220679
O O5 0.870190 0.250000 0.089312
O O6 0.827899 0.473140 0.140724
O O7 0.714141 0.463183 0.058031
O O8 0.000000 0.500000 0.072271
O O9 0.856833 0.750000 0.695126
O O10 0.000000 0.000000 0.708457
O O11 0.131599 0.750000 0.862389
O O12 0.236645 0.013330 0.885356
O O13 0.000000 0.000000 0.837686
O O14 0.841407 0.250000 0.432551
O O15 0.764807 0.497086 0.473681
O O16 0.000000 0.500000 0.428316
O O17 0.345205 0.250000 0.502933
O O18 0.500000 0.000000 0.501027
#
# Coordination Sequence:
#
# PCOD9362212 Si02
#       6
#     8   8   8   8   8   8
#     4  11  24  39  57  83 115 152 190 231 282 337
#     4   9  20  37  59  85 112 146 188 233 279 331
#     4  10  20  37  60  86 115 148 189 234 280 331
#     4  10  21  38  60  85 112 145 188 234 281 333
#     4  11  22  38  61  87 114 147 188 233 281 332
#     4  11  23  39  57  82 116 152 190 231 281 336
#
# _framework density 9.8765429999999999
#
# number of rings (size 3 to 8) (size 9 to 14) (size 15 to 20)
#    0.000    1.667    0.000    5.500    0.000    8.667 
#    0.000    3.333    0.000    0.000    0.000    0.000 
#    0.000    0.000    0.000    0.000    0.000    0.000 
#
# Total GULP energy -133906.627826 kJ/mol
# GULP energy per Si atom -5579.442826 kJ/mol
# Density = 0.985406 g / cm^3
# Si number density = 9.876543 Si / 1000 Ang^3
#
#
#
# Elastic Constant Matrix: (Units=GPa)
#
#
# Indices 1 2 3 4 5 6 
#
# 1 46.4602 35.6086 28.7304 0.0000 0.0000 0.0000
# 2 35.6086 106.1602 39.4559 0.0000 0.0000 0.0000
# 3 28.7304 39.4559 55.8290 0.0000 0.0000 0.0000
# 4 0.0000 0.0000 0.0000 49.9441 0.0000 0.0000
# 5 0.0000 0.0000 0.0000 0.0000 87.1498 0.0000
# 6 0.0000 0.0000 0.0000 0.0000 0.0000 22.1103
#
#
#
# Elastic Compliance Matrix: (Units=1/GPa)
#
#
# Indices 1 2 3 4 5 6 
#
# 1 0.034864 -0.006816 -0.013124 0.000000 0.000000 0.000000
# 2 -0.006816 0.014108 -0.006463 0.000000 0.000000 0.000000
# 3 -0.013124 -0.006463 0.029233 0.000000 0.000000 0.000000
# 4 0.000000 0.000000 0.000000 0.020022 0.000000 0.000000
# 5 0.000000 0.000000 0.000000 0.000000 0.011475 0.000000
# 6 0.000000 0.000000 0.000000 0.000000 0.000000 0.045228
#
#
# Mechanical properties :
#
#
# Convention : Reuss Voigt Hill
#
# Bulk Modulus (GPa) = 39.37235 46.22658 42.79946
# Shear Modulus (GPa) = 23.12651 38.81781 30.97216
#
# Velocity S-wave (km/s) = 3.42538 4.43781 3.96405
# Velocity P-wave (km/s) = 5.96823 7.05067 6.53191
#
# Compressibility (1/GPa) = 0.02539853
#
# Stress axis : x y z
#
# Youngs Moduli (GPa) = 28.68305 70.88141 34.20785
#
# Poissons Ratio (x) = 0.48315 0.44895
# Poissons Ratio (y) = 0.19551 0.22108
# Poissons Ratio (z) = 0.37644 0.45809
#
# Static dielectric constant tensor:
#      x y z
#    x 1.661220 0.000000 0.000000 
#    y 0.000000 1.653360 0.000000 
#    z 0.000000 0.000000 1.713050 
# 
# From -- ./inp_files/17574.got.cif
#   From: 2010.05.17/outbox.ucp.g08.bks.cvg/sg39_9_cif.got.tgz:17574.got - 2010.06.11 10:41:16.
