data_PCOD9362275
_publ_section_title
;
Structure prediction by ZEFSAII (Michael W. Deem and Ramdas Pophale) SiO2 
 PCOD9362275
Probable space group: A M A 2
;
_chemical_formula_sum "Si O2"
_cell_formula_units_Z 64
_cell_length_a 8.585195
_cell_length_b 27.144770
_cell_length_c 19.082956
_cell_angle_alpha 90.000000
_cell_angle_beta 90.000000
_cell_angle_gamma 90.000000
_cell_volume 4447.152057
_symmetry_space_group_name_H-M "A M A 2"
_symmetry_group_IT_number 40
_symmetry_cell_setting 'orthorhombic'
loop_
_space_group_symop_operation_xyz
x,y,z
-x,-y,z
1/2-x,y,z
1/2+x,-y,z
x,1/2+y,1/2+z
-x,1/2-y,1/2+z
1/2-x,1/2+y,1/2+z
1/2+x,1/2-y,1/2+z
loop_
_atom_site_type_symbol
_atom_site_label
_atom_site_fract_x
_atom_site_fract_y
_atom_site_fract_z
Si Si1 0.430574 0.803402 0.829130
Si Si2 0.564589 0.761107 0.615705
Si Si3 0.069884 0.202602 0.237371
Si Si4 0.562442 0.643859 0.195944
Si Si5 0.435719 0.445614 0.953506
Si Si6 0.440397 0.243655 0.455450
Si Si7 0.938852 0.354268 0.870251
Si Si8 0.935810 0.945622 0.608149
O O1 0.250000 0.817215 0.841005
O O2 0.430809 0.752396 0.784712
O O3 0.496866 0.843090 0.774623
O O4 0.498587 0.787131 0.903868
O O5 0.750000 0.768990 0.615648
O O6 0.523404 0.716377 0.667928
O O7 0.485590 0.810059 0.647117
O O8 0.512310 0.752399 0.535973
O O9 0.250000 0.192957 0.218942
O O10 0.013294 0.160856 0.291250
O O11 0.750000 0.641348 0.197653
O O12 0.493819 0.594630 0.163156
O O13 0.500000 0.500000 0.936591
O O14 0.250000 0.447401 0.956907
O O15 0.492000 0.404551 0.899179
O O16 0.501128 0.432426 0.030659
O O17 0.250000 0.245091 0.453030
O O18 0.484772 0.191006 0.421653
O O19 0.750000 0.356579 0.870877
O O20 0.750000 0.946769 0.605604
O O21 0.000000 0.000000 0.624433
#
# Coordination Sequence:
#
# PCOD9362275 Si02
#       8
#     8   8   8   8   8   8   8   8
#     4   7  12  24  40  56  76 104 137 168 198 239
#     4  10  17  24  39  62  86 111 141 176 209 245
#     4   8  15  27  41  56  79 111 141 170 206 248
#     4  10  18  29  44  60  80 109 143 175 210 249
#     4  11  21  32  45  62  84 109 139 174 209 244
#     4   8  14  24  39  59  81 108 139 169 203 242
#     4   9  16  29  46  60  79 111 146 175 208 247
#     4  11  21  33  46  61  83 109 139 173 207 244
#
# _framework density 14.391233
#
# number of rings (size 3 to 8) (size 9 to 14) (size 15 to 20)
#    0.000    2.750    0.000    6.750    0.000    1.500 
#    0.000    0.625    0.000    7.500    0.000    0.000 
#    0.000    1.000    0.000    8.750    0.000    3.125 
#
# Total GULP energy -178196.105643 kJ/mol
# GULP energy per Si atom -5568.628301 kJ/mol
# Density = 1.435848 g / cm^3
# Si number density = 14.391233 Si / 1000 Ang^3
#
#
#
# Elastic Constant Matrix: (Units=GPa)
#
#
# Indices 1 2 3 4 5 6 
#
# 1 53.1712 22.3351 24.3188 0.0000 0.0000 0.0000
# 2 22.3351 69.5729 44.2679 0.0000 0.0000 0.0000
# 3 24.3188 44.2679 98.0648 0.0000 0.0000 0.0000
# 4 0.0000 0.0000 0.0000 27.4478 0.0000 0.0000
# 5 0.0000 0.0000 0.0000 0.0000 14.1352 0.0000
# 6 0.0000 0.0000 0.0000 0.0000 0.0000 -0.5418
#
#
#
# Elastic Compliance Matrix: (Units=1/GPa)
#
#
# Indices 1 2 3 4 5 6 
#
# 1 0.022452 -0.005142 -0.003247 0.000000 0.000000 0.000000
# 2 -0.005142 0.021343 -0.008359 0.000000 0.000000 0.000000
# 3 -0.003247 -0.008359 0.014776 0.000000 0.000000 0.000000
# 4 0.000000 0.000000 0.000000 0.036433 0.000000 0.000000
# 5 0.000000 0.000000 0.000000 0.000000 0.070745 0.000000
# 6 0.000000 0.000000 0.000000 0.000000 0.000000 -1.845559
#
#
# Mechanical properties :
#
#
# Convention : Reuss Voigt Hill
#
# Bulk Modulus (GPa) = 39.88037 44.73916 42.30977
# Shear Modulus (GPa) = -3.05259 16.86738 6.90739
#
# Velocity S-wave (km/s) = -1.45799 3.42725 2.19320
# Velocity P-wave (km/s) = 4.99374 6.84227 5.98974
#
# Compressibility (1/GPa) = 0.02507499
#
# Stress axis : x y z
#
# Youngs Moduli (GPa) = 44.53933 46.85355 67.67720
#
# Poissons Ratio (x) = 0.24092 0.21972
# Poissons Ratio (y) = 0.22902 0.56574
# Poissons Ratio (z) = 0.14460 0.39167
#
# Static dielectric constant tensor:
#      x y z
#    x 1.489080 0.000000 0.000000 
#    y 0.000000 1.461110 0.000000 
#    z 0.000000 0.000000 1.495110 
# 
# From -- ./inp_files/19787.got.cif
#   From: 2010.05.17/outbox.cif.g08.bks.cpg/sg40_10_cif.got.tgz:19787.got - 2010.06.03 18:35:42.
