data_PCOD9362843
_publ_section_title
;
Structure prediction by ZEFSAII (Michael W. Deem and Ramdas Pophale) SiO2 
 PCOD9362843
Probable space group: A M A 2
;
_chemical_formula_sum "Si O2"
_cell_formula_units_Z 40
_cell_length_a 10.657719
_cell_length_b 14.358189
_cell_length_c 12.475357
_cell_angle_alpha 90.000000
_cell_angle_beta 90.000000
_cell_angle_gamma 90.000000
_cell_volume 1909.048288
_symmetry_space_group_name_H-M "A M A 2"
_symmetry_group_IT_number 40
_symmetry_cell_setting 'orthorhombic'
loop_
_space_group_symop_operation_xyz
x,y,z
-x,-y,z
1/2-x,y,z
1/2+x,-y,z
x,1/2+y,1/2+z
-x,1/2-y,1/2+z
1/2-x,1/2+y,1/2+z
1/2+x,1/2-y,1/2+z
loop_
_atom_site_type_symbol
_atom_site_label
_atom_site_fract_x
_atom_site_fract_y
_atom_site_fract_z
Si Si1 0.250000 0.916089 0.099730
Si Si2 0.529766 0.694630 0.718557
Si Si3 0.250000 0.868584 0.856828
Si Si4 0.250000 0.156671 0.433967
Si Si5 0.955877 0.606535 0.179151
Si Si6 0.750000 0.883169 0.203516
Si Si7 0.481761 0.891703 0.451376
O O1 0.372305 0.862566 0.146210
O O2 0.250000 0.021860 0.138924
O O3 0.250000 0.916445 0.971563
O O4 0.544970 0.805050 0.704229
O O5 0.383375 0.670201 0.688620
O O6 0.548847 0.663281 0.842733
O O7 0.250000 0.759509 0.885422
O O8 0.134650 0.890605 0.780723
O O9 0.250000 0.090481 0.329684
O O10 0.379819 0.139992 0.491038
O O11 0.000000 0.500000 0.172574
O O12 0.900911 0.622693 0.058496
O O13 0.500000 0.000000 0.423462
#
# Coordination Sequence:
#
# PCOD9362843 Si02
#       7
#     4   8   4   4   8   4   8
#     4  12  26  38  71 110 137 170 232 299 337 397
#     4  11  22  43  70 101 138 178 232 284 339 398
#     4  12  24  47  62  88 144 192 206 273 366 412
#     4  10  18  41  68  88 131 177 215 269 350 391
#     4  11  25  42  66  95 133 184 227 268 340 422
#     4  10  20  42  69  98 134 177 219 271 351 408
#     4  10  21  38  68  98 127 169 229 280 328 400
#
# _framework density 20.952847999999999
#
# number of rings (size 3 to 8) (size 9 to 14) (size 15 to 20)
#    0.000    1.200    4.000    4.200    0.000    6.400 
#    0.000    0.000    0.000    1.200    0.000    0.000 
#    0.000    0.000    0.000    0.000    0.000    0.000 
#
# Total GULP energy -111514.191867 kJ/mol
# GULP energy per Si atom -5575.709593 kJ/mol
# Density = 2.090516 g / cm^3
# Si number density = 20.952848 Si / 1000 Ang^3
#
#
#
# Elastic Constant Matrix: (Units=GPa)
#
#
# Indices 1 2 3 4 5 6 
#
# 1 95.0616 13.4917 28.5166 0.0000 0.0000 0.0000
# 2 13.4917 142.0111 71.7239 0.0000 0.0000 0.0000
# 3 28.5166 71.7239 174.9731 0.0000 0.0000 0.0000
# 4 0.0000 0.0000 0.0000 24.9958 0.0000 0.0000
# 5 0.0000 0.0000 0.0000 0.0000 17.3034 0.0000
# 6 0.0000 0.0000 0.0000 0.0000 0.0000 3.3026
#
#
#
# Elastic Compliance Matrix: (Units=1/GPa)
#
#
# Indices 1 2 3 4 5 6 
#
# 1 0.011064 -0.000177 -0.001731 0.000000 0.000000 0.000000
# 2 -0.000177 0.008883 -0.003612 0.000000 0.000000 0.000000
# 3 -0.001731 -0.003612 0.007478 0.000000 0.000000 0.000000
# 4 0.000000 0.000000 0.000000 0.040007 0.000000 0.000000
# 5 0.000000 0.000000 0.000000 0.000000 0.057792 0.000000
# 6 0.000000 0.000000 0.000000 0.000000 0.000000 0.302794
#
#
# Mechanical properties :
#
#
# Convention : Reuss Voigt Hill
#
# Bulk Modulus (GPa) = 61.03267 71.05669 66.04468
# Shear Modulus (GPa) = 11.24812 29.00794 20.12803
#
# Velocity S-wave (km/s) = 2.31947 3.72484 3.10277
# Velocity P-wave (km/s) = 6.03035 7.24469 6.66523
#
# Compressibility (1/GPa) = 0.01638467
#
# Stress axis : x y z
#
# Youngs Moduli (GPa) = 90.38524 112.57455 133.72601
#
# Poissons Ratio (x) = 0.01993 0.23142
# Poissons Ratio (y) = 0.01601 0.48307
# Poissons Ratio (z) = 0.15642 0.40666
#
# Static dielectric constant tensor:
#      x y z
#    x 1.860840 0.000000 0.000000 
#    y 0.000000 1.750150 0.000000 
#    z 0.000000 0.000000 1.753810 
# 
# From -- ./inp_files/11093.got.cif
#   From: 2010.05.17/outbox.cif.g08.bks.cpg/sg40_6_cif.got.tgz:11093.got - 2010.06.03 18:35:42.
