data_PCOD9362746
_publ_section_title
;
Structure prediction by ZEFSAII (Michael W. Deem and Ramdas Pophale) SiO2 
 PCOD9362746
Probable space group: A M A 2
;
_chemical_formula_sum "Si O2"
_cell_formula_units_Z 52
_cell_length_a 14.961487
_cell_length_b 10.188557
_cell_length_c 17.783308
_cell_angle_alpha 90.000000
_cell_angle_beta 90.000000
_cell_angle_gamma 90.000000
_cell_volume 2710.815682
_symmetry_space_group_name_H-M "A M A 2"
_symmetry_group_IT_number 40
_symmetry_cell_setting 'orthorhombic'
loop_
_space_group_symop_operation_xyz
x,y,z
-x,-y,z
1/2-x,y,z
1/2+x,-y,z
x,1/2+y,1/2+z
-x,1/2-y,1/2+z
1/2-x,1/2+y,1/2+z
1/2+x,1/2-y,1/2+z
loop_
_atom_site_type_symbol
_atom_site_label
_atom_site_fract_x
_atom_site_fract_y
_atom_site_fract_z
Si Si1 0.750000 0.097370 0.312351
Si Si2 0.425247 0.386215 0.546089
Si Si3 0.952508 0.141935 0.878653
Si Si4 0.047493 0.358065 0.073986
Si Si5 0.750000 0.597372 0.640288
Si Si6 0.425246 0.886216 0.406549
Si Si7 0.750000 0.852847 0.726320
Si Si8 0.598195 0.065270 0.726319
O O1 0.750000 0.042495 0.226319
O O2 0.660524 0.069834 0.359086
O O3 0.750000 0.254665 0.296872
O O4 0.500000 0.500000 0.546944
O O5 0.403239 0.351096 0.459044
O O6 0.473198 0.255703 0.577758
O O7 0.339476 0.430164 0.593552
O O8 0.893859 0.146018 0.803402
O O9 0.026804 0.255703 0.874880
O O10 0.000000 0.000000 0.879828
O O11 0.106142 0.353983 0.149236
O O12 0.000000 0.500000 0.072811
O O13 0.096762 0.351097 0.993595
O O14 0.750000 0.754666 0.655767
O O15 0.500000 0.000000 0.405695
O O16 0.665592 0.945664 0.726320
O O17 0.500000 0.000000 0.726319
#
# Coordination Sequence:
#
# PCOD9362746 Si02
#       8
#     4   8   8   8   4   8   4   8
#     4  10  22  37  58  87 114 163 207 239 300 367
#     4  10  21  39  59  88 122 161 202 243 302 362
#     4   9  19  36  61  87 117 154 195 243 301 349
#     4   9  19  36  61  87 117 154 195 243 301 349
#     4  10  22  37  58  87 114 163 207 239 300 367
#     4  10  21  39  59  88 122 161 202 243 302 362
#     4  10  22  36  58  94 108 150 206 236 304 366
#     4  10  18  34  58  85 114 145 189 245 285 339
#
# _framework density 19.182418999999999
#
# number of rings (size 3 to 8) (size 9 to 14) (size 15 to 20)
#    0.462    1.846    0.000    3.692    2.154    1.846 
#    0.000   15.385    0.000    0.000    0.000    0.000 
#    0.000    0.000    0.000    0.000    0.000    0.000 
#
# Total GULP energy -144831.905230 kJ/mol
# GULP energy per Si atom -5570.457893 kJ/mol
# Density = 1.913876 g / cm^3
# Si number density = 19.182419 Si / 1000 Ang^3
#
#
#
# Elastic Constant Matrix: (Units=GPa)
#
#
# Indices 1 2 3 4 5 6 
#
# 1 105.6309 11.3417 54.5295 0.0000 0.0000 0.0000
# 2 11.3417 63.3830 4.8725 0.0000 0.0000 0.0000
# 3 54.5295 4.8725 137.5733 0.0000 0.0000 0.0000
# 4 0.0000 0.0000 0.0000 21.5534 0.0000 0.0000
# 5 0.0000 0.0000 0.0000 0.0000 17.8437 0.0000
# 6 0.0000 0.0000 0.0000 0.0000 0.0000 28.4964
#
#
#
# Elastic Compliance Matrix: (Units=1/GPa)
#
#
# Indices 1 2 3 4 5 6 
#
# 1 0.012104 -0.001802 -0.004734 0.000000 0.000000 0.000000
# 2 -0.001802 0.016088 0.000144 0.000000 0.000000 0.000000
# 3 -0.004734 0.000144 0.009140 0.000000 0.000000 0.000000
# 4 0.000000 0.000000 0.000000 0.046396 0.000000 0.000000
# 5 0.000000 0.000000 0.000000 0.000000 0.056042 0.000000
# 6 0.000000 0.000000 0.000000 0.000000 0.000000 0.035092
#
#
# Mechanical properties :
#
#
# Convention : Reuss Voigt Hill
#
# Bulk Modulus (GPa) = 40.73345 49.78606 45.25976
# Shear Modulus (GPa) = 25.53239 29.30159 27.41699
#
# Velocity S-wave (km/s) = 3.65229 3.91259 3.78468
# Velocity P-wave (km/s) = 6.25032 6.81334 6.53789
#
# Compressibility (1/GPa) = 0.02454985
#
# Stress axis : x y z
#
# Youngs Moduli (GPa) = 82.61628 62.15636 109.40828
#
# Poissons Ratio (x) = 0.11201 0.51792
# Poissons Ratio (y) = 0.14887 -0.01580
# Poissons Ratio (z) = 0.39109 -0.00898
#
# Static dielectric constant tensor:
#      x y z
#    x 1.893580 0.000000 0.000000 
#    y 0.000000 1.659750 0.000000 
#    z 0.000000 0.000000 1.761450 
# 
# From -- ./inp_files/20710.got.cif
#   From: 2010.05.17/outbox.cif.g08.bks.cpg/sg40_11_cif.got.tgz:20710.got - 2010.06.03 18:35:42.
