data_PCOD9362538
_publ_section_title
;
Structure prediction by ZEFSAII (Michael W. Deem and Ramdas Pophale) SiO2 
 PCOD9362538
Probable space group: A M A 2
;
_chemical_formula_sum "Si O2"
_cell_formula_units_Z 64
_cell_length_a 9.358546
_cell_length_b 33.998927
_cell_length_c 12.078580
_cell_angle_alpha 90.000000
_cell_angle_beta 90.000000
_cell_angle_gamma 90.000000
_cell_volume 3843.168893
_symmetry_space_group_name_H-M "A M A 2"
_symmetry_group_IT_number 40
_symmetry_cell_setting 'orthorhombic'
loop_
_space_group_symop_operation_xyz
x,y,z
-x,-y,z
1/2-x,y,z
1/2+x,-y,z
x,1/2+y,1/2+z
-x,1/2-y,1/2+z
1/2-x,1/2+y,1/2+z
1/2+x,1/2-y,1/2+z
loop_
_atom_site_type_symbol
_atom_site_label
_atom_site_fract_x
_atom_site_fract_y
_atom_site_fract_z
Si Si1 0.080016 0.764724 0.643640
Si Si2 0.915455 0.814851 0.824064
Si Si3 0.077451 0.177208 0.077713
Si Si4 0.080257 0.959604 0.346164
Si Si5 0.084962 0.113953 0.659027
Si Si6 0.418691 0.960286 0.610612
Si Si7 0.080147 0.833875 0.482120
Si Si8 0.078794 0.374272 0.751545
O O1 0.250000 0.766526 0.661153
O O2 0.038595 0.719558 0.629430
O O3 0.052058 0.790329 0.531448
O O4 0.002545 0.785332 0.746277
O O5 0.750000 0.801494 0.827629
O O6 0.919984 0.856744 0.762539
O O7 0.965800 0.820060 0.949239
O O8 0.250000 0.172822 0.082183
O O9 0.002677 0.142788 0.146125
O O10 0.250000 0.964925 0.329038
O O11 0.058542 0.953706 0.478331
O O12 0.037080 0.918896 0.286227
O O13 0.000000 0.000000 0.314295
O O14 0.250000 0.104039 0.635419
O O15 0.990609 0.075551 0.674094
O O16 0.014685 0.137758 0.557823
O O17 0.250000 0.962924 0.629413
O O18 0.500000 0.000000 0.639892
O O19 0.250000 0.842085 0.499604
O O20 0.049681 0.844879 0.355403
O O21 0.250000 0.374226 0.734245
#
# Coordination Sequence:
#
# PCOD9362538 Si02
#       8
#     8   8   8   8   8   8   8   8
#     4   9  19  34  54  76 100 133 175 217 261 309
#     4   9  20  37  54  72 101 137 174 213 260 309
#     4  10  22  37  52  75 104 137 176 220 263 308
#     4   9  18  32  50  75 106 137 169 206 257 315
#     4  10  18  30  50  75 100 134 172 211 254 306
#     4  10  18  30  48  75 108 138 165 206 258 312
#     4   9  17  32  51  72 101 137 170 209 259 309
#     4  10  20  34  53  78 106 139 176 214 260 316
#
# _framework density 16.652923999999999
#
# number of rings (size 3 to 8) (size 9 to 14) (size 15 to 20)
#    0.000    2.500    1.250    0.750    1.750    3.000 
#    0.000    0.000    0.000    0.750    0.000    1.750 
#    0.000    0.000    0.000    0.000    0.000    0.000 
#
# Total GULP energy -178384.399076 kJ/mol
# GULP energy per Si atom -5574.512471 kJ/mol
# Density = 1.661502 g / cm^3
# Si number density = 16.652924 Si / 1000 Ang^3
#
#
#
# Elastic Constant Matrix: (Units=GPa)
#
#
# Indices 1 2 3 4 5 6 
#
# 1 38.6975 33.8426 26.5077 0.0000 0.0000 0.0000
# 2 33.8426 75.2160 26.1198 0.0000 0.0000 0.0000
# 3 26.5077 26.1198 81.6848 0.0000 0.0000 0.0000
# 4 0.0000 0.0000 0.0000 14.0344 0.0000 0.0000
# 5 0.0000 0.0000 0.0000 0.0000 21.8939 0.0000
# 6 0.0000 0.0000 0.0000 0.0000 0.0000 22.2092
#
#
#
# Elastic Compliance Matrix: (Units=1/GPa)
#
#
# Indices 1 2 3 4 5 6 
#
# 1 0.048847 -0.018531 -0.009926 0.000000 0.000000 0.000000
# 2 -0.018531 0.021986 -0.001017 0.000000 0.000000 0.000000
# 3 -0.009926 -0.001017 0.015788 0.000000 0.000000 0.000000
# 4 0.000000 0.000000 0.000000 0.071253 0.000000 0.000000
# 5 0.000000 0.000000 0.000000 0.000000 0.045675 0.000000
# 6 0.000000 0.000000 0.000000 0.000000 0.000000 0.045026
#
#
# Mechanical properties :
#
#
# Convention : Reuss Voigt Hill
#
# Bulk Modulus (GPa) = 36.13529 40.94871 38.54200
# Shear Modulus (GPa) = 15.78542 18.90273 17.34407
#
# Velocity S-wave (km/s) = 3.08215 3.37278 3.23073
# Velocity P-wave (km/s) = 5.86621 6.30955 6.09191
#
# Compressibility (1/GPa) = 0.02767378
#
# Stress axis : x y z
#
# Youngs Moduli (GPa) = 20.47209 45.48343 63.33789
#
# Poissons Ratio (x) = 0.84287 0.62868
# Poissons Ratio (y) = 0.37937 0.06440
# Poissons Ratio (z) = 0.20320 0.04624
#
# Static dielectric constant tensor:
#      x y z
#    x 1.555020 0.000000 0.000000 
#    y 0.000000 1.573010 0.000000 
#    z 0.000000 0.000000 1.541660 
# 
# From -- ./inp_files/10627.got.cif
#   From: 2010.05.17/outbox.cif.g08.bks.cpg/sg40_6_cif.got.tgz:10627.got - 2010.06.03 18:35:42.
