data_PCOD9362942
_publ_section_title
;
Structure prediction by ZEFSAII (Michael W. Deem and Ramdas Pophale) SiO2 
 PCOD9362942
Probable space group: A M A 2
;
_chemical_formula_sum "Si O2"
_cell_formula_units_Z 64
_cell_length_a 8.644219
_cell_length_b 15.281913
_cell_length_c 27.857492
_cell_angle_alpha 90.000000
_cell_angle_beta 90.000000
_cell_angle_gamma 90.000000
_cell_volume 3679.980340
_symmetry_space_group_name_H-M "A M A 2"
_symmetry_group_IT_number 40
_symmetry_cell_setting 'orthorhombic'
loop_
_space_group_symop_operation_xyz
x,y,z
-x,-y,z
1/2-x,y,z
1/2+x,-y,z
x,1/2+y,1/2+z
-x,1/2-y,1/2+z
1/2-x,1/2+y,1/2+z
1/2+x,1/2-y,1/2+z
loop_
_atom_site_type_symbol
_atom_site_label
_atom_site_fract_x
_atom_site_fract_y
_atom_site_fract_z
Si Si1 0.063078 0.721108 0.340920
Si Si2 0.434638 0.404855 0.148520
Si Si3 0.563779 0.405174 0.255129
Si Si4 0.563952 0.093713 0.032705
Si Si5 0.435611 0.906342 0.373930
Si Si6 0.064554 0.905425 0.921221
Si Si7 0.935839 0.780270 0.567289
Si Si8 0.064084 0.404611 0.986172
O O1 0.250000 0.720086 0.342965
O O2 0.016800 0.668568 0.293269
O O3 0.011644 0.821797 0.344277
O O4 0.000968 0.668780 0.386807
O O5 0.500000 0.500000 0.133421
O O6 0.250000 0.409220 0.149131
O O7 0.497730 0.388391 0.202118
O O8 0.491959 0.331286 0.112001
O O9 0.500000 0.500000 0.270726
O O10 0.750000 0.409259 0.252722
O O11 0.750000 0.089656 0.033418
O O12 0.515546 0.178939 0.062465
O O13 0.500000 0.000000 0.048792
O O14 0.516843 0.107071 0.976859
O O15 0.250000 0.910656 0.371971
O O16 0.477591 0.892292 0.430095
O O17 0.500000 0.000000 0.358451
O O18 0.250000 0.906178 0.918893
O O19 0.000000 0.000000 0.905793
O O20 0.750000 0.783908 0.570298
O O21 0.990328 0.831294 0.519664
O O22 0.250000 0.403308 0.990809
O O23 0.000000 0.500000 0.000596
#
# Coordination Sequence:
#
# PCOD9362942 Si02
#       8
#     8   8   8   8   8   8   8   8
#     4  10  20  33  51  75 102 133 169 208 250 296
#     4  11  22  37  56  78 103 130 162 201 249 302
#     4  10  20  35  54  76 103 131 160 199 249 301
#     4   9  20  35  51  72 101 136 171 209 248 289
#     4   9  19  34  50  71 101 136 172 210 250 290
#     4  10  19  31  48  73 104 137 171 205 245 292
#     4  11  21  34  52  75 102 132 168 207 250 297
#     4  10  19  31  48  72 103 137 171 207 247 293
#
# _framework density 17.391397999999999
#
# number of rings (size 3 to 8) (size 9 to 14) (size 15 to 20)
#    0.000    2.000    0.000    4.875    0.000    4.500 
#    0.000    0.000    0.000    0.750    0.000    1.750 
#    0.000    0.000    0.000    0.000    0.000    0.000 
#
# Total GULP energy -178694.299160 kJ/mol
# GULP energy per Si atom -5584.196849 kJ/mol
# Density = 1.735181 g / cm^3
# Si number density = 17.391398 Si / 1000 Ang^3
#
#
#
# Elastic Constant Matrix: (Units=GPa)
#
#
# Indices 1 2 3 4 5 6 
#
# 1 47.7047 41.1819 30.5235 0.0000 0.0000 0.0000
# 2 41.1819 185.0257 84.7784 0.0000 0.0000 0.0000
# 3 30.5235 84.7784 72.8082 0.0000 0.0000 0.0000
# 4 0.0000 0.0000 0.0000 28.1710 0.0000 0.0000
# 5 0.0000 0.0000 0.0000 0.0000 -174.7489 0.0000
# 6 0.0000 0.0000 0.0000 0.0000 0.0000 27.9918
#
#
#
# Elastic Compliance Matrix: (Units=1/GPa)
#
#
# Indices 1 2 3 4 5 6 
#
# 1 0.028952 -0.001892 -0.009935 0.000000 0.000000 0.000000
# 2 -0.001892 0.011710 -0.012842 0.000000 0.000000 0.000000
# 3 -0.009935 -0.012842 0.032853 0.000000 0.000000 0.000000
# 4 0.000000 0.000000 0.000000 0.035497 0.000000 0.000000
# 5 0.000000 0.000000 0.000000 0.000000 -0.005722 0.000000
# 6 0.000000 0.000000 0.000000 0.000000 0.000000 0.035725
#
#
# Mechanical properties :
#
#
# Convention : Reuss Voigt Hill
#
# Bulk Modulus (GPa) = 41.36015 68.72292 55.04154
# Shear Modulus (GPa) = 25.45680 -13.78024 5.83828
#
# Velocity S-wave (km/s) = 3.83006 -2.81794 1.83420
# Velocity P-wave (km/s) = 6.58732 5.38642 6.01690
#
# Compressibility (1/GPa) = 0.02417786
#
# Stress axis : x y z
#
# Youngs Moduli (GPa) = 34.53971 85.39782 30.43869
#
# Poissons Ratio (x) = 0.16157 0.30240
# Poissons Ratio (y) = 0.06535 0.39089
# Poissons Ratio (z) = 0.34314 1.09667
#
# Static dielectric constant tensor:
#      x y z
#    x 1.610500 0.000000 0.000000 
#    y 0.000000 1.595060 0.000000 
#    z 0.000000 0.000000 1.577940 
# 
# From -- ./inp_files/26380.got.cif
#   From: 2010.05.17/outbox.cif.g08.bks.cpg/sg40_14_cif.got.tgz:26380.got - 2010.06.03 18:35:42.
