data_PCOD9362076
_publ_section_title
;
Structure prediction by ZEFSAII (Michael W. Deem and Ramdas Pophale) SiO2 
 PCOD9362076
Probable space group: A B M 2
;
_chemical_formula_sum "Si O2"
_cell_formula_units_Z 60
_cell_length_a 6.412118
_cell_length_b 21.978312
_cell_length_c 18.638193
_cell_angle_alpha 90.000000
_cell_angle_beta 90.000000
_cell_angle_gamma 90.000000
_cell_volume 2626.634503
_symmetry_space_group_name_H-M "A B M 2"
_symmetry_group_IT_number 39
_symmetry_cell_setting 'orthorhombic'
loop_
_space_group_symop_operation_xyz
x,y,z
-x,-y,z
-x,1/2+y,z
x,1/2-y,z
x,1/2+y,1/2+z
-x,1/2-y,1/2+z
-x,y,1/2+z
x,-y,1/2+z
loop_
_atom_site_type_symbol
_atom_site_label
_atom_site_fract_x
_atom_site_fract_y
_atom_site_fract_z
Si Si1 0.192886 0.457532 0.056220
Si Si2 0.893342 0.152292 0.086796
Si Si3 0.155320 0.184947 0.216128
Si Si4 0.407806 0.630823 0.211454
Si Si5 0.424263 0.066152 0.912534
Si Si6 0.261981 0.681666 0.930128
Si Si7 0.907491 0.636878 0.829488
Si Si8 0.500000 0.000000 0.180679
O O1 0.307209 0.482578 0.127397
O O2 0.000000 0.500000 0.032077
O O3 0.071215 0.395595 0.068574
O O4 0.362175 0.445170 0.995306
O O5 0.710211 0.125712 0.135887
O O6 0.015387 0.190396 0.146244
O O7 0.795992 0.177832 0.014344
O O8 0.139190 0.250000 0.255239
O O9 0.390704 0.170712 0.198470
O O10 0.077950 0.129277 0.266196
O O11 0.277282 0.660780 0.276669
O O12 0.456429 0.560201 0.227313
O O13 0.586124 0.124015 0.910246
O O14 0.211044 0.084634 0.872248
O O15 0.500000 0.000000 0.886687
O O16 0.348259 0.750000 0.915560
O O17 0.042838 0.673065 0.887851
#
# Coordination Sequence:
#
# PCOD9362076 Si02
#       8
#     8   8   8   8   8   8   8   4
#     4  12  22  42  74 107 147 189 239 306 378 443
#     4  11  23  44  69 108 142 186 247 308 367 441
#     4  11  25  46  71 101 144 196 246 301 368 441
#     4  11  25  45  70 108 144 190 244 301 374 443
#     4  12  27  47  75 111 153 196 249 311 381 448
#     4  12  27  48  74 110 149 196 254 312 378 453
#     4  11  27  48  72 103 146 194 246 303 368 444
#     4  12  22  40  70 110 148 186 240 308 368 438
#
# _framework density 22.842918999999998
#
# number of rings (size 3 to 8) (size 9 to 14) (size 15 to 20)
#    0.000    0.533    4.667    3.200    0.933    4.267 
#    2.400    0.000    0.000    0.000    0.000    0.000 
#    0.000    0.000    0.000    0.000    0.000    0.000 
#
# Total GULP energy -167237.763405 kJ/mol
# GULP energy per Si atom -5574.592113 kJ/mol
# Density = 2.279093 g / cm^3
# Si number density = 22.842919 Si / 1000 Ang^3
#
#
#
# Elastic Constant Matrix: (Units=GPa)
#
#
# Indices 1 2 3 4 5 6 
#
# 1 77.9224 45.9246 11.8924 0.0000 0.0000 0.0000
# 2 45.9246 149.1848 26.9210 0.0000 0.0000 0.0000
# 3 11.8924 26.9210 92.9770 0.0000 0.0000 0.0000
# 4 0.0000 0.0000 0.0000 17.8276 0.0000 0.0000
# 5 0.0000 0.0000 0.0000 0.0000 52.4614 0.0000
# 6 0.0000 0.0000 0.0000 0.0000 0.0000 -73.4062
#
#
#
# Elastic Compliance Matrix: (Units=1/GPa)
#
#
# Indices 1 2 3 4 5 6 
#
# 1 0.015714 -0.004721 -0.000643 0.000000 0.000000 0.000000
# 2 -0.004721 0.008491 -0.001855 0.000000 0.000000 0.000000
# 3 -0.000643 -0.001855 0.011375 0.000000 0.000000 0.000000
# 4 0.000000 0.000000 0.000000 0.056093 0.000000 0.000000
# 5 0.000000 0.000000 0.000000 0.000000 0.019062 0.000000
# 6 0.000000 0.000000 0.000000 0.000000 0.000000 -0.013623
#
#
# Mechanical properties :
#
#
# Convention : Reuss Voigt Hill
#
# Bulk Modulus (GPa) = 47.29935 54.39557 50.84746
# Shear Modulus (GPa) = 42.15972 15.06631 28.61302
#
# Velocity S-wave (km/s) = 4.30075 2.57098 3.54305
# Velocity P-wave (km/s) = 6.73893 5.71645 6.24864
#
# Compressibility (1/GPa) = 0.02114194
#
# Stress axis : x y z
#
# Youngs Moduli (GPa) = 63.63761 117.76924 87.91525
#
# Poissons Ratio (x) = 0.55603 0.05652
# Poissons Ratio (y) = 0.30045 0.16306
# Poissons Ratio (z) = 0.04091 0.21842
#
# Static dielectric constant tensor:
#      x y z
#    x 1.819850 0.000000 0.000000 
#    y 0.000000 1.918820 0.000000 
#    z 0.000000 0.000000 1.871480 
# 
# From -- ./inp_files/13613.got.cif
#   From: 2010.05.17/outbox.cif.g08.bks.cpg/sg39_7_cif.got.tgz:13613.got - 2010.06.03 18:22:40.
