data_PCOD9362945
_publ_section_title
;
Structure prediction by ZEFSAII (Michael W. Deem and Ramdas Pophale) SiO2 
 PCOD9362945
Probable space group: A M A 2
;
_chemical_formula_sum "Si O2"
_cell_formula_units_Z 56
_cell_length_a 8.471056
_cell_length_b 24.454088
_cell_length_c 14.273535
_cell_angle_alpha 90.000000
_cell_angle_beta 90.000000
_cell_angle_gamma 90.000000
_cell_volume 2956.790593
_symmetry_space_group_name_H-M "A M A 2"
_symmetry_group_IT_number 40
_symmetry_cell_setting 'orthorhombic'
loop_
_space_group_symop_operation_xyz
x,y,z
-x,-y,z
1/2-x,y,z
1/2+x,-y,z
x,1/2+y,1/2+z
-x,1/2-y,1/2+z
1/2-x,1/2+y,1/2+z
1/2+x,1/2-y,1/2+z
loop_
_atom_site_type_symbol
_atom_site_label
_atom_site_fract_x
_atom_site_fract_y
_atom_site_fract_z
Si Si1 0.059365 0.380343 0.090050
Si Si2 0.439071 0.939459 0.987567
Si Si3 0.940910 0.834569 0.092060
Si Si4 0.559328 0.560811 0.273833
Si Si5 0.559474 0.728289 0.982719
Si Si6 0.059579 0.668766 0.805015
Si Si7 0.061215 0.559282 0.911455
O O1 0.250000 0.380373 0.089788
O O2 0.005709 0.397242 0.193702
O O3 0.007040 0.321308 0.051299
O O4 0.001795 0.424524 0.014192
O O5 0.250000 0.939888 0.989281
O O6 0.492193 0.927039 0.880234
O O7 0.500000 0.000000 0.011287
O O8 0.501817 0.892833 0.055540
O O9 0.750000 0.834568 0.092090
O O10 0.993305 0.823488 0.198553
O O11 0.995384 0.786047 0.023436
O O12 0.500000 0.500000 0.250234
O O13 0.750000 0.560212 0.273567
O O14 0.750000 0.728243 0.982192
O O15 0.501477 0.712877 0.879402
O O16 0.250000 0.670419 0.806683
O O17 0.010045 0.608967 0.843678
O O18 0.250000 0.558434 0.913684
O O19 0.000000 0.500000 0.882843
#
# Coordination Sequence:
#
# PCOD9362945 Si02
#       7
#     8   8   8   8   8   8   8
#     4   9  17  31  50  74 104 138 173 211 257 310
#     4  10  21  37  56  79 107 139 176 220 264 313
#     4  10  21  38  58  80 106 139 175 215 264 315
#     4   9  18  31  49  74 104 137 173 211 256 306
#     4   9  19  35  55  78 106 137 172 215 260 307
#     4   9  20  37  55  76 106 139 173 214 260 310
#     4  10  19  31  48  73 103 137 174 214 259 307
#
# _framework density 18.939454000000001
#
# number of rings (size 3 to 8) (size 9 to 14) (size 15 to 20)
#    0.000    2.571    0.000    1.286    0.000    5.714 
#    0.000    4.286    0.000    3.429    0.000    0.000 
#    0.000    0.000    0.000    0.000    0.000    0.000 
#
# Total GULP energy -156225.968715 kJ/mol
# GULP energy per Si atom -5579.498883 kJ/mol
# Density = 1.889635 g / cm^3
# Si number density = 18.939454 Si / 1000 Ang^3
#
#
#
# Elastic Constant Matrix: (Units=GPa)
#
#
# Indices 1 2 3 4 5 6 
#
# 1 7.2276 18.5855 21.3376 0.0000 0.0000 0.0000
# 2 18.5855 116.3312 90.0592 0.0000 0.0000 0.0000
# 3 21.3376 90.0592 142.5655 0.0000 0.0000 0.0000
# 4 0.0000 0.0000 0.0000 19.8335 0.0000 0.0000
# 5 0.0000 0.0000 0.0000 0.0000 22.0154 0.0000
# 6 0.0000 0.0000 0.0000 0.0000 0.0000 18.4440
#
#
#
# Elastic Compliance Matrix: (Units=1/GPa)
#
#
# Indices 1 2 3 4 5 6 
#
# 1 0.278141 -0.023895 -0.026535 0.000000 0.000000 0.000000
# 2 -0.023895 0.018876 -0.008348 0.000000 0.000000 0.000000
# 3 -0.026535 -0.008348 0.016259 0.000000 0.000000 0.000000
# 4 0.000000 0.000000 0.000000 0.050420 0.000000 0.000000
# 5 0.000000 0.000000 0.000000 0.000000 0.045423 0.000000
# 6 0.000000 0.000000 0.000000 0.000000 0.000000 0.054218
#
#
# Mechanical properties :
#
#
# Convention : Reuss Voigt Hill
#
# Bulk Modulus (GPa) = 5.10929 58.45430 31.78179
# Shear Modulus (GPa) = 7.73835 21.13472 14.43653
#
# Velocity S-wave (km/s) = 2.02354 3.34415 2.76388
# Velocity P-wave (km/s) = 2.85712 6.77066 5.19639
#
# Compressibility (1/GPa) = 0.19572195
#
# Stress axis : x y z
#
# Youngs Moduli (GPa) = 3.59530 52.97650 61.50380
#
# Poissons Ratio (x) = 1.26586 1.63198
# Poissons Ratio (y) = 0.08591 0.51343
# Poissons Ratio (z) = 0.09540 0.44224
#
# Static dielectric constant tensor:
#      x y z
#    x 1.645910 0.000000 0.000000 
#    y 0.000000 1.640970 0.000000 
#    z 0.000000 0.000000 1.660570 
# 
# From -- ./inp_files/15294.got.cif
#   From: 2010.05.17/outbox.cif.g08.bks.cpg/sg40_8_cif.got.tgz:15294.got - 2010.06.03 18:35:42.
