data_PCOD9362182
_publ_section_title
;
Structure prediction by ZEFSAII (Michael W. Deem and Ramdas Pophale) SiO2 
 PCOD9362182
Probable space group: A B M 2
;
_chemical_formula_sum "Si O2"
_cell_formula_units_Z 32
_cell_length_a 15.000000
_cell_length_b 9.000000
_cell_length_c 24.000000
_cell_angle_alpha 90.000000
_cell_angle_beta 90.000000
_cell_angle_gamma 90.000000
_cell_volume 3240.000000
_symmetry_space_group_name_H-M "A B M 2"
_symmetry_group_IT_number 39
_symmetry_cell_setting 'orthorhombic'
loop_
_space_group_symop_operation_xyz
x,y,z
-x,-y,z
-x,1/2+y,z
x,1/2-y,z
x,1/2+y,1/2+z
-x,1/2-y,1/2+z
-x,y,1/2+z
x,-y,1/2+z
loop_
_atom_site_type_symbol
_atom_site_label
_atom_site_fract_x
_atom_site_fract_y
_atom_site_fract_z
Si Si1 0.327348 0.578506 0.115350
Si Si2 0.909638 0.075721 0.530512
Si Si3 0.735250 0.576887 0.806169
Si Si4 0.909539 0.075060 0.779191
Si Si5 0.406505 0.423480 0.905048
Si Si6 0.288360 0.928139 0.505027
Si Si7 0.411850 0.924726 0.227322
Si Si8 0.846431 0.424394 0.654900
O O1 0.325551 0.750000 0.097650
O O2 0.331942 0.470627 0.063449
O O3 0.402673 0.558145 0.161430
O O4 0.235007 0.535803 0.145453
O O5 0.914338 0.250000 0.517747
O O6 0.814641 0.017792 0.506842
O O7 0.902621 0.061690 0.597939
O O8 0.000000 0.000000 0.510755
O O9 0.758560 0.750000 0.796444
O O10 0.825099 0.487202 0.812130
O O11 0.665246 0.568843 0.855921
O O12 0.677592 0.514187 0.754949
O O13 0.915603 0.250000 0.784887
O O14 0.893672 0.041746 0.713208
O O15 0.000000 0.000000 0.797849
O O16 0.500000 0.500000 0.893375
O O17 0.425678 0.250000 0.915422
O O18 0.352901 0.488010 0.957567
O O19 0.283070 0.750000 0.499256
O O20 0.414598 0.750000 0.240523
O O21 0.500000 0.000000 0.249312
O O22 0.816857 0.250000 0.656877
#
# Coordination Sequence:
#
# PCOD9362182 Si02
#       8
#     8   8   8   8   8   8   8   8
#     4  10  19  32  52  80 113 149 185 230 282 333
#     4   9  17  30  49  75 109 144 183 222 267 323
#     4  10  21  40  60  82 114 148 188 241 291 339
#     4  11  22  35  56  85 117 156 196 235 283 338
#     4  10  22  41  66  87 109 145 190 243 296 344
#     4   9  20  38  56  79 112 149 187 231 284 343
#     4  10  21  34  52  80 112 145 183 228 283 345
#     4   9  18  32  50  76 111 152 190 228 275 331
#
# _framework density 9.8765429999999999
#
# number of rings (size 3 to 8) (size 9 to 14) (size 15 to 20)
#    0.000    2.250    1.250    2.250    0.000    5.500 
#    0.000    3.125    0.000    1.500    0.000    0.000 
#    0.000    0.000    0.000    0.000    0.000    0.000 
#
# Total GULP energy -178343.537799 kJ/mol
# GULP energy per Si atom -5573.235556 kJ/mol
# Density = 0.985406 g / cm^3
# Si number density = 9.876543 Si / 1000 Ang^3
#
#
#
# Elastic Constant Matrix: (Units=GPa)
#
#
# Indices 1 2 3 4 5 6 
#
# 1 107.4439 47.8330 16.9991 0.0000 0.0000 0.0000
# 2 47.8330 11.6445 8.0356 0.0000 0.0000 0.0000
# 3 16.9991 8.0356 18.6904 0.0000 0.0000 0.0000
# 4 0.0000 0.0000 0.0000 19.9334 0.0000 0.0000
# 5 0.0000 0.0000 0.0000 0.0000 14.7062 0.0000
# 6 0.0000 0.0000 0.0000 0.0000 0.0000 29.3313
#
#
#
# Elastic Compliance Matrix: (Units=1/GPa)
#
#
# Indices 1 2 3 4 5 6 
#
# 1 -0.009213 0.045589 -0.011220 0.000000 0.000000 0.000000
# 2 0.045589 -0.103478 0.003025 0.000000 0.000000 0.000000
# 3 -0.011220 0.003025 0.062408 0.000000 0.000000 0.000000
# 4 0.000000 0.000000 0.000000 0.050167 0.000000 0.000000
# 5 0.000000 0.000000 0.000000 0.000000 0.067998 0.000000
# 6 0.000000 0.000000 0.000000 0.000000 0.000000 0.034093
#
#
# Mechanical properties :
#
#
# Convention : Reuss Voigt Hill
#
# Bulk Modulus (GPa) = 40.81099 31.50157 36.15628
# Shear Modulus (GPa) = 141.41439 17.12159 79.26799
#
# Velocity S-wave (km/s) = 8.47033 2.94731 6.34165
# Velocity P-wave (km/s) = 10.78737 5.25019 8.48327
#
# Compressibility (1/GPa) = 0.02450320
#
# Stress axis : x y z
#
# Youngs Moduli (GPa) = -108.53945 -9.66390 16.02358
#
# Poissons Ratio (x) = 0.44057 0.17979
# Poissons Ratio (y) = 4.94818 -0.04847
# Poissons Ratio (z) = -1.21786 0.02923
#
# Static dielectric constant tensor:
#      x y z
#    x 1.684670 0.000000 0.000000 
#    y 0.000000 1.617950 0.000000 
#    z 0.000000 0.000000 1.769660 
# 
# From -- ./inp_files/16189.got.cif
#   From: 2010.05.17/outbox.ucp.g08.bks.cvg/sg39_9_cif.got.tgz:16189.got - 2010.06.11 10:41:16.
