data_PCOD9362915
_publ_section_title
;
Structure prediction by ZEFSAII (Michael W. Deem and Ramdas Pophale) SiO2 
 PCOD9362915
Probable space group: A M A 2
;
_chemical_formula_sum "Si O2"
_cell_formula_units_Z 64
_cell_length_a 19.051745
_cell_length_b 11.126908
_cell_length_c 17.041102
_cell_angle_alpha 90.000000
_cell_angle_beta 90.000000
_cell_angle_gamma 90.000000
_cell_volume 3612.492326
_symmetry_space_group_name_H-M "A M A 2"
_symmetry_group_IT_number 40
_symmetry_cell_setting 'orthorhombic'
loop_
_space_group_symop_operation_xyz
x,y,z
-x,-y,z
1/2-x,y,z
1/2+x,-y,z
x,1/2+y,1/2+z
-x,1/2-y,1/2+z
1/2-x,1/2+y,1/2+z
1/2+x,1/2-y,1/2+z
loop_
_atom_site_type_symbol
_atom_site_label
_atom_site_fract_x
_atom_site_fract_y
_atom_site_fract_z
Si Si1 0.927232 0.571495 0.356720
Si Si2 0.030146 0.671765 0.907929
Si Si3 0.828116 0.665538 0.781856
Si Si4 0.667192 0.364375 0.418323
Si Si5 0.450465 0.881019 0.684064
Si Si6 0.523796 0.633040 0.729677
Si Si7 0.673207 0.973532 0.416289
Si Si8 0.604773 0.666548 0.016831
O O1 0.947478 0.689897 0.404004
O O2 0.869401 0.488630 0.396453
O O3 0.909377 0.603118 0.266339
O O4 0.000000 0.500000 0.351116
O O5 0.103078 0.603778 0.921037
O O6 0.997575 0.639520 0.822492
O O7 0.969919 0.647429 0.971944
O O8 0.750000 0.683936 0.748954
O O9 0.842966 0.774033 0.843497
O O10 0.892688 0.650766 0.723951
O O11 0.827503 0.544528 0.833896
O O12 0.750000 0.375333 0.431245
O O13 0.629773 0.299143 0.491469
O O14 0.490770 0.753152 0.692432
O O15 0.404323 0.864306 0.607047
O O16 0.500000 0.000000 0.674947
O O17 0.500000 0.500000 0.701710
O O18 0.750000 0.915002 0.425161
O O19 0.662317 0.077924 0.479941
#
# Coordination Sequence:
#
# PCOD9362915 Si02
#       8
#     8   8   8   8   8   8   8   8
#     4  10  19  36  54  83 116 154 187 243 293 358
#     4  11  18  31  59  79 110 143 195 245 287 341
#     4   9  16  28  52  79 106 140 185 234 285 349
#     4  10  19  34  57  84 111 146 194 240 296 368
#     4  10  22  34  56  84 122 150 194 249 305 353
#     4  11  18  34  55  86 114 150 194 249 292 353
#     4  10  19  30  51  82 110 138 183 240 297 343
#     4  11  19  36  57  83 106 152 195 247 285 352
#
# _framework density 17.716301000000001
#
# number of rings (size 3 to 8) (size 9 to 14) (size 15 to 20)
#    0.000    1.750    5.000    3.750    0.000    0.500 
#    2.250    1.250    0.000    8.250    0.000    0.000 
#    0.000    0.000    0.000    0.000    0.000    0.000 
#
# Total GULP energy -178344.331679 kJ/mol
# GULP energy per Si atom -5573.260365 kJ/mol
# Density = 1.767598 g / cm^3
# Si number density = 17.716301 Si / 1000 Ang^3
#
#
#
# Elastic Constant Matrix: (Units=GPa)
#
#
# Indices 1 2 3 4 5 6 
#
# 1 89.4211 23.5388 0.2305 0.0000 0.0000 0.0000
# 2 23.5388 95.8472 2.7813 0.0000 0.0000 0.0000
# 3 0.2305 2.7813 22.4434 0.0000 0.0000 0.0000
# 4 0.0000 0.0000 0.0000 11.0262 0.0000 0.0000
# 5 0.0000 0.0000 0.0000 0.0000 5.9807 0.0000
# 6 0.0000 0.0000 0.0000 0.0000 0.0000 28.2722
#
#
#
# Elastic Compliance Matrix: (Units=1/GPa)
#
#
# Indices 1 2 3 4 5 6 
#
# 1 0.011957 -0.002944 0.000242 0.000000 0.000000 0.000000
# 2 -0.002944 0.011196 -0.001357 0.000000 0.000000 0.000000
# 3 0.000242 -0.001357 0.044722 0.000000 0.000000 0.000000
# 4 0.000000 0.000000 0.000000 0.090693 0.000000 0.000000
# 5 0.000000 0.000000 0.000000 0.000000 0.167204 0.000000
# 6 0.000000 0.000000 0.000000 0.000000 0.000000 0.035370
#
#
# Mechanical properties :
#
#
# Convention : Reuss Voigt Hill
#
# Bulk Modulus (GPa) = 16.73426 28.97920 22.85673
# Shear Modulus (GPa) = 12.84755 21.13323 16.99039
#
# Velocity S-wave (km/s) = 2.69584 3.45754 3.10017
# Velocity P-wave (km/s) = 4.37679 5.68615 5.07388
#
# Compressibility (1/GPa) = 0.05975764
#
# Stress axis : x y z
#
# Youngs Moduli (GPa) = 83.63112 89.32117 22.36020
#
# Poissons Ratio (x) = 0.26292 -0.00541
# Poissons Ratio (y) = 0.24617 0.03035
# Poissons Ratio (z) = -0.02024 0.12123
#
# Static dielectric constant tensor:
#      x y z
#    x 1.615420 0.000000 0.000000 
#    y 0.000000 1.650950 0.000000 
#    z 0.000000 0.000000 1.594290 
# 
# From -- ./inp_files/21221.got.cif
#   From: 2010.05.17/outbox.cif.g08.bks.cpg/sg40_11_cif.got.tgz:21221.got - 2010.06.03 18:35:42.
