data_PCOD9362680
_publ_section_title
;
Structure prediction by ZEFSAII (Michael W. Deem and Ramdas Pophale) SiO2 
 PCOD9362680
Probable space group: A M A 2
;
_chemical_formula_sum "Si O2"
_cell_formula_units_Z 64
_cell_length_a 16.639150
_cell_length_b 12.410217
_cell_length_c 16.864545
_cell_angle_alpha 90.000000
_cell_angle_beta 90.000000
_cell_angle_gamma 90.000000
_cell_volume 3482.452014
_symmetry_space_group_name_H-M "A M A 2"
_symmetry_group_IT_number 40
_symmetry_cell_setting 'orthorhombic'
loop_
_space_group_symop_operation_xyz
x,y,z
-x,-y,z
1/2-x,y,z
1/2+x,-y,z
x,1/2+y,1/2+z
-x,1/2-y,1/2+z
1/2-x,1/2+y,1/2+z
1/2+x,1/2-y,1/2+z
loop_
_atom_site_type_symbol
_atom_site_label
_atom_site_fract_x
_atom_site_fract_y
_atom_site_fract_z
Si Si1 0.843096 0.477271 0.000000
Si Si2 0.347727 0.903622 0.090176
Si Si3 0.652467 0.079287 0.909838
Si Si4 0.152038 0.664912 0.144110
Si Si5 0.847092 0.859386 0.826313
Si Si6 0.893704 0.316599 0.865929
Si Si7 0.654062 0.987168 0.249345
Si Si8 0.081194 0.858529 0.384323
O O1 0.750000 0.510141 0.008134
O O2 0.873417 0.427589 0.082601
O O3 0.846833 0.379638 0.935969
O O4 0.892373 0.575049 0.961866
O O5 0.250000 0.904012 0.089241
O O6 0.373183 0.782711 0.113644
O O7 0.372150 0.984858 0.160223
O O8 0.374181 0.929355 0.001414
O O9 0.750000 0.084810 0.908610
O O10 0.620927 0.190342 0.873256
O O11 0.627626 0.973192 0.862590
O O12 0.250000 0.663967 0.142617
O O13 0.126640 0.649974 0.234730
O O14 0.750000 0.854018 0.827490
O O15 0.879853 0.758685 0.875772
O O16 0.866259 0.369683 0.783253
O O17 0.986263 0.346089 0.879125
O O18 0.750000 0.003856 0.254770
O O19 0.612978 0.070701 0.310078
#
# Coordination Sequence:
#
# PCOD9362680 Si02
#       8
#     8   8   8   8   8   8   8   8
#     4  10  18  32  58  85 106 134 184 236 266 307
#     4   9  16  30  56  85 105 131 179 227 265 314
#     4  10  20  36  59  82 107 143 185 228 273 322
#     4   9  16  30  56  85 105 131 179 227 265 314
#     4  10  20  36  59  82 107 143 185 228 273 322
#     4  11  21  33  53  78 117 145 179 220 278 329
#     4  10  18  32  58  85 106 134 184 236 266 307
#     4  11  21  33  53  78 117 145 179 220 278 329
#
# _framework density 18.377855
#
# number of rings (size 3 to 8) (size 9 to 14) (size 15 to 20)
#    0.000    2.000    2.500    4.500    0.000    0.500 
#    0.000    1.250   16.500    6.000    0.000    0.000 
#    0.000    0.000    0.000    0.000    0.000    0.000 
#
# Total GULP energy -178588.845951 kJ/mol
# GULP energy per Si atom -5580.901436 kJ/mol
# Density = 1.833603 g / cm^3
# Si number density = 18.377855 Si / 1000 Ang^3
#
#
#
# Elastic Constant Matrix: (Units=GPa)
#
#
# Indices 1 2 3 4 5 6 
#
# 1 27.8409 0.9009 8.6423 0.0000 0.0000 0.0000
# 2 0.9009 101.0441 58.2170 0.0000 0.0000 0.0000
# 3 8.6423 58.2170 104.9886 0.0000 0.0000 0.0000
# 4 0.0000 0.0000 0.0000 35.0819 0.0000 0.0000
# 5 0.0000 0.0000 0.0000 0.0000 -6.2684 0.0000
# 6 0.0000 0.0000 0.0000 0.0000 0.0000 6.6357
#
#
#
# Elastic Compliance Matrix: (Units=1/GPa)
#
#
# Indices 1 2 3 4 5 6 
#
# 1 0.037162 0.002103 -0.004225 0.000000 0.000000 0.000000
# 2 0.002103 0.014662 -0.008303 0.000000 0.000000 0.000000
# 3 -0.004225 -0.008303 0.014477 0.000000 0.000000 0.000000
# 4 0.000000 0.000000 0.000000 0.028505 0.000000 0.000000
# 5 0.000000 0.000000 0.000000 0.000000 -0.159530 0.000000
# 6 0.000000 0.000000 0.000000 0.000000 0.000000 0.150701
#
#
# Mechanical properties :
#
#
# Convention : Reuss Voigt Hill
#
# Bulk Modulus (GPa) = 22.00230 41.04381 31.52305
# Shear Modulus (GPa) = 40.99133 18.16405 29.57769
#
# Velocity S-wave (km/s) = 4.72791 3.14724 4.01611
# Velocity P-wave (km/s) = 6.46548 5.96562 6.22057
#
# Compressibility (1/GPa) = 0.04544980
#
# Stress axis : x y z
#
# Youngs Moduli (GPa) = 26.90928 68.20413 69.07573
#
# Poissons Ratio (x) = -0.14344 0.29186
# Poissons Ratio (y) = -0.05659 0.57355
# Poissons Ratio (z) = 0.11370 0.56632
#
# Static dielectric constant tensor:
#      x y z
#    x 1.633320 0.000000 0.000000 
#    y 0.000000 1.622440 0.000000 
#    z 0.000000 0.000000 1.637160 
# 
# From -- ./inp_files/20818.got.cif
#   From: 2010.05.17/outbox.cif.g08.bks.cpg/sg40_11_cif.got.tgz:20818.got - 2010.06.03 18:35:42.
