data_PCOD9362488
_publ_section_title
;
Structure prediction by ZEFSAII (Michael W. Deem and Ramdas Pophale) SiO2 
 PCOD9362488
Probable space group: A M A 2
;
_chemical_formula_sum "Si O2"
_cell_formula_units_Z 48
_cell_length_a 8.503634
_cell_length_b 24.596331
_cell_length_c 14.201267
_cell_angle_alpha 90.000000
_cell_angle_beta 90.000000
_cell_angle_gamma 90.000000
_cell_volume 2970.311395
_symmetry_space_group_name_H-M "A M A 2"
_symmetry_group_IT_number 40
_symmetry_cell_setting 'orthorhombic'
loop_
_space_group_symop_operation_xyz
x,y,z
-x,-y,z
1/2-x,y,z
1/2+x,-y,z
x,1/2+y,1/2+z
-x,1/2-y,1/2+z
1/2-x,1/2+y,1/2+z
1/2+x,1/2-y,1/2+z
loop_
_atom_site_type_symbol
_atom_site_label
_atom_site_fract_x
_atom_site_fract_y
_atom_site_fract_z
Si Si1 0.938334 0.334901 0.009810
Si Si2 0.440652 0.832404 0.931851
Si Si3 0.561118 0.724994 0.830987
Si Si4 0.941167 0.726247 0.617927
Si Si5 0.438216 0.440743 0.111429
Si Si6 0.439609 0.940942 0.829216
O O1 0.750000 0.335356 0.009178
O O2 0.990191 0.285597 0.079238
O O3 0.000321 0.391854 0.047809
O O4 0.997830 0.318166 0.906561
O O5 0.250000 0.830704 0.928467
O O6 0.503374 0.783970 0.866180
O O7 0.492899 0.890738 0.893387
O O8 0.489463 0.817046 0.038240
O O9 0.750000 0.723992 0.832751
O O10 0.505452 0.715801 0.724012
O O11 0.750000 0.726330 0.619558
O O12 0.500000 0.500000 0.082151
O O13 0.250000 0.441084 0.109778
O O14 0.490067 0.432122 0.220427
O O15 0.250000 0.941892 0.830280
O O16 0.500000 0.000000 0.859363
#
# Coordination Sequence:
#
# PCOD9362488 Si02
#       6
#     8   8   8   8   8   8
#     4  10  19  32  48  68  94 124 153 188 230 273
#     4   9  17  31  47  66  92 123 153 187 230 274
#     4  10  18  29  46  69  92 119 153 189 227 274
#     4   8  16  29  46  66  91 121 152 184 227 273
#     4  10  19  31  47  70  95 122 153 188 228 273
#     4   9  18  30  47  69  95 123 153 188 229 273
#
# _framework density 16.159921000000001
#
# number of rings (size 3 to 8) (size 9 to 14) (size 15 to 20)
#    0.000    2.667    0.000    3.500    0.000    1.333 
#    0.000    7.500    0.000    1.000    0.000    2.333 
#    0.000    0.000    0.000    0.000    0.000    0.000 
#
# Total GULP energy -133801.219965 kJ/mol
# GULP energy per Si atom -5575.050832 kJ/mol
# Density = 1.612314 g / cm^3
# Si number density = 16.159921 Si / 1000 Ang^3
#
#
#
# Elastic Constant Matrix: (Units=GPa)
#
#
# Indices 1 2 3 4 5 6 
#
# 1 27.6431 28.9530 27.2287 0.0000 0.0000 0.0000
# 2 28.9530 160.3343 98.1823 0.0000 0.0000 0.0000
# 3 27.2287 98.1823 140.1216 0.0000 0.0000 0.0000
# 4 0.0000 0.0000 0.0000 22.1811 0.0000 0.0000
# 5 0.0000 0.0000 0.0000 0.0000 18.6742 0.0000
# 6 0.0000 0.0000 0.0000 0.0000 0.0000 25.8683
#
#
#
# Elastic Compliance Matrix: (Units=1/GPa)
#
#
# Indices 1 2 3 4 5 6 
#
# 1 0.046977 -0.005067 -0.005578 0.000000 0.000000 0.000000
# 2 -0.005067 0.011471 -0.007053 0.000000 0.000000 0.000000
# 3 -0.005578 -0.007053 0.013163 0.000000 0.000000 0.000000
# 4 0.000000 0.000000 0.000000 0.045083 0.000000 0.000000
# 5 0.000000 0.000000 0.000000 0.000000 0.053550 0.000000
# 6 0.000000 0.000000 0.000000 0.000000 0.000000 0.038657
#
#
# Mechanical properties :
#
#
# Convention : Reuss Voigt Hill
#
# Bulk Modulus (GPa) = 27.61354 70.75856 49.18605
# Shear Modulus (GPa) = 19.50310 24.92704 22.21507
#
# Velocity S-wave (km/s) = 3.47779 3.93176 3.71172
# Velocity P-wave (km/s) = 5.76641 8.03076 6.99087
#
# Compressibility (1/GPa) = 0.03621411
#
# Stress axis : x y z
#
# Youngs Moduli (GPa) = 21.28688 87.17679 75.97316
#
# Poissons Ratio (x) = 0.44175 0.42379
# Poissons Ratio (y) = 0.10787 0.53583
# Poissons Ratio (z) = 0.11874 0.61485
#
# Static dielectric constant tensor:
#      x y z
#    x 1.548650 0.000000 0.000000 
#    y 0.000000 1.518120 0.000000 
#    z 0.000000 0.000000 1.545510 
# 
# From -- ./inp_files/10262.got.cif
#   From: 2010.05.17/outbox.cif.g08.bks.cpg/sg40_6_cif.got.tgz:10262.got - 2010.06.03 18:35:42.
