data_PCOD9362027
_publ_section_title
;
Structure prediction by ZEFSAII (Michael W. Deem and Ramdas Pophale) SiO2 
 PCOD9362027
Probable space group: A B M 2
;
_chemical_formula_sum "Si O2"
_cell_formula_units_Z 48
_cell_length_a 13.749852
_cell_length_b 17.453094
_cell_length_c 9.335699
_cell_angle_alpha 90.000000
_cell_angle_beta 90.000000
_cell_angle_gamma 90.000000
_cell_volume 2240.357328
_symmetry_space_group_name_H-M "A B M 2"
_symmetry_group_IT_number 39
_symmetry_cell_setting 'orthorhombic'
loop_
_space_group_symop_operation_xyz
x,y,z
-x,-y,z
-x,1/2+y,z
x,1/2-y,z
x,1/2+y,1/2+z
-x,1/2-y,1/2+z
-x,y,1/2+z
x,-y,1/2+z
loop_
_atom_site_type_symbol
_atom_site_label
_atom_site_fract_x
_atom_site_fract_y
_atom_site_fract_z
Si Si1 0.785665 0.839943 0.932050
Si Si2 0.952236 0.837489 0.166037
Si Si3 0.588821 0.081417 0.513698
Si Si4 0.857538 0.061740 0.180945
Si Si5 0.190123 0.908906 0.857430
Si Si6 0.591743 0.419792 0.846866
O O1 0.776920 0.750000 0.915182
O O2 0.797623 0.880163 0.779865
O O3 0.881094 0.853302 0.030895
O O4 0.688778 0.872760 0.003395
O O5 0.990611 0.750000 0.154469
O O6 0.884434 0.844174 0.306544
O O7 0.034269 0.902321 0.180080
O O8 0.565918 0.069424 0.680461
O O9 0.496943 0.119091 0.432026
O O10 0.604179 0.001228 0.429188
O O11 0.835978 0.979891 0.252439
O O12 0.826496 0.061974 0.017146
O O13 0.301636 0.883058 0.847869
#
# Coordination Sequence:
#
# PCOD9362027 Si02
#       6
#     8   8   8   8   8   8
#     4  11  24  44  67  95 138 181 224 280 338 398
#     4  11  25  46  66  93 137 181 220 273 340 400
#     4  11  22  40  67  99 130 174 215 276 339 401
#     4  12  25  41  69  98 132 175 228 272 332 401
#     4  12  24  42  68 102 132 169 223 285 326 397
#     4  11  22  39  69  98 131 165 218 277 336 395
#
# _framework density 21.425152000000001
#
# number of rings (size 3 to 8) (size 9 to 14) (size 15 to 20)
#    0.000    0.667    3.333    6.000    2.333    4.000 
#    0.000    1.667    0.000    0.000    0.000    0.000 
#    0.000    0.000    0.000    0.000    0.000    0.000 
#
# Total GULP energy -134187.995873 kJ/mol
# GULP energy per Si atom -5591.166495 kJ/mol
# Density = 2.137639 g / cm^3
# Si number density = 21.425152 Si / 1000 Ang^3
#
#
#
# Elastic Constant Matrix: (Units=GPa)
#
#
# Indices 1 2 3 4 5 6 
#
# 1 105.0062 -11.0558 1.5058 0.0000 0.0000 0.0000
# 2 -11.0558 29.3473 0.7651 0.0000 0.0000 0.0000
# 3 1.5058 0.7651 155.7696 0.0000 0.0000 0.0000
# 4 0.0000 0.0000 0.0000 18.0942 0.0000 0.0000
# 5 0.0000 0.0000 0.0000 0.0000 55.1557 0.0000
# 6 0.0000 0.0000 0.0000 0.0000 0.0000 5.1293
#
#
#
# Elastic Compliance Matrix: (Units=1/GPa)
#
#
# Indices 1 2 3 4 5 6 
#
# 1 0.009919 0.003740 -0.000114 0.000000 0.000000 0.000000
# 2 0.003740 0.035489 -0.000210 0.000000 0.000000 0.000000
# 3 -0.000114 -0.000210 0.006422 0.000000 0.000000 0.000000
# 4 0.000000 0.000000 0.000000 0.055266 0.000000 0.000000
# 5 0.000000 0.000000 0.000000 0.000000 0.018130 0.000000
# 6 0.000000 0.000000 0.000000 0.000000 0.000000 0.194958
#
#
# Mechanical properties :
#
#
# Convention : Reuss Voigt Hill
#
# Bulk Modulus (GPa) = 17.04767 30.28371 23.66569
# Shear Modulus (GPa) = 15.01920 35.60304 25.31112
#
# Velocity S-wave (km/s) = 2.65053 4.08087 3.44084
# Velocity P-wave (km/s) = 4.16427 6.03075 5.18224
#
# Compressibility (1/GPa) = 0.05865905
#
# Stress axis : x y z
#
# Youngs Moduli (GPa) = 100.82055 28.17783 155.71771
#
# Poissons Ratio (x) = -0.10537 0.01779
# Poissons Ratio (y) = -0.37702 0.03277
# Poissons Ratio (z) = 0.01152 0.00593
#
# Static dielectric constant tensor:
#      x y z
#    x 1.835340 0.000000 0.000000 
#    y 0.000000 1.769600 0.000000 
#    z 0.000000 0.000000 1.764850 
# 
# From -- ./inp_files/3255.got.cif
#   From: 2010.05.17/outbox.cif.g08.bks.cpg/sg39_2_cif.got.tgz:3255.got - 2010.06.03 18:22:40.
