data_PCOD9362468
_publ_section_title
;
Structure prediction by ZEFSAII (Michael W. Deem and Ramdas Pophale) SiO2 
 PCOD9362468
Probable space group: A M A 2
;
_chemical_formula_sum "Si O2"
_cell_formula_units_Z 64
_cell_length_a 8.778731
_cell_length_b 19.249884
_cell_length_c 21.816158
_cell_angle_alpha 90.000000
_cell_angle_beta 90.000000
_cell_angle_gamma 90.000000
_cell_volume 3686.702798
_symmetry_space_group_name_H-M "A M A 2"
_symmetry_group_IT_number 40
_symmetry_cell_setting 'orthorhombic'
loop_
_space_group_symop_operation_xyz
x,y,z
-x,-y,z
1/2-x,y,z
1/2+x,-y,z
x,1/2+y,1/2+z
-x,1/2-y,1/2+z
1/2-x,1/2+y,1/2+z
1/2+x,1/2-y,1/2+z
loop_
_atom_site_type_symbol
_atom_site_label
_atom_site_fract_x
_atom_site_fract_y
_atom_site_fract_z
Si Si1 0.434052 0.924466 0.715090
Si Si2 0.074935 0.071340 0.903610
Si Si3 0.571248 0.681156 0.320386
Si Si4 0.575710 0.927533 0.051524
Si Si5 0.567277 0.368895 0.088648
Si Si6 0.935977 0.273141 0.542192
Si Si7 0.932402 0.072286 0.463361
Si Si8 0.431207 0.781949 0.407187
O O1 0.250000 0.928075 0.715439
O O2 0.483267 0.862694 0.761526
O O3 0.496049 0.904326 0.648376
O O4 0.500000 0.000000 0.732564
O O5 0.250000 0.079224 0.883078
O O6 0.970822 0.130847 0.876629
O O7 0.076142 0.071190 0.977165
O O8 0.000000 0.000000 0.882615
O O9 0.750000 0.690651 0.313500
O O10 0.499238 0.752300 0.344539
O O11 0.750000 0.928771 0.072760
O O12 0.513146 0.849858 0.064228
O O13 0.500000 0.000000 0.071790
O O14 0.750000 0.369979 0.091184
O O15 0.505455 0.290141 0.080706
O O16 0.508387 0.409359 0.028554
O O17 0.750000 0.270751 0.544833
O O18 0.978320 0.257241 0.470832
O O19 0.750000 0.068363 0.471255
O O20 0.965836 0.137535 0.419513
O O21 0.000000 0.000000 0.440878
O O22 0.250000 0.772424 0.404042
#
# Coordination Sequence:
#
# PCOD9362468 Si02
#       8
#     8   8   8   8   8   8   8   8
#     4  11  24  40  54  73 102 139 179 219 258 302
#     4  10  18  29  43  63  93 130 168 203 243 289
#     4  11  22  33  49  72  99 134 174 212 251 296
#     4   9  17  28  43  66  97 132 166 201 245 296
#     4  11  22  35  54  78 101 133 175 220 263 308
#     4   9  17  33  51  71 101 137 171 210 260 310
#     4  10  20  35  55  79 107 137 167 208 260 312
#     4   9  18  33  51  72 102 136 168 205 254 307
#
# _framework density 17.359684000000001
#
# number of rings (size 3 to 8) (size 9 to 14) (size 15 to 20)
#    0.000    2.000    1.250    4.125    0.000    6.500 
#    0.000    0.000    0.000    0.000    0.000    0.875 
#    0.000    6.000    0.000    0.000    0.000    0.000 
#
# Total GULP energy -178384.202952 kJ/mol
# GULP energy per Si atom -5574.506342 kJ/mol
# Density = 1.732017 g / cm^3
# Si number density = 17.359684 Si / 1000 Ang^3
#
#
#
# Elastic Constant Matrix: (Units=GPa)
#
#
# Indices 1 2 3 4 5 6 
#
# 1 39.5039 40.9324 24.1319 0.0000 0.0000 0.0000
# 2 40.9324 125.9447 29.3736 0.0000 0.0000 0.0000
# 3 24.1319 29.3736 56.4843 0.0000 0.0000 0.0000
# 4 0.0000 0.0000 0.0000 26.3684 0.0000 0.0000
# 5 0.0000 0.0000 0.0000 0.0000 -1.8672 0.0000
# 6 0.0000 0.0000 0.0000 0.0000 0.0000 30.1352
#
#
#
# Elastic Compliance Matrix: (Units=1/GPa)
#
#
# Indices 1 2 3 4 5 6 
#
# 1 0.045632 -0.011703 -0.013409 0.000000 0.000000 0.000000
# 2 -0.011703 0.012037 -0.001260 0.000000 0.000000 0.000000
# 3 -0.013409 -0.001260 0.024088 0.000000 0.000000 0.000000
# 4 0.000000 0.000000 0.000000 0.037924 0.000000 0.000000
# 5 0.000000 0.000000 0.000000 0.000000 -0.535550 0.000000
# 6 0.000000 0.000000 0.000000 0.000000 0.000000 0.033184
#
#
# Mechanical properties :
#
#
# Convention : Reuss Voigt Hill
#
# Bulk Modulus (GPa) = 34.46780 45.64540 40.05660
# Shear Modulus (GPa) = -15.61183 19.42694 1.90756
#
# Velocity S-wave (km/s) = -3.00211 3.34890 1.04939
# Velocity P-wave (km/s) = 2.80736 6.42686 4.95912
#
# Compressibility (1/GPa) = 0.02901259
#
# Stress axis : x y z
#
# Youngs Moduli (GPa) = 21.91465 83.07481 41.51422
#
# Poissons Ratio (x) = 0.97222 0.55668
# Poissons Ratio (y) = 0.25647 0.05230
# Poissons Ratio (z) = 0.29386 0.10467
#
# Static dielectric constant tensor:
#      x y z
#    x 1.593160 0.000000 0.000000 
#    y 0.000000 1.638170 0.000000 
#    z 0.000000 0.000000 1.576930 
# 
# From -- ./inp_files/22540.got.cif
#   From: 2010.05.17/outbox.cif.g08.bks.cpg/sg40_12_cif.got.tgz:22540.got - 2010.06.03 18:35:42.
