data_PCOD9362413
_publ_section_title
;
Structure prediction by ZEFSAII (Michael W. Deem and Ramdas Pophale) SiO2 
 PCOD9362413
Probable space group: A M A 2
;
_chemical_formula_sum "Si O2"
_cell_formula_units_Z 64
_cell_length_a 8.733286
_cell_length_b 27.346137
_cell_length_c 18.936481
_cell_angle_alpha 90.000000
_cell_angle_beta 90.000000
_cell_angle_gamma 90.000000
_cell_volume 4522.441361
_symmetry_space_group_name_H-M "A M A 2"
_symmetry_group_IT_number 40
_symmetry_cell_setting 'orthorhombic'
loop_
_space_group_symop_operation_xyz
x,y,z
-x,-y,z
1/2-x,y,z
1/2+x,-y,z
x,1/2+y,1/2+z
-x,1/2-y,1/2+z
1/2-x,1/2+y,1/2+z
1/2+x,1/2-y,1/2+z
loop_
_atom_site_type_symbol
_atom_site_label
_atom_site_fract_x
_atom_site_fract_y
_atom_site_fract_z
Si Si1 0.931442 0.299927 0.137310
Si Si2 0.433360 0.757026 0.855805
Si Si3 0.065542 0.206446 0.218069
Si Si4 0.066377 0.053126 0.843072
Si Si5 0.566644 0.646314 0.264287
Si Si6 0.435390 0.647339 0.590059
Si Si7 0.065381 0.052649 0.007821
Si Si8 0.067017 0.747253 0.510769
O O1 0.750000 0.304727 0.135268
O O2 0.982092 0.250911 0.178920
O O3 0.003087 0.342087 0.186192
O O4 0.996457 0.290072 0.059185
O O5 0.250000 0.757888 0.866850
O O6 0.469466 0.713408 0.800343
O O7 0.475335 0.807862 0.815893
O O8 0.515409 0.751268 0.930065
O O9 0.250000 0.214251 0.210988
O O10 0.025656 0.159011 0.171678
O O11 0.250000 0.052410 0.837895
O O12 0.024700 0.061839 0.925636
O O13 0.999451 0.096777 0.796570
O O14 0.000000 0.000000 0.823624
O O15 0.750000 0.644761 0.261604
O O16 0.250000 0.645621 0.586123
O O17 0.491894 0.597148 0.556210
O O18 0.482523 0.694677 0.543918
O O19 0.250000 0.050652 0.011473
O O20 0.000000 0.000000 0.028280
O O21 0.250000 0.749647 0.516478
#
# Coordination Sequence:
#
# PCOD9362413 Si02
#       8
#     8   8   8   8   8   8   8   8
#     4  10  18  28  42  60  82 107 137 171 206 247
#     4   9  17  27  40  60  84 108 136 170 207 247
#     4   8  15  28  42  57  80 108 137 170 207 246
#     4  10  19  30  43  61  84 111 144 180 215 249
#     4  10  19  31  45  61  84 113 143 175 211 249
#     4   8  14  26  42  56  74 106 141 168 199 242
#     4   9  17  28  41  58  81 108 140 175 209 244
#     4  10  18  28  42  59  81 109 140 171 205 246
#
# _framework density 14.151648
#
# number of rings (size 3 to 8) (size 9 to 14) (size 15 to 20)
#    0.000    2.750    0.000    4.500    0.000    4.000 
#    0.000    3.125    0.000    0.000    0.000    0.000 
#    0.000    1.000    0.000    7.000    0.000    3.250 
#
# Total GULP energy -178176.519805 kJ/mol
# GULP energy per Si atom -5568.016244 kJ/mol
# Density = 1.411944 g / cm^3
# Si number density = 14.151648 Si / 1000 Ang^3
#
#
#
# Elastic Constant Matrix: (Units=GPa)
#
#
# Indices 1 2 3 4 5 6 
#
# 1 37.3317 29.3087 38.5360 0.0000 0.0000 0.0000
# 2 29.3087 98.7391 65.1216 0.0000 0.0000 0.0000
# 3 38.5360 65.1216 109.8092 0.0000 0.0000 0.0000
# 4 0.0000 0.0000 0.0000 28.1902 0.0000 0.0000
# 5 0.0000 0.0000 0.0000 0.0000 21.5281 0.0000
# 6 0.0000 0.0000 0.0000 0.0000 0.0000 18.9288
#
#
#
# Elastic Compliance Matrix: (Units=1/GPa)
#
#
# Indices 1 2 3 4 5 6 
#
# 1 0.043262 -0.004645 -0.012428 0.000000 0.000000 0.000000
# 2 -0.004645 0.017132 -0.008530 0.000000 0.000000 0.000000
# 3 -0.012428 -0.008530 0.018527 0.000000 0.000000 0.000000
# 4 0.000000 0.000000 0.000000 0.035473 0.000000 0.000000
# 5 0.000000 0.000000 0.000000 0.000000 0.046451 0.000000
# 6 0.000000 0.000000 0.000000 0.000000 0.000000 0.052830
#
#
# Mechanical properties :
#
#
# Convention : Reuss Voigt Hill
#
# Bulk Modulus (GPa) = 36.08054 56.86806 46.47430
# Shear Modulus (GPa) = 18.24024 21.25699 19.74861
#
# Velocity S-wave (km/s) = 3.59404 3.87988 3.73969
# Velocity P-wave (km/s) = 6.54017 7.76809 7.18043
#
# Compressibility (1/GPa) = 0.02771577
#
# Stress axis : x y z
#
# Youngs Moduli (GPa) = 23.11484 58.36894 53.97618
#
# Poissons Ratio (x) = 0.27113 0.67079
# Poissons Ratio (y) = 0.10737 0.46042
# Poissons Ratio (z) = 0.28726 0.49789
#
# Static dielectric constant tensor:
#      x y z
#    x 1.473220 0.000000 0.000000 
#    y 0.000000 1.456530 0.000000 
#    z 0.000000 0.000000 1.479100 
# 
# From -- ./inp_files/19722.got.cif
#   From: 2010.05.17/outbox.cif.g08.bks.cpg/sg40_10_cif.got.tgz:19722.got - 2010.06.03 18:35:42.
