data_PCOD9362348
_publ_section_title
;
Structure prediction by ZEFSAII (Michael W. Deem and Ramdas Pophale) SiO2 
 PCOD9362348
Probable space group: A M A 2
;
_chemical_formula_sum "Si O2"
_cell_formula_units_Z 64
_cell_length_a 15.872380
_cell_length_b 9.196673
_cell_length_c 21.147994
_cell_angle_alpha 90.000000
_cell_angle_beta 90.000000
_cell_angle_gamma 90.000000
_cell_volume 3087.038002
_symmetry_space_group_name_H-M "A M A 2"
_symmetry_group_IT_number 40
_symmetry_cell_setting 'orthorhombic'
loop_
_space_group_symop_operation_xyz
x,y,z
-x,-y,z
1/2-x,y,z
1/2+x,-y,z
x,1/2+y,1/2+z
-x,1/2-y,1/2+z
1/2-x,1/2+y,1/2+z
1/2+x,1/2-y,1/2+z
loop_
_atom_site_type_symbol
_atom_site_label
_atom_site_fract_x
_atom_site_fract_y
_atom_site_fract_z
Si Si1 0.582942 0.901758 0.017410
Si Si2 0.910966 0.211689 0.851632
Si Si3 0.159463 0.031164 0.788137
Si Si4 0.844115 0.695065 0.490764
Si Si5 0.394923 0.751289 0.390017
Si Si6 0.154218 0.278237 0.685683
Si Si7 0.524921 0.327945 0.080048
Si Si8 0.398161 0.993384 0.296431
O O1 0.552184 0.787253 0.070453
O O2 0.500000 0.000000 0.998720
O O3 0.646349 0.036875 0.025064
O O4 0.614178 0.796372 0.961721
O O5 0.912245 0.083130 0.801194
O O6 0.872137 0.344751 0.813006
O O7 0.005777 0.239416 0.874166
O O8 0.860880 0.174679 0.915782
O O9 0.250000 0.955481 0.786573
O O10 0.154826 0.136767 0.848011
O O11 0.151956 0.133723 0.728596
O O12 0.750000 0.751302 0.500560
O O13 0.915501 0.803700 0.518092
O O14 0.372269 0.905140 0.359800
O O15 0.250000 0.294741 0.660802
O O16 0.083254 0.243636 0.634278
O O17 0.135184 0.410395 0.734419
O O18 0.500000 0.500000 0.087476
O O19 0.500000 0.000000 0.290169
#
# Coordination Sequence:
#
# PCOD9362348 Si02
#       8
#     8   8   8   8   8   8   8   8
#     4  10  19  36  60  90 120 167 211 254 310 383
#     4  11  19  33  59  96 128 162 202 255 310 384
#     4  10  20  34  58  87 122 165 201 245 311 376
#     4  11  23  39  62  95 133 170 208 265 333 392
#     4  10  17  33  55  84 126 162 200 246 303 370
#     4  10  23  45  63  86 127 168 209 263 322 376
#     4  11  25  42  68  89 118 170 231 274 322 376
#     4   9  22  34  60  95 128 162 204 248 314 377
#
# _framework density 20.731846000000001
#
# number of rings (size 3 to 8) (size 9 to 14) (size 15 to 20)
#    0.000    1.750    3.750    1.125    1.750    5.500 
#    0.000    1.250    0.000    1.500    0.000    0.000 
#    0.000    0.000    0.000    0.000    0.000    0.000 
#
# Total GULP energy -178229.762596 kJ/mol
# GULP energy per Si atom -5569.680081 kJ/mol
# Density = 2.068466 g / cm^3
# Si number density = 20.731846 Si / 1000 Ang^3
#
#
#
# Elastic Constant Matrix: (Units=GPa)
#
#
# Indices 1 2 3 4 5 6 
#
# 1 40.6239 24.2770 18.9349 0.0000 0.0000 0.0000
# 2 24.2770 118.3534 28.0121 0.0000 0.0000 0.0000
# 3 18.9349 28.0121 77.7728 0.0000 0.0000 0.0000
# 4 0.0000 0.0000 0.0000 13.0491 0.0000 0.0000
# 5 0.0000 0.0000 0.0000 0.0000 70.6663 0.0000
# 6 0.0000 0.0000 0.0000 0.0000 0.0000 20.9305
#
#
#
# Elastic Compliance Matrix: (Units=1/GPa)
#
#
# Indices 1 2 3 4 5 6 
#
# 1 0.030121 -0.004857 -0.005584 0.000000 0.000000 0.000000
# 2 -0.004857 0.010020 -0.002426 0.000000 0.000000 0.000000
# 3 -0.005584 -0.002426 0.015091 0.000000 0.000000 0.000000
# 4 0.000000 0.000000 0.000000 0.076633 0.000000 0.000000
# 5 0.000000 0.000000 0.000000 0.000000 0.014151 0.000000
# 6 0.000000 0.000000 0.000000 0.000000 0.000000 0.047777
#
#
# Mechanical properties :
#
#
# Convention : Reuss Voigt Hill
#
# Bulk Modulus (GPa) = 33.90098 42.13313 38.01705
# Shear Modulus (GPa) = 21.79963 31.96426 26.88195
#
# Velocity S-wave (km/s) = 3.24621 3.93083 3.60481
# Velocity P-wave (km/s) = 5.51708 6.40070 5.97524
#
# Compressibility (1/GPa) = 0.02949768
#
# Stress axis : x y z
#
# Youngs Moduli (GPa) = 33.19907 99.80197 66.26269
#
# Poissons Ratio (x) = 0.48473 0.37002
# Poissons Ratio (y) = 0.16125 0.16078
# Poissons Ratio (z) = 0.18539 0.24216
#
# Static dielectric constant tensor:
#      x y z
#    x 1.805970 0.000000 0.000000 
#    y 0.000000 1.827700 0.000000 
#    z 0.000000 0.000000 1.765950 
# 
# From -- ./inp_files/23404.got.cif
#   From: 2010.05.17/outbox.cif.g08.bks.cpg/sg40_12_cif.got.tgz:23404.got - 2010.06.03 18:35:42.
