data_PCOD9362616
_publ_section_title
;
Structure prediction by ZEFSAII (Michael W. Deem and Ramdas Pophale) SiO2 
 PCOD9362616
Probable space group: A M A 2
;
_chemical_formula_sum "Si O2"
_cell_formula_units_Z 64
_cell_length_a 8.623270
_cell_length_b 14.487309
_cell_length_c 25.025600
_cell_angle_alpha 90.000000
_cell_angle_beta 90.000000
_cell_angle_gamma 90.000000
_cell_volume 3126.397583
_symmetry_space_group_name_H-M "A M A 2"
_symmetry_group_IT_number 40
_symmetry_cell_setting 'orthorhombic'
loop_
_space_group_symop_operation_xyz
x,y,z
-x,-y,z
1/2-x,y,z
1/2+x,-y,z
x,1/2+y,1/2+z
-x,1/2-y,1/2+z
1/2-x,1/2+y,1/2+z
1/2+x,1/2-y,1/2+z
loop_
_atom_site_type_symbol
_atom_site_label
_atom_site_fract_x
_atom_site_fract_y
_atom_site_fract_z
Si Si1 0.935407 0.605322 0.068020
Si Si2 0.563717 0.395769 0.179055
Si Si3 0.934879 0.272716 0.280477
Si Si4 0.935450 0.897449 0.455492
Si Si5 0.562479 0.104009 0.996377
Si Si6 0.936465 0.605118 0.612848
Si Si7 0.066272 0.602963 0.724813
Si Si8 0.936707 0.720454 0.393534
O O1 0.750000 0.604985 0.068321
O O2 0.000000 0.500000 0.068374
O O3 0.999559 0.645800 0.123386
O O4 0.998666 0.641337 0.011626
O O5 0.500000 0.500000 0.183732
O O6 0.750000 0.398228 0.175439
O O7 0.517557 0.338992 0.231555
O O8 0.750000 0.263892 0.278858
O O9 0.010717 0.173347 0.269761
O O10 0.988074 0.308259 0.338021
O O11 0.750000 0.902118 0.460531
O O12 0.975561 0.826066 0.408844
O O13 0.000000 0.000000 0.446732
O O14 0.750000 0.101855 0.996347
O O15 0.512252 0.160369 0.944527
O O16 0.500000 0.000000 0.992965
O O17 0.516713 0.144062 0.054810
O O18 0.750000 0.605638 0.616827
O O19 0.000000 0.500000 0.611594
O O20 0.004018 0.642220 0.668079
O O21 0.250000 0.597333 0.722780
O O22 0.000000 0.500000 0.732106
O O23 0.750000 0.713501 0.389170
#
# Coordination Sequence:
#
# PCOD9362616 Si02
#       8
#     8   8   8   8   8   8   8   8
#     4  10  18  31  55  86 117 147 182 226 277 336
#     4  10  21  38  60  85 115 150 187 232 285 339
#     4  11  25  42  59  82 112 149 195 241 283 333
#     4  10  20  36  58  83 113 149 185 227 280 333
#     4   9  19  36  58  84 114 148 184 226 279 335
#     4   9  16  30  54  84 116 147 183 227 277 336
#     4  11  22  38  61  87 117 151 187 232 284 338
#     4  10  23  41  58  79 110 149 192 235 280 332
#
# _framework density 20.470844
#
# number of rings (size 3 to 8) (size 9 to 14) (size 15 to 20)
#    0.000    2.000    0.000    6.000    0.000    6.000 
#    0.000    6.250    0.000    0.000    0.000    0.000 
#    0.000    0.000    0.000    0.000    0.000    0.000 
#
# Total GULP energy -178739.304696 kJ/mol
# GULP energy per Si atom -5585.603272 kJ/mol
# Density = 2.042425 g / cm^3
# Si number density = 20.470844 Si / 1000 Ang^3
#
#
#
# Elastic Constant Matrix: (Units=GPa)
#
#
# Indices 1 2 3 4 5 6 
#
# 1 64.2965 1.7750 19.8823 0.0000 0.0000 0.0000
# 2 1.7750 40.6236 5.3742 0.0000 0.0000 0.0000
# 3 19.8823 5.3742 99.4683 0.0000 0.0000 0.0000
# 4 0.0000 0.0000 0.0000 31.3763 0.0000 0.0000
# 5 0.0000 0.0000 0.0000 0.0000 34.0493 0.0000
# 6 0.0000 0.0000 0.0000 0.0000 0.0000 -11.7140
#
#
#
# Elastic Compliance Matrix: (Units=1/GPa)
#
#
# Indices 1 2 3 4 5 6 
#
# 1 0.016581 -0.000288 -0.003299 0.000000 0.000000 0.000000
# 2 -0.000288 0.024798 -0.001282 0.000000 0.000000 0.000000
# 3 -0.003299 -0.001282 0.010782 0.000000 0.000000 0.000000
# 4 0.000000 0.000000 0.000000 0.031871 0.000000 0.000000
# 5 0.000000 0.000000 0.000000 0.000000 0.029369 0.000000
# 6 0.000000 0.000000 0.000000 0.000000 0.000000 -0.085368
#
#
# Mechanical properties :
#
#
# Convention : Reuss Voigt Hill
#
# Bulk Modulus (GPa) = 23.57191 28.71683 26.14437
# Shear Modulus (GPa) = 96.31464 22.56611 59.44037
#
# Velocity S-wave (km/s) = 6.86672 3.32377 5.39441
# Velocity P-wave (km/s) = 8.62606 5.36550 7.18323
#
# Compressibility (1/GPa) = 0.04242338
#
# Stress axis : x y z
#
# Youngs Moduli (GPa) = 60.31016 40.32506 92.74630
#
# Poissons Ratio (x) = 0.01162 0.30595
# Poissons Ratio (y) = 0.01737 0.11892
# Poissons Ratio (z) = 0.19895 0.05171
#
# Static dielectric constant tensor:
#      x y z
#    x 1.685390 0.000000 0.000000 
#    y 0.000000 1.666060 0.000000 
#    z 0.000000 0.000000 1.748100 
# 
# From -- ./inp_files/24256.got.cif
#   From: 2010.05.17/outbox.cif.g08.bks.cpg/sg40_13_cif.got.tgz:24256.got - 2010.06.03 18:35:42.
