data_PCOD9362249
_publ_section_title
;
Structure prediction by ZEFSAII (Michael W. Deem and Ramdas Pophale) SiO2 
 PCOD9362249
Probable space group: A M A 2
;
_chemical_formula_sum "Si O2"
_cell_formula_units_Z 40
_cell_length_a 11.407669
_cell_length_b 18.908311
_cell_length_c 6.762816
_cell_angle_alpha 90.000000
_cell_angle_beta 90.000000
_cell_angle_gamma 90.000000
_cell_volume 1458.737742
_symmetry_space_group_name_H-M "A M A 2"
_symmetry_group_IT_number 40
_symmetry_cell_setting 'orthorhombic'
loop_
_space_group_symop_operation_xyz
x,y,z
-x,-y,z
1/2-x,y,z
1/2+x,-y,z
x,1/2+y,1/2+z
-x,1/2-y,1/2+z
1/2-x,1/2+y,1/2+z
1/2+x,1/2-y,1/2+z
loop_
_atom_site_type_symbol
_atom_site_label
_atom_site_fract_x
_atom_site_fract_y
_atom_site_fract_z
Si Si1 0.122667 0.223446 0.407150
Si Si2 0.124380 0.990984 0.546056
Si Si3 0.375131 0.324442 0.967808
Si Si4 0.878641 0.627569 0.516308
Si Si5 0.879002 0.914822 0.145013
O O1 0.250000 0.211671 0.508442
O O2 0.118554 0.307364 0.363063
O O3 0.122899 0.164484 0.236302
O O4 0.001092 0.208165 0.517031
O O5 0.250000 0.014992 0.628126
O O6 0.129593 0.906836 0.524444
O O7 0.115007 0.031989 0.334330
O O8 0.000000 0.000000 0.649064
O O9 0.250000 0.288819 0.014489
O O10 0.375419 0.332526 0.727488
O O11 0.750000 0.591654 0.495829
O O12 0.999061 0.583928 0.524115
O O13 0.750000 0.925546 0.052620
#
# Coordination Sequence:
#
# PCOD9362249 Si02
#       5
#     8   8   8   8   8
#     4   9  16  25  37  53  75 103 131 155 183 224
#     4  10  16  24  40  58  76 100 126 154 194 236
#     4   9  17  27  39  57  80 102 125 157 192 227
#     4   9  16  25  37  53  75 103 131 155 183 224
#     4   9  17  27  39  57  80 102 125 157 192 227
#
# _framework density 27.420967999999998
#
# number of rings (size 3 to 8) (size 9 to 14) (size 15 to 20)
#    0.000    2.800    4.000    0.000    0.000    0.800 
#    0.000    0.000    0.000    0.000    0.000    0.000 
#    0.000   25.600    0.000  248.000    0.000   40.000 
#
# Total GULP energy -111615.744365 kJ/mol
# GULP energy per Si atom -5580.787218 kJ/mol
# Density = 2.735856 g / cm^3
# Si number density = 27.420968 Si / 1000 Ang^3
#
#
#
# Elastic Constant Matrix: (Units=GPa)
#
#
# Indices 1 2 3 4 5 6 
#
# 1 422.2765 58.7523 59.2845 0.0000 0.0000 0.0000
# 2 58.7523 147.5649 32.1895 0.0000 0.0000 0.0000
# 3 59.2845 32.1895 65.0910 0.0000 0.0000 0.0000
# 4 0.0000 0.0000 0.0000 10.9210 0.0000 0.0000
# 5 0.0000 0.0000 0.0000 0.0000 -132.5992 0.0000
# 6 0.0000 0.0000 0.0000 0.0000 0.0000 12.0410
#
#
#
# Elastic Compliance Matrix: (Units=1/GPa)
#
#
# Indices 1 2 3 4 5 6 
#
# 1 0.002765 -0.000618 -0.002212 0.000000 0.000000 0.000000
# 2 -0.000618 0.007734 -0.003262 0.000000 0.000000 0.000000
# 3 -0.002212 -0.003262 0.018991 0.000000 0.000000 0.000000
# 4 0.000000 0.000000 0.000000 0.091566 0.000000 0.000000
# 5 0.000000 0.000000 0.000000 0.000000 -0.007542 0.000000
# 6 0.000000 0.000000 0.000000 0.000000 0.000000 0.083050
#
#
# Mechanical properties :
#
#
# Convention : Reuss Voigt Hill
#
# Bulk Modulus (GPa) = 57.78518 103.93167 80.85843
# Shear Modulus (GPa) = 23.30805 10.38631 16.84718
#
# Velocity S-wave (km/s) = 2.91865 1.94832 2.48138
# Velocity P-wave (km/s) = 5.69887 6.56093 6.14504
#
# Compressibility (1/GPa) = 0.01730547
#
# Stress axis : x y z
#
# Youngs Moduli (GPa) = 361.69949 129.29373 52.65594
#
# Poissons Ratio (x) = 0.07992 0.11650
# Poissons Ratio (y) = 0.22359 0.17176
# Poissons Ratio (z) = 0.80022 0.42174
#
# Static dielectric constant tensor:
#      x y z
#    x 2.524420 0.000000 0.000000 
#    y 0.000000 2.091970 0.000000 
#    z 0.000000 0.000000 2.242730 
# 
# From -- ./inp_files/5291.got.cif
#   From: 2010.05.17/outbox.cif.g08.bks.cpg/sg40_3_cif.got.tgz:5291.got - 2010.06.03 18:35:42.
