data_PCOD9362419
_publ_section_title
;
Structure prediction by ZEFSAII (Michael W. Deem and Ramdas Pophale) SiO2 
 PCOD9362419
Probable space group: A M A 2
;
_chemical_formula_sum "Si O2"
_cell_formula_units_Z 64
_cell_length_a 8.736637
_cell_length_b 27.074746
_cell_length_c 19.027873
_cell_angle_alpha 90.000000
_cell_angle_beta 90.000000
_cell_angle_gamma 90.000000
_cell_volume 4500.895467
_symmetry_space_group_name_H-M "A M A 2"
_symmetry_group_IT_number 40
_symmetry_cell_setting 'orthorhombic'
loop_
_space_group_symop_operation_xyz
x,y,z
-x,-y,z
1/2-x,y,z
1/2+x,-y,z
x,1/2+y,1/2+z
-x,1/2-y,1/2+z
1/2-x,1/2+y,1/2+z
1/2+x,1/2-y,1/2+z
loop_
_atom_site_type_symbol
_atom_site_label
_atom_site_fract_x
_atom_site_fract_y
_atom_site_fract_z
Si Si1 0.934857 0.245069 0.894490
Si Si2 0.926444 0.803740 0.265911
Si Si3 0.067009 0.946546 0.049317
Si Si4 0.426529 0.801707 0.684694
Si Si5 0.566637 0.053636 0.884915
Si Si6 0.431455 0.150009 0.815048
Si Si7 0.935189 0.253117 0.549151
Si Si8 0.064293 0.646259 0.630241
O O1 0.750000 0.243863 0.891621
O O2 0.992117 0.288247 0.841290
O O3 0.995763 0.193227 0.863455
O O4 0.991913 0.252667 0.973161
O O5 0.750000 0.818540 0.277912
O O6 0.924599 0.751756 0.223464
O O7 0.992732 0.842175 0.209645
O O8 0.250000 0.947551 0.054610
O O9 0.999888 0.903200 0.096786
O O10 0.026679 0.937389 0.967207
O O11 0.000000 0.000000 0.068385
O O12 0.250000 0.818819 0.682693
O O13 0.523325 0.836844 0.734897
O O14 0.480358 0.788652 0.606175
O O15 0.750000 0.053022 0.878976
O O16 0.497942 0.097761 0.839341
O O17 0.500000 0.000000 0.865926
O O18 0.250000 0.150922 0.823695
O O19 0.750000 0.251994 0.544453
O O20 0.977616 0.306582 0.581782
O O21 0.250000 0.644665 0.632033
#
# Coordination Sequence:
#
# PCOD9362419 Si02
#       8
#     8   8   8   8   8   8   8   8
#     4  10  18  28  42  60  85 115 145 175 208 248
#     4   7  13  26  41  56  76 107 140 167 201 243
#     4  10  20  31  43  60  81 106 137 172 208 244
#     4   8  15  29  44  58  81 111 140 171 208 249
#     4  10  20  33  46  61  83 110 140 175 213 250
#     4  11  20  29  43  62  84 112 146 178 210 249
#     4   9  17  28  43  63  86 112 141 173 211 252
#     4   9  16  28  44  58  78 109 141 171 205 245
#
# _framework density 14.219391999999999
#
# number of rings (size 3 to 8) (size 9 to 14) (size 15 to 20)
#    0.000    2.750    0.000    5.250    0.000    4.500 
#    0.000    5.625    0.000    0.000    0.000    0.000 
#    0.000    1.000    0.000    7.750    0.000    4.750 
#
# Total GULP energy -178219.565986 kJ/mol
# GULP energy per Si atom -5569.361437 kJ/mol
# Density = 1.418703 g / cm^3
# Si number density = 14.219392 Si / 1000 Ang^3
#
#
#
# Elastic Constant Matrix: (Units=GPa)
#
#
# Indices 1 2 3 4 5 6 
#
# 1 41.5403 33.9208 36.8910 0.0000 0.0000 0.0000
# 2 33.9208 90.4695 63.7384 0.0000 0.0000 0.0000
# 3 36.8910 63.7384 124.4025 0.0000 0.0000 0.0000
# 4 0.0000 0.0000 0.0000 26.1310 0.0000 0.0000
# 5 0.0000 0.0000 0.0000 0.0000 -73.1844 0.0000
# 6 0.0000 0.0000 0.0000 0.0000 0.0000 18.1024
#
#
#
# Elastic Compliance Matrix: (Units=1/GPa)
#
#
# Indices 1 2 3 4 5 6 
#
# 1 0.037455 -0.009731 -0.006122 0.000000 0.000000 0.000000
# 2 -0.009731 0.019825 -0.007272 0.000000 0.000000 0.000000
# 3 -0.006122 -0.007272 0.013580 0.000000 0.000000 0.000000
# 4 0.000000 0.000000 0.000000 0.038269 0.000000 0.000000
# 5 0.000000 0.000000 0.000000 0.000000 -0.013664 0.000000
# 6 0.000000 0.000000 0.000000 0.000000 0.000000 0.055241
#
#
# Mechanical properties :
#
#
# Convention : Reuss Voigt Hill
#
# Bulk Modulus (GPa) = 40.63131 58.39029 49.51080
# Shear Modulus (GPa) = 24.37140 2.33394 13.35267
#
# Velocity S-wave (km/s) = 4.14449 1.28255 3.06771
# Velocity P-wave (km/s) = 7.17906 6.58379 6.88786
#
# Compressibility (1/GPa) = 0.02461156
#
# Stress axis : x y z
#
# Youngs Moduli (GPa) = 26.69843 50.44086 73.63982
#
# Poissons Ratio (x) = 0.49082 0.45080
# Poissons Ratio (y) = 0.25979 0.53551
# Poissons Ratio (z) = 0.16344 0.36680
#
# Static dielectric constant tensor:
#      x y z
#    x 1.478790 0.000000 0.000000 
#    y 0.000000 1.443580 0.000000 
#    z 0.000000 0.000000 1.488480 
# 
# From -- ./inp_files/19704.got.cif
#   From: 2010.05.17/outbox.cif.g08.bks.cpg/sg40_10_cif.got.tgz:19704.got - 2010.06.03 18:35:42.
