data_PCOD9362869
_publ_section_title
;
Structure prediction by ZEFSAII (Michael W. Deem and Ramdas Pophale) SiO2 
 PCOD9362869
Probable space group: A M A 2
;
_chemical_formula_sum "Si O2"
_cell_formula_units_Z 48
_cell_length_a 16.997281
_cell_length_b 9.949587
_cell_length_c 10.299002
_cell_angle_alpha 90.000000
_cell_angle_beta 90.000000
_cell_angle_gamma 90.000000
_cell_volume 1741.725261
_symmetry_space_group_name_H-M "A M A 2"
_symmetry_group_IT_number 40
_symmetry_cell_setting 'orthorhombic'
loop_
_space_group_symop_operation_xyz
x,y,z
-x,-y,z
1/2-x,y,z
1/2+x,-y,z
x,1/2+y,1/2+z
-x,1/2-y,1/2+z
1/2-x,1/2+y,1/2+z
1/2+x,1/2-y,1/2+z
loop_
_atom_site_type_symbol
_atom_site_label
_atom_site_fract_x
_atom_site_fract_y
_atom_site_fract_z
Si Si1 0.081038 0.692771 0.509450
Si Si2 0.750000 0.778195 0.026851
Si Si3 0.416885 0.468778 0.849312
Si Si4 0.418878 0.243621 0.485596
Si Si5 0.250000 0.491440 0.853799
Si Si6 0.750000 0.752704 0.543427
Si Si7 0.750000 0.448828 0.269787
Si Si8 0.580451 0.039892 0.792852
O O1 0.163002 0.704548 0.587266
O O2 0.080034 0.561435 0.417889
O O3 0.994211 0.712525 0.569212
O O4 0.082626 0.821955 0.412637
O O5 0.750000 0.631705 0.957347
O O6 0.750000 0.894648 0.916102
O O7 0.500000 0.500000 0.782448
O O8 0.332668 0.481168 0.780296
O O9 0.413686 0.584052 0.962824
O O10 0.336202 0.307275 0.528907
O O11 0.429914 0.310707 0.344963
O O12 0.250000 0.631434 0.932065
O O13 0.750000 0.817125 0.683786
O O14 0.668160 0.522395 0.237755
O O15 0.500000 0.000000 0.719138
#
# Coordination Sequence:
#
# PCOD9362869 Si02
#       8
#     8   4   8   8   4   4   4   8
#     4   8  14  25  44  69  91 116 158 200 231 273
#     4   8  14  27  46  65  86 120 159 190 221 279
#     4   8  13  22  38  63  87 109 143 191 230 263
#     4   9  16  27  44  68  94 122 160 200 236 278
#     4   8  14  25  40  61  84 110 149 188 221 263
#     4  10  19  29  44  73 101 122 151 204 254 285
#     4  10  19  31  46  71 103 130 157 196 250 301
#     4   9  17  30  48  71  96 128 165 202 239 286
#
# _framework density 27.558882000000001
#
# number of rings (size 3 to 8) (size 9 to 14) (size 15 to 20)
#    0.000    3.333    0.000    0.500    0.000    0.000 
#    0.000    8.333    0.000    0.000    0.000  190.167 
#    0.000    0.000    0.000    0.000    0.000    0.000 
#
# Total GULP energy -133980.949152 kJ/mol
# GULP energy per Si atom -5582.539548 kJ/mol
# Density = 2.749616 g / cm^3
# Si number density = 27.558882 Si / 1000 Ang^3
#
#
#
# Elastic Constant Matrix: (Units=GPa)
#
#
# Indices 1 2 3 4 5 6 
#
# 1 339.9727 17.7504 29.4753 0.0000 0.0000 0.0000
# 2 17.7504 120.7476 43.4976 0.0000 0.0000 0.0000
# 3 29.4753 43.4976 47.3925 0.0000 0.0000 0.0000
# 4 0.0000 0.0000 0.0000 47.3541 0.0000 0.0000
# 5 0.0000 0.0000 0.0000 0.0000 -25.0626 0.0000
# 6 0.0000 0.0000 0.0000 0.0000 0.0000 33.3708
#
#
#
# Elastic Compliance Matrix: (Units=1/GPa)
#
#
# Indices 1 2 3 4 5 6 
#
# 1 0.003119 0.000359 -0.002270 0.000000 0.000000 0.000000
# 2 0.000359 0.012414 -0.011617 0.000000 0.000000 0.000000
# 3 -0.002270 -0.011617 0.033174 0.000000 0.000000 0.000000
# 4 0.000000 0.000000 0.000000 0.021117 0.000000 0.000000
# 5 0.000000 0.000000 0.000000 0.000000 -0.039900 0.000000
# 6 0.000000 0.000000 0.000000 0.000000 0.000000 0.029966
#
#
# Mechanical properties :
#
#
# Convention : Reuss Voigt Hill
#
# Bulk Modulus (GPa) = 46.18427 76.61772 61.40099
# Shear Modulus (GPa) = 53.09924 38.95844 46.02884
#
# Velocity S-wave (km/s) = 4.39424 3.76392 4.09124
# Velocity P-wave (km/s) = 6.52232 6.83749 6.68176
#
# Compressibility (1/GPa) = 0.02165240
#
# Stress axis : x y z
#
# Youngs Moduli (GPa) = 320.57018 80.55580 30.14403
#
# Poissons Ratio (x) = -0.02892 0.06842
# Poissons Ratio (y) = -0.11509 0.35018
# Poissons Ratio (z) = 0.72758 0.93580
#
# Static dielectric constant tensor:
#      x y z
#    x 2.316460 0.000000 0.000000 
#    y 0.000000 2.075160 0.000000 
#    z 0.000000 0.000000 2.084470 
# 
# From -- ./inp_files/17688.got.cif
#   From: 2010.05.17/outbox.cif.g08.bks.cpg/sg40_9_cif.got.tgz:17688.got - 2010.06.03 18:35:42.
