data_PCOD9362503
_publ_section_title
;
Structure prediction by ZEFSAII (Michael W. Deem and Ramdas Pophale) SiO2 
 PCOD9362503
Probable space group: A M A 2
;
_chemical_formula_sum "Si O2"
_cell_formula_units_Z 64
_cell_length_a 9.293660
_cell_length_b 34.295170
_cell_length_c 11.878307
_cell_angle_alpha 90.000000
_cell_angle_beta 90.000000
_cell_angle_gamma 90.000000
_cell_volume 3785.944872
_symmetry_space_group_name_H-M "A M A 2"
_symmetry_group_IT_number 40
_symmetry_cell_setting 'orthorhombic'
loop_
_space_group_symop_operation_xyz
x,y,z
-x,-y,z
1/2-x,y,z
1/2+x,-y,z
x,1/2+y,1/2+z
-x,1/2-y,1/2+z
1/2-x,1/2+y,1/2+z
1/2+x,1/2-y,1/2+z
loop_
_atom_site_type_symbol
_atom_site_label
_atom_site_fract_x
_atom_site_fract_y
_atom_site_fract_z
Si Si1 0.080454 0.810367 0.591500
Si Si2 0.079578 0.960091 0.354233
Si Si3 0.079456 0.267828 0.555363
Si Si4 0.915247 0.887526 0.991925
Si Si5 0.083324 0.171165 0.204815
Si Si6 0.577957 0.626757 0.906014
Si Si7 0.919871 0.539531 0.585058
Si Si8 0.919536 0.673263 0.351435
O O1 0.250000 0.800612 0.578639
O O2 0.054980 0.849879 0.521637
O O3 0.050498 0.815420 0.723506
O O4 0.985750 0.775016 0.545763
O O5 0.250000 0.965117 0.373687
O O6 0.033229 0.918756 0.407853
O O7 0.057349 0.955012 0.219592
O O8 0.000000 0.000000 0.388640
O O9 0.250000 0.266980 0.576473
O O10 0.054662 0.291719 0.439766
O O11 0.999676 0.291293 0.655688
O O12 0.750000 0.898136 0.970344
O O13 0.983666 0.862422 0.892242
O O14 0.918615 0.859811 0.102241
O O15 0.010883 0.924653 0.020146
O O16 0.250000 0.180455 0.231045
O O17 0.004239 0.150701 0.309063
O O18 0.750000 0.627058 0.880730
O O19 0.750000 0.536856 0.565969
O O20 0.000000 0.500000 0.552865
O O21 0.750000 0.663066 0.360630
#
# Coordination Sequence:
#
# PCOD9362503 Si02
#       8
#     8   8   8   8   8   8   8   8
#     4  10  22  38  56  78 106 140 181 225 270 322
#     4   9  18  31  50  76 109 144 177 216 267 324
#     4  10  21  36  55  77 104 137 176 221 271 320
#     4  10  19  32  52  77 103 136 175 218 263 313
#     4  10  20  33  52  77 106 138 176 216 263 320
#     4  10  20  35  54  80 111 144 180 223 274 327
#     4  10  18  29  48  76 111 142 172 212 263 321
#     4   9  20  38  55  73 101 139 178 217 266 321
#
# _framework density 16.904631999999999
#
# number of rings (size 3 to 8) (size 9 to 14) (size 15 to 20)
#    0.000    2.250    1.250    1.500    1.750    3.500 
#    0.000    0.000    0.000    0.750    0.000    1.750 
#    0.000    0.000    0.000    0.000    0.000    0.000 
#
# Total GULP energy -178533.618399 kJ/mol
# GULP energy per Si atom -5579.175575 kJ/mol
# Density = 1.686616 g / cm^3
# Si number density = 16.904632 Si / 1000 Ang^3
#
#
#
# Elastic Constant Matrix: (Units=GPa)
#
#
# Indices 1 2 3 4 5 6 
#
# 1 81.4981 73.1920 43.3608 0.0000 0.0000 0.0000
# 2 73.1920 134.9448 37.6873 0.0000 0.0000 0.0000
# 3 43.3608 37.6873 61.3022 0.0000 0.0000 0.0000
# 4 0.0000 0.0000 0.0000 16.8974 0.0000 0.0000
# 5 0.0000 0.0000 0.0000 0.0000 16.8842 0.0000
# 6 0.0000 0.0000 0.0000 0.0000 0.0000 35.4399
#
#
#
# Elastic Compliance Matrix: (Units=1/GPa)
#
#
# Indices 1 2 3 4 5 6 
#
# 1 0.031792 -0.013236 -0.014350 0.000000 0.000000 0.000000
# 2 -0.013236 0.014457 0.000474 0.000000 0.000000 0.000000
# 3 -0.014350 0.000474 0.026172 0.000000 0.000000 0.000000
# 4 0.000000 0.000000 0.000000 0.059181 0.000000 0.000000
# 5 0.000000 0.000000 0.000000 0.000000 0.059227 0.000000
# 6 0.000000 0.000000 0.000000 0.000000 0.000000 0.028217
#
#
# Mechanical properties :
#
#
# Convention : Reuss Voigt Hill
#
# Bulk Modulus (GPa) = 54.95511 65.13615 60.04563
# Shear Modulus (GPa) = 17.89971 22.07798 19.98885
#
# Velocity S-wave (km/s) = 3.25755 3.61783 3.44240
# Velocity P-wave (km/s) = 6.83581 7.48777 7.16921
#
# Compressibility (1/GPa) = 0.01819667
#
# Stress axis : x y z
#
# Youngs Moduli (GPa) = 31.45433 69.17133 38.20949
#
# Poissons Ratio (x) = 0.91554 0.54832
# Poissons Ratio (y) = 0.41632 -0.01812
# Poissons Ratio (z) = 0.45138 -0.03281
#
# Static dielectric constant tensor:
#      x y z
#    x 1.566980 0.000000 0.000000 
#    y 0.000000 1.563090 0.000000 
#    z 0.000000 0.000000 1.545750 
# 
# From -- ./inp_files/10623.got.cif
#   From: 2010.05.17/outbox.cif.g08.bks.cpg/sg40_6_cif.got.tgz:10623.got - 2010.06.03 18:35:42.
