data_PCOD9362706
_publ_section_title
;
Structure prediction by ZEFSAII (Michael W. Deem and Ramdas Pophale) SiO2 
 PCOD9362706
Probable space group: A M A 2
;
_chemical_formula_sum "Si O2"
_cell_formula_units_Z 48
_cell_length_a 8.506826
_cell_length_b 29.093431
_cell_length_c 10.554526
_cell_angle_alpha 90.000000
_cell_angle_beta 90.000000
_cell_angle_gamma 90.000000
_cell_volume 2612.168720
_symmetry_space_group_name_H-M "A M A 2"
_symmetry_group_IT_number 40
_symmetry_cell_setting 'orthorhombic'
loop_
_space_group_symop_operation_xyz
x,y,z
-x,-y,z
1/2-x,y,z
1/2+x,-y,z
x,1/2+y,1/2+z
-x,1/2-y,1/2+z
1/2-x,1/2+y,1/2+z
1/2+x,1/2-y,1/2+z
loop_
_atom_site_type_symbol
_atom_site_label
_atom_site_fract_x
_atom_site_fract_y
_atom_site_fract_z
Si Si1 0.562006 0.146660 0.960620
Si Si2 0.061724 0.196477 0.209059
Si Si3 0.438265 0.700146 0.215688
Si Si4 0.938469 0.950803 0.566743
Si Si5 0.441239 0.145365 0.463560
Si Si6 0.061538 0.950681 0.853961
O O1 0.750000 0.148296 0.975621
O O2 0.515105 0.175690 0.836525
O O3 0.514215 0.093735 0.935229
O O4 0.483225 0.168864 0.083157
O O5 0.250000 0.201876 0.215533
O O6 0.006979 0.168719 0.333568
O O7 0.985363 0.246737 0.208583
O O8 0.250000 0.695808 0.226336
O O9 0.489223 0.674725 0.086451
O O10 0.750000 0.951796 0.569520
O O11 0.991890 0.907154 0.485043
O O12 0.997256 0.944501 0.711086
O O13 0.000000 0.000000 0.521181
O O14 0.250000 0.145345 0.462029
O O15 0.250000 0.952188 0.847606
O O16 0.000000 0.000000 0.900772
#
# Coordination Sequence:
#
# PCOD9362706 Si02
#       6
#     8   8   8   8   8   8
#     4  11  23  39  57  85 119 152 193 238 283 343
#     4  11  23  39  58  83 116 155 192 236 289 341
#     4  11  21  38  62  86 112 150 192 239 290 340
#     4  10  18  33  56  83 111 142 182 230 283 339
#     4   9  20  37  57  81 113 147 185 228 281 342
#     4  10  20  34  56  84 113 144 186 237 284 335
#
# _framework density 18.375536
#
# number of rings (size 3 to 8) (size 9 to 14) (size 15 to 20)
#    0.000    1.667    1.667    4.500    0.000    3.333 
#    0.000    6.667    0.000    4.000    0.000    0.000 
#    0.000    0.000    0.000    0.000    0.000    0.000 
#
# Total GULP energy -134072.349452 kJ/mol
# GULP energy per Si atom -5586.347894 kJ/mol
# Density = 1.833371 g / cm^3
# Si number density = 18.375536 Si / 1000 Ang^3
#
#
#
# Elastic Constant Matrix: (Units=GPa)
#
#
# Indices 1 2 3 4 5 6 
#
# 1 25.3122 4.4094 -4.2033 0.0000 0.0000 0.0000
# 2 4.4094 157.1454 53.4895 0.0000 0.0000 0.0000
# 3 -4.2033 53.4895 102.9040 0.0000 0.0000 0.0000
# 4 0.0000 0.0000 0.0000 -9.8770 0.0000 0.0000
# 5 0.0000 0.0000 0.0000 0.0000 6.2124 0.0000
# 6 0.0000 0.0000 0.0000 0.0000 0.0000 20.7118
#
#
#
# Elastic Compliance Matrix: (Units=1/GPa)
#
#
# Indices 1 2 3 4 5 6 
#
# 1 0.040316 -0.002055 0.002715 0.000000 0.000000 0.000000
# 2 -0.002055 0.007836 -0.004157 0.000000 0.000000 0.000000
# 3 0.002715 -0.004157 0.011990 0.000000 0.000000 0.000000
# 4 0.000000 0.000000 0.000000 -0.101245 0.000000 0.000000
# 5 0.000000 0.000000 0.000000 0.000000 0.160967 0.000000
# 6 0.000000 0.000000 0.000000 0.000000 0.000000 0.048282
#
#
# Mechanical properties :
#
#
# Convention : Reuss Voigt Hill
#
# Bulk Modulus (GPa) = 18.81591 43.63920 31.22756
# Shear Modulus (GPa) = 25.92611 18.85385 22.38998
#
# Velocity S-wave (km/s) = 3.76027 3.20665 3.49444
# Velocity P-wave (km/s) = 5.39581 6.12456 5.77170
#
# Compressibility (1/GPa) = 0.05314651
#
# Stress axis : x y z
#
# Youngs Moduli (GPa) = 24.80430 127.61190 83.40531
#
# Poissons Ratio (x) = 0.26230 -0.22646
# Poissons Ratio (y) = 0.05098 0.34674
# Poissons Ratio (z) = -0.06735 0.53051
#
# Static dielectric constant tensor:
#      x y z
#    x 1.626620 0.000000 0.000000 
#    y 0.000000 1.635590 0.000000 
#    z 0.000000 0.000000 1.597040 
# 
# From -- ./inp_files/4618.got.cif
#   From: 2010.05.17/outbox.cif.g08.bks.cpg/sg40_3_cif.got.tgz:4618.got - 2010.06.03 18:35:42.
