data_PCOD9362514
_publ_section_title
;
Structure prediction by ZEFSAII (Michael W. Deem and Ramdas Pophale) SiO2 
 PCOD9362514
Probable space group: A M A 2
;
_chemical_formula_sum "Si O2"
_cell_formula_units_Z 64
_cell_length_a 17.378133
_cell_length_b 12.039540
_cell_length_c 14.703277
_cell_angle_alpha 90.000000
_cell_angle_beta 90.000000
_cell_angle_gamma 90.000000
_cell_volume 3076.289122
_symmetry_space_group_name_H-M "A M A 2"
_symmetry_group_IT_number 40
_symmetry_cell_setting 'orthorhombic'
loop_
_space_group_symop_operation_xyz
x,y,z
-x,-y,z
1/2-x,y,z
1/2+x,-y,z
x,1/2+y,1/2+z
-x,1/2-y,1/2+z
1/2-x,1/2+y,1/2+z
1/2+x,1/2-y,1/2+z
loop_
_atom_site_type_symbol
_atom_site_label
_atom_site_fract_x
_atom_site_fract_y
_atom_site_fract_z
Si Si1 0.666129 0.163844 0.842150
Si Si2 0.034531 0.161251 0.346676
Si Si3 0.664990 0.881161 0.117834
Si Si4 0.369903 0.381288 0.543913
Si Si5 0.081588 0.556322 0.310716
Si Si6 0.038284 0.683317 0.491692
Si Si7 0.165059 0.010224 0.318955
Si Si8 0.389318 0.797363 0.238354
O O1 0.750000 0.197841 0.807972
O O2 0.594969 0.242429 0.818494
O O3 0.665816 0.165345 0.951987
O O4 0.644451 0.040218 0.811184
O O5 0.988634 0.207809 0.434795
O O6 0.974234 0.152459 0.263592
O O7 0.089431 0.057165 0.368875
O O8 0.750000 0.831911 0.108396
O O9 0.656703 0.929019 0.220166
O O10 0.599206 0.805064 0.073141
O O11 0.659312 0.995192 0.060662
O O12 0.461509 0.373850 0.529252
O O13 0.358399 0.316095 0.637440
O O14 0.070341 0.603339 0.412625
O O15 0.104612 0.667070 0.257204
O O16 0.000000 0.500000 0.283542
O O17 0.250000 0.038843 0.355813
O O18 0.160679 0.878195 0.302777
#
# Coordination Sequence:
#
# PCOD9362514 Si02
#       8
#     8   8   8   8   8   8   8   8
#     4  11  21  34  58  85 116 158 198 244 304 366
#     4  10  20  35  54  81 114 155 205 239 291 358
#     4  10  18  29  50  80 115 147 182 242 305 350
#     4  10  18  31  51  84 113 147 192 245 299 348
#     4  11  18  36  56  85 120 151 198 255 302 362
#     4  10  18  30  54  79 110 150 199 244 288 356
#     4  10  21  36  53  83 121 155 192 242 308 366
#     4  10  21  34  59  85 118 153 198 253 299 361
#
# _framework density 20.804288
#
# number of rings (size 3 to 8) (size 9 to 14) (size 15 to 20)
#    0.000    1.750    5.000    2.250    0.000    3.000 
#    0.000    1.875    0.000    9.000    0.000    0.000 
#    0.000    0.000    0.000    0.000    0.000    0.000 
#
# Total GULP energy -178430.380775 kJ/mol
# GULP energy per Si atom -5575.949399 kJ/mol
# Density = 2.075694 g / cm^3
# Si number density = 20.804288 Si / 1000 Ang^3
#
#
#
# Elastic Constant Matrix: (Units=GPa)
#
#
# Indices 1 2 3 4 5 6 
#
# 1 118.9476 14.0918 14.1565 0.0000 0.0000 0.0000
# 2 14.0918 100.4686 19.9553 0.0000 0.0000 0.0000
# 3 14.1565 19.9553 29.6561 0.0000 0.0000 0.0000
# 4 0.0000 0.0000 0.0000 21.9067 0.0000 0.0000
# 5 0.0000 0.0000 0.0000 0.0000 12.8951 0.0000
# 6 0.0000 0.0000 0.0000 0.0000 0.0000 1.6216
#
#
#
# Elastic Compliance Matrix: (Units=1/GPa)
#
#
# Indices 1 2 3 4 5 6 
#
# 1 0.008933 -0.000469 -0.003949 0.000000 0.000000 0.000000
# 2 -0.000469 0.011513 -0.007524 0.000000 0.000000 0.000000
# 3 -0.003949 -0.007524 0.040667 0.000000 0.000000 0.000000
# 4 0.000000 0.000000 0.000000 0.045648 0.000000 0.000000
# 5 0.000000 0.000000 0.000000 0.000000 0.077549 0.000000
# 6 0.000000 0.000000 0.000000 0.000000 0.000000 0.616687
#
#
# Mechanical properties :
#
#
# Convention : Reuss Voigt Hill
#
# Bulk Modulus (GPa) = 26.85891 38.38661 32.62276
# Shear Modulus (GPa) = 5.97165 20.67593 13.32379
#
# Velocity S-wave (km/s) = 1.69606 3.15593 2.53343
# Velocity P-wave (km/s) = 4.09558 5.63659 4.92671
#
# Compressibility (1/GPa) = 0.03723160
#
# Stress axis : x y z
#
# Youngs Moduli (GPa) = 111.95034 86.85508 24.58973
#
# Poissons Ratio (x) = 0.04070 0.09710
# Poissons Ratio (y) = 0.05246 0.18500
# Poissons Ratio (z) = 0.44206 0.65346
#
# Static dielectric constant tensor:
#      x y z
#    x 1.810750 0.000000 0.000000 
#    y 0.000000 1.789860 0.000000 
#    z 0.000000 0.000000 1.771720 
# 
# From -- ./inp_files/21205.got.cif
#   From: 2010.05.17/outbox.cif.g08.bks.cpg/sg40_11_cif.got.tgz:21205.got - 2010.06.03 18:35:42.
