data_PCOD9362948
_publ_section_title
;
Structure prediction by ZEFSAII (Michael W. Deem and Ramdas Pophale) SiO2 
 PCOD9362948
Probable space group: A M A 2
;
_chemical_formula_sum "Si O2"
_cell_formula_units_Z 64
_cell_length_a 8.671456
_cell_length_b 15.158706
_cell_length_c 28.041891
_cell_angle_alpha 90.000000
_cell_angle_beta 90.000000
_cell_angle_gamma 90.000000
_cell_volume 3686.051949
_symmetry_space_group_name_H-M "A M A 2"
_symmetry_group_IT_number 40
_symmetry_cell_setting 'orthorhombic'
loop_
_space_group_symop_operation_xyz
x,y,z
-x,-y,z
1/2-x,y,z
1/2+x,-y,z
x,1/2+y,1/2+z
-x,1/2-y,1/2+z
1/2-x,1/2+y,1/2+z
1/2+x,1/2-y,1/2+z
loop_
_atom_site_type_symbol
_atom_site_label
_atom_site_fract_x
_atom_site_fract_y
_atom_site_fract_z
Si Si1 0.934436 0.904629 0.070690
Si Si2 0.064540 0.595580 0.021233
Si Si3 0.064442 0.595290 0.461025
Si Si4 0.564983 0.594815 0.915353
Si Si5 0.936248 0.778876 0.875036
Si Si6 0.935475 0.904942 0.689292
Si Si7 0.564332 0.772970 0.605563
Si Si8 0.066190 0.904740 0.795129
O O1 0.750000 0.907913 0.071383
O O2 0.993374 0.823641 0.101918
O O3 0.985986 0.888030 0.015557
O O4 0.000000 0.000000 0.084748
O O5 0.250000 0.591285 0.019221
O O6 0.018253 0.669842 0.059117
O O7 0.000000 0.500000 0.036272
O O8 0.998996 0.612827 0.968523
O O9 0.250000 0.591293 0.461026
O O10 0.017658 0.669429 0.423400
O O11 0.000000 0.500000 0.446455
O O12 0.500000 0.500000 0.900169
O O13 0.250000 0.215307 0.870773
O O14 0.521950 0.676609 0.881755
O O15 0.750000 0.590255 0.918285
O O16 0.011491 0.829271 0.831049
O O17 0.750000 0.909943 0.691417
O O18 0.979998 0.829154 0.652051
O O19 0.000894 0.888817 0.742088
O O20 0.000000 0.000000 0.673303
O O21 0.750000 0.765846 0.605132
O O22 0.250000 0.910199 0.793523
O O23 0.000000 0.000000 0.811049
#
# Coordination Sequence:
#
# PCOD9362948 Si02
#       8
#     8   8   8   8   8   8   8   8
#     4  10  20  34  52  73 102 138 174 213 253 296
#     4  10  19  31  48  73 106 139 172 210 251 298
#     4   9  18  31  47  71 101 133 168 204 246 295
#     4  10  20  34  51  72 102 138 175 213 252 296
#     4  10  20  34  52  74 101 134 172 211 253 300
#     4  10  20  36  56  78 106 135 165 204 251 302
#     4  10  21  34  51  76 103 134 172 212 254 301
#     4  11  22  36  55  79 106 133 164 203 251 306
#
# _framework density 17.362750999999999
#
# number of rings (size 3 to 8) (size 9 to 14) (size 15 to 20)
#    0.000    2.000    0.000    5.625    0.000    6.000 
#    0.000    0.000    0.000    0.750    0.000    3.500 
#    0.000    0.000    0.000    0.000    0.000    0.000 
#
# Total GULP energy -178700.210979 kJ/mol
# GULP energy per Si atom -5584.381593 kJ/mol
# Density = 1.732323 g / cm^3
# Si number density = 17.362751 Si / 1000 Ang^3
#
#
#
# Elastic Constant Matrix: (Units=GPa)
#
#
# Indices 1 2 3 4 5 6 
#
# 1 56.5333 53.6750 35.9746 0.0000 0.0000 0.0000
# 2 53.6750 165.9270 86.3172 0.0000 0.0000 0.0000
# 3 35.9746 86.3172 73.3764 0.0000 0.0000 0.0000
# 4 0.0000 0.0000 0.0000 30.1265 0.0000 0.0000
# 5 0.0000 0.0000 0.0000 0.0000 23.2901 0.0000
# 6 0.0000 0.0000 0.0000 0.0000 0.0000 27.5689
#
#
#
# Elastic Compliance Matrix: (Units=1/GPa)
#
#
# Indices 1 2 3 4 5 6 
#
# 1 0.027105 -0.004781 -0.007665 0.000000 0.000000 0.000000
# 2 -0.004781 0.016374 -0.016918 0.000000 0.000000 0.000000
# 3 -0.007665 -0.016918 0.037289 0.000000 0.000000 0.000000
# 4 0.000000 0.000000 0.000000 0.033193 0.000000 0.000000
# 5 0.000000 0.000000 0.000000 0.000000 0.042937 0.000000
# 6 0.000000 0.000000 0.000000 0.000000 0.000000 0.036273
#
#
# Mechanical properties :
#
#
# Convention : Reuss Voigt Hill
#
# Bulk Modulus (GPa) = 45.37269 71.97448 58.67359
# Shear Modulus (GPa) = 19.28667 24.18842 21.73754
#
# Velocity S-wave (km/s) = 3.33649 3.73650 3.54215
# Velocity P-wave (km/s) = 6.40561 7.75620 7.11303
#
# Compressibility (1/GPa) = 0.02203969
#
# Stress axis : x y z
#
# Youngs Moduli (GPa) = 36.89303 61.07128 26.81784
#
# Poissons Ratio (x) = 0.29196 0.20557
# Poissons Ratio (y) = 0.17637 0.45371
# Poissons Ratio (z) = 0.28280 1.03322
#
# Static dielectric constant tensor:
#      x y z
#    x 1.581570 0.000000 0.000000 
#    y 0.000000 1.582740 0.000000 
#    z 0.000000 0.000000 1.578090 
# 
# From -- ./inp_files/26363.got.cif
#   From: 2010.05.17/outbox.cif.g08.bks.cpg/sg40_14_cif.got.tgz:26363.got - 2010.06.03 18:35:42.
