data_PCOD9362583
_publ_section_title
;
Structure prediction by ZEFSAII (Michael W. Deem and Ramdas Pophale) SiO2 
 PCOD9362583
Probable space group: A M A 2
;
_chemical_formula_sum "Si O2"
_cell_formula_units_Z 64
_cell_length_a 8.952938
_cell_length_b 14.496110
_cell_length_c 24.600429
_cell_angle_alpha 90.000000
_cell_angle_beta 90.000000
_cell_angle_gamma 90.000000
_cell_volume 3192.711919
_symmetry_space_group_name_H-M "A M A 2"
_symmetry_group_IT_number 40
_symmetry_cell_setting 'orthorhombic'
loop_
_space_group_symop_operation_xyz
x,y,z
-x,-y,z
1/2-x,y,z
1/2+x,-y,z
x,1/2+y,1/2+z
-x,1/2-y,1/2+z
1/2-x,1/2+y,1/2+z
1/2+x,1/2-y,1/2+z
loop_
_atom_site_type_symbol
_atom_site_label
_atom_site_fract_x
_atom_site_fract_y
_atom_site_fract_z
Si Si1 0.418876 0.079513 0.036590
Si Si2 0.417319 0.878176 0.146081
Si Si3 0.430420 0.099017 0.524937
Si Si4 0.572898 0.193842 0.757469
Si Si5 0.418508 0.657569 0.146277
Si Si6 0.574004 0.905081 0.256234
Si Si7 0.921049 0.755643 0.954204
Si Si8 0.927877 0.600625 0.372299
O O1 0.250000 0.054109 0.050528
O O2 0.523178 0.091119 0.088390
O O3 0.500000 0.000000 0.002297
O O4 0.413999 0.173526 0.004374
O O5 0.250000 0.911531 0.159486
O O6 0.410547 0.768083 0.142237
O O7 0.534559 0.904818 0.192199
O O8 0.250000 0.099403 0.524388
O O9 0.477839 0.123968 0.587587
O O10 0.490366 0.169602 0.479345
O O11 0.500000 0.000000 0.513015
O O12 0.750000 0.203600 0.748136
O O13 0.505720 0.147629 0.703047
O O14 0.519060 0.300094 0.770455
O O15 0.547520 0.131131 0.809822
O O16 0.250000 0.620095 0.152430
O O17 0.750000 0.909998 0.266685
O O18 0.500000 0.000000 0.278679
O O19 0.750000 0.731673 0.938630
O O20 0.001191 0.816643 0.908050
O O21 0.750000 0.595984 0.382945
O O22 0.000000 0.500000 0.380670
#
# Coordination Sequence:
#
# PCOD9362583 Si02
#       8
#     8   8   8   8   8   8   8   8
#     4  11  22  33  50  78 112 150 194 240 294 356
#     4  10  18  31  50  76 112 154 197 239 291 351
#     4  11  23  41  64  94 129 167 208 257 312 376
#     4   9  21  39  61  88 122 164 209 257 313 372
#     4   9  19  35  58  87 122 163 205 252 307 363
#     4  10  19  33  52  79 115 156 199 243 296 356
#     4  11  24  42  64  90 120 160 205 255 314 372
#     4  11  24  44  68  94 124 161 206 262 320 379
#
# _framework density 20.045655
#
# number of rings (size 3 to 8) (size 9 to 14) (size 15 to 20)
#    0.000    1.750    1.250    3.000    0.000    6.000 
#    0.000    3.125    0.000    1.500    0.000    0.000 
#    0.000    0.000    0.000    0.000    0.000    0.000 
#
# Total GULP energy -178417.159340 kJ/mol
# GULP energy per Si atom -5575.536229 kJ/mol
# Density = 2.000003 g / cm^3
# Si number density = 20.045655 Si / 1000 Ang^3
#
#
#
# Elastic Constant Matrix: (Units=GPa)
#
#
# Indices 1 2 3 4 5 6 
#
# 1 86.9597 48.9963 50.5023 0.0000 0.0000 0.0000
# 2 48.9963 108.6412 43.9677 0.0000 0.0000 0.0000
# 3 50.5023 43.9677 91.0950 0.0000 0.0000 0.0000
# 4 0.0000 0.0000 0.0000 3.2899 0.0000 0.0000
# 5 0.0000 0.0000 0.0000 0.0000 10.3160 0.0000
# 6 0.0000 0.0000 0.0000 0.0000 0.0000 25.5999
#
#
#
# Elastic Compliance Matrix: (Units=1/GPa)
#
#
# Indices 1 2 3 4 5 6 
#
# 1 0.019221 -0.005413 -0.008043 0.000000 0.000000 0.000000
# 2 -0.005413 0.012964 -0.003256 0.000000 0.000000 0.000000
# 3 -0.008043 -0.003256 0.017008 0.000000 0.000000 0.000000
# 4 0.000000 0.000000 0.000000 0.303965 0.000000 0.000000
# 5 0.000000 0.000000 0.000000 0.000000 0.096937 0.000000
# 6 0.000000 0.000000 0.000000 0.000000 0.000000 0.039063
#
#
# Mechanical properties :
#
#
# Convention : Reuss Voigt Hill
#
# Bulk Modulus (GPa) = 63.42006 63.73650 63.57828
# Shear Modulus (GPa) = 9.47261 17.38979 13.43120
#
# Velocity S-wave (km/s) = 2.17618 2.94855 2.59130
# Velocity P-wave (km/s) = 6.16611 6.59216 6.38269
#
# Compressibility (1/GPa) = 0.01576788
#
# Stress axis : x y z
#
# Youngs Moduli (GPa) = 52.02731 77.13872 58.79586
#
# Poissons Ratio (x) = 0.41758 0.47290
# Poissons Ratio (y) = 0.28164 0.19143
# Poissons Ratio (z) = 0.41846 0.25116
#
# Static dielectric constant tensor:
#      x y z
#    x 1.794570 0.000000 0.000000 
#    y 0.000000 1.772260 0.000000 
#    z 0.000000 0.000000 1.709170 
# 
# From -- ./inp_files/24253.got.cif
#   From: 2010.05.17/outbox.cif.g08.bks.cpg/sg40_13_cif.got.tgz:24253.got - 2010.06.03 18:35:42.
