data_PCOD9362391
_publ_section_title
;
Structure prediction by ZEFSAII (Michael W. Deem and Ramdas Pophale) SiO2 
 PCOD9362391
Probable space group: A M A 2
;
_chemical_formula_sum "Si O2"
_cell_formula_units_Z 64
_cell_length_a 8.881190
_cell_length_b 18.944041
_cell_length_c 26.998348
_cell_angle_alpha 90.000000
_cell_angle_beta 90.000000
_cell_angle_gamma 90.000000
_cell_volume 4542.354000
_symmetry_space_group_name_H-M "A M A 2"
_symmetry_group_IT_number 40
_symmetry_cell_setting 'orthorhombic'
loop_
_space_group_symop_operation_xyz
x,y,z
-x,-y,z
1/2-x,y,z
1/2+x,-y,z
x,1/2+y,1/2+z
-x,1/2-y,1/2+z
1/2-x,1/2+y,1/2+z
1/2+x,1/2-y,1/2+z
loop_
_atom_site_type_symbol
_atom_site_label
_atom_site_fract_x
_atom_site_fract_y
_atom_site_fract_z
Si Si1 0.571530 0.284836 0.378920
Si Si2 0.931193 0.160698 0.736241
Si Si3 0.431049 0.423055 0.137881
Si Si4 0.928312 0.923973 0.828341
Si Si5 0.427803 0.202895 0.288488
Si Si6 0.570613 0.923041 0.532282
Si Si7 0.928498 0.158623 0.443353
Si Si8 0.929024 0.077050 0.340381
O O1 0.750000 0.272550 0.366610
O O2 0.545016 0.367991 0.372981
O O3 0.469754 0.248299 0.337250
O O4 0.544564 0.240456 0.428628
O O5 0.750000 0.156279 0.742796
O O6 0.967802 0.129860 0.682520
O O7 0.973842 0.242696 0.745089
O O8 0.006186 0.112760 0.778797
O O9 0.500000 0.500000 0.149658
O O10 0.250000 0.428751 0.133515
O O11 0.501224 0.401552 0.085260
O O12 0.750000 0.931824 0.822149
O O13 0.000000 0.000000 0.836304
O O14 0.250000 0.190289 0.285682
O O15 0.510960 0.129308 0.297647
O O16 0.750000 0.929309 0.535840
O O17 0.522198 0.870089 0.489093
O O18 0.500000 0.000000 0.520672
O O19 0.750000 0.149479 0.453285
O O20 0.964729 0.113376 0.393686
O O21 0.750000 0.072406 0.337249
O O22 0.000000 0.000000 0.337814
#
# Coordination Sequence:
#
# PCOD9362391 Si02
#       8
#     8   8   8   8   8   8   8   8
#     4   8  16  29  42  57  79 108 139 168 200 241
#     4   9  18  30  44  61  81 109 142 172 204 243
#     4  10  19  31  44  59  81 108 139 173 206 238
#     4  10  18  27  41  61  85 112 140 170 203 240
#     4   9  16  27  42  60  82 106 134 169 205 241
#     4  11  21  31  43  60  81 106 137 171 207 242
#     4   9  17  30  45  59  78 106 139 171 203 240
#     4  10  19  29  42  61  84 111 141 170 202 241
#
# _framework density 14.08961
#
# number of rings (size 3 to 8) (size 9 to 14) (size 15 to 20)
#    0.000    2.500    0.000    4.875    0.000    6.500 
#    0.000    0.000    0.000    0.000    0.000    0.000 
#    0.000    1.000    0.000    6.000    0.000    4.250 
#
# Total GULP energy -178243.137673 kJ/mol
# GULP energy per Si atom -5570.098052 kJ/mol
# Density = 1.405754 g / cm^3
# Si number density = 14.089610 Si / 1000 Ang^3
#
#
#
# Elastic Constant Matrix: (Units=GPa)
#
#
# Indices 1 2 3 4 5 6 
#
# 1 55.0312 47.0890 41.8120 0.0000 0.0000 0.0000
# 2 47.0890 114.1792 55.0569 0.0000 0.0000 0.0000
# 3 41.8120 55.0569 79.4767 0.0000 0.0000 0.0000
# 4 0.0000 0.0000 0.0000 23.8291 0.0000 0.0000
# 5 0.0000 0.0000 0.0000 0.0000 18.3107 0.0000
# 6 0.0000 0.0000 0.0000 0.0000 0.0000 19.2060
#
#
#
# Elastic Compliance Matrix: (Units=1/GPa)
#
#
# Indices 1 2 3 4 5 6 
#
# 1 0.034826 -0.008301 -0.012571 0.000000 0.000000 0.000000
# 2 -0.008301 0.015130 -0.006114 0.000000 0.000000 0.000000
# 3 -0.012571 -0.006114 0.023431 0.000000 0.000000 0.000000
# 4 0.000000 0.000000 0.000000 0.041966 0.000000 0.000000
# 5 0.000000 0.000000 0.000000 0.000000 0.054613 0.000000
# 6 0.000000 0.000000 0.000000 0.000000 0.000000 0.052067
#
#
# Mechanical properties :
#
#
# Convention : Reuss Voigt Hill
#
# Bulk Modulus (GPa) = 51.50720 59.62253 55.56487
# Shear Modulus (GPa) = 17.70065 19.25111 18.47588
#
# Velocity S-wave (km/s) = 3.54826 3.70041 3.62513
# Velocity P-wave (km/s) = 7.30911 7.78883 7.55278
#
# Compressibility (1/GPa) = 0.01941476
#
# Stress axis : x y z
#
# Youngs Moduli (GPa) = 28.71444 66.09526 42.67793
#
# Poissons Ratio (x) = 0.54864 0.53651
# Poissons Ratio (y) = 0.23835 0.26093
# Poissons Ratio (z) = 0.36097 0.40411
#
# Static dielectric constant tensor:
#      x y z
#    x 1.471590 0.000000 0.000000 
#    y 0.000000 1.478220 0.000000 
#    z 0.000000 0.000000 1.451390 
# 
# From -- ./inp_files/25540.got.cif
#   From: 2010.05.17/outbox.cif.g08.bks.cpg/sg40_13_cif.got.tgz:25540.got - 2010.06.03 18:35:42.
