data_PCOD9362083
_publ_section_title
;
Structure prediction by ZEFSAII (Michael W. Deem and Ramdas Pophale) SiO2 
 PCOD9362083
Probable space group: A B M 2
;
_chemical_formula_sum "Si O2"
_cell_formula_units_Z 48
_cell_length_a 11.933295
_cell_length_b 16.961130
_cell_length_c 9.324487
_cell_angle_alpha 90.000000
_cell_angle_beta 90.000000
_cell_angle_gamma 90.000000
_cell_volume 1887.296383
_symmetry_space_group_name_H-M "A B M 2"
_symmetry_group_IT_number 39
_symmetry_cell_setting 'orthorhombic'
loop_
_space_group_symop_operation_xyz
x,y,z
-x,-y,z
-x,1/2+y,z
x,1/2-y,z
x,1/2+y,1/2+z
-x,1/2-y,1/2+z
-x,y,1/2+z
x,-y,1/2+z
loop_
_atom_site_type_symbol
_atom_site_label
_atom_site_fract_x
_atom_site_fract_y
_atom_site_fract_z
Si Si1 0.282932 0.532005 0.157740
Si Si2 0.411211 0.121814 0.171250
Si Si3 0.987601 0.162268 0.332029
Si Si4 0.069907 0.567918 0.576893
Si Si5 0.363564 0.339127 0.844204
Si Si6 0.248146 0.163710 0.422473
O O1 0.385635 0.471624 0.167970
O O2 0.178049 0.473483 0.140877
O O3 0.282596 0.590068 0.293720
O O4 0.283499 0.591150 0.022566
O O5 0.527904 0.146401 0.243081
O O6 0.315709 0.157511 0.274523
O O7 0.400029 0.150661 0.008661
O O8 0.962391 0.250000 0.280650
O O9 0.990535 0.102442 0.200619
O O10 0.115691 0.160612 0.391020
O O11 0.911019 0.137369 0.464916
O O12 0.000000 0.500000 0.496660
O O13 0.321610 0.250000 0.824320
O O14 0.273098 0.250000 0.487336
#
# Coordination Sequence:
#
# PCOD9362083 Si02
#       6
#     8   8   8   8   8   8
#     4  12  26  47  73 110 149 199 255 320 383 453
#     4  12  26  48  78 109 153 200 258 322 389 462
#     4  11  25  46  73 106 147 199 254 312 374 447
#     4  12  25  47  74 106 151 199 255 315 380 446
#     4  12  27  48  74 111 151 202 259 319 391 469
#     4  11  23  45  73 106 147 200 255 314 382 453
#
# _framework density 25.433209000000002
#
# number of rings (size 3 to 8) (size 9 to 14) (size 15 to 20)
#    0.000    0.333    3.333    5.500    0.000    1.333 
#    0.000    1.667    0.000    0.000    0.000    0.000 
#    0.000    0.000    0.000    0.000    0.000    0.000 
#
# Total GULP energy -134603.813623 kJ/mol
# GULP energy per Si atom -5608.492234 kJ/mol
# Density = 2.537532 g / cm^3
# Si number density = 25.433209 Si / 1000 Ang^3
#
#
#
# Elastic Constant Matrix: (Units=GPa)
#
#
# Indices 1 2 3 4 5 6 
#
# 1 98.0306 18.9957 20.1779 0.0000 0.0000 0.0000
# 2 18.9957 172.4858 29.2195 0.0000 0.0000 0.0000
# 3 20.1779 29.2195 140.6523 0.0000 0.0000 0.0000
# 4 0.0000 0.0000 0.0000 27.4419 0.0000 0.0000
# 5 0.0000 0.0000 0.0000 0.0000 38.8117 0.0000
# 6 0.0000 0.0000 0.0000 0.0000 0.0000 26.2887
#
#
#
# Elastic Compliance Matrix: (Units=1/GPa)
#
#
# Indices 1 2 3 4 5 6 
#
# 1 0.010659 -0.000948 -0.001332 0.000000 0.000000 0.000000
# 2 -0.000948 0.006093 -0.001130 0.000000 0.000000 0.000000
# 3 -0.001332 -0.001130 0.007536 0.000000 0.000000 0.000000
# 4 0.000000 0.000000 0.000000 0.036441 0.000000 0.000000
# 5 0.000000 0.000000 0.000000 0.000000 0.025765 0.000000
# 6 0.000000 0.000000 0.000000 0.000000 0.000000 0.038039
#
#
# Mechanical properties :
#
#
# Convention : Reuss Voigt Hill
#
# Bulk Modulus (GPa) = 57.24921 60.88387 59.06654
# Shear Modulus (GPa) = 36.44956 41.36015 38.90485
#
# Velocity S-wave (km/s) = 3.78980 4.03702 3.91536
# Velocity P-wave (km/s) = 6.45822 6.76171 6.61171
#
# Compressibility (1/GPa) = 0.01746749
#
# Stress axis : x y z
#
# Youngs Moduli (GPa) = 93.81894 164.11211 132.70429
#
# Poissons Ratio (x) = 0.15561 0.17678
# Poissons Ratio (y) = 0.08896 0.14993
# Poissons Ratio (z) = 0.12498 0.18542
#
# Static dielectric constant tensor:
#      x y z
#    x 2.054450 0.000000 0.000000 
#    y 0.000000 1.965590 0.000000 
#    z 0.000000 0.000000 1.931750 
# 
# From -- ./inp_files/3220.got.cif
#   From: 2010.05.17/outbox.cif.g08.bks.cpg/sg39_2_cif.got.tgz:3220.got - 2010.06.03 18:22:40.
