data_PCOD9362111
_publ_section_title
;
Structure prediction by ZEFSAII (Michael W. Deem and Ramdas Pophale) SiO2 
 PCOD9362111
Probable space group: A B M 2
;
_chemical_formula_sum "Si O2"
_cell_formula_units_Z 32
_cell_length_a 5.076607
_cell_length_b 11.395027
_cell_length_c 23.893182
_cell_angle_alpha 90.000000
_cell_angle_beta 90.000000
_cell_angle_gamma 90.000000
_cell_volume 1382.174556
_symmetry_space_group_name_H-M "A B M 2"
_symmetry_group_IT_number 39
_symmetry_cell_setting 'orthorhombic'
loop_
_space_group_symop_operation_xyz
x,y,z
-x,-y,z
-x,1/2+y,z
x,1/2-y,z
x,1/2+y,1/2+z
-x,1/2-y,1/2+z
-x,y,1/2+z
x,-y,1/2+z
loop_
_atom_site_type_symbol
_atom_site_label
_atom_site_fract_x
_atom_site_fract_y
_atom_site_fract_z
Si Si1 0.137901 0.374474 0.601580
Si Si2 0.000000 0.500000 0.754090
Si Si3 0.252724 0.928714 0.978100
Si Si4 0.025520 0.750000 0.316526
Si Si5 0.500000 0.000000 0.176171
Si Si6 0.469250 0.250000 0.388676
O O1 0.022102 0.250000 0.621468
O O2 0.156669 0.366854 0.534518
O O3 0.409338 0.394756 0.635181
O O4 0.000000 0.500000 0.610722
O O5 0.064623 0.377059 0.786404
O O6 0.254901 0.527090 0.716351
O O7 0.381793 0.857420 0.927746
O O8 0.500000 0.000000 0.000979
O O9 0.000000 0.000000 0.956837
O O10 0.229785 0.750000 0.369004
O O11 0.722074 0.750000 0.335713
#
# Coordination Sequence:
#
# PCOD9362111 Si02
#       6
#     8   4   8   4   4   4
#     4  11  25  47  75 117 158 199 243 300 373 469
#     4  12  30  52  74 110 142 198 258 326 364 432
#     4  11  24  44  71 112 155 193 240 295 371 463
#     4  12  30  52  76 105 147 190 268 312 370 430
#     4  12  26  48  78 108 150 196 246 306 388 428
#     4  12  26  48  78 105 143 206 234 316 378 434
#
# _framework density 23.151924000000001
#
# number of rings (size 3 to 8) (size 9 to 14) (size 15 to 20)
#    0.000    0.500    3.750    3.000    8.750    1.000 
#    2.250    0.000    0.000    0.000    0.000    0.000 
#    0.000    0.000    0.000    0.000    0.000    0.000 
#
# Total GULP energy -89228.306888 kJ/mol
# GULP energy per Si atom -5576.769181 kJ/mol
# Density = 2.309923 g / cm^3
# Si number density = 23.151924 Si / 1000 Ang^3
#
#
#
# Elastic Constant Matrix: (Units=GPa)
#
#
# Indices 1 2 3 4 5 6 
#
# 1 98.4362 37.9416 4.7915 0.0000 0.0000 0.0000
# 2 37.9416 184.4844 41.6534 0.0000 0.0000 0.0000
# 3 4.7915 41.6534 80.9553 0.0000 0.0000 0.0000
# 4 0.0000 0.0000 0.0000 283.8947 0.0000 0.0000
# 5 0.0000 0.0000 0.0000 0.0000 49.3170 0.0000
# 6 0.0000 0.0000 0.0000 0.0000 0.0000 9.6866
#
#
#
# Elastic Compliance Matrix: (Units=1/GPa)
#
#
# Indices 1 2 3 4 5 6 
#
# 1 0.011058 -0.002406 0.000583 0.000000 0.000000 0.000000
# 2 -0.002406 0.006656 -0.003282 0.000000 0.000000 0.000000
# 3 0.000583 -0.003282 0.014007 0.000000 0.000000 0.000000
# 4 0.000000 0.000000 0.000000 0.003522 0.000000 0.000000
# 5 0.000000 0.000000 0.000000 0.000000 0.020277 0.000000
# 6 0.000000 0.000000 0.000000 0.000000 0.000000 0.103235
#
#
# Mechanical properties :
#
#
# Convention : Reuss Voigt Hill
#
# Bulk Modulus (GPa) = 46.48748 59.18319 52.83534
# Shear Modulus (GPa) = 28.38712 87.21228 57.79970
#
# Velocity S-wave (km/s) = 3.50540 6.14421 5.00196
# Velocity P-wave (km/s) = 6.04208 8.71513 7.49868
#
# Compressibility (1/GPa) = 0.02151117
#
# Stress axis : x y z
#
# Youngs Moduli (GPa) = 90.43383 150.23028 71.39343
#
# Poissons Ratio (x) = 0.36144 -0.04165
# Poissons Ratio (y) = 0.21758 0.23435
# Poissons Ratio (z) = -0.05276 0.49313
#
# Static dielectric constant tensor:
#      x y z
#    x 1.875810 0.000000 0.000000 
#    y 0.000000 1.903210 0.000000 
#    z 0.000000 0.000000 1.862710 
# 
# From -- ./inp_files/13353.got.cif
#   From: 2010.05.17/outbox.cif.g08.bks.cpg/sg39_7_cif.got.tgz:13353.got - 2010.06.03 18:22:40.
