data_PCOD9362964
_publ_section_title
;
Structure prediction by ZEFSAII (Michael W. Deem and Ramdas Pophale) SiO2 
 PCOD9362964
Probable space group: A M A 2
;
_chemical_formula_sum "Si O2"
_cell_formula_units_Z 64
_cell_length_a 8.445442
_cell_length_b 21.918798
_cell_length_c 16.241344
_cell_angle_alpha 90.000000
_cell_angle_beta 90.000000
_cell_angle_gamma 90.000000
_cell_volume 3006.499134
_symmetry_space_group_name_H-M "A M A 2"
_symmetry_group_IT_number 40
_symmetry_cell_setting 'orthorhombic'
loop_
_space_group_symop_operation_xyz
x,y,z
-x,-y,z
1/2-x,y,z
1/2+x,-y,z
x,1/2+y,1/2+z
-x,1/2-y,1/2+z
1/2-x,1/2+y,1/2+z
1/2+x,1/2-y,1/2+z
loop_
_atom_site_type_symbol
_atom_site_label
_atom_site_fract_x
_atom_site_fract_y
_atom_site_fract_z
Si Si1 0.559940 0.436549 0.001510
Si Si2 0.437586 0.682078 0.245423
Si Si3 0.566939 0.752781 0.401143
Si Si4 0.560668 0.430194 0.498086
Si Si5 0.563322 0.068648 0.824561
Si Si6 0.557299 0.301642 0.067598
Si Si7 0.440776 0.569931 0.678563
Si Si8 0.435097 0.878112 0.346063
O O1 0.500000 0.500000 0.040273
O O2 0.750000 0.438419 0.993573
O O3 0.518202 0.372688 0.047094
O O4 0.476871 0.430236 0.912150
O O5 0.250000 0.681582 0.239883
O O6 0.484841 0.716030 0.328633
O O7 0.496173 0.613059 0.255577
O O8 0.498556 0.711302 0.160229
O O9 0.750000 0.734059 0.403826
O O10 0.499893 0.757056 0.494394
O O11 0.547908 0.822689 0.372070
O O12 0.500000 0.500000 0.500610
O O13 0.750000 0.430094 0.489624
O O14 0.487328 0.405011 0.414369
O O15 0.519209 0.403858 0.587658
O O16 0.750000 0.067194 0.820945
O O17 0.500000 0.000000 0.817842
O O18 0.750000 0.297843 0.064389
O O19 0.500000 0.500000 0.680218
O O20 0.250000 0.571005 0.687892
O O21 0.524438 0.603197 0.753643
O O22 0.250000 0.861339 0.353417
#
# Coordination Sequence:
#
# PCOD9362964 Si02
#       8
#     8   8   8   8   8   8   8   8
#     4  10  19  34  55  83 118 157 196 243 296 356
#     4  11  22  41  66  93 120 155 199 246 296 358
#     4  10  21  42  64  86 116 154 196 248 302 352
#     4   9  17  31  51  75 107 147 189 236 288 343
#     4  11  22  38  60  88 121 158 194 240 295 355
#     4   8  19  39  63  86 118 157 197 245 299 349
#     4  10  19  31  49  76 111 151 196 247 299 355
#     4  11  21  34  53  79 111 153 199 247 298 354
#
# _framework density 21.287216999999998
#
# number of rings (size 3 to 8) (size 9 to 14) (size 15 to 20)
#    0.000    2.000    0.000    6.000    0.000    2.000 
#    2.250    8.750    0.000    0.000    0.000    0.000 
#    0.000    0.000    0.000    0.000    0.000    0.000 
#
# Total GULP energy -178609.961641 kJ/mol
# GULP energy per Si atom -5581.561301 kJ/mol
# Density = 2.123877 g / cm^3
# Si number density = 21.287217 Si / 1000 Ang^3
#
#
#
# Elastic Constant Matrix: (Units=GPa)
#
#
# Indices 1 2 3 4 5 6 
#
# 1 64.0900 -1.2480 29.8523 0.0000 0.0000 0.0000
# 2 -1.2480 26.9395 25.8276 0.0000 0.0000 0.0000
# 3 29.8523 25.8276 150.7938 0.0000 0.0000 0.0000
# 4 0.0000 0.0000 0.0000 23.1251 0.0000 0.0000
# 5 0.0000 0.0000 0.0000 0.0000 22.3241 0.0000
# 6 0.0000 0.0000 0.0000 0.0000 0.0000 8.0012
#
#
#
# Elastic Compliance Matrix: (Units=1/GPa)
#
#
# Indices 1 2 3 4 5 6 
#
# 1 0.017736 0.005011 -0.004369 0.000000 0.000000 0.000000
# 2 0.005011 0.045829 -0.008841 0.000000 0.000000 0.000000
# 3 -0.004369 -0.008841 0.009011 0.000000 0.000000 0.000000
# 4 0.000000 0.000000 0.000000 0.043243 0.000000 0.000000
# 5 0.000000 0.000000 0.000000 0.000000 0.044795 0.000000
# 6 0.000000 0.000000 0.000000 0.000000 0.000000 0.124982
#
#
# Mechanical properties :
#
#
# Convention : Reuss Voigt Hill
#
# Bulk Modulus (GPa) = 17.80143 38.96523 28.38333
# Shear Modulus (GPa) = 15.58991 23.18285 19.38638
#
# Velocity S-wave (km/s) = 2.70915 3.30366 3.02106
# Velocity P-wave (km/s) = 4.26224 5.73554 5.05288
#
# Compressibility (1/GPa) = 0.05617526
#
# Stress axis : x y z
#
# Youngs Moduli (GPa) = 56.38319 21.82036 110.97703
#
# Poissons Ratio (x) = -0.10933 0.48489
# Poissons Ratio (y) = -0.28251 0.98119
# Poissons Ratio (z) = 0.24636 0.19292
#
# Static dielectric constant tensor:
#      x y z
#    x 1.714020 0.000000 0.000000 
#    y 0.000000 1.787710 0.000000 
#    z 0.000000 0.000000 1.822620 
# 
# From -- ./inp_files/15640.got.cif
#   From: 2010.05.17/outbox.cif.g08.bks.cpg/sg40_8_cif.got.tgz:15640.got - 2010.06.03 18:35:42.
