data_PCOD9362033
_publ_section_title
;
Structure prediction by ZEFSAII (Michael W. Deem and Ramdas Pophale) SiO2 
 PCOD9362033
Probable space group: A B M 2
;
_chemical_formula_sum "Si O2"
_cell_formula_units_Z 48
_cell_length_a 5.319849
_cell_length_b 27.438554
_cell_length_c 13.770149
_cell_angle_alpha 90.000000
_cell_angle_beta 90.000000
_cell_angle_gamma 90.000000
_cell_volume 2010.014384
_symmetry_space_group_name_H-M "A B M 2"
_symmetry_group_IT_number 39
_symmetry_cell_setting 'orthorhombic'
loop_
_space_group_symop_operation_xyz
x,y,z
-x,-y,z
-x,1/2+y,z
x,1/2-y,z
x,1/2+y,1/2+z
-x,1/2-y,1/2+z
-x,y,1/2+z
x,-y,1/2+z
loop_
_atom_site_type_symbol
_atom_site_label
_atom_site_fract_x
_atom_site_fract_y
_atom_site_fract_z
Si Si1 0.100713 0.194316 0.453730
Si Si2 0.443533 0.097157 0.744233
Si Si3 0.444804 0.387618 0.452295
Si Si4 0.749464 0.031335 0.076945
Si Si5 0.191501 0.146361 0.126402
Si Si6 0.849648 0.803318 0.754866
O O1 0.170710 0.250000 0.475494
O O2 0.320310 0.161282 0.411640
O O3 0.019230 0.165342 0.549583
O O4 0.889782 0.195297 0.370671
O O5 0.299375 0.057850 0.679695
O O6 0.729509 0.102988 0.702542
O O7 0.316047 0.150189 0.725707
O O8 0.426496 0.088178 0.858828
O O9 0.248777 0.426459 0.495876
O O10 0.607752 0.369280 0.543341
O O11 0.500000 0.000000 0.057107
O O12 0.000000 0.000000 0.075822
O O13 0.123928 0.188465 0.205202
O O14 0.751055 0.750000 0.727149
#
# Coordination Sequence:
#
# PCOD9362033 Si02
#       6
#     8   8   8   8   8   8
#     4  11  24  41  68 107 150 199 249 305 370 457
#     4  11  25  46  77 105 149 199 251 317 393 466
#     4  11  25  46  77 105 149 199 251 317 393 466
#     4  11  29  51  82 115 149 194 259 329 399 473
#     4  11  22  41  67 100 140 196 249 302 374 446
#     4  11  24  41  68 107 150 199 249 305 370 457
#
# _framework density 23.880428999999999
#
# number of rings (size 3 to 8) (size 9 to 14) (size 15 to 20)
#    0.000    1.000    3.333    2.500    9.333    4.000 
#    0.000    1.667    0.000    0.000    0.000    0.000 
#    0.000    0.000    0.000    0.000    0.000    0.000 
#
# Total GULP energy -133631.714942 kJ/mol
# GULP energy per Si atom -5567.988123 kJ/mol
# Density = 2.382608 g / cm^3
# Si number density = 23.880429 Si / 1000 Ang^3
#
#
#
# Elastic Constant Matrix: (Units=GPa)
#
#
# Indices 1 2 3 4 5 6 
#
# 1 66.6927 60.9482 22.7505 0.0000 0.0000 0.0000
# 2 60.9482 135.1165 34.6487 0.0000 0.0000 0.0000
# 3 22.7505 34.6487 149.4226 0.0000 0.0000 0.0000
# 4 0.0000 0.0000 0.0000 15.7270 0.0000 0.0000
# 5 0.0000 0.0000 0.0000 0.0000 22.2984 0.0000
# 6 0.0000 0.0000 0.0000 0.0000 0.0000 39.3979
#
#
#
# Elastic Compliance Matrix: (Units=1/GPa)
#
#
# Indices 1 2 3 4 5 6 
#
# 1 0.025747 -0.011279 -0.001305 0.000000 0.000000 0.000000
# 2 -0.011279 0.012810 -0.001253 0.000000 0.000000 0.000000
# 3 -0.001305 -0.001253 0.007182 0.000000 0.000000 0.000000
# 4 0.000000 0.000000 0.000000 0.063585 0.000000 0.000000
# 5 0.000000 0.000000 0.000000 0.000000 0.044846 0.000000
# 6 0.000000 0.000000 0.000000 0.000000 0.000000 0.025382
#
#
# Mechanical properties :
#
#
# Convention : Reuss Voigt Hill
#
# Bulk Modulus (GPa) = 55.35678 65.32517 60.34098
# Shear Modulus (GPa) = 23.44688 31.01029 27.22858
#
# Velocity S-wave (km/s) = 3.13684 3.60747 3.38036
# Velocity P-wave (km/s) = 6.02916 6.69076 6.36856
#
# Compressibility (1/GPa) = 0.01806463
#
# Stress axis : x y z
#
# Youngs Moduli (GPa) = 38.83936 78.06229 139.24377
#
# Poissons Ratio (x) = 0.88050 0.18166
# Poissons Ratio (y) = 0.43809 0.17449
# Poissons Ratio (z) = 0.05067 0.09782
#
# Static dielectric constant tensor:
#      x y z
#    x 2.067970 0.000000 0.000000 
#    y 0.000000 1.931540 0.000000 
#    z 0.000000 0.000000 1.936470 
# 
# From -- ./inp_files/7560.got.cif
#   From: 2010.05.17/outbox.cif.g08.bks.cpg/sg39_4_cif.got.tgz:7560.got - 2010.06.03 18:22:40.
