data_PCOD9362412
_publ_section_title
;
Structure prediction by ZEFSAII (Michael W. Deem and Ramdas Pophale) SiO2 
 PCOD9362412
Probable space group: A M A 2
;
_chemical_formula_sum "Si O2"
_cell_formula_units_Z 64
_cell_length_a 8.725172
_cell_length_b 27.359573
_cell_length_c 18.801684
_cell_angle_alpha 90.000000
_cell_angle_beta 90.000000
_cell_angle_gamma 90.000000
_cell_volume 4488.281229
_symmetry_space_group_name_H-M "A M A 2"
_symmetry_group_IT_number 40
_symmetry_cell_setting 'orthorhombic'
loop_
_space_group_symop_operation_xyz
x,y,z
-x,-y,z
1/2-x,y,z
1/2+x,-y,z
x,1/2+y,1/2+z
-x,1/2-y,1/2+z
1/2-x,1/2+y,1/2+z
1/2+x,1/2-y,1/2+z
loop_
_atom_site_type_symbol
_atom_site_label
_atom_site_fract_x
_atom_site_fract_y
_atom_site_fract_z
Si Si1 0.434610 0.947426 0.135110
Si Si2 0.065146 0.447392 0.799588
Si Si3 0.066473 0.703594 0.428315
Si Si4 0.934404 0.649086 0.551042
Si Si5 0.067767 0.202661 0.511176
Si Si6 0.931926 0.257483 0.634567
Si Si7 0.933370 0.743062 0.790335
Si Si8 0.934651 0.647873 0.885796
O O1 0.250000 0.949767 0.133982
O O2 0.481690 0.938311 0.217347
O O3 0.481489 0.902272 0.085764
O O4 0.500000 0.000000 0.113564
O O5 0.250000 0.449224 0.800853
O O6 0.016857 0.402704 0.849533
O O7 0.000000 0.500000 0.820931
O O8 0.250000 0.706481 0.437156
O O9 0.033332 0.712702 0.345323
O O10 0.001681 0.658058 0.472267
O O11 0.989928 0.749803 0.467604
O O12 0.750000 0.651836 0.548862
O O13 0.994793 0.693268 0.600823
O O14 0.250000 0.202327 0.516032
O O15 0.995439 0.211957 0.588412
O O16 0.008331 0.158501 0.462367
O O17 0.750000 0.260232 0.626521
O O18 0.980321 0.253637 0.716296
O O19 0.750000 0.742071 0.777317
O O20 0.972250 0.692753 0.832200
O O21 0.750000 0.648434 0.893551
#
# Coordination Sequence:
#
# PCOD9362412 Si02
#       8
#     8   8   8   8   8   8   8   8
#     4   9  18  30  43  60  82 110 141 174 209 241
#     4   9  17  29  43  59  82 110 140 174 209 242
#     4   9  17  29  43  59  81 108 137 169 206 246
#     4  10  18  29  44  60  82 111 142 173 208 246
#     4  10  18  28  42  59  81 107 137 172 206 243
#     4  11  20  28  41  61  84 110 141 172 204 245
#     4   9  17  29  43  59  82 110 139 171 207 245
#     4   9  17  30  45  59  81 112 141 171 209 248
#
# _framework density 14.259356
#
# number of rings (size 3 to 8) (size 9 to 14) (size 15 to 20)
#    0.000    2.500    0.000    6.000    0.000    6.000 
#    0.000    2.500    0.000    0.000    0.000    0.000 
#    0.000    1.000    0.000    5.000    0.000    4.875 
#
# Total GULP energy -178283.003347 kJ/mol
# GULP energy per Si atom -5571.343855 kJ/mol
# Density = 1.422690 g / cm^3
# Si number density = 14.259356 Si / 1000 Ang^3
#
#
#
# Elastic Constant Matrix: (Units=GPa)
#
#
# Indices 1 2 3 4 5 6 
#
# 1 53.3623 28.9559 39.1148 0.0000 0.0000 0.0000
# 2 28.9559 94.9952 56.8617 0.0000 0.0000 0.0000
# 3 39.1148 56.8617 95.4333 0.0000 0.0000 0.0000
# 4 0.0000 0.0000 0.0000 27.3291 0.0000 0.0000
# 5 0.0000 0.0000 0.0000 0.0000 35.4906 0.0000
# 6 0.0000 0.0000 0.0000 0.0000 0.0000 20.9380
#
#
#
# Elastic Compliance Matrix: (Units=1/GPa)
#
#
# Indices 1 2 3 4 5 6 
#
# 1 0.027168 -0.002512 -0.009639 0.000000 0.000000 0.000000
# 2 -0.002512 0.016595 -0.008858 0.000000 0.000000 0.000000
# 3 -0.009639 -0.008858 0.019707 0.000000 0.000000 0.000000
# 4 0.000000 0.000000 0.000000 0.036591 0.000000 0.000000
# 5 0.000000 0.000000 0.000000 0.000000 0.028176 0.000000
# 6 0.000000 0.000000 0.000000 0.000000 0.000000 0.047760
#
#
# Mechanical properties :
#
#
# Convention : Reuss Voigt Hill
#
# Bulk Modulus (GPa) = 46.61428 54.85063 50.73245
# Shear Modulus (GPa) = 22.20595 24.67543 23.44069
#
# Velocity S-wave (km/s) = 3.95053 4.16441 4.05888
# Velocity P-wave (km/s) = 7.31917 7.85321 7.59089
#
# Compressibility (1/GPa) = 0.02145265
#
# Stress axis : x y z
#
# Youngs Moduli (GPa) = 36.80810 60.26024 50.74355
#
# Poissons Ratio (x) = 0.15136 0.48910
# Poissons Ratio (y) = 0.09245 0.44949
# Poissons Ratio (z) = 0.35478 0.53379
#
# Static dielectric constant tensor:
#      x y z
#    x 1.478140 0.000000 0.000000 
#    y 0.000000 1.467550 0.000000 
#    z 0.000000 0.000000 1.483520 
# 
# From -- ./inp_files/19775.got.cif
#   From: 2010.05.17/outbox.cif.g08.bks.cpg/sg40_10_cif.got.tgz:19775.got - 2010.06.03 18:35:42.
