data_PCOD9362095
_publ_section_title
;
Structure prediction by ZEFSAII (Michael W. Deem and Ramdas Pophale) SiO2 
 PCOD9362095
Probable space group: A B M 2
;
_chemical_formula_sum "Si O2"
_cell_formula_units_Z 48
_cell_length_a 25.921573
_cell_length_b 9.083694
_cell_length_c 9.830798
_cell_angle_alpha 90.000000
_cell_angle_beta 90.000000
_cell_angle_gamma 90.000000
_cell_volume 2314.795453
_symmetry_space_group_name_H-M "A B M 2"
_symmetry_group_IT_number 39
_symmetry_cell_setting 'orthorhombic'
loop_
_space_group_symop_operation_xyz
x,y,z
-x,-y,z
-x,1/2+y,z
x,1/2-y,z
x,1/2+y,1/2+z
-x,1/2-y,1/2+z
-x,y,1/2+z
x,-y,1/2+z
loop_
_atom_site_type_symbol
_atom_site_label
_atom_site_fract_x
_atom_site_fract_y
_atom_site_fract_z
Si Si1 0.782157 0.575539 0.880410
Si Si2 0.554768 0.921345 0.480512
Si Si3 0.054785 0.078354 0.237862
Si Si4 0.618399 0.578558 0.751846
Si Si5 0.118239 0.921847 0.008700
Si Si6 0.278207 0.424377 0.148688
O O1 0.788798 0.750000 0.859218
O O2 0.832693 0.505366 0.947241
O O3 0.766321 0.494696 0.742429
O O4 0.736559 0.553493 0.991282
O O5 0.550121 0.750000 0.442849
O O6 0.574916 0.930298 0.634832
O O7 0.500000 0.000000 0.465840
O O8 0.596530 0.998538 0.384040
O O9 0.050998 0.250000 0.199326
O O10 0.096622 0.998725 0.142982
O O11 0.074104 0.070123 0.392999
O O12 0.000000 0.000000 0.222004
O O13 0.629316 0.750000 0.780261
O O14 0.669164 0.501994 0.692430
O O15 0.130368 0.750000 0.032810
O O16 0.281077 0.250000 0.173781
#
# Coordination Sequence:
#
# PCOD9362095 Si02
#       6
#     8   8   8   8   8   8
#     4  11  24  41  63  91 123 160 202 249 301 358
#     4  11  24  41  63  91 123 160 202 249 301 358
#     4  11  24  41  62  90 122 158 202 249 300 358
#     4  11  24  41  63  91 122 159 202 248 301 358
#     4  11  24  41  63  91 123 160 202 249 301 358
#     4  11  24  41  62  90 123 159 202 250 300 358
#
# _framework density 20.736172
#
# number of rings (size 3 to 8) (size 9 to 14) (size 15 to 20)
#    0.000    1.000    0.000    6.000    0.000   17.333 
#    0.000    0.000    0.000    0.000    0.000    0.000 
#    0.000    0.000    0.000    0.000    0.000    0.000 
#
# Total GULP energy -134410.455974 kJ/mol
# GULP energy per Si atom -5600.435666 kJ/mol
# Density = 2.068898 g / cm^3
# Si number density = 20.736172 Si / 1000 Ang^3
#
#
#
# Elastic Constant Matrix: (Units=GPa)
#
#
# Indices 1 2 3 4 5 6 
#
# 1 63.8990 14.1198 -17.3140 0.0000 0.0000 0.0000
# 2 14.1198 126.5811 31.7672 0.0000 0.0000 0.0000
# 3 -17.3140 31.7672 60.9006 0.0000 0.0000 0.0000
# 4 0.0000 0.0000 0.0000 34.3918 0.0000 0.0000
# 5 0.0000 0.0000 0.0000 0.0000 29.9745 0.0000
# 6 0.0000 0.0000 0.0000 0.0000 0.0000 43.9409
#
#
#
# Elastic Compliance Matrix: (Units=1/GPa)
#
#
# Indices 1 2 3 4 5 6 
#
# 1 0.018483 -0.003890 0.007284 0.000000 0.000000 0.000000
# 2 -0.003890 0.009909 -0.006274 0.000000 0.000000 0.000000
# 3 0.007284 -0.006274 0.021764 0.000000 0.000000 0.000000
# 4 0.000000 0.000000 0.000000 0.029077 0.000000 0.000000
# 5 0.000000 0.000000 0.000000 0.000000 0.033362 0.000000
# 6 0.000000 0.000000 0.000000 0.000000 0.000000 0.022758
#
#
# Mechanical properties :
#
#
# Convention : Reuss Voigt Hill
#
# Bulk Modulus (GPa) = 22.52547 34.28076 28.40311
# Shear Modulus (GPa) = 32.06973 36.51528 34.29250
#
# Velocity S-wave (km/s) = 3.93690 4.20092 4.07105
# Velocity P-wave (km/s) = 5.61712 6.33230 5.98540
#
# Compressibility (1/GPa) = 0.04439419
#
# Stress axis : x y z
#
# Youngs Moduli (GPa) = 54.10457 100.92260 45.94794
#
# Poissons Ratio (x) = 0.39255 -0.33466
# Poissons Ratio (y) = 0.21045 0.28829
# Poissons Ratio (z) = -0.39407 0.63323
#
# Static dielectric constant tensor:
#      x y z
#    x 1.721240 0.000000 0.000000 
#    y 0.000000 1.692640 0.000000 
#    z 0.000000 0.000000 1.713280 
# 
# From -- ./inp_files/4141.got.cif
#   From: 2010.05.17/outbox.cif.g08.bks.cpg/sg39_3_cif.got.tgz:4141.got - 2010.06.03 18:22:40.
