data_PCOD9362052
_publ_section_title
;
Structure prediction by ZEFSAII (Michael W. Deem and Ramdas Pophale) SiO2 
 PCOD9362052
Probable space group: A B M 2
;
_chemical_formula_sum "Si O2"
_cell_formula_units_Z 64
_cell_length_a 7.991053
_cell_length_b 22.154450
_cell_length_c 14.891145
_cell_angle_alpha 90.000000
_cell_angle_beta 90.000000
_cell_angle_gamma 90.000000
_cell_volume 2636.289358
_symmetry_space_group_name_H-M "A B M 2"
_symmetry_group_IT_number 39
_symmetry_cell_setting 'orthorhombic'
loop_
_space_group_symop_operation_xyz
x,y,z
-x,-y,z
-x,1/2+y,z
x,1/2-y,z
x,1/2+y,1/2+z
-x,1/2-y,1/2+z
-x,y,1/2+z
x,-y,1/2+z
loop_
_atom_site_type_symbol
_atom_site_label
_atom_site_fract_x
_atom_site_fract_y
_atom_site_fract_z
Si Si1 0.201501 0.494354 0.422690
Si Si2 0.072821 0.179661 0.294379
Si Si3 0.343611 0.122916 0.509237
Si Si4 0.834470 0.542907 0.234638
Si Si5 0.273366 0.818425 0.184878
Si Si6 0.701229 0.586827 0.060372
Si Si7 0.110768 0.317356 0.975616
Si Si8 0.450866 0.819789 0.355452
O O1 0.256816 0.438594 0.482465
O O2 0.255129 0.485407 0.320669
O O3 0.284798 0.551992 0.466452
O O4 0.000000 0.500000 0.424325
O O5 0.141278 0.250000 0.285110
O O6 0.898020 0.182672 0.240554
O O7 0.029217 0.170261 0.400528
O O8 0.144407 0.114678 0.260555
O O9 0.240244 0.156038 0.586159
O O10 0.518534 0.114216 0.562910
O O11 0.402279 0.153386 0.416183
O O12 0.736819 0.542714 0.141953
O O13 0.000000 0.500000 0.223498
O O14 0.332168 0.750000 0.169188
O O15 0.403525 0.846998 0.258017
O O16 0.849267 0.635879 0.053750
O O17 0.086916 0.250000 0.010881
O O18 0.283712 0.319254 0.917250
O O19 0.490743 0.750000 0.340170
#
# Coordination Sequence:
#
# PCOD9362052 Si02
#       8
#     8   8   8   8   8   8   8   8
#     4  11  26  47  64  90 133 177 225 285 333 401
#     4   9  19  39  64  99 136 178 231 282 338 409
#     4  11  23  39  67  95 130 174 227 276 338 401
#     4  11  25  43  70  94 136 189 225 282 351 406
#     4   9  19  36  64  98 135 177 219 273 340 405
#     4  11  24  42  65 101 129 171 228 281 339 407
#     4   8  15  33  62  90 129 173 215 269 337 399
#     4   8  16  33  58  91 130 169 212 270 333 398
#
# _framework density 24.276547000000001
#
# number of rings (size 3 to 8) (size 9 to 14) (size 15 to 20)
#    0.000    2.250    0.000    4.125    5.250    1.000 
#    0.000    2.500    0.000    0.000    0.000    0.000 
#    0.000    0.000    0.000    0.000    0.000    0.000 
#
# Total GULP energy -178716.235408 kJ/mol
# GULP energy per Si atom -5584.882357 kJ/mol
# Density = 2.422129 g / cm^3
# Si number density = 24.276547 Si / 1000 Ang^3
#
#
#
# Elastic Constant Matrix: (Units=GPa)
#
#
# Indices 1 2 3 4 5 6 
#
# 1 52.7616 0.4046 3.6658 0.0000 0.0000 0.0000
# 2 0.4046 82.7714 22.8825 0.0000 0.0000 0.0000
# 3 3.6658 22.8825 122.7623 0.0000 0.0000 0.0000
# 4 0.0000 0.0000 0.0000 40.9107 0.0000 0.0000
# 5 0.0000 0.0000 0.0000 0.0000 45.7368 0.0000
# 6 0.0000 0.0000 0.0000 0.0000 0.0000 13.5354
#
#
#
# Elastic Compliance Matrix: (Units=1/GPa)
#
#
# Indices 1 2 3 4 5 6 
#
# 1 0.018993 0.000067 -0.000580 0.000000 0.000000 0.000000
# 2 0.000067 0.012738 -0.002376 0.000000 0.000000 0.000000
# 3 -0.000580 -0.002376 0.008606 0.000000 0.000000 0.000000
# 4 0.000000 0.000000 0.000000 0.024443 0.000000 0.000000
# 5 0.000000 0.000000 0.000000 0.000000 0.021864 0.000000
# 6 0.000000 0.000000 0.000000 0.000000 0.000000 0.073880
#
#
# Mechanical properties :
#
#
# Convention : Reuss Voigt Hill
#
# Bulk Modulus (GPa) = 28.93532 34.68901 31.81217
# Shear Modulus (GPa) = 28.11796 35.45940 31.78868
#
# Velocity S-wave (km/s) = 3.40698 3.82598 3.62254
# Velocity P-wave (km/s) = 5.23656 5.81701 5.53440
#
# Compressibility (1/GPa) = 0.03455983
#
# Stress axis : x y z
#
# Youngs Moduli (GPa) = 52.65110 78.50465 116.19688
#
# Poissons Ratio (x) = -0.00529 0.06736
# Poissons Ratio (y) = -0.00355 0.27613
# Poissons Ratio (z) = 0.03052 0.18656
#
# Static dielectric constant tensor:
#      x y z
#    x 1.876710 0.000000 0.000000 
#    y 0.000000 1.949190 0.000000 
#    z 0.000000 0.000000 1.922590 
# 
# From -- ./inp_files/8771.got.cif
#   From: 2010.05.17/outbox.cif.g08.bks.cpg/sg39_5_cif.got.tgz:8771.got - 2010.06.03 18:22:40.
