data_PCOD9362008
_publ_section_title
;
Structure prediction by ZEFSAII (Michael W. Deem and Ramdas Pophale) SiO2 
 PCOD9362008
Probable space group: A B M 2
;
_chemical_formula_sum "Si O2"
_cell_formula_units_Z 48
_cell_length_a 8.764091
_cell_length_b 14.295832
_cell_length_c 19.123303
_cell_angle_alpha 90.000000
_cell_angle_beta 90.000000
_cell_angle_gamma 90.000000
_cell_volume 2395.958108
_symmetry_space_group_name_H-M "A B M 2"
_symmetry_group_IT_number 39
_symmetry_cell_setting 'orthorhombic'
loop_
_space_group_symop_operation_xyz
x,y,z
-x,-y,z
-x,1/2+y,z
x,1/2-y,z
x,1/2+y,1/2+z
-x,1/2-y,1/2+z
-x,y,1/2+z
x,-y,1/2+z
loop_
_atom_site_type_symbol
_atom_site_label
_atom_site_fract_x
_atom_site_fract_y
_atom_site_fract_z
Si Si1 0.659756 0.958729 0.108610
Si Si2 0.856431 0.557958 0.495230
Si Si3 0.830790 0.460507 0.241627
Si Si4 0.300089 0.750000 0.617730
Si Si5 0.257018 0.250000 0.284939
Si Si6 0.029362 0.250000 0.565295
Si Si7 0.082898 0.250000 0.733255
Si Si8 0.341203 0.441731 0.360225
O O1 0.627604 0.849234 0.105244
O O2 0.500000 0.000000 0.087884
O O3 0.715693 0.995759 0.184325
O O4 0.790455 0.992960 0.056678
O O5 0.726677 0.571884 0.437306
O O6 0.000000 0.500000 0.465500
O O7 0.906236 0.657059 0.528591
O O8 0.833300 0.348449 0.243968
O O9 0.778366 0.497153 0.316167
O O10 0.000000 0.500000 0.224611
O O11 0.277463 0.750000 0.701512
O O12 0.153089 0.750000 0.567170
O O13 0.332050 0.341206 0.320711
O O14 0.069443 0.250000 0.283163
O O15 0.056433 0.250000 0.649135
O O16 0.500000 0.500000 0.359836
#
# Coordination Sequence:
#
# PCOD9362008 Si02
#       8
#     8   8   8   4   4   4   4   8
#     4  12  25  43  70 105 144 184 225 295 360 420
#     4  12  25  45  71  97 136 185 239 287 348 421
#     4  12  22  43  70 103 136 181 236 286 345 420
#     4  11  22  42  72 107 140 177 236 291 347 425
#     4  11  23  43  74  97 141 184 225 293 347 411
#     4  11  21  43  72 106 131 179 237 296 342 415
#     4  11  22  38  74 110 134 170 242 290 336 417
#     4  12  27  47  67 102 144 185 231 290 362 423
#
# _framework density 20.033739000000001
#
# number of rings (size 3 to 8) (size 9 to 14) (size 15 to 20)
#    0.000    0.333    6.667    3.500    0.000    2.000 
#    0.000    4.167    0.000    0.000    0.000    0.000 
#    0.000    0.000    0.000    0.000    0.000    0.000 
#
# Total GULP energy -133956.155124 kJ/mol
# GULP energy per Si atom -5581.506464 kJ/mol
# Density = 1.998814 g / cm^3
# Si number density = 20.033739 Si / 1000 Ang^3
#
#
#
# Elastic Constant Matrix: (Units=GPa)
#
#
# Indices 1 2 3 4 5 6 
#
# 1 60.4292 41.9995 11.4883 0.0000 0.0000 0.0000
# 2 41.9995 213.5721 29.4746 0.0000 0.0000 0.0000
# 3 11.4883 29.4746 75.2197 0.0000 0.0000 0.0000
# 4 0.0000 0.0000 0.0000 34.2450 0.0000 0.0000
# 5 0.0000 0.0000 0.0000 0.0000 -6.1178 0.0000
# 6 0.0000 0.0000 0.0000 0.0000 0.0000 -37.0648
#
#
#
# Elastic Compliance Matrix: (Units=1/GPa)
#
#
# Indices 1 2 3 4 5 6 
#
# 1 0.019337 -0.003589 -0.001547 0.000000 0.000000 0.000000
# 2 -0.003589 0.005616 -0.001652 0.000000 0.000000 0.000000
# 3 -0.001547 -0.001652 0.014178 0.000000 0.000000 0.000000
# 4 0.000000 0.000000 0.000000 0.029201 0.000000 0.000000
# 5 0.000000 0.000000 0.000000 0.000000 -0.163458 0.000000
# 6 0.000000 0.000000 0.000000 0.000000 0.000000 -0.026980
#
#
# Mechanical properties :
#
#
# Convention : Reuss Voigt Hill
#
# Bulk Modulus (GPa) = 39.13273 57.23843 48.18558
# Shear Modulus (GPa) = -49.99513 15.96303 -17.01605
#
# Velocity S-wave (km/s) = -5.00096 2.82584 -2.91756
# Velocity P-wave (km/s) = 3.71085 6.26739 3.57140
#
# Compressibility (1/GPa) = 0.02555406
#
# Stress axis : x y z
#
# Youngs Moduli (GPa) = 51.71454 178.05844 70.53091
#
# Poissons Ratio (x) = 0.63908 0.10911
# Poissons Ratio (y) = 0.18561 0.11655
# Poissons Ratio (z) = 0.08000 0.29424
#
# Static dielectric constant tensor:
#      x y z
#    x 1.734370 0.000000 0.000000 
#    y 0.000000 1.645170 0.000000 
#    z 0.000000 0.000000 1.687100 
# 
# From -- ./inp_files/11661.got.cif
#   From: 2010.05.17/outbox.cif.g08.bks.cpg/sg39_6_cif.got.tgz:11661.got - 2010.06.03 18:22:40.
