data_PCOD9362224
_publ_section_title
;
Structure prediction by ZEFSAII (Michael W. Deem and Ramdas Pophale) SiO2 
 PCOD9362224
Probable space group: A B M 2
;
_chemical_formula_sum "Si O2"
_cell_formula_units_Z 24
_cell_length_a 18.000000
_cell_length_b 15.000000
_cell_length_c 9.000000
_cell_angle_alpha 90.000000
_cell_angle_beta 90.000000
_cell_angle_gamma 90.000000
_cell_volume 2430.000000
_symmetry_space_group_name_H-M "A B M 2"
_symmetry_group_IT_number 39
_symmetry_cell_setting 'orthorhombic'
loop_
_space_group_symop_operation_xyz
x,y,z
-x,-y,z
-x,1/2+y,z
x,1/2-y,z
x,1/2+y,1/2+z
-x,1/2-y,1/2+z
-x,y,1/2+z
x,-y,1/2+z
loop_
_atom_site_type_symbol
_atom_site_label
_atom_site_fract_x
_atom_site_fract_y
_atom_site_fract_z
Si Si1 0.097882 0.653882 0.858230
Si Si2 0.040348 0.093917 0.046540
Si Si3 0.301366 0.984631 0.208454
Si Si4 0.587126 0.353741 0.744675
Si Si5 0.569542 0.353613 0.097619
Si Si6 0.190781 0.014169 0.951409
O O1 0.132293 0.750000 0.881786
O O2 0.067035 0.642374 0.693178
O O3 0.157764 0.578368 0.890945
O O4 0.024540 0.643041 0.958970
O O5 0.000000 0.000000 0.087648
O O6 0.116732 0.074710 0.956946
O O7 0.362687 0.914103 0.154301
O O8 0.345516 0.078205 0.217160
O O9 0.263105 0.954849 0.361436
O O10 0.227504 0.995021 0.109537
O O11 0.604229 0.250000 0.706709
O O12 0.511586 0.380712 0.658890
O O13 0.569329 0.357961 0.919660
O O14 0.580523 0.250000 0.142448
#
# Coordination Sequence:
#
# PCOD9362224 Si02
#       6
#     8   8   8   8   8   8
#     4  11  23  40  64  90 119 157 204 251 298 358
#     4  10  21  41  63  86 119 159 201 245 299 366
#     4  12  23  41  64  91 124 165 202 248 311 364
#     4  10  23  42  64  90 122 163 207 252 300 362
#     4  10  23  42  64  90 123 162 208 253 300 362
#     4  11  24  40  62  89 122 162 200 246 306 365
#
# _framework density 9.8765429999999999
#
# number of rings (size 3 to 8) (size 9 to 14) (size 15 to 20)
#    0.000    1.333    3.333    2.500    4.667    2.667 
#    0.000    1.667    0.000    0.000    0.000    0.000 
#    0.000    0.000    0.000    0.000    0.000    0.000 
#
# Total GULP energy -133904.596111 kJ/mol
# GULP energy per Si atom -5579.358171 kJ/mol
# Density = 0.985406 g / cm^3
# Si number density = 9.876543 Si / 1000 Ang^3
#
#
#
# Elastic Constant Matrix: (Units=GPa)
#
#
# Indices 1 2 3 4 5 6 
#
# 1 89.3491 13.8324 22.1786 0.0000 0.0000 0.0000
# 2 13.8324 28.3960 46.6268 0.0000 0.0000 0.0000
# 3 22.1786 46.6268 40.1335 0.0000 0.0000 0.0000
# 4 0.0000 0.0000 0.0000 35.4185 0.0000 0.0000
# 5 0.0000 0.0000 0.0000 0.0000 45.7643 0.0000
# 6 0.0000 0.0000 0.0000 0.0000 0.0000 -4.9831
#
#
#
# Elastic Compliance Matrix: (Units=1/GPa)
#
#
# Indices 1 2 3 4 5 6 
#
# 1 0.012104 -0.005604 -0.000178 0.000000 0.000000 0.000000
# 2 -0.005604 -0.036203 0.045157 0.000000 0.000000 0.000000
# 3 -0.000178 0.045157 -0.027448 0.000000 0.000000 0.000000
# 4 0.000000 0.000000 0.000000 0.028234 0.000000 0.000000
# 5 0.000000 0.000000 0.000000 0.000000 0.021851 0.000000
# 6 0.000000 0.000000 0.000000 0.000000 0.000000 -0.200680
#
#
# Mechanical properties :
#
#
# Convention : Reuss Voigt Hill
#
# Bulk Modulus (GPa) = 36.76057 35.90603 36.33330
# Shear Modulus (GPa) = -18.39421 20.25600 0.93090
#
# Velocity S-wave (km/s) = -3.05488 3.20575 0.68723
# Velocity P-wave (km/s) = 2.49146 5.64972 4.36616
#
# Compressibility (1/GPa) = 0.02720306
#
# Stress axis : x y z
#
# Youngs Moduli (GPa) = 82.61880 -27.62224 -36.43205
#
# Poissons Ratio (x) = -0.15481 -0.00647
# Poissons Ratio (y) = 0.46303 1.64517
# Poissons Ratio (z) = 0.01467 1.24734
#
# Static dielectric constant tensor:
#      x y z
#    x 1.616600 0.000000 0.000000 
#    y 0.000000 1.690660 0.000000 
#    z 0.000000 0.000000 1.889140 
# 
# From -- ./inp_files/3249.got.cif
#   From: 2010.05.17/outbox.ucp.g08.bks.cvg/sg39_2_cif.got.tgz:3249.got - 2010.06.11 10:41:16.
