data_PCOD9362319
_publ_section_title
;
Structure prediction by ZEFSAII (Michael W. Deem and Ramdas Pophale) SiO2 
 PCOD9362319
Probable space group: A M A 2
;
_chemical_formula_sum "Si O2"
_cell_formula_units_Z 48
_cell_length_a 18.452126
_cell_length_b 13.549562
_cell_length_c 8.043317
_cell_angle_alpha 90.000000
_cell_angle_beta 90.000000
_cell_angle_gamma 90.000000
_cell_volume 2010.975842
_symmetry_space_group_name_H-M "A M A 2"
_symmetry_group_IT_number 40
_symmetry_cell_setting 'orthorhombic'
loop_
_space_group_symop_operation_xyz
x,y,z
-x,-y,z
1/2-x,y,z
1/2+x,-y,z
x,1/2+y,1/2+z
-x,1/2-y,1/2+z
1/2-x,1/2+y,1/2+z
1/2+x,1/2-y,1/2+z
loop_
_atom_site_type_symbol
_atom_site_label
_atom_site_fract_x
_atom_site_fract_y
_atom_site_fract_z
Si Si1 0.164917 0.560023 0.418120
Si Si2 0.436739 0.783077 0.750751
Si Si3 0.578561 0.955268 0.236864
Si Si4 0.909436 0.739117 0.884006
Si Si5 0.667025 0.447803 0.055766
Si Si6 0.334071 0.292817 0.553762
O O1 0.250000 0.542937 0.428053
O O2 0.123808 0.517302 0.574340
O O3 0.150479 0.677790 0.423849
O O4 0.138788 0.525038 0.237781
O O5 0.429489 0.663725 0.740349
O O6 0.517492 0.796121 0.824255
O O7 0.427384 0.815039 0.558186
O O8 0.377658 0.818498 0.885345
O O9 0.619846 0.982664 0.403965
O O10 0.500000 0.000000 0.230242
O O11 0.878489 0.683143 0.722411
O O12 0.750000 0.481751 0.038448
O O13 0.667935 0.327859 0.052240
O O14 0.250000 0.325561 0.556027
#
# Coordination Sequence:
#
# PCOD9362319 Si02
#       6
#     8   8   8   8   8   8
#     4   9  18  32  53  76  97 127 172 218 249 288
#     4  10  19  30  49  73 104 133 163 207 262 298
#     4  10  20  31  47  75 105 133 167 201 249 304
#     4  10  17  29  49  75 102 131 160 208 263 302
#     4   8  15  29  49  70  93 122 162 211 245 276
#     4   9  17  29  47  73 100 126 164 207 251 299
#
# _framework density 23.869008000000001
#
# number of rings (size 3 to 8) (size 9 to 14) (size 15 to 20)
#    0.000    2.667    1.667    2.000    0.000    5.333 
#    0.000    0.000    0.000    4.000    0.000    0.000 
#    0.000    0.000    0.000    0.000    0.000    0.000 
#
# Total GULP energy -134259.545189 kJ/mol
# GULP energy per Si atom -5594.147716 kJ/mol
# Density = 2.381468 g / cm^3
# Si number density = 23.869008 Si / 1000 Ang^3
#
#
#
# Elastic Constant Matrix: (Units=GPa)
#
#
# Indices 1 2 3 4 5 6 
#
# 1 139.7977 -6.2977 111.6265 0.0000 0.0000 0.0000
# 2 -6.2977 62.9887 26.3579 0.0000 0.0000 0.0000
# 3 111.6265 26.3579 228.3492 0.0000 0.0000 0.0000
# 4 0.0000 0.0000 0.0000 29.9715 0.0000 0.0000
# 5 0.0000 0.0000 0.0000 0.0000 48.8549 0.0000
# 6 0.0000 0.0000 0.0000 0.0000 0.0000 17.4473
#
#
#
# Elastic Compliance Matrix: (Units=1/GPa)
#
#
# Indices 1 2 3 4 5 6 
#
# 1 0.012644 0.004046 -0.006648 0.000000 0.000000 0.000000
# 2 0.004046 0.017976 -0.004053 0.000000 0.000000 0.000000
# 3 -0.006648 -0.004053 0.008097 0.000000 0.000000 0.000000
# 4 0.000000 0.000000 0.000000 0.033365 0.000000 0.000000
# 5 0.000000 0.000000 0.000000 0.000000 0.020469 0.000000
# 6 0.000000 0.000000 0.000000 0.000000 0.000000 0.057316
#
#
# Mechanical properties :
#
#
# Convention : Reuss Voigt Hill
#
# Bulk Modulus (GPa) = 39.35863 77.16768 58.26316
# Shear Modulus (GPa) = 29.13003 39.21799 34.17401
#
# Velocity S-wave (km/s) = 3.49723 4.05785 3.78793
# Velocity P-wave (km/s) = 5.72998 7.37257 6.60255
#
# Compressibility (1/GPa) = 0.02540739
#
# Stress axis : x y z
#
# Youngs Moduli (GPa) = 79.09183 55.62887 123.50681
#
# Poissons Ratio (x) = -0.22507 0.82103
# Poissons Ratio (y) = -0.32000 0.50054
# Poissons Ratio (z) = 0.52578 0.22545
#
# Static dielectric constant tensor:
#      x y z
#    x 1.844290 0.000000 0.000000 
#    y 0.000000 1.992350 0.000000 
#    z 0.000000 0.000000 1.895890 
# 
# From -- ./inp_files/6584.got.cif
#   From: 2010.05.17/outbox.cif.g08.bks.cpg/sg40_4_cif.got.tgz:6584.got - 2010.06.03 18:35:42.
