data_PCOD9362043
_publ_section_title
;
Structure prediction by ZEFSAII (Michael W. Deem and Ramdas Pophale) SiO2 
 PCOD9362043
Probable space group: A B M 2
;
_chemical_formula_sum "Si O2"
_cell_formula_units_Z 64
_cell_length_a 7.418535
_cell_length_b 14.562168
_cell_length_c 25.126235
_cell_angle_alpha 90.000000
_cell_angle_beta 90.000000
_cell_angle_gamma 90.000000
_cell_volume 2714.385986
_symmetry_space_group_name_H-M "A B M 2"
_symmetry_group_IT_number 39
_symmetry_cell_setting 'orthorhombic'
loop_
_space_group_symop_operation_xyz
x,y,z
-x,-y,z
-x,1/2+y,z
x,1/2-y,z
x,1/2+y,1/2+z
-x,1/2-y,1/2+z
-x,y,1/2+z
x,-y,1/2+z
loop_
_atom_site_type_symbol
_atom_site_label
_atom_site_fract_x
_atom_site_fract_y
_atom_site_fract_z
Si Si1 0.788715 0.853709 0.833050
Si Si2 0.098038 0.637884 0.691591
Si Si3 0.385343 0.853358 0.107332
Si Si4 0.291191 0.021944 0.399396
Si Si5 0.206993 0.353284 0.300413
Si Si6 0.690709 0.638358 0.721657
Si Si7 0.717074 0.021520 0.015784
Si Si8 0.200747 0.646746 0.574181
O O1 0.734668 0.750000 0.848581
O O2 0.666330 0.889697 0.783307
O O3 0.990595 0.847771 0.809533
O O4 0.795874 0.926251 0.880367
O O5 0.112241 0.750000 0.692702
O O6 0.224284 0.606527 0.740675
O O7 0.136913 0.611090 0.631599
O O8 0.894208 0.612204 0.705111
O O9 0.309119 0.750000 0.111534
O O10 0.412533 0.888725 0.167818
O O11 0.266211 0.912354 0.066855
O O12 0.583071 0.846924 0.082200
O O13 0.272286 0.091023 0.350641
O O14 0.230228 0.056316 0.457323
O O15 0.500000 0.000000 0.404428
O O16 0.281345 0.250000 0.300692
O O17 0.678322 0.750000 0.725337
O O18 0.500000 0.000000 0.014376
O O19 0.823367 0.928037 0.028706
O O20 0.132678 0.750000 0.563933
#
# Coordination Sequence:
#
# PCOD9362043 Si02
#       8
#     8   8   8   8   8   8   8   8
#     4   9  19  37  58  78 106 143 175 210 263 320
#     4   8  15  30  52  77 103 129 160 202 255 312
#     4   9  17  31  52  74  98 130 164 202 250 303
#     4  11  23  36  53  78 106 139 182 227 262 301
#     4   9  19  37  58  78 106 143 175 210 263 320
#     4   8  15  30  52  77 103 129 160 202 255 312
#     4   9  20  36  49  68 100 135 172 209 250 303
#     4   9  17  31  52  74  98 130 164 202 250 303
#
# _framework density 23.578077
#
# number of rings (size 3 to 8) (size 9 to 14) (size 15 to 20)
#    0.000    3.000    0.000    1.875    0.000    3.500 
#    0.000   10.625    0.000    3.000    0.000    0.000 
#    0.000    0.000    0.000    0.000    0.000    0.000 
#
# Total GULP energy -178592.667184 kJ/mol
# GULP energy per Si atom -5581.020850 kJ/mol
# Density = 2.352441 g / cm^3
# Si number density = 23.578077 Si / 1000 Ang^3
#
#
#
# Elastic Constant Matrix: (Units=GPa)
#
#
# Indices 1 2 3 4 5 6 
#
# 1 23.0217 5.3495 13.2824 0.0000 0.0000 0.0000
# 2 5.3495 60.4024 41.3103 0.0000 0.0000 0.0000
# 3 13.2824 41.3103 128.5700 0.0000 0.0000 0.0000
# 4 0.0000 0.0000 0.0000 28.1549 0.0000 0.0000
# 5 0.0000 0.0000 0.0000 0.0000 47.7504 0.0000
# 6 0.0000 0.0000 0.0000 0.0000 0.0000 12.4598
#
#
#
# Elastic Compliance Matrix: (Units=1/GPa)
#
#
# Indices 1 2 3 4 5 6 
#
# 1 0.046244 -0.001061 -0.004436 0.000000 0.000000 0.000000
# 2 -0.001061 0.021243 -0.006716 0.000000 0.000000 0.000000
# 3 -0.004436 -0.006716 0.010394 0.000000 0.000000 0.000000
# 4 0.000000 0.000000 0.000000 0.035518 0.000000 0.000000
# 5 0.000000 0.000000 0.000000 0.000000 0.020942 0.000000
# 6 0.000000 0.000000 0.000000 0.000000 0.000000 0.080258
#
#
# Mechanical properties :
#
#
# Convention : Reuss Voigt Hill
#
# Bulk Modulus (GPa) = 18.70796 36.87538 27.79167
# Shear Modulus (GPa) = 19.46717 27.80982 23.63850
#
# Velocity S-wave (km/s) = 2.87652 3.43808 3.16976
# Velocity P-wave (km/s) = 4.35709 5.60662 5.02088
#
# Compressibility (1/GPa) = 0.05345318
#
# Stress axis : x y z
#
# Youngs Moduli (GPa) = 21.62465 47.07506 96.20960
#
# Poissons Ratio (x) = 0.04997 0.42681
# Poissons Ratio (y) = 0.02295 0.64612
# Poissons Ratio (z) = 0.09593 0.31614
#
# Static dielectric constant tensor:
#      x y z
#    x 1.931240 0.000000 0.000000 
#    y 0.000000 1.909240 0.000000 
#    z 0.000000 0.000000 1.909030 
# 
# From -- ./inp_files/15661.got.cif
#   From: 2010.05.17/outbox.cif.g08.bks.cpg/sg39_8_cif.got.tgz:15661.got - 2010.06.03 18:22:40.
