data_PCOD9362930
_publ_section_title
;
Structure prediction by ZEFSAII (Michael W. Deem and Ramdas Pophale) SiO2 
 PCOD9362930
Probable space group: A M A 2
;
_chemical_formula_sum "Si O2"
_cell_formula_units_Z 56
_cell_length_a 8.604397
_cell_length_b 13.882331
_cell_length_c 29.986287
_cell_angle_alpha 90.000000
_cell_angle_beta 90.000000
_cell_angle_gamma 90.000000
_cell_volume 3581.834611
_symmetry_space_group_name_H-M "A M A 2"
_symmetry_group_IT_number 40
_symmetry_cell_setting 'orthorhombic'
loop_
_space_group_symop_operation_xyz
x,y,z
-x,-y,z
1/2-x,y,z
1/2+x,-y,z
x,1/2+y,1/2+z
-x,1/2-y,1/2+z
1/2-x,1/2+y,1/2+z
1/2+x,1/2-y,1/2+z
loop_
_atom_site_type_symbol
_atom_site_label
_atom_site_fract_x
_atom_site_fract_y
_atom_site_fract_z
Si Si1 0.063948 0.707033 0.853860
Si Si2 0.436573 0.109324 0.633755
Si Si3 0.435478 0.390444 0.941884
Si Si4 0.563988 0.391038 0.034604
Si Si5 0.564327 0.707747 0.221003
Si Si6 0.563956 0.105309 0.266512
Si Si7 0.563934 0.894425 0.808025
O O1 0.250000 0.705694 0.851979
O O2 0.004381 0.670442 0.901317
O O3 0.997509 0.637156 0.815268
O O4 0.001887 0.812838 0.841075
O O5 0.250000 0.106634 0.638516
O O6 0.472642 0.148498 0.583888
O O7 0.510633 0.171539 0.672910
O O8 0.500000 0.000000 0.637071
O O9 0.500000 0.500000 0.938500
O O10 0.250000 0.393748 0.939437
O O11 0.488401 0.349091 0.989961
O O12 0.500000 0.500000 0.036178
O O13 0.750000 0.392765 0.029283
O O14 0.750000 0.707209 0.224728
O O15 0.499646 0.813136 0.233164
O O16 0.494706 0.637293 0.258926
O O17 0.750000 0.106288 0.266693
O O18 0.500000 0.000000 0.255754
O O19 0.750000 0.893088 0.808713
O O20 0.500000 0.000000 0.818435
#
# Coordination Sequence:
#
# PCOD9362930 Si02
#       7
#     8   8   8   8   8   8   8
#     4  11  21  34  50  71  96 125 161 196 234 279
#     4  10  19  31  47  69  97 128 160 196 237 281
#     4  11  20  31  47  69  97 128 160 195 236 281
#     4   9  17  29  45  66  93 124 157 193 235 281
#     4  11  21  33  49  71  96 126 162 196 234 279
#     4  11  21  35  51  70  96 125 158 196 237 279
#     4  11  21  35  51  70  96 126 159 196 237 278
#
# _framework density 15.634446000000001
#
# number of rings (size 3 to 8) (size 9 to 14) (size 15 to 20)
#    0.000    1.429    0.000   10.714    0.000    1.714 
#    0.000    0.000    0.000    0.000    0.000    1.000 
#    0.000    6.857    0.000    0.000    0.000    0.000 
#
# Total GULP energy -156348.525900 kJ/mol
# GULP energy per Si atom -5583.875925 kJ/mol
# Density = 1.559886 g / cm^3
# Si number density = 15.634446 Si / 1000 Ang^3
#
#
#
# Elastic Constant Matrix: (Units=GPa)
#
#
# Indices 1 2 3 4 5 6 
#
# 1 162.0426 42.1030 64.0658 0.0000 0.0000 0.0000
# 2 42.1030 81.2874 55.8307 0.0000 0.0000 0.0000
# 3 64.0658 55.8307 143.2974 0.0000 0.0000 0.0000
# 4 0.0000 0.0000 0.0000 18.8585 0.0000 0.0000
# 5 0.0000 0.0000 0.0000 0.0000 26.9242 0.0000
# 6 0.0000 0.0000 0.0000 0.0000 0.0000 25.8979
#
#
#
# Elastic Compliance Matrix: (Units=1/GPa)
#
#
# Indices 1 2 3 4 5 6 
#
# 1 0.007784 -0.002241 -0.002607 0.000000 0.000000 0.000000
# 2 -0.002241 0.017442 -0.005794 0.000000 0.000000 0.000000
# 3 -0.002607 -0.005794 0.010401 0.000000 0.000000 0.000000
# 4 0.000000 0.000000 0.000000 0.053027 0.000000 0.000000
# 5 0.000000 0.000000 0.000000 0.000000 0.037141 0.000000
# 6 0.000000 0.000000 0.000000 0.000000 0.000000 0.038613
#
#
# Mechanical properties :
#
#
# Convention : Reuss Voigt Hill
#
# Bulk Modulus (GPa) = 69.71623 78.95849 74.33736
# Shear Modulus (GPa) = 26.25028 29.31130 27.78079
#
# Velocity S-wave (km/s) = 4.10201 4.33458 4.21990
# Velocity P-wave (km/s) = 8.19290 8.69851 8.44948
#
# Compressibility (1/GPa) = 0.01434386
#
# Stress axis : x y z
#
# Youngs Moduli (GPa) = 128.46410 57.33218 96.14169
#
# Poissons Ratio (x) = 0.12850 0.25064
# Poissons Ratio (y) = 0.28793 0.55701
# Poissons Ratio (z) = 0.33490 0.33216
#
# Static dielectric constant tensor:
#      x y z
#    x 1.518520 0.000000 0.000000 
#    y 0.000000 1.495100 0.000000 
#    z 0.000000 0.000000 1.536600 
# 
# From -- ./inp_files/26414.got.cif
#   From: 2010.05.17/outbox.cif.g08.bks.cpg/sg40_14_cif.got.tgz:26414.got - 2010.06.03 18:35:42.
