data_PCOD9362815
_publ_section_title
;
Structure prediction by ZEFSAII (Michael W. Deem and Ramdas Pophale) SiO2 
 PCOD9362815
Probable space group: A M A 2
;
_chemical_formula_sum "Si O2"
_cell_formula_units_Z 64
_cell_length_a 17.613329
_cell_length_b 16.531688
_cell_length_c 12.439973
_cell_angle_alpha 90.000000
_cell_angle_beta 90.000000
_cell_angle_gamma 90.000000
_cell_volume 3622.247200
_symmetry_space_group_name_H-M "A M A 2"
_symmetry_group_IT_number 40
_symmetry_cell_setting 'orthorhombic'
loop_
_space_group_symop_operation_xyz
x,y,z
-x,-y,z
1/2-x,y,z
1/2+x,-y,z
x,1/2+y,1/2+z
-x,1/2-y,1/2+z
1/2-x,1/2+y,1/2+z
1/2+x,1/2-y,1/2+z
loop_
_atom_site_type_symbol
_atom_site_label
_atom_site_fract_x
_atom_site_fract_y
_atom_site_fract_z
Si Si1 0.409918 0.503828 0.542890
Si Si2 0.658853 0.357257 0.392801
Si Si3 0.340067 0.535223 0.196534
Si Si4 0.340956 0.558851 0.760164
Si Si5 0.842011 0.756426 0.235084
Si Si6 0.340650 0.392409 0.368870
Si Si7 0.341207 0.810795 0.498520
Si Si8 0.410850 0.986252 0.473750
O O1 0.500000 0.500000 0.547400
O O2 0.381725 0.583423 0.477540
O O3 0.375373 0.508768 0.661412
O O4 0.379752 0.428286 0.473698
O O5 0.750000 0.369565 0.407217
O O6 0.639900 0.389128 0.273463
O O7 0.643057 0.263946 0.418373
O O8 0.250000 0.538341 0.172806
O O9 0.353015 0.456625 0.271996
O O10 0.384788 0.525666 0.086548
O O11 0.250000 0.557163 0.751670
O O12 0.367634 0.651860 0.748079
O O13 0.367059 0.525721 0.874239
O O14 0.750000 0.757064 0.240610
O O15 0.868199 0.694236 0.326698
O O16 0.860208 0.721434 0.117825
O O17 0.250000 0.389839 0.387059
O O18 0.250000 0.827753 0.495657
O O19 0.386864 0.892137 0.476682
O O20 0.500000 0.000000 0.459758
#
# Coordination Sequence:
#
# PCOD9362815 Si02
#       8
#     8   8   8   8   8   8   8   8
#     4  11  21  34  55  88 125 148 183 235 309 356
#     4   9  18  35  63  91 112 145 203 252 279 331
#     4   9  17  33  58  86 114 146 189 243 288 336
#     4  11  22  40  61  80 109 157 203 247 288 346
#     4   9  17  33  60  86 107 143 204 247 273 327
#     4   9  17  33  58  87 111 143 193 243 277 335
#     4  10  18  37  64  87 109 151 210 247 272 342
#     4  12  25  39  54  85 123 159 193 236 307 367
#
# _framework density 17.668589999999998
#
# number of rings (size 3 to 8) (size 9 to 14) (size 15 to 20)
#    0.000    2.000    2.500    3.375    0.000    2.000 
#    2.250    1.250    0.000    3.000    0.000    0.000 
#    0.000    0.000    0.000    0.000    0.000    0.000 
#
# Total GULP energy -178590.472137 kJ/mol
# GULP energy per Si atom -5580.952254 kJ/mol
# Density = 1.762838 g / cm^3
# Si number density = 17.668590 Si / 1000 Ang^3
#
#
#
# Elastic Constant Matrix: (Units=GPa)
#
#
# Indices 1 2 3 4 5 6 
#
# 1 58.9907 32.2941 44.2651 0.0000 0.0000 0.0000
# 2 32.2941 101.5760 50.2598 0.0000 0.0000 0.0000
# 3 44.2651 50.2598 103.8355 0.0000 0.0000 0.0000
# 4 0.0000 0.0000 0.0000 33.7864 0.0000 0.0000
# 5 0.0000 0.0000 0.0000 0.0000 -109.3046 0.0000
# 6 0.0000 0.0000 0.0000 0.0000 0.0000 136.2623
#
#
#
# Elastic Compliance Matrix: (Units=1/GPa)
#
#
# Indices 1 2 3 4 5 6 
#
# 1 0.025913 -0.003646 -0.009282 0.000000 0.000000 0.000000
# 2 -0.003646 0.013458 -0.004960 0.000000 0.000000 0.000000
# 3 -0.009282 -0.004960 0.015988 0.000000 0.000000 0.000000
# 4 0.000000 0.000000 0.000000 0.029598 0.000000 0.000000
# 5 0.000000 0.000000 0.000000 0.000000 -0.009149 0.000000
# 6 0.000000 0.000000 0.000000 0.000000 0.000000 0.007339
#
#
# Mechanical properties :
#
#
# Convention : Reuss Voigt Hill
#
# Bulk Modulus (GPa) = 51.06272 57.56001 54.31137
# Shear Modulus (GPa) = 39.85658 21.32104 30.58881
#
# Velocity S-wave (km/s) = 4.75467 3.47756 4.16535
# Velocity P-wave (km/s) = 7.68801 6.98376 7.34433
#
# Compressibility (1/GPa) = 0.01958376
#
# Stress axis : x y z
#
# Youngs Moduli (GPa) = 38.59140 74.30451 62.54571
#
# Poissons Ratio (x) = 0.27089 0.58054
# Poissons Ratio (y) = 0.14069 0.31023
# Poissons Ratio (z) = 0.35820 0.36855
#
# Static dielectric constant tensor:
#      x y z
#    x 1.578910 0.000000 0.000000 
#    y 0.000000 1.608040 0.000000 
#    z 0.000000 0.000000 1.588550 
# 
# From -- ./inp_files/12448.got.cif
#   From: 2010.05.17/outbox.cif.g08.bks.cpg/sg40_7_cif.got.tgz:12448.got - 2010.06.03 18:35:42.
