data_PCOD9362363
_publ_section_title
;
Structure prediction by ZEFSAII (Michael W. Deem and Ramdas Pophale) SiO2 
 PCOD9362363
Probable space group: A M A 2
;
_chemical_formula_sum "Si O2"
_cell_formula_units_Z 60
_cell_length_a 27.086487
_cell_length_b 5.761076
_cell_length_c 17.800611
_cell_angle_alpha 90.000000
_cell_angle_beta 90.000000
_cell_angle_gamma 90.000000
_cell_volume 2777.737466
_symmetry_space_group_name_H-M "A M A 2"
_symmetry_group_IT_number 40
_symmetry_cell_setting 'orthorhombic'
loop_
_space_group_symop_operation_xyz
x,y,z
-x,-y,z
1/2-x,y,z
1/2+x,-y,z
x,1/2+y,1/2+z
-x,1/2-y,1/2+z
1/2-x,1/2+y,1/2+z
1/2+x,1/2-y,1/2+z
loop_
_atom_site_type_symbol
_atom_site_label
_atom_site_fract_x
_atom_site_fract_y
_atom_site_fract_z
Si Si1 0.000000 0.500000 0.088060
Si Si2 0.410194 0.897654 0.309196
Si Si3 0.878415 0.490344 0.517348
Si Si4 0.912558 0.986940 0.468477
Si Si5 0.304242 0.359853 0.631722
Si Si6 0.804694 0.367716 0.785111
Si Si7 0.060401 0.135783 0.159866
Si Si8 0.134202 0.007400 0.727447
O O1 0.046858 0.519840 0.033824
O O2 0.011135 0.275215 0.138799
O O3 0.435119 0.968494 0.386270
O O4 0.353673 0.002388 0.315705
O O5 0.438134 0.993271 0.236437
O O6 0.400822 0.631924 0.287851
O O7 0.887456 0.730268 0.471197
O O8 0.826123 0.524057 0.558060
O O9 0.918660 0.487531 0.585478
O O10 0.882712 0.231918 0.481481
O O11 0.250000 0.258207 0.619781
O O12 0.301263 0.542782 0.699403
O O13 0.342631 0.176268 0.665564
O O14 0.750000 0.400302 0.819293
O O15 0.821209 0.102906 0.775141
O O16 0.102093 0.326539 0.181152
#
# Coordination Sequence:
#
# PCOD9362363 Si02
#       8
#     4   8   8   8   8   8   8   8
#     4  10  24  46  64 100 120 170 214 276 320 402
#     4  10  22  40  64  91 129 173 210 267 326 392
#     4  11  22  43  64  92 130 172 207 265 327 387
#     4  11  27  44  66  90 137 173 208 259 345 394
#     4  10  18  31  57  95 123 163 218 269 308 370
#     4   9  18  32  60  94 124 161 223 271 309 370
#     4  10  21  40  67  91 121 163 225 270 322 377
#     4  10  17  35  62  91 125 163 214 271 324 361
#
# _framework density 21.600313
#
# number of rings (size 3 to 8) (size 9 to 14) (size 15 to 20)
#    0.000    1.867    4.000    2.000    3.733    2.667 
#    2.400    1.333    0.000    0.000    0.000    0.000 
#    0.000    0.000    0.000    0.000    0.000    0.000 
#
# Total GULP energy -167208.719740 kJ/mol
# GULP energy per Si atom -5573.623991 kJ/mol
# Density = 2.155115 g / cm^3
# Si number density = 21.600313 Si / 1000 Ang^3
#
#
#
# Elastic Constant Matrix: (Units=GPa)
#
#
# Indices 1 2 3 4 5 6 
#
# 1 59.1305 7.3976 4.4623 0.0000 0.0000 0.0000
# 2 7.3976 93.9063 22.9738 0.0000 0.0000 0.0000
# 3 4.4623 22.9738 78.2332 0.0000 0.0000 0.0000
# 4 0.0000 0.0000 0.0000 20.4719 0.0000 0.0000
# 5 0.0000 0.0000 0.0000 0.0000 14.0005 0.0000
# 6 0.0000 0.0000 0.0000 0.0000 0.0000 17.6584
#
#
#
# Elastic Compliance Matrix: (Units=1/GPa)
#
#
# Indices 1 2 3 4 5 6 
#
# 1 0.017108 -0.001195 -0.000625 0.000000 0.000000 0.000000
# 2 -0.001195 0.011557 -0.003326 0.000000 0.000000 0.000000
# 3 -0.000625 -0.003326 0.013795 0.000000 0.000000 0.000000
# 4 0.000000 0.000000 0.000000 0.048847 0.000000 0.000000
# 5 0.000000 0.000000 0.000000 0.000000 0.071426 0.000000
# 6 0.000000 0.000000 0.000000 0.000000 0.000000 0.056630
#
#
# Mechanical properties :
#
#
# Convention : Reuss Voigt Hill
#
# Bulk Modulus (GPa) = 31.08600 33.43750 32.26175
# Shear Modulus (GPa) = 20.80068 23.52193 22.16131
#
# Velocity S-wave (km/s) = 3.10656 3.30352 3.20655
# Velocity P-wave (km/s) = 5.22401 5.48313 5.35514
#
# Compressibility (1/GPa) = 0.03216882
#
# Stress axis : x y z
#
# Youngs Moduli (GPa) = 58.45087 86.53054 72.49261
#
# Poissons Ratio (x) = 0.10339 0.04531
# Poissons Ratio (y) = 0.06984 0.24108
# Poissons Ratio (z) = 0.03653 0.28776
#
# Static dielectric constant tensor:
#      x y z
#    x 1.840970 0.000000 0.000000 
#    y 0.000000 1.867040 0.000000 
#    z 0.000000 0.000000 1.773860 
# 
# From -- ./inp_files/21663.got.cif
#   From: 2010.05.17/outbox.cif.g08.bks.cpg/sg40_11_cif.got.tgz:21663.got - 2010.06.03 18:35:42.
