data_PCOD9362854
_publ_section_title
;
Structure prediction by ZEFSAII (Michael W. Deem and Ramdas Pophale) SiO2 
 PCOD9362854
Probable space group: A M A 2
;
_chemical_formula_sum "Si O2"
_cell_formula_units_Z 64
_cell_length_a 8.970199
_cell_length_b 35.074277
_cell_length_c 13.830162
_cell_angle_alpha 90.000000
_cell_angle_beta 90.000000
_cell_angle_gamma 90.000000
_cell_volume 4351.290440
_symmetry_space_group_name_H-M "A M A 2"
_symmetry_group_IT_number 40
_symmetry_cell_setting 'orthorhombic'
loop_
_space_group_symop_operation_xyz
x,y,z
-x,-y,z
1/2-x,y,z
1/2+x,-y,z
x,1/2+y,1/2+z
-x,1/2-y,1/2+z
1/2-x,1/2+y,1/2+z
1/2+x,1/2-y,1/2+z
loop_
_atom_site_type_symbol
_atom_site_label
_atom_site_fract_x
_atom_site_fract_y
_atom_site_fract_z
Si Si1 0.070916 0.807188 0.382520
Si Si2 0.571538 0.381206 0.975002
Si Si3 0.422599 0.460875 0.973115
Si Si4 0.579023 0.038774 0.708355
Si Si5 0.071188 0.729249 0.695538
Si Si6 0.073262 0.617641 0.203704
Si Si7 0.074095 0.809629 0.796260
Si Si8 0.071118 0.764390 0.989879
O O1 0.250000 0.805719 0.382867
O O2 0.011035 0.847856 0.417804
O O3 0.005379 0.796592 0.277364
O O4 0.004185 0.774876 0.454002
O O5 0.750000 0.378738 0.962936
O O6 0.511891 0.422879 0.945203
O O7 0.537227 0.376656 0.089680
O O8 0.500000 0.500000 0.939992
O O9 0.250000 0.458955 0.943132
O O10 0.424472 0.461832 0.090722
O O11 0.750000 0.039058 0.739019
O O12 0.499552 0.077952 0.736825
O O13 0.500000 0.000000 0.741429
O O14 0.250000 0.723594 0.695603
O O15 0.042897 0.773076 0.728241
O O16 0.999790 0.723482 0.590969
O O17 0.250000 0.614277 0.211084
O O18 0.015478 0.653729 0.262752
O O19 0.250000 0.817965 0.788699
O O20 0.043073 0.794978 0.904718
O O21 0.250000 0.759070 0.997391
#
# Coordination Sequence:
#
# PCOD9362854 Si02
#       8
#     8   8   8   8   8   8   8   8
#     4  11  21  32  47  67  90 118 151 186 224 267
#     4  10  19  30  43  62  89 119 151 189 225 261
#     4   9  16  26  40  59  83 114 148 180 217 263
#     4   9  16  26  40  57  82 113 145 178 214 257
#     4  10  20  34  50  67  88 116 149 186 227 269
#     4  10  19  28  42  63  87 116 150 184 219 258
#     4   9  19  32  45  63  88 115 145 181 220 261
#     4  10  20  34  49  66  89 117 149 186 226 268
#
# _framework density 14.70828
#
# number of rings (size 3 to 8) (size 9 to 14) (size 15 to 20)
#    0.000    2.250    0.000    4.875    0.000    9.500 
#    0.000    0.000    0.000    0.000    0.000    0.000 
#    0.000    1.000    0.000    5.500    0.000    5.875 
#
# Total GULP energy -178490.425148 kJ/mol
# GULP energy per Si atom -5577.825786 kJ/mol
# Density = 1.467480 g / cm^3
# Si number density = 14.708280 Si / 1000 Ang^3
#
#
#
# Elastic Constant Matrix: (Units=GPa)
#
#
# Indices 1 2 3 4 5 6 
#
# 1 103.4269 78.0289 46.6856 0.0000 0.0000 0.0000
# 2 78.0289 133.5086 44.4422 0.0000 0.0000 0.0000
# 3 46.6856 44.4422 61.4072 0.0000 0.0000 0.0000
# 4 0.0000 0.0000 0.0000 16.0064 0.0000 0.0000
# 5 0.0000 0.0000 0.0000 0.0000 20.3417 0.0000
# 6 0.0000 0.0000 0.0000 0.0000 0.0000 31.5841
#
#
#
# Elastic Compliance Matrix: (Units=1/GPa)
#
#
# Indices 1 2 3 4 5 6 
#
# 1 0.020567 -0.008979 -0.009139 0.000000 0.000000 0.000000
# 2 -0.008979 0.013787 -0.003152 0.000000 0.000000 0.000000
# 3 -0.009139 -0.003152 0.025514 0.000000 0.000000 0.000000
# 4 0.000000 0.000000 0.000000 0.062475 0.000000 0.000000
# 5 0.000000 0.000000 0.000000 0.000000 0.049160 0.000000
# 6 0.000000 0.000000 0.000000 0.000000 0.000000 0.031662
#
#
# Mechanical properties :
#
#
# Convention : Reuss Voigt Hill
#
# Bulk Modulus (GPa) = 57.70418 70.73957 64.22188
# Shear Modulus (GPa) = 19.88235 22.19884 21.04059
#
# Velocity S-wave (km/s) = 3.68064 3.88915 3.78633
# Velocity P-wave (km/s) = 7.57499 8.26842 7.92929
#
# Compressibility (1/GPa) = 0.01732977
#
# Stress axis : x y z
#
# Youngs Moduli (GPa) = 48.62042 72.53284 39.19480
#
# Poissons Ratio (x) = 0.65124 0.35819
# Poissons Ratio (y) = 0.43654 0.12354
# Poissons Ratio (z) = 0.44432 0.22861
#
# Static dielectric constant tensor:
#      x y z
#    x 1.495680 0.000000 0.000000 
#    y 0.000000 1.474130 0.000000 
#    z 0.000000 0.000000 1.466940 
# 
# From -- ./inp_files/10683.got.cif
#   From: 2010.05.17/outbox.cif.g08.bks.cpg/sg40_6_cif.got.tgz:10683.got - 2010.06.03 18:35:42.
