data_PCOD9362805
_publ_section_title
;
Structure prediction by ZEFSAII (Michael W. Deem and Ramdas Pophale) SiO2 
 PCOD9362805
Probable space group: A M A 2
;
_chemical_formula_sum "Si O2"
_cell_formula_units_Z 64
_cell_length_a 8.522834
_cell_length_b 15.921515
_cell_length_c 24.434315
_cell_angle_alpha 90.000000
_cell_angle_beta 90.000000
_cell_angle_gamma 90.000000
_cell_volume 3315.649300
_symmetry_space_group_name_H-M "A M A 2"
_symmetry_group_IT_number 40
_symmetry_cell_setting 'orthorhombic'
loop_
_space_group_symop_operation_xyz
x,y,z
-x,-y,z
1/2-x,y,z
1/2+x,-y,z
x,1/2+y,1/2+z
-x,1/2-y,1/2+z
1/2-x,1/2+y,1/2+z
1/2+x,1/2-y,1/2+z
loop_
_atom_site_type_symbol
_atom_site_label
_atom_site_fract_x
_atom_site_fract_y
_atom_site_fract_z
Si Si1 0.436168 0.409602 0.583220
Si Si2 0.440007 0.750419 0.890513
Si Si3 0.939474 0.590409 0.317801
Si Si4 0.560605 0.590024 0.081833
Si Si5 0.439274 0.590842 0.818665
Si Si6 0.561880 0.253221 0.513633
Si Si7 0.559170 0.152359 0.699647
Si Si8 0.439832 0.150870 0.198683
O O1 0.500000 0.500000 0.565141
O O2 0.250000 0.410039 0.580673
O O3 0.500650 0.333929 0.546370
O O4 0.490219 0.393041 0.645559
O O5 0.250000 0.750058 0.891986
O O6 0.489007 0.832914 0.856563
O O7 0.490674 0.666869 0.857846
O O8 0.503636 0.752755 0.951628
O O9 0.750000 0.589455 0.317256
O O10 0.994745 0.609729 0.255796
O O11 0.000000 0.500000 0.335900
O O12 0.500000 0.500000 0.062899
O O13 0.750000 0.588866 0.082060
O O14 0.509517 0.668166 0.044558
O O15 0.505686 0.607853 0.144088
O O16 0.500000 0.500000 0.835894
O O17 0.250000 0.590382 0.818785
O O18 0.489580 0.610486 0.756237
O O19 0.750000 0.255014 0.515076
O O20 0.750000 0.150201 0.699921
O O21 0.516024 0.250629 0.698689
O O22 0.250000 0.146483 0.195209
#
# Coordination Sequence:
#
# PCOD9362805 Si02
#       8
#     8   8   8   8   8   8   8   8
#     4  12  25  41  63  92 123 157 197 246 301 363
#     4  10  22  41  61  83 115 159 203 245 297 353
#     4  10  20  36  60  87 117 154 192 234 290 348
#     4  10  21  37  60  87 118 154 192 239 293 352
#     4  10  21  37  61  88 119 159 199 244 298 357
#     4  11  24  43  64  86 116 158 203 252 304 351
#     4   9  16  33  60  86 117 156 191 231 289 353
#     4  10  18  36  63  89 122 160 197 242 299 359
#
# _framework density 19.302403000000002
#
# number of rings (size 3 to 8) (size 9 to 14) (size 15 to 20)
#    0.000    1.750    2.500    2.250    0.000    4.500 
#    0.000    4.375    0.000    0.000    0.000    0.000 
#    0.000    0.000    0.000    0.000    0.000    0.000 
#
# Total GULP energy -178817.395187 kJ/mol
# GULP energy per Si atom -5588.043600 kJ/mol
# Density = 1.925847 g / cm^3
# Si number density = 19.302403 Si / 1000 Ang^3
#
#
#
# Elastic Constant Matrix: (Units=GPa)
#
#
# Indices 1 2 3 4 5 6 
#
# 1 25.1657 34.9596 33.5253 0.0000 0.0000 0.0000
# 2 34.9596 203.5575 93.6353 0.0000 0.0000 0.0000
# 3 33.5253 93.6353 157.4911 0.0000 0.0000 0.0000
# 4 0.0000 0.0000 0.0000 -1.4203 0.0000 0.0000
# 5 0.0000 0.0000 0.0000 0.0000 33.5973 0.0000
# 6 0.0000 0.0000 0.0000 0.0000 0.0000 25.0461
#
#
#
# Elastic Compliance Matrix: (Units=1/GPa)
#
#
# Indices 1 2 3 4 5 6 
#
# 1 0.060598 -0.006158 -0.009239 0.000000 0.000000 0.000000
# 2 -0.006158 0.007388 -0.003081 0.000000 0.000000 0.000000
# 3 -0.009239 -0.003081 0.010148 0.000000 0.000000 0.000000
# 4 0.000000 0.000000 0.000000 -0.704079 0.000000 0.000000
# 5 0.000000 0.000000 0.000000 0.000000 0.029764 0.000000
# 6 0.000000 0.000000 0.000000 0.000000 0.000000 0.039926
#
#
# Mechanical properties :
#
#
# Convention : Reuss Voigt Hill
#
# Bulk Modulus (GPa) = 24.28446 78.93941 51.61194
# Shear Modulus (GPa) = -9.88977 26.38424 8.24724
#
# Velocity S-wave (km/s) = -2.26599 3.70116 2.06928
# Velocity P-wave (km/s) = 2.40043 7.69738 5.70139
#
# Compressibility (1/GPa) = 0.04117860
#
# Stress axis : x y z
#
# Youngs Moduli (GPa) = 16.50216 135.36196 98.53896
#
# Poissons Ratio (x) = 0.83350 0.91036
# Poissons Ratio (y) = 0.10161 0.30365
# Poissons Ratio (z) = 0.15246 0.41711
#
# Static dielectric constant tensor:
#      x y z
#    x 1.661120 0.000000 0.000000 
#    y 0.000000 1.662500 0.000000 
#    z 0.000000 0.000000 1.653160 
# 
# From -- ./inp_files/24299.got.cif
#   From: 2010.05.17/outbox.cif.g08.bks.cpg/sg40_13_cif.got.tgz:24299.got - 2010.06.03 18:35:42.
