data_PCOD9362779
_publ_section_title
;
Structure prediction by ZEFSAII (Michael W. Deem and Ramdas Pophale) SiO2 
 PCOD9362779
Probable space group: A M A 2
;
_chemical_formula_sum "Si O2"
_cell_formula_units_Z 48
_cell_length_a 16.595878
_cell_length_b 15.977305
_cell_length_c 9.362480
_cell_angle_alpha 90.000000
_cell_angle_beta 90.000000
_cell_angle_gamma 90.000000
_cell_volume 2482.530897
_symmetry_space_group_name_H-M "A M A 2"
_symmetry_group_IT_number 40
_symmetry_cell_setting 'orthorhombic'
loop_
_space_group_symop_operation_xyz
x,y,z
-x,-y,z
1/2-x,y,z
1/2+x,-y,z
x,1/2+y,1/2+z
-x,1/2-y,1/2+z
1/2-x,1/2+y,1/2+z
1/2+x,1/2-y,1/2+z
loop_
_atom_site_type_symbol
_atom_site_label
_atom_site_fract_x
_atom_site_fract_y
_atom_site_fract_z
Si Si1 0.343913 0.048224 0.235460
Si Si2 0.915541 0.354373 0.498415
Si Si3 0.156352 0.991827 0.828750
Si Si4 0.401417 0.386122 0.576127
Si Si5 0.094463 0.979774 0.508829
Si Si6 0.654377 0.689198 0.857414
O O1 0.250000 0.026250 0.216654
O O2 0.396948 0.974433 0.162945
O O3 0.365236 0.047297 0.401612
O O4 0.365373 0.129559 0.144219
O O5 0.895527 0.432784 0.395740
O O6 0.887294 0.271503 0.418964
O O7 0.008817 0.357255 0.540874
O O8 0.250000 0.014847 0.839742
O O9 0.131064 0.979831 0.666205
O O10 0.141259 0.910315 0.927541
O O11 0.360524 0.322981 0.687707
O O12 0.115214 0.890559 0.437205
O O13 0.000000 0.000000 0.514376
O O14 0.750000 0.689961 0.883876
#
# Coordination Sequence:
#
# PCOD9362779 Si02
#       6
#     8   8   8   8   8   8
#     4  10  18  35  60  87 116 158 203 243 291 360
#     4  11  22  37  60  89 120 154 196 248 303 356
#     4  11  21  38  61  88 118 158 203 248 295 356
#     4  10  20  36  59  83 114 156 200 241 290 353
#     4  11  22  38  60  86 118 155 199 248 295 354
#     4  11  23  42  62  87 120 159 198 246 303 359
#
# _framework density 19.335106
#
# number of rings (size 3 to 8) (size 9 to 14) (size 15 to 20)
#    0.000    1.333    0.000   11.500    0.000    2.667 
#    0.000    1.667    0.000    0.000    0.000    0.000 
#    0.000    0.000    0.000    0.000    0.000    0.000 
#
# Total GULP energy -134000.884433 kJ/mol
# GULP energy per Si atom -5583.370185 kJ/mol
# Density = 1.929110 g / cm^3
# Si number density = 19.335106 Si / 1000 Ang^3
#
#
#
# Elastic Constant Matrix: (Units=GPa)
#
#
# Indices 1 2 3 4 5 6 
#
# 1 102.8465 10.9584 11.5217 0.0000 0.0000 0.0000
# 2 10.9584 52.1010 28.7071 0.0000 0.0000 0.0000
# 3 11.5217 28.7071 151.6441 0.0000 0.0000 0.0000
# 4 0.0000 0.0000 0.0000 29.7653 0.0000 0.0000
# 5 0.0000 0.0000 0.0000 0.0000 42.7041 0.0000
# 6 0.0000 0.0000 0.0000 0.0000 0.0000 16.4485
#
#
#
# Elastic Compliance Matrix: (Units=1/GPa)
#
#
# Indices 1 2 3 4 5 6 
#
# 1 0.009968 -0.001875 -0.000402 0.000000 0.000000 0.000000
# 2 -0.001875 0.021781 -0.003981 0.000000 0.000000 0.000000
# 3 -0.000402 -0.003981 0.007379 0.000000 0.000000 0.000000
# 4 0.000000 0.000000 0.000000 0.033596 0.000000 0.000000
# 5 0.000000 0.000000 0.000000 0.000000 0.023417 0.000000
# 6 0.000000 0.000000 0.000000 0.000000 0.000000 0.060796
#
#
# Mechanical properties :
#
#
# Convention : Reuss Voigt Hill
#
# Bulk Modulus (GPa) = 37.57762 45.44066 41.50914
# Shear Modulus (GPa) = 28.03894 34.81055 31.42475
#
# Velocity S-wave (km/s) = 3.81222 4.24769 4.03584
# Velocity P-wave (km/s) = 6.23334 6.89999 6.57512
#
# Compressibility (1/GPa) = 0.02661159
#
# Stress axis : x y z
#
# Youngs Moduli (GPa) = 100.32023 45.91111 135.52770
#
# Poissons Ratio (x) = 0.08608 0.05454
# Poissons Ratio (y) = 0.18808 0.53952
# Poissons Ratio (z) = 0.04037 0.18277
#
# Static dielectric constant tensor:
#      x y z
#    x 1.662050 0.000000 0.000000 
#    y 0.000000 1.676870 0.000000 
#    z 0.000000 0.000000 1.702890 
# 
# From -- ./inp_files/6424.got.cif
#   From: 2010.05.17/outbox.cif.g08.bks.cpg/sg40_4_cif.got.tgz:6424.got - 2010.06.03 18:35:42.
