data_PCOD9362353
_publ_section_title
;
Structure prediction by ZEFSAII (Michael W. Deem and Ramdas Pophale) SiO2 
 PCOD9362353
Probable space group: A M A 2
;
_chemical_formula_sum "Si O2"
_cell_formula_units_Z 44
_cell_length_a 14.560899
_cell_length_b 15.092995
_cell_length_c 11.720901
_cell_angle_alpha 90.000000
_cell_angle_beta 90.000000
_cell_angle_gamma 90.000000
_cell_volume 2575.873999
_symmetry_space_group_name_H-M "A M A 2"
_symmetry_group_IT_number 40
_symmetry_cell_setting 'orthorhombic'
loop_
_space_group_symop_operation_xyz
x,y,z
-x,-y,z
1/2-x,y,z
1/2+x,-y,z
x,1/2+y,1/2+z
-x,1/2-y,1/2+z
1/2-x,1/2+y,1/2+z
1/2+x,1/2-y,1/2+z
loop_
_atom_site_type_symbol
_atom_site_label
_atom_site_fract_x
_atom_site_fract_y
_atom_site_fract_z
Si Si1 0.750000 0.115832 0.167590
Si Si2 0.250000 0.821455 0.425733
Si Si3 0.750000 0.581709 0.153274
Si Si4 0.608399 0.658685 0.477546
Si Si5 0.750000 0.905127 0.149985
Si Si6 0.750000 0.250813 0.820821
Si Si7 0.106772 0.505594 0.309057
Si Si8 0.109831 0.667500 0.468123
O O1 0.750000 0.147379 0.296596
O O2 0.750000 0.009531 0.166347
O O3 0.661547 0.150369 0.096728
O O4 0.250000 0.898343 0.520226
O O5 0.161005 0.759749 0.447673
O O6 0.750000 0.677085 0.219066
O O7 0.835345 0.526298 0.201841
O O8 0.661408 0.730066 0.399137
O O9 0.624173 0.565690 0.410334
O O10 0.499567 0.673994 0.485647
O O11 0.750000 0.846484 0.263981
O O12 0.838811 0.876499 0.075726
O O13 0.127656 0.601627 0.361215
O O14 0.000000 0.500000 0.281900
#
# Coordination Sequence:
#
# PCOD9362353 Si02
#       8
#     4   4   4   8   4   4   8   8
#     4  11  22  38  55  82 118 147 177 236 284 334
#     4  11  24  36  53  81 118 154 173 219 293 337
#     4  10  17  34  55  78 115 141 175 225 274 326
#     4   9  19  35  59  84 109 137 189 237 273 313
#     4  11  19  33  59  80 114 143 187 220 281 334
#     4   9  18  33  56  83 105 145 180 228 274 323
#     4   9  17  32  61  86 102 137 190 232 266 312
#     4  10  19  36  58  86 104 142 193 229 265 329
#
# _framework density 17.081581
#
# number of rings (size 3 to 8) (size 9 to 14) (size 15 to 20)
#    0.000    2.182    3.636    1.636    0.000    1.455 
#    3.273    3.636    4.000    0.000    0.000    0.000 
#    0.000    0.000    0.000    0.000    0.000    0.000 
#
# Total GULP energy -122703.932646 kJ/mol
# GULP energy per Si atom -5577.451484 kJ/mol
# Density = 1.704270 g / cm^3
# Si number density = 17.081581 Si / 1000 Ang^3
#
#
#
# Elastic Constant Matrix: (Units=GPa)
#
#
# Indices 1 2 3 4 5 6 
#
# 1 119.4345 36.5265 58.3259 0.0000 0.0000 0.0000
# 2 36.5265 57.1138 49.1300 0.0000 0.0000 0.0000
# 3 58.3259 49.1300 126.6165 0.0000 0.0000 0.0000
# 4 0.0000 0.0000 0.0000 29.9596 0.0000 0.0000
# 5 0.0000 0.0000 0.0000 0.0000 -3.5084 0.0000
# 6 0.0000 0.0000 0.0000 0.0000 0.0000 10.1736
#
#
#
# Elastic Compliance Matrix: (Units=1/GPa)
#
#
# Indices 1 2 3 4 5 6 
#
# 1 0.011430 -0.004174 -0.003646 0.000000 0.000000 0.000000
# 2 -0.004174 0.027805 -0.008866 0.000000 0.000000 0.000000
# 3 -0.003646 -0.008866 0.013018 0.000000 0.000000 0.000000
# 4 0.000000 0.000000 0.000000 0.033378 0.000000 0.000000
# 5 0.000000 0.000000 0.000000 0.000000 -0.285031 0.000000
# 6 0.000000 0.000000 0.000000 0.000000 0.000000 0.098293
#
#
# Mechanical properties :
#
#
# Convention : Reuss Voigt Hill
#
# Bulk Modulus (GPa) = 52.96341 65.68106 59.32223
# Shear Modulus (GPa) = -81.37697 17.93712 -31.71993
#
# Velocity S-wave (km/s) = -6.90968 3.24402 -4.31393
# Velocity P-wave (km/s) = 5.70830 7.25027 3.16083
#
# Compressibility (1/GPa) = 0.01888096
#
# Stress axis : x y z
#
# Youngs Moduli (GPa) = 87.49273 35.96457 76.81955
#
# Poissons Ratio (x) = 0.15011 0.28005
# Poissons Ratio (y) = 0.36517 0.68111
# Poissons Ratio (z) = 0.31896 0.31888
#
# Static dielectric constant tensor:
#      x y z
#    x 1.588790 0.000000 0.000000 
#    y 0.000000 1.571380 0.000000 
#    z 0.000000 0.000000 1.562180 
# 
# From -- ./inp_files/12118.got.cif
#   From: 2010.05.17/outbox.cif.g08.bks.cpg/sg40_7_cif.got.tgz:12118.got - 2010.06.03 18:35:42.
