data_PCOD9362355
_publ_section_title
;
Structure prediction by ZEFSAII (Michael W. Deem and Ramdas Pophale) SiO2 
 PCOD9362355
Probable space group: A M A 2
;
_chemical_formula_sum "Si O2"
_cell_formula_units_Z 44
_cell_length_a 14.480721
_cell_length_b 23.350351
_cell_length_c 6.826609
_cell_angle_alpha 90.000000
_cell_angle_beta 90.000000
_cell_angle_gamma 90.000000
_cell_volume 2308.280742
_symmetry_space_group_name_H-M "A M A 2"
_symmetry_group_IT_number 40
_symmetry_cell_setting 'orthorhombic'
loop_
_space_group_symop_operation_xyz
x,y,z
-x,-y,z
1/2-x,y,z
1/2+x,-y,z
x,1/2+y,1/2+z
-x,1/2-y,1/2+z
1/2-x,1/2+y,1/2+z
1/2+x,1/2-y,1/2+z
loop_
_atom_site_type_symbol
_atom_site_label
_atom_site_fract_x
_atom_site_fract_y
_atom_site_fract_z
Si Si1 0.750000 0.858874 0.834810
Si Si2 0.891588 0.625579 0.942267
Si Si3 0.250000 0.822154 0.728745
Si Si4 0.750000 0.807299 0.228406
Si Si5 0.750000 0.606132 0.619130
Si Si6 0.608599 0.500822 0.106107
Si Si7 0.250000 0.514054 0.448112
Si Si8 0.388895 0.123850 0.482912
O O1 0.661296 0.859062 0.688973
O O2 0.750000 0.917028 0.968448
O O3 0.750000 0.808807 0.993158
O O4 0.840755 0.629148 0.733082
O O5 0.001518 0.632843 0.961238
O O6 0.838747 0.666562 0.092523
O O7 0.868820 0.560518 0.006598
O O8 0.250000 0.757515 0.803135
O O9 0.250000 0.868075 0.902497
O O10 0.662635 0.841015 0.315766
O O11 0.750000 0.536534 0.606666
O O12 0.500000 0.500000 0.144221
O O13 0.662214 0.496732 0.308724
O O14 0.629905 0.444659 0.976586
#
# Coordination Sequence:
#
# PCOD9362355 Si02
#       8
#     4   8   4   4   4   8   4   8
#     4   9  21  38  65  86 122 157 197 243 299 356
#     4  10  21  39  60  90 121 161 197 246 302 352
#     4  11  24  43  58  84 127 159 206 247 291 351
#     4  11  24  42  60  91 116 163 207 244 290 362
#     4  11  22  35  63  90 118 159 203 244 290 360
#     4   9  17  35  60  85 125 152 187 248 303 353
#     4  10  17  34  58  89 117 156 187 244 300 349
#     4   9  21  40  60  91 123 156 195 250 302 353
#
# _framework density 19.061805
#
# number of rings (size 3 to 8) (size 9 to 14) (size 15 to 20)
#    0.000    2.182    1.818    1.091    2.545    4.364 
#    9.818    0.000    0.000    0.000    0.000    0.000 
#    0.000    0.000    0.000    0.000    0.000    0.000 
#
# Total GULP energy -122650.774209 kJ/mol
# GULP energy per Si atom -5575.035191 kJ/mol
# Density = 1.901842 g / cm^3
# Si number density = 19.061805 Si / 1000 Ang^3
#
#
#
# Elastic Constant Matrix: (Units=GPa)
#
#
# Indices 1 2 3 4 5 6 
#
# 1 116.7501 32.2225 26.6288 0.0000 0.0000 0.0000
# 2 32.2225 52.5200 9.6827 0.0000 0.0000 0.0000
# 3 26.6288 9.6827 58.5756 0.0000 0.0000 0.0000
# 4 0.0000 0.0000 0.0000 21.0752 0.0000 0.0000
# 5 0.0000 0.0000 0.0000 0.0000 12.3601 0.0000
# 6 0.0000 0.0000 0.0000 0.0000 0.0000 13.1304
#
#
#
# Elastic Compliance Matrix: (Units=1/GPa)
#
#
# Indices 1 2 3 4 5 6 
#
# 1 0.011180 -0.006108 -0.004073 0.000000 0.000000 0.000000
# 2 -0.006108 0.022976 -0.001021 0.000000 0.000000 0.000000
# 3 -0.004073 -0.001021 0.019092 0.000000 0.000000 0.000000
# 4 0.000000 0.000000 0.000000 0.047449 0.000000 0.000000
# 5 0.000000 0.000000 0.000000 0.000000 0.080905 0.000000
# 6 0.000000 0.000000 0.000000 0.000000 0.000000 0.076159
#
#
# Mechanical properties :
#
#
# Convention : Reuss Voigt Hill
#
# Bulk Modulus (GPa) = 32.42123 40.54596 36.48360
# Shear Modulus (GPa) = 17.21475 19.93392 18.57433
#
# Velocity S-wave (km/s) = 3.00843 3.23732 3.12497
# Velocity P-wave (km/s) = 5.39564 5.94059 5.67466
#
# Compressibility (1/GPa) = 0.03084399
#
# Stress axis : x y z
#
# Youngs Moduli (GPa) = 89.44417 43.52308 52.37717
#
# Poissons Ratio (x) = 0.26586 0.21332
# Poissons Ratio (y) = 0.54637 0.05348
# Poissons Ratio (z) = 0.36429 0.04444
#
# Static dielectric constant tensor:
#      x y z
#    x 1.642380 0.000000 0.000000 
#    y 0.000000 1.669910 0.000000 
#    z 0.000000 0.000000 1.655390 
# 
# From -- ./inp_files/1318.got.cif
#   From: 2010.05.17/outbox.cif.g08.bks.cpg/sg40_1_cif.got.tgz:1318.got - 2010.06.03 18:35:42.
