data_PCOD9362972
_publ_section_title
;
Structure prediction by ZEFSAII (Michael W. Deem and Ramdas Pophale) SiO2 
 PCOD9362972
Probable space group: A M A 2
;
_chemical_formula_sum "Si O2"
_cell_formula_units_Z 64
_cell_length_a 8.861062
_cell_length_b 23.735005
_cell_length_c 19.498795
_cell_angle_alpha 90.000000
_cell_angle_beta 90.000000
_cell_angle_gamma 90.000000
_cell_volume 4100.934910
_symmetry_space_group_name_H-M "A M A 2"
_symmetry_group_IT_number 40
_symmetry_cell_setting 'orthorhombic'
loop_
_space_group_symop_operation_xyz
x,y,z
-x,-y,z
1/2-x,y,z
1/2+x,-y,z
x,1/2+y,1/2+z
-x,1/2-y,1/2+z
1/2-x,1/2+y,1/2+z
1/2+x,1/2-y,1/2+z
loop_
_atom_site_type_symbol
_atom_site_label
_atom_site_fract_x
_atom_site_fract_y
_atom_site_fract_z
Si Si1 0.930130 0.562069 0.907800
Si Si2 0.569231 0.330761 0.267840
Si Si3 0.429792 0.225737 0.188120
Si Si4 0.430020 0.252726 0.545935
Si Si5 0.068862 0.061207 0.686654
Si Si6 0.429858 0.735120 0.402086
Si Si7 0.068629 0.619291 0.042284
Si Si8 0.430657 0.158743 0.322715
O O1 0.750000 0.559383 0.906562
O O2 0.000000 0.500000 0.904305
O O3 0.992061 0.601548 0.846958
O O4 0.985609 0.591609 0.978063
O O5 0.750000 0.325316 0.255943
O O6 0.488585 0.284032 0.221249
O O7 0.523471 0.392730 0.243593
O O8 0.540036 0.313867 0.346436
O O9 0.250000 0.228195 0.180010
O O10 0.507527 0.219244 0.114850
O O11 0.465167 0.178255 0.245114
O O12 0.250000 0.257933 0.542685
O O13 0.504774 0.276025 0.476919
O O14 0.466437 0.185624 0.548647
O O15 0.250000 0.056595 0.688045
O O16 0.027824 0.087337 0.612476
O O17 0.000000 0.000000 0.696146
O O18 0.250000 0.744255 0.405288
O O19 0.507855 0.791180 0.371461
O O20 0.250000 0.614343 0.032323
O O21 0.250000 0.155009 0.330851
#
# Coordination Sequence:
#
# PCOD9362972 Si02
#       8
#     8   8   8   8   8   8   8   8
#     4  12  24  36  52  72  99 136 176 214 248 297
#     4   9  18  34  50  68  98 132 164 203 255 299
#     4  10  20  32  51  75 100 128 166 208 248 299
#     4  11  20  32  51  73 104 137 163 202 251 300
#     4  10  20  34  49  68  95 132 170 204 242 285
#     4  10  19  31  51  74  97 128 167 206 248 304
#     4  10  20  34  49  68 101 138 172 207 245 291
#     4  10  20  35  51  72 101 131 164 209 255 296
#
# _framework density 15.606197999999999
#
# number of rings (size 3 to 8) (size 9 to 14) (size 15 to 20)
#    0.000    1.750    2.500    3.000    0.000    4.500 
#    0.000    0.000    0.000    0.000    0.000    0.875 
#    0.000    2.000    0.000    0.000    0.000    0.000 
#
# Total GULP energy -178652.032376 kJ/mol
# GULP energy per Si atom -5582.876012 kJ/mol
# Density = 1.557068 g / cm^3
# Si number density = 15.606198 Si / 1000 Ang^3
#
#
#
# Elastic Constant Matrix: (Units=GPa)
#
#
# Indices 1 2 3 4 5 6 
#
# 1 60.9413 42.7546 58.5621 0.0000 0.0000 0.0000
# 2 42.7546 82.2671 53.1688 0.0000 0.0000 0.0000
# 3 58.5621 53.1688 130.1696 0.0000 0.0000 0.0000
# 4 0.0000 0.0000 0.0000 18.8278 0.0000 0.0000
# 5 0.0000 0.0000 0.0000 0.0000 19.5030 0.0000
# 6 0.0000 0.0000 0.0000 0.0000 0.0000 23.9883
#
#
#
# Elastic Compliance Matrix: (Units=1/GPa)
#
#
# Indices 1 2 3 4 5 6 
#
# 1 0.034799 -0.010825 -0.011235 0.000000 0.000000 0.000000
# 2 -0.010825 0.019882 -0.003251 0.000000 0.000000 0.000000
# 3 -0.011235 -0.003251 0.014065 0.000000 0.000000 0.000000
# 4 0.000000 0.000000 0.000000 0.053113 0.000000 0.000000
# 5 0.000000 0.000000 0.000000 0.000000 0.051274 0.000000
# 6 0.000000 0.000000 0.000000 0.000000 0.000000 0.041687
#
#
# Mechanical properties :
#
#
# Convention : Reuss Voigt Hill
#
# Bulk Modulus (GPa) = 55.17046 64.70545 59.93795
# Shear Modulus (GPa) = 18.41737 20.38998 19.40367
#
# Velocity S-wave (km/s) = 3.43903 3.61852 3.52992
# Velocity P-wave (km/s) = 7.15525 7.68177 7.42318
#
# Compressibility (1/GPa) = 0.01812564
#
# Stress axis : x y z
#
# Youngs Moduli (GPa) = 28.73623 50.29585 71.10053
#
# Poissons Ratio (x) = 0.54443 0.79878
# Poissons Ratio (y) = 0.31106 0.23117
# Poissons Ratio (z) = 0.32284 0.16352
#
# Static dielectric constant tensor:
#      x y z
#    x 1.520950 0.000000 0.000000 
#    y 0.000000 1.496740 0.000000 
#    z 0.000000 0.000000 1.525220 
# 
# From -- ./inp_files/19628.got.cif
#   From: 2010.05.17/outbox.cif.g08.bks.cpg/sg40_10_cif.got.tgz:19628.got - 2010.06.03 18:35:42.
