data_PCOD9362337
_publ_section_title
;
Structure prediction by ZEFSAII (Michael W. Deem and Ramdas Pophale) SiO2 
 PCOD9362337
Probable space group: A M A 2
;
_chemical_formula_sum "Si O2"
_cell_formula_units_Z 64
_cell_length_a 21.427815
_cell_length_b 12.558035
_cell_length_c 8.939230
_cell_angle_alpha 90.000000
_cell_angle_beta 90.000000
_cell_angle_gamma 90.000000
_cell_volume 2405.468581
_symmetry_space_group_name_H-M "A M A 2"
_symmetry_group_IT_number 40
_symmetry_cell_setting 'orthorhombic'
loop_
_space_group_symop_operation_xyz
x,y,z
-x,-y,z
1/2-x,y,z
1/2+x,-y,z
x,1/2+y,1/2+z
-x,1/2-y,1/2+z
1/2-x,1/2+y,1/2+z
1/2+x,1/2-y,1/2+z
loop_
_atom_site_type_symbol
_atom_site_label
_atom_site_fract_x
_atom_site_fract_y
_atom_site_fract_z
Si Si1 0.177248 0.306793 0.166010
Si Si2 0.866029 0.874719 0.423923
Si Si3 0.506887 0.121120 0.475935
Si Si4 0.641020 0.609379 0.844808
Si Si5 0.622551 0.636903 0.441881
Si Si6 0.321056 0.572473 0.565539
Si Si7 0.500327 0.373287 0.305805
Si Si8 0.142255 0.164883 0.760828
O O1 0.250000 0.307382 0.206121
O O2 0.138494 0.388960 0.268724
O O3 0.156406 0.180615 0.152190
O O4 0.171066 0.351398 0.999282
O O5 0.842356 0.751696 0.428597
O O6 0.857849 0.895360 0.603089
O O7 0.940381 0.862473 0.397222
O O8 0.843823 0.982405 0.339096
O O9 0.566436 0.120084 0.369536
O O10 0.516402 0.173484 0.640146
O O11 0.500000 0.000000 0.524672
O O12 0.657747 0.709160 0.737354
O O13 0.640854 0.538663 0.546930
O O14 0.548273 0.655448 0.437343
O O15 0.250000 0.548517 0.610334
O O16 0.318449 0.614373 0.393087
O O17 0.500000 0.500000 0.314293
O O18 0.571698 0.340106 0.325932
#
# Coordination Sequence:
#
# PCOD9362337 Si02
#       8
#     8   8   8   8   8   8   8   8
#     4  10  22  39  60  83 107 148 202 246 289 342
#     4  10  22  33  53  86 120 148 183 231 291 360
#     4   8  15  30  52  79 111 144 178 226 280 333
#     4  10  18  36  59  78 110 149 191 236 282 341
#     4  12  21  36  58  86 122 154 188 238 299 359
#     4  10  22  40  61  83 110 150 203 253 291 342
#     4  10  17  31  56  86 118 145 187 238 286 344
#     4  10  20  36  59  84 112 152 194 239 291 348
#
# _framework density 26.606043
#
# number of rings (size 3 to 8) (size 9 to 14) (size 15 to 20)
#    0.000    2.000    2.500    2.625    0.000    1.000 
#    0.000    2.500    0.000    3.750    0.000    0.000 
#    0.000    0.000    0.000    0.000    0.000    0.000 
#
# Total GULP energy -178317.460410 kJ/mol
# GULP energy per Si atom -5572.420638 kJ/mol
# Density = 2.654549 g / cm^3
# Si number density = 26.606043 Si / 1000 Ang^3
#
#
#
# Elastic Constant Matrix: (Units=GPa)
#
#
# Indices 1 2 3 4 5 6 
#
# 1 56.7722 -16.5587 11.8500 0.0000 0.0000 0.0000
# 2 -16.5587 186.1784 38.7152 0.0000 0.0000 0.0000
# 3 11.8500 38.7152 40.9318 0.0000 0.0000 0.0000
# 4 0.0000 0.0000 0.0000 72.8458 0.0000 0.0000
# 5 0.0000 0.0000 0.0000 0.0000 37.4195 0.0000
# 6 0.0000 0.0000 0.0000 0.0000 0.0000 14.6568
#
#
#
# Elastic Compliance Matrix: (Units=1/GPa)
#
#
# Indices 1 2 3 4 5 6 
#
# 1 0.020753 0.003853 -0.009652 0.000000 0.000000 0.000000
# 2 0.003853 0.007402 -0.008116 0.000000 0.000000 0.000000
# 3 -0.009652 -0.008116 0.034902 0.000000 0.000000 0.000000
# 4 0.000000 0.000000 0.000000 0.013728 0.000000 0.000000
# 5 0.000000 0.000000 0.000000 0.000000 0.026724 0.000000
# 6 0.000000 0.000000 0.000000 0.000000 0.000000 0.068228
#
#
# Mechanical properties :
#
#
# Convention : Reuss Voigt Hill
#
# Bulk Modulus (GPa) = 28.38887 39.09950 33.74418
# Shear Modulus (GPa) = 23.66207 41.64282 32.65244
#
# Velocity S-wave (km/s) = 2.98543 3.96051 3.50702
# Velocity P-wave (km/s) = 4.75152 5.97007 5.39531
#
# Compressibility (1/GPa) = 0.03522507
#
# Stress axis : x y z
#
# Youngs Moduli (GPa) = 48.18643 135.10578 28.65170
#
# Poissons Ratio (x) = -0.52055 0.27655
# Poissons Ratio (y) = -0.18566 0.23254
# Poissons Ratio (z) = 0.46511 1.09655
#
# Static dielectric constant tensor:
#      x y z
#    x 2.047490 0.000000 0.000000 
#    y 0.000000 2.153230 0.000000 
#    z 0.000000 0.000000 2.274660 
# 
# From -- ./inp_files/14045.got.cif
#   From: 2010.05.17/outbox.cif.g08.bks.cpg/sg40_8_cif.got.tgz:14045.got - 2010.06.03 18:35:42.
