data_PCOD9362575
_publ_section_title
;
Structure prediction by ZEFSAII (Michael W. Deem and Ramdas Pophale) SiO2 
 PCOD9362575
Probable space group: A M A 2
;
_chemical_formula_sum "Si O2"
_cell_formula_units_Z 48
_cell_length_a 8.557061
_cell_length_b 24.514793
_cell_length_c 14.067148
_cell_angle_alpha 90.000000
_cell_angle_beta 90.000000
_cell_angle_gamma 90.000000
_cell_volume 2950.930051
_symmetry_space_group_name_H-M "A M A 2"
_symmetry_group_IT_number 40
_symmetry_cell_setting 'orthorhombic'
loop_
_space_group_symop_operation_xyz
x,y,z
-x,-y,z
1/2-x,y,z
1/2+x,-y,z
x,1/2+y,1/2+z
-x,1/2-y,1/2+z
1/2-x,1/2+y,1/2+z
1/2+x,1/2-y,1/2+z
loop_
_atom_site_type_symbol
_atom_site_label
_atom_site_fract_x
_atom_site_fract_y
_atom_site_fract_z
Si Si1 0.062297 0.276746 0.103440
Si Si2 0.939453 0.833829 0.999141
Si Si3 0.563451 0.334096 0.919635
Si Si4 0.061698 0.559141 0.606685
Si Si5 0.938068 0.771961 0.813025
Si Si6 0.936707 0.059377 0.320405
O O1 0.250000 0.280041 0.099840
O O2 0.002813 0.285429 0.209588
O O3 0.015386 0.215782 0.068925
O O4 0.992236 0.317396 0.025035
O O5 0.750000 0.835277 0.998909
O O6 0.987901 0.815626 0.893640
O O7 0.992747 0.891740 0.038980
O O8 0.750000 0.334750 0.914728
O O9 0.499567 0.286465 0.850105
O O10 0.496343 0.391816 0.886172
O O11 0.250000 0.558176 0.609399
O O12 0.000000 0.500000 0.576208
O O13 0.000546 0.568956 0.713545
O O14 0.750000 0.770009 0.810889
O O15 0.750000 0.058213 0.317977
O O16 0.000000 0.000000 0.350440
#
# Coordination Sequence:
#
# PCOD9362575 Si02
#       6
#     8   8   8   8   8   8
#     4  10  19  33  51  74 100 130 165 205 251 303
#     4   8  17  31  48  68  97 130 161 197 243 293
#     4  11  21  34  51  74 102 134 166 204 251 300
#     4  10  18  31  49  72 100 132 165 203 247 294
#     4  10  19  33  51  74 100 131 168 208 251 300
#     4  11  21  34  51  74 101 131 165 205 248 298
#
# _framework density 16.266058000000001
#
# number of rings (size 3 to 8) (size 9 to 14) (size 15 to 20)
#    0.000    2.000    0.000    7.500    0.000    1.333 
#    0.000    9.167    0.000    1.000    0.000    4.667 
#    0.000    0.000    0.000    0.000    0.000    0.000 
#
# Total GULP energy -133957.730837 kJ/mol
# GULP energy per Si atom -5581.572118 kJ/mol
# Density = 1.622904 g / cm^3
# Si number density = 16.266058 Si / 1000 Ang^3
#
#
#
# Elastic Constant Matrix: (Units=GPa)
#
#
# Indices 1 2 3 4 5 6 
#
# 1 99.0832 45.6182 38.1925 0.0000 0.0000 0.0000
# 2 45.6182 155.2723 90.3600 0.0000 0.0000 0.0000
# 3 38.1925 90.3600 120.0950 0.0000 0.0000 0.0000
# 4 0.0000 0.0000 0.0000 21.2242 0.0000 0.0000
# 5 0.0000 0.0000 0.0000 0.0000 20.4394 0.0000
# 6 0.0000 0.0000 0.0000 0.0000 0.0000 17.1758
#
#
#
# Elastic Compliance Matrix: (Units=1/GPa)
#
#
# Indices 1 2 3 4 5 6 
#
# 1 0.011951 -0.002312 -0.002062 0.000000 0.000000 0.000000
# 2 -0.002312 0.011904 -0.008221 0.000000 0.000000 0.000000
# 3 -0.002062 -0.008221 0.015168 0.000000 0.000000 0.000000
# 4 0.000000 0.000000 0.000000 0.047116 0.000000 0.000000
# 5 0.000000 0.000000 0.000000 0.000000 0.048925 0.000000
# 6 0.000000 0.000000 0.000000 0.000000 0.000000 0.058221
#
#
# Mechanical properties :
#
#
# Convention : Reuss Voigt Hill
#
# Bulk Modulus (GPa) = 72.28340 80.31019 76.29679
# Shear Modulus (GPa) = 22.41284 25.11986 23.76635
#
# Velocity S-wave (km/s) = 3.71602 3.93404 3.82658
# Velocity P-wave (km/s) = 7.93388 8.37350 8.15665
#
# Compressibility (1/GPa) = 0.01383443
#
# Stress axis : x y z
#
# Youngs Moduli (GPa) = 83.67209 84.00683 65.92772
#
# Poissons Ratio (x) = 0.19419 0.13591
# Poissons Ratio (y) = 0.19341 0.54201
# Poissons Ratio (z) = 0.17249 0.69065
#
# Static dielectric constant tensor:
#      x y z
#    x 1.549230 0.000000 0.000000 
#    y 0.000000 1.538020 0.000000 
#    z 0.000000 0.000000 1.528200 
# 
# From -- ./inp_files/10263.got.cif
#   From: 2010.05.17/outbox.cif.g08.bks.cpg/sg40_6_cif.got.tgz:10263.got - 2010.06.03 18:35:42.
