data_PCOD9362675
_publ_section_title
;
Structure prediction by ZEFSAII (Michael W. Deem and Ramdas Pophale) SiO2 
 PCOD9362675
Probable space group: A M A 2
;
_chemical_formula_sum "Si O2"
_cell_formula_units_Z 48
_cell_length_a 19.177724
_cell_length_b 10.198035
_cell_length_c 11.951111
_cell_angle_alpha 90.000000
_cell_angle_beta 90.000000
_cell_angle_gamma 90.000000
_cell_volume 2337.339736
_symmetry_space_group_name_H-M "A M A 2"
_symmetry_group_IT_number 40
_symmetry_cell_setting 'orthorhombic'
loop_
_space_group_symop_operation_xyz
x,y,z
-x,-y,z
1/2-x,y,z
1/2+x,-y,z
x,1/2+y,1/2+z
-x,1/2-y,1/2+z
1/2-x,1/2+y,1/2+z
1/2+x,1/2-y,1/2+z
loop_
_atom_site_type_symbol
_atom_site_label
_atom_site_fract_x
_atom_site_fract_y
_atom_site_fract_z
Si Si1 0.438371 0.294259 0.847620
Si Si2 0.071720 0.177255 0.622117
Si Si3 0.898452 0.254621 0.878985
Si Si4 0.912992 0.611080 0.072067
Si Si5 0.418370 0.022492 0.972709
Si Si6 0.669098 0.349670 0.659450
O O1 0.412688 0.277712 0.721324
O O2 0.522238 0.291610 0.845281
O O3 0.414743 0.404308 0.936572
O O4 0.415352 0.158151 0.905385
O O5 0.110826 0.207375 0.507795
O O6 0.987973 0.178908 0.599205
O O7 0.087672 0.023894 0.639668
O O8 0.851098 0.327125 0.788905
O O9 0.894690 0.096410 0.892115
O O10 0.852417 0.708431 0.107261
O O11 0.375290 0.046485 0.086377
O O12 0.500000 0.000000 0.000348
O O13 0.750000 0.377845 0.646893
#
# Coordination Sequence:
#
# PCOD9362675 Si02
#       6
#     8   8   8   8   8   8
#     4   9  17  31  54  81 115 142 188 247 292 333
#     4  10  18  32  57  83 117 140 182 248 292 339
#     4  10  20  33  53  86 114 150 190 237 295 353
#     4   9  19  33  52  86 109 145 189 230 291 347
#     4   9  20  36  58  85 116 152 202 252 288 347
#     4  11  22  38  58  82 119 157 196 241 298 364
#
# _framework density 20.536166999999999
#
# number of rings (size 3 to 8) (size 9 to 14) (size 15 to 20)
#    0.000    2.333    1.667    2.000    4.667    2.000 
#    3.000    0.833    0.000    4.000    0.000    0.000 
#    0.000    0.000    0.000    0.000    0.000    0.000 
#
# Total GULP energy -133796.464731 kJ/mol
# GULP energy per Si atom -5574.852697 kJ/mol
# Density = 2.048943 g / cm^3
# Si number density = 20.536167 Si / 1000 Ang^3
#
#
#
# Elastic Constant Matrix: (Units=GPa)
#
#
# Indices 1 2 3 4 5 6 
#
# 1 49.4742 4.0346 38.1659 0.0000 0.0000 0.0000
# 2 4.0346 32.9915 11.1470 0.0000 0.0000 0.0000
# 3 38.1659 11.1470 152.4489 0.0000 0.0000 0.0000
# 4 0.0000 0.0000 0.0000 14.8506 0.0000 0.0000
# 5 0.0000 0.0000 0.0000 0.0000 32.9498 0.0000
# 6 0.0000 0.0000 0.0000 0.0000 0.0000 13.4264
#
#
#
# Elastic Compliance Matrix: (Units=1/GPa)
#
#
# Indices 1 2 3 4 5 6 
#
# 1 0.025081 -0.000970 -0.006208 0.000000 0.000000 0.000000
# 2 -0.000970 0.031116 -0.002032 0.000000 0.000000 0.000000
# 3 -0.006208 -0.002032 0.008262 0.000000 0.000000 0.000000
# 4 0.000000 0.000000 0.000000 0.067337 0.000000 0.000000
# 5 0.000000 0.000000 0.000000 0.000000 0.030349 0.000000
# 6 0.000000 0.000000 0.000000 0.000000 0.000000 0.074480
#
#
# Mechanical properties :
#
#
# Convention : Reuss Voigt Hill
#
# Bulk Modulus (GPa) = 21.72077 37.95663 29.83870
# Shear Modulus (GPa) = 18.49167 24.34986 21.42076
#
# Velocity S-wave (km/s) = 3.00400 3.44714 3.23317
# Velocity P-wave (km/s) = 4.75729 5.86231 5.33847
#
# Compressibility (1/GPa) = 0.04603888
#
# Stress axis : x y z
#
# Youngs Moduli (GPa) = 39.87126 32.13770 121.03025
#
# Poissons Ratio (x) = 0.03116 0.75137
# Poissons Ratio (y) = 0.03866 0.24599
# Poissons Ratio (z) = 0.24753 0.06532
#
# Static dielectric constant tensor:
#      x y z
#    x 1.597380 0.000000 0.000000 
#    y 0.000000 1.828190 0.000000 
#    z 0.000000 0.000000 1.823350 
# 
# From -- ./inp_files/12873.got.cif
#   From: 2010.05.17/outbox.cif.g08.bks.cpg/sg40_7_cif.got.tgz:12873.got - 2010.06.03 18:35:42.
