data_PCOD9362372
_publ_section_title
;
Structure prediction by ZEFSAII (Michael W. Deem and Ramdas Pophale) SiO2 
 PCOD9362372
Probable space group: A M A 2
;
_chemical_formula_sum "Si O2"
_cell_formula_units_Z 40
_cell_length_a 17.307730
_cell_length_b 9.768164
_cell_length_c 11.004016
_cell_angle_alpha 90.000000
_cell_angle_beta 90.000000
_cell_angle_gamma 90.000000
_cell_volume 1860.391160
_symmetry_space_group_name_H-M "A M A 2"
_symmetry_group_IT_number 40
_symmetry_cell_setting 'orthorhombic'
loop_
_space_group_symop_operation_xyz
x,y,z
-x,-y,z
1/2-x,y,z
1/2+x,-y,z
x,1/2+y,1/2+z
-x,1/2-y,1/2+z
1/2-x,1/2+y,1/2+z
1/2+x,1/2-y,1/2+z
loop_
_atom_site_type_symbol
_atom_site_label
_atom_site_fract_x
_atom_site_fract_y
_atom_site_fract_z
Si Si1 0.168147 0.872560 0.548190
Si Si2 0.500000 0.500000 0.409174
Si Si3 0.997591 0.217518 0.508907
Si Si4 0.614325 0.887683 0.709362
Si Si5 0.335301 0.918175 0.264971
Si Si6 0.500000 0.000000 0.293885
O O1 0.250000 0.798053 0.560656
O O2 0.166010 0.935188 0.411864
O O3 0.090602 0.784803 0.554518
O O4 0.163319 0.993140 0.646660
O O5 0.474627 0.369615 0.485339
O O6 0.570006 0.445947 0.325949
O O7 0.049070 0.145818 0.609513
O O8 0.002781 0.131736 0.383604
O O9 0.655956 0.744769 0.739254
O O10 0.250000 0.962893 0.219437
O O11 0.416910 0.987903 0.227480
#
# Coordination Sequence:
#
# PCOD9362372 Si02
#       6
#     8   4   8   8   8   4
#     4  10  19  34  61  91 122 162 211 259 310 381
#     4  12  23  37  62  90 124 156 211 267 310 380
#     4  11  21  38  60  93 120 163 213 257 310 378
#     4  12  20  39  65  88 124 165 213 254 321 379
#     4  10  21  36  65  98 125 168 218 258 317 385
#     4  10  17  39  62  86 128 168 201 261 320 360
#
# _framework density 21.500854
#
# number of rings (size 3 to 8) (size 9 to 14) (size 15 to 20)
#    0.000    1.200   10.000    0.600    0.000    0.800 
#    0.000    0.000    0.000   19.200    0.000    0.000 
#    0.000    0.000    0.000    0.000    0.000    0.000 
#
# Total GULP energy -111666.170559 kJ/mol
# GULP energy per Si atom -5583.308528 kJ/mol
# Density = 2.145192 g / cm^3
# Si number density = 21.500854 Si / 1000 Ang^3
#
#
#
# Elastic Constant Matrix: (Units=GPa)
#
#
# Indices 1 2 3 4 5 6 
#
# 1 178.9680 26.3613 22.2543 0.0000 0.0000 0.0000
# 2 26.3613 92.5009 15.4364 0.0000 0.0000 0.0000
# 3 22.2543 15.4364 44.0013 0.0000 0.0000 0.0000
# 4 0.0000 0.0000 0.0000 67.9332 0.0000 0.0000
# 5 0.0000 0.0000 0.0000 0.0000 -2.8689 0.0000
# 6 0.0000 0.0000 0.0000 0.0000 0.0000 15.6687
#
#
#
# Elastic Compliance Matrix: (Units=1/GPa)
#
#
# Indices 1 2 3 4 5 6 
#
# 1 0.006107 -0.001301 -0.002632 0.000000 0.000000 0.000000
# 2 -0.001301 0.011760 -0.003468 0.000000 0.000000 0.000000
# 3 -0.002632 -0.003468 0.025274 0.000000 0.000000 0.000000
# 4 0.000000 0.000000 0.000000 0.014720 0.000000 0.000000
# 5 0.000000 0.000000 0.000000 0.000000 -0.348571 0.000000
# 6 0.000000 0.000000 0.000000 0.000000 0.000000 0.063821
#
#
# Mechanical properties :
#
#
# Convention : Reuss Voigt Hill
#
# Bulk Modulus (GPa) = 35.28637 49.28603 42.28620
# Shear Modulus (GPa) = -24.67430 32.90781 4.11676
#
# Velocity S-wave (km/s) = -3.39129 3.91645 1.38523
# Velocity P-wave (km/s) = 1.05486 6.58969 4.71894
#
# Compressibility (1/GPa) = 0.02833956
#
# Stress axis : x y z
#
# Youngs Moduli (GPa) = 163.75941 85.03295 39.56587
#
# Poissons Ratio (x) = 0.11063 0.10414
# Poissons Ratio (y) = 0.21306 0.13720
# Poissons Ratio (z) = 0.43102 0.29486
#
# Static dielectric constant tensor:
#      x y z
#    x 1.793310 0.000000 0.000000 
#    y 0.000000 1.764070 0.000000 
#    z 0.000000 0.000000 1.777960 
# 
# From -- ./inp_files/17491.got.cif
#   From: 2010.05.17/outbox.cif.g08.bks.cpg/sg40_9_cif.got.tgz:17491.got - 2010.06.03 18:35:42.
