data_PCOD9362454
_publ_section_title
;
Structure prediction by ZEFSAII (Michael W. Deem and Ramdas Pophale) SiO2 
 PCOD9362454
Probable space group: A M A 2
;
_chemical_formula_sum "Si O2"
_cell_formula_units_Z 48
_cell_length_a 8.535615
_cell_length_b 14.252931
_cell_length_c 19.208319
_cell_angle_alpha 90.000000
_cell_angle_beta 90.000000
_cell_angle_gamma 90.000000
_cell_volume 2336.836676
_symmetry_space_group_name_H-M "A M A 2"
_symmetry_group_IT_number 40
_symmetry_cell_setting 'orthorhombic'
loop_
_space_group_symop_operation_xyz
x,y,z
-x,-y,z
1/2-x,y,z
1/2+x,-y,z
x,1/2+y,1/2+z
-x,1/2-y,1/2+z
1/2-x,1/2+y,1/2+z
1/2+x,1/2-y,1/2+z
loop_
_atom_site_type_symbol
_atom_site_label
_atom_site_fract_x
_atom_site_fract_y
_atom_site_fract_z
Si Si1 0.061030 0.101888 0.321140
Si Si2 0.567952 0.099126 0.691944
Si Si3 0.559224 0.304742 0.681216
Si Si4 0.563030 0.394481 0.535492
Si Si5 0.929679 0.410138 0.041415
Si Si6 0.069848 0.754033 0.929938
O O1 0.250000 0.101506 0.328735
O O2 0.019641 0.120858 0.240712
O O3 0.004760 0.191634 0.366315
O O4 0.000000 0.000000 0.342099
O O5 0.750000 0.098420 0.709349
O O6 0.501732 0.202607 0.708174
O O7 0.538853 0.099375 0.608618
O O8 0.500000 0.000000 0.718142
O O9 0.750000 0.297943 0.677922
O O10 0.505235 0.337301 0.604589
O O11 0.500000 0.500000 0.538203
O O12 0.750000 0.396232 0.539489
O O13 0.514448 0.342824 0.463991
O O14 0.750000 0.426142 0.063908
O O15 0.000000 0.500000 0.002480
O O16 0.931049 0.321273 0.992557
O O17 0.250000 0.780025 0.913488
#
# Coordination Sequence:
#
# PCOD9362454 Si02
#       6
#     8   8   8   8   8   8
#     4  10  21  39  60  85 117 152 190 233 286 343
#     4  10  18  31  50  77 108 142 182 225 278 328
#     4   9  19  36  58  83 115 153 189 233 285 339
#     4  11  22  38  60  85 113 148 192 239 288 340
#     4  10  18  28  46  75 107 139 176 219 270 322
#     4  10  21  36  55  81 113 149 186 230 282 337
#
# _framework density 20.540586999999999
#
# number of rings (size 3 to 8) (size 9 to 14) (size 15 to 20)
#    0.000    2.000    1.667    3.500    0.000    1.333 
#    0.000    3.333    0.000    2.000    0.000    0.000 
#    0.000    0.000    0.000    0.000    0.000    0.000 
#
# Total GULP energy -133748.859281 kJ/mol
# GULP energy per Si atom -5572.869137 kJ/mol
# Density = 2.049384 g / cm^3
# Si number density = 20.540587 Si / 1000 Ang^3
#
#
#
# Elastic Constant Matrix: (Units=GPa)
#
#
# Indices 1 2 3 4 5 6 
#
# 1 21.1706 25.2722 4.9832 0.0000 0.0000 0.0000
# 2 25.2722 140.0953 34.7165 0.0000 0.0000 0.0000
# 3 4.9832 34.7165 73.0220 0.0000 0.0000 0.0000
# 4 0.0000 0.0000 0.0000 21.3322 0.0000 0.0000
# 5 0.0000 0.0000 0.0000 0.0000 13.9381 0.0000
# 6 0.0000 0.0000 0.0000 0.0000 0.0000 29.7048
#
#
#
# Elastic Compliance Matrix: (Units=1/GPa)
#
#
# Indices 1 2 3 4 5 6 
#
# 1 0.060291 -0.011173 0.001197 0.000000 0.000000 0.000000
# 2 -0.011173 0.010162 -0.004069 0.000000 0.000000 0.000000
# 3 0.001197 -0.004069 0.015547 0.000000 0.000000 0.000000
# 4 0.000000 0.000000 0.000000 0.046878 0.000000 0.000000
# 5 0.000000 0.000000 0.000000 0.000000 0.071746 0.000000
# 6 0.000000 0.000000 0.000000 0.000000 0.000000 0.033665
#
#
# Mechanical properties :
#
#
# Convention : Reuss Voigt Hill
#
# Bulk Modulus (GPa) = 17.26768 40.47019 28.86893
# Shear Modulus (GPa) = 17.50211 24.28275 20.89243
#
# Velocity S-wave (km/s) = 2.92220 3.44202 3.19271
# Velocity P-wave (km/s) = 4.45090 5.96171 5.26082
#
# Compressibility (1/GPa) = 0.05791168
#
# Stress axis : x y z
#
# Youngs Moduli (GPa) = 16.58625 98.40839 64.32051
#
# Poissons Ratio (x) = 1.09950 -0.07702
# Poissons Ratio (y) = 0.18531 0.26170
# Poissons Ratio (z) = -0.01986 0.40039
#
# Static dielectric constant tensor:
#      x y z
#    x 1.729420 0.000000 0.000000 
#    y 0.000000 1.797930 0.000000 
#    z 0.000000 0.000000 1.741570 
# 
# From -- ./inp_files/19225.got.cif
#   From: 2010.05.17/outbox.cif.g08.bks.cpg/sg40_10_cif.got.tgz:19225.got - 2010.06.03 18:35:42.
