data_PCOD9362036
_publ_section_title
;
Structure prediction by ZEFSAII (Michael W. Deem and Ramdas Pophale) SiO2 
 PCOD9362036
Probable space group: A B M 2
;
_chemical_formula_sum "Si O2"
_cell_formula_units_Z 48
_cell_length_a 9.517013
_cell_length_b 27.501711
_cell_length_c 8.389927
_cell_angle_alpha 90.000000
_cell_angle_beta 90.000000
_cell_angle_gamma 90.000000
_cell_volume 2195.930337
_symmetry_space_group_name_H-M "A B M 2"
_symmetry_group_IT_number 39
_symmetry_cell_setting 'orthorhombic'
loop_
_space_group_symop_operation_xyz
x,y,z
-x,-y,z
-x,1/2+y,z
x,1/2-y,z
x,1/2+y,1/2+z
-x,1/2-y,1/2+z
-x,y,1/2+z
x,-y,1/2+z
loop_
_atom_site_type_symbol
_atom_site_label
_atom_site_fract_x
_atom_site_fract_y
_atom_site_fract_z
Si Si1 0.204941 0.342552 0.806780
Si Si2 0.300413 0.347315 0.297658
Si Si3 0.164186 0.052048 0.376671
Si Si4 0.451840 0.806694 0.110558
Si Si5 0.046997 0.693456 0.621346
Si Si6 0.158064 0.447169 0.757630
O O1 0.341791 0.313071 0.756227
O O2 0.236708 0.399611 0.822275
O O3 0.091797 0.336730 0.663105
O O4 0.124500 0.322776 0.960666
O O5 0.255196 0.403212 0.312497
O O6 0.409514 0.336308 0.156282
O O7 0.374595 0.328378 0.457145
O O8 0.160164 0.316822 0.260048
O O9 0.162481 0.052864 0.567236
O O10 0.004044 0.057684 0.314436
O O11 0.212237 0.998841 0.319929
O O12 0.484969 0.750000 0.088569
O O13 0.009943 0.750000 0.614886
#
# Coordination Sequence:
#
# PCOD9362036 Si02
#       6
#     8   8   8   8   8   8
#     4  12  24  42  68 101 140 178 230 292 352 417
#     4  12  26  46  70  99 137 185 236 289 351 420
#     4  11  23  42  74 105 140 181 230 291 353 424
#     4  12  25  46  69  96 139 188 232 283 353 423
#     4  12  24  40  66 103 139 179 233 291 348 416
#     4  11  22  42  71 108 137 179 225 288 357 410
#
# _framework density 21.858616999999999
#
# number of rings (size 3 to 8) (size 9 to 14) (size 15 to 20)
#    0.000    0.333    3.333    8.000    2.333    0.000 
#    0.000    0.833    0.000    0.000    0.000    0.000 
#    0.000    0.000    0.000    0.000    0.000    0.000 
#
# Total GULP energy -134489.309487 kJ/mol
# GULP energy per Si atom -5603.721229 kJ/mol
# Density = 2.180887 g / cm^3
# Si number density = 21.858617 Si / 1000 Ang^3
#
#
#
# Elastic Constant Matrix: (Units=GPa)
#
#
# Indices 1 2 3 4 5 6 
#
# 1 64.1915 11.5361 14.1392 0.0000 0.0000 0.0000
# 2 11.5361 180.0368 35.8714 0.0000 0.0000 0.0000
# 3 14.1392 35.8714 68.0723 0.0000 0.0000 0.0000
# 4 0.0000 0.0000 0.0000 -136.8087 0.0000 0.0000
# 5 0.0000 0.0000 0.0000 0.0000 35.2435 0.0000
# 6 0.0000 0.0000 0.0000 0.0000 0.0000 28.9720
#
#
#
# Elastic Compliance Matrix: (Units=1/GPa)
#
#
# Indices 1 2 3 4 5 6 
#
# 1 0.016353 -0.000415 -0.003178 0.000000 0.000000 0.000000
# 2 -0.000415 0.006217 -0.003190 0.000000 0.000000 0.000000
# 3 -0.003178 -0.003190 0.017031 0.000000 0.000000 0.000000
# 4 0.000000 0.000000 0.000000 -0.007309 0.000000 0.000000
# 5 0.000000 0.000000 0.000000 0.000000 0.028374 0.000000
# 6 0.000000 0.000000 0.000000 0.000000 0.000000 0.034516
#
#
# Mechanical properties :
#
#
# Convention : Reuss Voigt Hill
#
# Bulk Modulus (GPa) = 38.40881 48.37712 43.39297
# Shear Modulus (GPa) = 42.58039 2.19829 22.38934
#
# Velocity S-wave (km/s) = 4.41839 1.00393 3.20391
# Velocity P-wave (km/s) = 6.60600 4.85012 5.79495
#
# Compressibility (1/GPa) = 0.02603569
#
# Stress axis : x y z
#
# Youngs Moduli (GPa) = 61.15110 160.86158 58.71557
#
# Poissons Ratio (x) = 0.06669 0.18661
# Poissons Ratio (y) = 0.02535 0.18729
# Poissons Ratio (z) = 0.19435 0.51311
#
# Static dielectric constant tensor:
#      x y z
#    x 1.786260 0.000000 0.000000 
#    y 0.000000 1.891910 0.000000 
#    z 0.000000 0.000000 1.847810 
# 
# From -- ./inp_files/2316.got.cif
#   From: 2010.05.17/outbox.cif.g08.bks.cpg/sg39_2_cif.got.tgz:2316.got - 2010.06.03 18:22:40.
