data_PCOD9362775
_publ_section_title
;
Structure prediction by ZEFSAII (Michael W. Deem and Ramdas Pophale) SiO2 
 PCOD9362775
Probable space group: A M A 2
;
_chemical_formula_sum "Si O2"
_cell_formula_units_Z 28
_cell_length_a 5.558078
_cell_length_b 7.132045
_cell_length_c 30.739777
_cell_angle_alpha 90.000000
_cell_angle_beta 90.000000
_cell_angle_gamma 90.000000
_cell_volume 1218.538975
_symmetry_space_group_name_H-M "A M A 2"
_symmetry_group_IT_number 40
_symmetry_cell_setting 'orthorhombic'
loop_
_space_group_symop_operation_xyz
x,y,z
-x,-y,z
1/2-x,y,z
1/2+x,-y,z
x,1/2+y,1/2+z
-x,1/2-y,1/2+z
1/2-x,1/2+y,1/2+z
1/2+x,1/2-y,1/2+z
loop_
_atom_site_type_symbol
_atom_site_label
_atom_site_fract_x
_atom_site_fract_y
_atom_site_fract_z
Si Si1 0.250000 0.296317 0.320920
Si Si2 0.750000 0.226622 0.545172
Si Si3 0.250000 0.782329 0.182803
Si Si4 0.750000 0.298409 0.010269
Si Si5 0.750000 0.288207 0.647604
Si Si6 0.750000 0.884990 0.408361
Si Si7 0.750000 0.276273 0.285653
O O1 0.250000 0.281769 0.373047
O O2 0.497043 0.205071 0.304339
O O3 0.250000 0.504938 0.300663
O O4 0.499361 0.293614 0.524704
O O5 0.750000 0.275428 0.595791
O O6 0.750000 0.002947 0.534053
O O7 0.500265 0.704037 0.164588
O O8 0.250000 0.757081 0.234367
O O9 0.250000 0.999170 0.166512
O O10 0.750000 0.324613 0.958576
O O11 0.500000 0.000000 0.401766
#
# Coordination Sequence:
#
# PCOD9362775 Si02
#       7
#     4   4   4   4   4   4   4
#     4  10  23  40  65  92 122 168 216 266 314 388
#     4  10  18  35  58  86 122 155 203 249 308 367
#     4  10  21  40  61  85 123 162 209 266 318 375
#     4  10  19  35  58  89 120 162 199 252 306 379
#     4  10  21  37  60  90 119 160 213 262 314 372
#     4  12  21  40  62 100 129 163 219 263 326 377
#     4  10  21  45  64  86 127 168 217 260 326 384
#
# _framework density 22.978335000000001
#
# number of rings (size 3 to 8) (size 9 to 14) (size 15 to 20)
#    0.000    1.714    2.857    2.571    0.000    0.000 
#   15.429   17.143    0.000   20.571    0.000    0.000 
#    0.000    0.000    0.000    0.000    0.000    0.000 
#
# Total GULP energy -78184.868158 kJ/mol
# GULP energy per Si atom -5584.633440 kJ/mol
# Density = 2.292604 g / cm^3
# Si number density = 22.978335 Si / 1000 Ang^3
#
#
#
# Elastic Constant Matrix: (Units=GPa)
#
#
# Indices 1 2 3 4 5 6 
#
# 1 299.6345 25.5064 77.1749 0.0000 0.0000 0.0000
# 2 25.5064 133.9528 54.3352 0.0000 0.0000 0.0000
# 3 77.1749 54.3352 237.9412 0.0000 0.0000 0.0000
# 4 0.0000 0.0000 0.0000 43.8602 0.0000 0.0000
# 5 0.0000 0.0000 0.0000 0.0000 54.9863 0.0000
# 6 0.0000 0.0000 0.0000 0.0000 0.0000 -35.5060
#
#
#
# Elastic Compliance Matrix: (Units=1/GPa)
#
#
# Indices 1 2 3 4 5 6 
#
# 1 0.003648 -0.000237 -0.001129 0.000000 0.000000 0.000000
# 2 -0.000237 0.008243 -0.001806 0.000000 0.000000 0.000000
# 3 -0.001129 -0.001806 0.004981 0.000000 0.000000 0.000000
# 4 0.000000 0.000000 0.000000 0.022800 0.000000 0.000000
# 5 0.000000 0.000000 0.000000 0.000000 0.018186 0.000000
# 6 0.000000 0.000000 0.000000 0.000000 0.000000 -0.028164
#
#
# Mechanical properties :
#
#
# Convention : Reuss Voigt Hill
#
# Bulk Modulus (GPa) = 94.97093 109.50686 102.23890
# Shear Modulus (GPa) = 126.43172 46.96889 86.70030
#
# Velocity S-wave (km/s) = 7.42574 4.52602 6.14925
# Velocity P-wave (km/s) = 10.72112 8.66448 9.74720
#
# Compressibility (1/GPa) = 0.01052954
#
# Stress axis : x y z
#
# Youngs Moduli (GPa) = 274.09194 121.31878 200.75057
#
# Poissons Ratio (x) = 0.02871 0.22671
# Poissons Ratio (y) = 0.06486 0.36246
# Poissons Ratio (z) = 0.30953 0.21904
#
# Static dielectric constant tensor:
#      x y z
#    x 1.899970 0.000000 0.000000 
#    y 0.000000 1.821310 0.000000 
#    z 0.000000 0.000000 1.786200 
# 
# From -- ./inp_files/23747.got.cif
#   From: 2010.05.17/outbox.cif.g08.bks.cpg/sg40_12_cif.got.tgz:23747.got - 2010.06.03 18:35:42.
