data_PCOD9362389
_publ_section_title
;
Structure prediction by ZEFSAII (Michael W. Deem and Ramdas Pophale) SiO2 
 PCOD9362389
Probable space group: A M A 2
;
_chemical_formula_sum "Si O2"
_cell_formula_units_Z 64
_cell_length_a 8.680786
_cell_length_b 27.168058
_cell_length_c 19.076578
_cell_angle_alpha 90.000000
_cell_angle_beta 90.000000
_cell_angle_gamma 90.000000
_cell_volume 4499.022016
_symmetry_space_group_name_H-M "A M A 2"
_symmetry_group_IT_number 40
_symmetry_cell_setting 'orthorhombic'
loop_
_space_group_symop_operation_xyz
x,y,z
-x,-y,z
1/2-x,y,z
1/2+x,-y,z
x,1/2+y,1/2+z
-x,1/2-y,1/2+z
1/2-x,1/2+y,1/2+z
1/2+x,1/2-y,1/2+z
loop_
_atom_site_type_symbol
_atom_site_label
_atom_site_fract_x
_atom_site_fract_y
_atom_site_fract_z
Si Si1 0.062640 0.354867 0.963050
Si Si2 0.571719 0.696705 0.097866
Si Si3 0.928007 0.801143 0.015047
Si Si4 0.566813 0.651664 0.645646
Si Si5 0.936308 0.745467 0.881729
Si Si6 0.065893 0.053373 0.380107
Si Si7 0.435103 0.447005 0.724383
Si Si8 0.064513 0.745539 0.726618
O O1 0.250000 0.357706 0.963815
O O2 0.021989 0.307947 0.914085
O O3 0.992978 0.403889 0.930919
O O4 0.006901 0.342140 0.042074
O O5 0.750000 0.682627 0.109313
O O6 0.571927 0.748402 0.055259
O O7 0.505341 0.711793 0.173216
O O8 0.750000 0.817137 0.010838
O O9 0.019373 0.837505 0.065600
O O10 0.986195 0.787261 0.937626
O O11 0.750000 0.656836 0.652978
O O12 0.522574 0.597804 0.673348
O O13 0.489392 0.693563 0.693940
O O14 0.750000 0.746995 0.879206
O O15 0.003872 0.751354 0.804864
O O16 0.250000 0.051713 0.378085
O O17 0.001972 0.063324 0.301789
O O18 0.000000 0.000000 0.400812
O O19 0.500000 0.500000 0.701983
O O20 0.250000 0.449763 0.729443
O O21 0.250000 0.746344 0.725549
#
# Coordination Sequence:
#
# PCOD9362389 Si02
#       8
#     8   8   8   8   8   8   8   8
#     4   9  16  29  45  57  77 109 140 169 203 240
#     4   7  13  26  41  56  76 105 137 166 197 235
#     4   8  15  28  43  58  79 108 139 167 199 242
#     4  10  19  29  42  60  82 108 138 172 209 244
#     4   9  17  28  42  61  85 112 139 169 205 240
#     4  11  21  31  43  60  81 105 136 171 205 240
#     4  10  20  32  44  59  80 107 138 171 206 240
#     4  10  18  27  41  61  84 112 143 169 198 241
#
# _framework density 14.225313999999999
#
# number of rings (size 3 to 8) (size 9 to 14) (size 15 to 20)
#    0.000    2.750    0.000    6.000    0.000    6.000 
#    0.000    5.625    0.000    0.000    0.000    0.000 
#    0.000    1.000    0.000    9.000    0.000    5.750 
#
# Total GULP energy -178191.663563 kJ/mol
# GULP energy per Si atom -5568.489486 kJ/mol
# Density = 1.419294 g / cm^3
# Si number density = 14.225314 Si / 1000 Ang^3
#
#
#
# Elastic Constant Matrix: (Units=GPa)
#
#
# Indices 1 2 3 4 5 6 
#
# 1 39.1497 32.6264 32.5297 0.0000 0.0000 0.0000
# 2 32.6264 94.2523 67.1444 0.0000 0.0000 0.0000
# 3 32.5297 67.1444 127.5984 0.0000 0.0000 0.0000
# 4 0.0000 0.0000 0.0000 27.1634 0.0000 0.0000
# 5 0.0000 0.0000 0.0000 0.0000 30.8924 0.0000
# 6 0.0000 0.0000 0.0000 0.0000 0.0000 7.9268
#
#
#
# Elastic Compliance Matrix: (Units=1/GPa)
#
#
# Indices 1 2 3 4 5 6 
#
# 1 0.037349 -0.009831 -0.004348 0.000000 0.000000 0.000000
# 2 -0.009831 0.019560 -0.007786 0.000000 0.000000 0.000000
# 3 -0.004348 -0.007786 0.013043 0.000000 0.000000 0.000000
# 4 0.000000 0.000000 0.000000 0.036814 0.000000 0.000000
# 5 0.000000 0.000000 0.000000 0.000000 0.032370 0.000000
# 6 0.000000 0.000000 0.000000 0.000000 0.000000 0.126154
#
#
# Mechanical properties :
#
#
# Convention : Reuss Voigt Hill
#
# Bulk Modulus (GPa) = 38.43168 58.40014 48.41591
# Shear Modulus (GPa) = 15.72845 21.77653 18.75249
#
# Velocity S-wave (km/s) = 3.32876 3.91683 3.63471
# Velocity P-wave (km/s) = 6.46910 7.84845 7.19192
#
# Compressibility (1/GPa) = 0.02602020
#
# Stress axis : x y z
#
# Youngs Moduli (GPa) = 26.77451 51.12507 76.66919
#
# Poissons Ratio (x) = 0.50260 0.33340
# Poissons Ratio (y) = 0.26322 0.59698
# Poissons Ratio (z) = 0.11643 0.39808
#
# Static dielectric constant tensor:
#      x y z
#    x 1.480900 0.000000 0.000000 
#    y 0.000000 1.454240 0.000000 
#    z 0.000000 0.000000 1.485270 
# 
# From -- ./inp_files/22573.got.cif
#   From: 2010.05.17/outbox.cif.g08.bks.cpg/sg40_12_cif.got.tgz:22573.got - 2010.06.03 18:35:42.
