data_PCOD9362159
_publ_section_title
;
Structure prediction by ZEFSAII (Michael W. Deem and Ramdas Pophale) SiO2 
 PCOD9362159
Probable space group: A B M 2
;
_chemical_formula_sum "Si O2"
_cell_formula_units_Z 56
_cell_length_a 4.871835
_cell_length_b 16.097026
_cell_length_c 30.696931
_cell_angle_alpha 90.000000
_cell_angle_beta 90.000000
_cell_angle_gamma 90.000000
_cell_volume 2407.316401
_symmetry_space_group_name_H-M "A B M 2"
_symmetry_group_IT_number 39
_symmetry_cell_setting 'orthorhombic'
loop_
_space_group_symop_operation_xyz
x,y,z
-x,-y,z
-x,1/2+y,z
x,1/2-y,z
x,1/2+y,1/2+z
-x,1/2-y,1/2+z
-x,y,1/2+z
x,-y,1/2+z
loop_
_atom_site_type_symbol
_atom_site_label
_atom_site_fract_x
_atom_site_fract_y
_atom_site_fract_z
Si Si1 0.393178 0.406196 0.741460
Si Si2 0.749382 0.561018 0.467738
Si Si3 0.410783 0.093893 0.106492
Si Si4 0.920398 0.653480 0.554479
Si Si5 0.579125 0.153570 0.880525
Si Si6 0.914790 0.595111 0.827970
Si Si7 0.101118 0.655320 0.692321
O O1 0.500000 0.500000 0.747949
O O2 0.234285 0.374740 0.784129
O O3 0.663023 0.355498 0.728736
O O4 0.162392 0.400683 0.703731
O O5 0.500000 0.500000 0.478542
O O6 0.814842 0.619274 0.508660
O O7 0.682757 0.616403 0.425794
O O8 0.000000 0.500000 0.457771
O O9 0.678936 0.142319 0.090016
O O10 0.257559 0.130984 0.148281
O O11 0.182427 0.099979 0.068856
O O12 0.500000 0.000000 0.114935
O O13 0.999487 0.750000 0.552107
O O14 0.504561 0.250000 0.884600
O O15 0.315634 0.102272 0.864954
O O16 0.818221 0.142791 0.844618
O O17 0.000000 0.500000 0.820632
O O18 0.004553 0.750000 0.690270
#
# Coordination Sequence:
#
# PCOD9362159 Si02
#       7
#     8   8   8   8   8   8   8
#     4  12  26  45  70 100 136 182 231 279 338 409
#     4  12  25  44  70  99 137 182 229 274 332 406
#     4  12  26  46  72 102 137 182 230 276 336 410
#     4  12  25  45  71 103 140 177 224 283 342 397
#     4  12  26  44  69 103 138 175 224 283 343 399
#     4  12  25  45  71  98 134 180 228 277 336 408
#     4  12  26  45  70 103 140 178 226 286 346 399
#
# _framework density 23.262416000000002
#
# number of rings (size 3 to 8) (size 9 to 14) (size 15 to 20)
#    0.000    0.000    0.000   12.000    0.000    4.571 
#    0.000    5.000    0.000    0.000    0.000    0.000 
#    0.000    0.000    0.000    0.000    0.000    0.000 
#
# Total GULP energy -157108.729334 kJ/mol
# GULP energy per Si atom -5611.026048 kJ/mol
# Density = 2.320947 g / cm^3
# Si number density = 23.262416 Si / 1000 Ang^3
#
#
#
# Elastic Constant Matrix: (Units=GPa)
#
#
# Indices 1 2 3 4 5 6 
#
# 1 126.9026 3.7986 14.2435 0.0000 0.0000 0.0000
# 2 3.7986 55.3459 15.2094 0.0000 0.0000 0.0000
# 3 14.2435 15.2094 80.9557 0.0000 0.0000 0.0000
# 4 0.0000 0.0000 0.0000 136.6578 0.0000 0.0000
# 5 0.0000 0.0000 0.0000 0.0000 17.2587 0.0000
# 6 0.0000 0.0000 0.0000 0.0000 0.0000 13.1991
#
#
#
# Elastic Compliance Matrix: (Units=1/GPa)
#
#
# Indices 1 2 3 4 5 6 
#
# 1 0.008040 -0.000172 -0.001382 0.000000 0.000000 0.000000
# 2 -0.000172 0.019055 -0.003550 0.000000 0.000000 0.000000
# 3 -0.001382 -0.003550 0.013263 0.000000 0.000000 0.000000
# 4 0.000000 0.000000 0.000000 0.007318 0.000000 0.000000
# 5 0.000000 0.000000 0.000000 0.000000 0.057942 0.000000
# 6 0.000000 0.000000 0.000000 0.000000 0.000000 0.075763
#
#
# Mechanical properties :
#
#
# Convention : Reuss Voigt Hill
#
# Bulk Modulus (GPa) = 33.16720 36.63414 34.90067
# Shear Modulus (GPa) = 24.79685 48.75330 36.77507
#
# Velocity S-wave (km/s) = 3.26845 4.58295 3.98034
# Velocity P-wave (km/s) = 5.34158 6.61718 6.01330
#
# Compressibility (1/GPa) = 0.03015027
#
# Stress axis : x y z
#
# Youngs Moduli (GPa) = 124.37257 52.47835 75.40031
#
# Poissons Ratio (x) = 0.00902 0.10423
# Poissons Ratio (y) = 0.02139 0.26765
# Poissons Ratio (z) = 0.17192 0.18629
#
# Static dielectric constant tensor:
#      x y z
#    x 1.810340 0.000000 0.000000 
#    y 0.000000 1.800090 0.000000 
#    z 0.000000 0.000000 1.899930 
# 
# From -- ./inp_files/17259.got.cif
#   From: 2010.05.17/outbox.cif.g08.bks.cpg/sg39_9_cif.got.tgz:17259.got - 2010.06.03 18:22:40.
