data_PCOD9362167
_publ_section_title
;
Structure prediction by ZEFSAII (Michael W. Deem and Ramdas Pophale) SiO2 
 PCOD9362167
Probable space group: A B M 2
;
_chemical_formula_sum "Si O2"
_cell_formula_units_Z 64
_cell_length_a 19.178479
_cell_length_b 14.137836
_cell_length_c 10.804899
_cell_angle_alpha 90.000000
_cell_angle_beta 90.000000
_cell_angle_gamma 90.000000
_cell_volume 2929.663987
_symmetry_space_group_name_H-M "A B M 2"
_symmetry_group_IT_number 39
_symmetry_cell_setting 'orthorhombic'
loop_
_space_group_symop_operation_xyz
x,y,z
-x,-y,z
-x,1/2+y,z
x,1/2-y,z
x,1/2+y,1/2+z
-x,1/2-y,1/2+z
-x,y,1/2+z
x,-y,1/2+z
loop_
_atom_site_type_symbol
_atom_site_label
_atom_site_fract_x
_atom_site_fract_y
_atom_site_fract_z
Si Si1 0.198267 0.864942 0.070140
Si Si2 0.217775 0.134651 0.845123
Si Si3 0.961030 0.365324 0.105264
Si Si4 0.701061 0.364966 0.848114
Si Si5 0.527015 0.393743 0.616379
Si Si6 0.941774 0.865153 0.881209
Si Si7 0.457070 0.901353 0.882645
Si Si8 0.312805 0.635983 0.570986
O O1 0.196996 0.750000 0.070465
O O2 0.231304 0.893606 0.202616
O O3 0.117591 0.895652 0.070470
O O4 0.241755 0.892018 0.949542
O O5 0.218487 0.250000 0.846128
O O6 0.139006 0.105284 0.879238
O O7 0.271081 0.102977 0.950696
O O8 0.960995 0.250000 0.103734
O O9 0.974385 0.392530 0.248123
O O10 0.016112 0.395969 0.002019
O O11 0.691807 0.250000 0.854326
O O12 0.626202 0.410624 0.878574
O O13 0.719455 0.388003 0.705516
O O14 0.500000 0.500000 0.632870
O O15 0.523735 0.352291 0.753488
O O16 0.480850 0.351564 0.507808
O O17 0.607178 0.395583 0.574605
O O18 0.941592 0.750000 0.883041
O O19 0.500000 0.000000 0.885542
O O20 0.314276 0.750000 0.565409
#
# Coordination Sequence:
#
# PCOD9362167 Si02
#       8
#     8   8   8   8   8   8   8   8
#     4   8  14  24  36  52  77 108 141 177 216 255
#     4   8  14  24  36  52  77 108 141 177 216 255
#     4   8  13  20  30  46  70 102 140 177 210 246
#     4   9  17  28  42  61  83 107 139 178 216 255
#     4   9  18  32  47  62  82 108 136 169 212 259
#     4   8  13  20  30  46  70 102 140 177 210 246
#     4   9  18  32  47  62  82 108 136 169 212 259
#     4   9  17  28  42  61  83 107 139 178 216 255
#
# _framework density 21.845509
#
# number of rings (size 3 to 8) (size 9 to 14) (size 15 to 20)
#    0.000    3.500    0.000    1.500    0.000    2.500 
#    0.000    5.000    0.000    0.000    0.000    0.000 
#    0.000    0.000    0.000    4.500    0.000   87.500 
#
# Total GULP energy -178475.293622 kJ/mol
# GULP energy per Si atom -5577.352926 kJ/mol
# Density = 2.179579 g / cm^3
# Si number density = 21.845509 Si / 1000 Ang^3
#
#
#
# Elastic Constant Matrix: (Units=GPa)
#
#
# Indices 1 2 3 4 5 6 
#
# 1 26.0080 -2.7749 13.9247 0.0000 0.0000 0.0000
# 2 -2.7749 79.3703 -26.5238 0.0000 0.0000 0.0000
# 3 13.9247 -26.5238 91.1324 0.0000 0.0000 0.0000
# 4 0.0000 0.0000 0.0000 -9.5248 0.0000 0.0000
# 5 0.0000 0.0000 0.0000 0.0000 72.6180 0.0000
# 6 0.0000 0.0000 0.0000 0.0000 0.0000 20.7458
#
#
#
# Elastic Compliance Matrix: (Units=1/GPa)
#
#
# Indices 1 2 3 4 5 6 
#
# 1 0.041915 -0.000748 -0.006622 0.000000 0.000000 0.000000
# 2 -0.000748 0.013970 0.004180 0.000000 0.000000 0.000000
# 3 -0.006622 0.004180 0.013201 0.000000 0.000000 0.000000
# 4 0.000000 0.000000 0.000000 -0.104989 0.000000 0.000000
# 5 0.000000 0.000000 0.000000 0.000000 0.013771 0.000000
# 6 0.000000 0.000000 0.000000 0.000000 0.000000 0.048203
#
#
# Mechanical properties :
#
#
# Convention : Reuss Voigt Hill
#
# Bulk Modulus (GPa) = 15.94697 18.41808 17.18253
# Shear Modulus (GPa) = 93.71615 30.89344 62.30479
#
# Velocity S-wave (km/s) = 6.55688 3.76464 5.34627
# Velocity P-wave (km/s) = 8.03985 5.22934 6.78179
#
# Compressibility (1/GPa) = 0.06270783
#
# Stress axis : x y z
#
# Youngs Moduli (GPa) = 23.85758 71.58222 75.74903
#
# Poissons Ratio (x) = 0.05351 0.50162
# Poissons Ratio (y) = 0.01783 -0.31664
# Poissons Ratio (z) = 0.15799 -0.29922
#
# Static dielectric constant tensor:
#      x y z
#    x 1.729750 0.000000 0.000000 
#    y 0.000000 1.836760 0.000000 
#    z 0.000000 0.000000 1.834680 
# 
# From -- ./inp_files/6071.got.cif
#   From: 2010.05.17/outbox.cif.g08.bks.cpg/sg39_4_cif.got.tgz:6071.got - 2010.06.03 18:22:40.
