data_PCOD9362415
_publ_section_title
;
Structure prediction by ZEFSAII (Michael W. Deem and Ramdas Pophale) SiO2 
 PCOD9362415
Probable space group: A M A 2
;
_chemical_formula_sum "Si O2"
_cell_formula_units_Z 64
_cell_length_a 8.478144
_cell_length_b 18.954214
_cell_length_c 27.391766
_cell_angle_alpha 90.000000
_cell_angle_beta 90.000000
_cell_angle_gamma 90.000000
_cell_volume 4401.762451
_symmetry_space_group_name_H-M "A M A 2"
_symmetry_group_IT_number 40
_symmetry_cell_setting 'orthorhombic'
loop_
_space_group_symop_operation_xyz
x,y,z
-x,-y,z
1/2-x,y,z
1/2+x,-y,z
x,1/2+y,1/2+z
-x,1/2-y,1/2+z
1/2-x,1/2+y,1/2+z
1/2+x,1/2-y,1/2+z
loop_
_atom_site_type_symbol
_atom_site_label
_atom_site_fract_x
_atom_site_fract_y
_atom_site_fract_z
Si Si1 0.940434 0.578530 0.231640
Si Si2 0.559481 0.578622 0.120928
Si Si3 0.562200 0.420545 0.421117
Si Si4 0.059062 0.329767 0.029481
Si Si5 0.936333 0.208589 0.376141
Si Si6 0.438171 0.338144 0.326055
Si Si7 0.559909 0.579182 0.934453
Si Si8 0.063330 0.290397 0.469977
O O1 0.750000 0.577475 0.231487
O O2 0.992804 0.595420 0.176321
O O3 0.991516 0.632076 0.273843
O O4 0.000000 0.500000 0.243422
O O5 0.500000 0.500000 0.108888
O O6 0.750000 0.576915 0.120352
O O7 0.509273 0.634589 0.080160
O O8 0.500000 0.500000 0.422887
O O9 0.750000 0.419200 0.425000
O O10 0.512744 0.384834 0.369522
O O11 0.487440 0.371230 0.463331
O O12 0.250000 0.323766 0.028608
O O13 0.011939 0.382719 0.985202
O O14 0.985489 0.253637 0.017584
O O15 0.750000 0.207481 0.366873
O O16 0.992236 0.129875 0.389722
O O17 0.018304 0.256686 0.335644
O O18 0.969777 0.250806 0.426453
O O19 0.250000 0.345884 0.329926
O O20 0.500000 0.500000 0.931653
O O21 0.750000 0.578831 0.934124
O O22 0.250000 0.284109 0.461544
#
# Coordination Sequence:
#
# PCOD9362415 Si02
#       8
#     8   8   8   8   8   8   8   8
#     4   9  18  29  41  59  82 108 139 174 207 240
#     4   9  17  29  43  59  82 110 140 174 208 240
#     4  11  20  30  43  60  83 109 138 169 203 242
#     4   9  17  29  42  57  80 110 139 166 200 239
#     4   9  17  29  41  56  79 106 135 166 202 242
#     4  10  18  28  42  60  81 108 142 173 205 243
#     4   9  17  26  38  57  79 103 132 164 196 235
#     4  10  18  28  42  60  80 104 135 168 202 239
#
# _framework density 14.539630000000001
#
# number of rings (size 3 to 8) (size 9 to 14) (size 15 to 20)
#    0.000    2.500    0.000    6.000    0.000    5.000 
#    0.000    0.000    0.000    0.000    0.000    0.000 
#    0.000    1.000    0.000    4.250    0.000    3.875 
#
# Total GULP energy -178257.992323 kJ/mol
# GULP energy per Si atom -5570.562260 kJ/mol
# Density = 1.450654 g / cm^3
# Si number density = 14.539630 Si / 1000 Ang^3
#
#
#
# Elastic Constant Matrix: (Units=GPa)
#
#
# Indices 1 2 3 4 5 6 
#
# 1 18.2927 15.3111 16.6063 0.0000 0.0000 0.0000
# 2 15.3111 101.7463 51.2306 0.0000 0.0000 0.0000
# 3 16.6063 51.2306 81.7175 0.0000 0.0000 0.0000
# 4 0.0000 0.0000 0.0000 28.5491 0.0000 0.0000
# 5 0.0000 0.0000 0.0000 0.0000 14.1796 0.0000
# 6 0.0000 0.0000 0.0000 0.0000 0.0000 24.4440
#
#
#
# Elastic Compliance Matrix: (Units=1/GPa)
#
#
# Indices 1 2 3 4 5 6 
#
# 1 0.068619 -0.004829 -0.010917 0.000000 0.000000 0.000000
# 2 -0.004829 0.014702 -0.008235 0.000000 0.000000 0.000000
# 3 -0.010917 -0.008235 0.019619 0.000000 0.000000 0.000000
# 4 0.000000 0.000000 0.000000 0.035027 0.000000 0.000000
# 5 0.000000 0.000000 0.000000 0.000000 0.070524 0.000000
# 6 0.000000 0.000000 0.000000 0.000000 0.000000 0.040910
#
#
# Mechanical properties :
#
#
# Convention : Reuss Voigt Hill
#
# Bulk Modulus (GPa) = 18.18960 40.89473 29.54216
# Shear Modulus (GPa) = 15.83833 21.34177 18.59005
#
# Velocity S-wave (km/s) = 3.30407 3.83539 3.57960
# Velocity P-wave (km/s) = 5.20513 6.91383 6.11941
#
# Compressibility (1/GPa) = 0.05497646
#
# Stress axis : x y z
#
# Youngs Moduli (GPa) = 14.57316 68.01910 50.97156
#
# Poissons Ratio (x) = 0.32848 0.55646
# Poissons Ratio (y) = 0.07038 0.41978
# Poissons Ratio (z) = 0.15909 0.56017
#
# Static dielectric constant tensor:
#      x y z
#    x 1.493160 0.000000 0.000000 
#    y 0.000000 1.489730 0.000000 
#    z 0.000000 0.000000 1.489330 
# 
# From -- ./inp_files/25535.got.cif
#   From: 2010.05.17/outbox.cif.g08.bks.cpg/sg40_13_cif.got.tgz:25535.got - 2010.06.03 18:35:42.
