data_PCOD9362662
_publ_section_title
;
Structure prediction by ZEFSAII (Michael W. Deem and Ramdas Pophale) SiO2 
 PCOD9362662
Probable space group: A M A 2
;
_chemical_formula_sum "Si O2"
_cell_formula_units_Z 64
_cell_length_a 17.860562
_cell_length_b 14.610467
_cell_length_c 13.900482
_cell_angle_alpha 90.000000
_cell_angle_beta 90.000000
_cell_angle_gamma 90.000000
_cell_volume 3627.346787
_symmetry_space_group_name_H-M "A M A 2"
_symmetry_group_IT_number 40
_symmetry_cell_setting 'orthorhombic'
loop_
_space_group_symop_operation_xyz
x,y,z
-x,-y,z
1/2-x,y,z
1/2+x,-y,z
x,1/2+y,1/2+z
-x,1/2-y,1/2+z
1/2-x,1/2+y,1/2+z
1/2+x,1/2-y,1/2+z
loop_
_atom_site_type_symbol
_atom_site_label
_atom_site_fract_x
_atom_site_fract_y
_atom_site_fract_z
Si Si1 0.840600 0.516474 0.517320
Si Si2 0.929456 0.860883 0.669954
Si Si3 0.581144 0.502427 0.992828
Si Si4 0.340425 0.147233 0.156335
Si Si5 0.839002 0.499227 0.292422
Si Si6 0.340766 0.776144 0.045953
Si Si7 0.161225 0.140913 0.375121
Si Si8 0.601731 0.651604 0.146011
O O1 0.750000 0.514721 0.522948
O O2 0.867845 0.432777 0.584234
O O3 0.858212 0.510822 0.404239
O O4 0.863585 0.618185 0.548719
O O5 0.880187 0.777185 0.632452
O O6 0.016291 0.837722 0.683087
O O7 0.928788 0.934129 0.583014
O O8 0.888403 0.915064 0.754254
O O9 0.500000 0.500000 0.942883
O O10 0.641639 0.454782 0.925976
O O11 0.600996 0.596959 0.044509
O O12 0.250000 0.140962 0.157299
O O13 0.368350 0.138836 0.266630
O O14 0.362612 0.249987 0.128615
O O15 0.750000 0.481119 0.283116
O O16 0.857168 0.588132 0.226005
O O17 0.250000 0.769431 0.052244
O O18 0.363907 0.723312 0.946660
O O19 0.250000 0.151878 0.368733
#
# Coordination Sequence:
#
# PCOD9362662 Si02
#       8
#     8   8   8   8   8   8   8   8
#     4   9  19  34  52  74 102 133 171 213 250 291
#     4   9  18  32  50  77 106 129 161 210 253 292
#     4   8  16  31  50  71  99 128 158 200 247 289
#     4  10  20  35  51  71 100 131 163 206 250 294
#     4  10  18  32  55  79 100 131 171 210 251 297
#     4   9  16  31  54  76  97 130 171 208 245 292
#     4   9  17  30  52  76  96 123 165 207 243 286
#     4  10  19  33  52  76 103 133 164 200 249 303
#
# _framework density 17.643749
#
# number of rings (size 3 to 8) (size 9 to 14) (size 15 to 20)
#    0.000    2.750    0.000    2.625    0.000    5.500 
#    0.000    9.375    0.000    4.500    0.000    0.000 
#    0.000    0.000    0.000    0.000    0.000    0.000 
#
# Total GULP energy -178159.899103 kJ/mol
# GULP energy per Si atom -5567.496847 kJ/mol
# Density = 1.760359 g / cm^3
# Si number density = 17.643749 Si / 1000 Ang^3
#
#
#
# Elastic Constant Matrix: (Units=GPa)
#
#
# Indices 1 2 3 4 5 6 
#
# 1 17.9494 13.5025 5.4155 0.0000 0.0000 0.0000
# 2 13.5025 136.5123 62.1459 0.0000 0.0000 0.0000
# 3 5.4155 62.1459 47.8899 0.0000 0.0000 0.0000
# 4 0.0000 0.0000 0.0000 29.3596 0.0000 0.0000
# 5 0.0000 0.0000 0.0000 0.0000 -3.0297 0.0000
# 6 0.0000 0.0000 0.0000 0.0000 0.0000 8.9400
#
#
#
# Elastic Compliance Matrix: (Units=1/GPa)
#
#
# Indices 1 2 3 4 5 6 
#
# 1 0.060290 -0.006987 0.002250 0.000000 0.000000 0.000000
# 2 -0.006987 0.018710 -0.023489 0.000000 0.000000 0.000000
# 3 0.002250 -0.023489 0.051108 0.000000 0.000000 0.000000
# 4 0.000000 0.000000 0.000000 0.034060 0.000000 0.000000
# 5 0.000000 0.000000 0.000000 0.000000 -0.330061 0.000000
# 6 0.000000 0.000000 0.000000 0.000000 0.000000 0.111856
#
#
# Mechanical properties :
#
#
# Convention : Reuss Voigt Hill
#
# Bulk Modulus (GPa) = 13.57697 40.49771 27.03734
# Shear Modulus (GPa) = 185.40103 15.13982 100.27042
#
# Velocity S-wave (km/s) = 10.26199 2.93248 7.54678
# Velocity P-wave (km/s) = 12.17058 5.87101 9.55489
#
# Compressibility (1/GPa) = 0.07365413
#
# Stress axis : x y z
#
# Youngs Moduli (GPa) = 16.58656 53.44840 19.56635
#
# Poissons Ratio (x) = 0.37347 -0.04402
# Poissons Ratio (y) = 0.11590 0.45959
# Poissons Ratio (z) = -0.03732 1.25545
#
# Static dielectric constant tensor:
#      x y z
#    x 1.627220 0.000000 0.000000 
#    y 0.000000 1.609440 0.000000 
#    z 0.000000 0.000000 1.608400 
# 
# From -- ./inp_files/13168.got.cif
#   From: 2010.05.17/outbox.cif.g08.bks.cpg/sg40_7_cif.got.tgz:13168.got - 2010.06.03 18:35:42.
