data_PCOD9362588
_publ_section_title
;
Structure prediction by ZEFSAII (Michael W. Deem and Ramdas Pophale) SiO2 
 PCOD9362588
Probable space group: A M A 2
;
_chemical_formula_sum "Si O2"
_cell_formula_units_Z 64
_cell_length_a 23.168079
_cell_length_b 9.086897
_cell_length_c 16.257151
_cell_angle_alpha 90.000000
_cell_angle_beta 90.000000
_cell_angle_gamma 90.000000
_cell_volume 3422.552119
_symmetry_space_group_name_H-M "A M A 2"
_symmetry_group_IT_number 40
_symmetry_cell_setting 'orthorhombic'
loop_
_space_group_symop_operation_xyz
x,y,z
-x,-y,z
1/2-x,y,z
1/2+x,-y,z
x,1/2+y,1/2+z
-x,1/2-y,1/2+z
1/2-x,1/2+y,1/2+z
1/2+x,1/2-y,1/2+z
loop_
_atom_site_type_symbol
_atom_site_label
_atom_site_fract_x
_atom_site_fract_y
_atom_site_fract_z
Si Si1 0.625645 0.141447 0.993640
Si Si2 0.124424 0.864170 0.808623
Si Si3 0.580052 0.855012 0.087252
Si Si4 0.976798 0.849396 0.534440
Si Si5 0.927617 0.856959 0.717256
Si Si6 0.314681 0.695938 0.135846
Si Si7 0.314632 0.347467 0.142345
Si Si8 0.528637 0.356126 0.767229
O O1 0.644489 0.106628 0.901000
O O2 0.575080 0.263788 0.991830
O O3 0.673352 0.209770 0.054357
O O4 0.598901 0.997808 0.037143
O O5 0.173937 0.841726 0.740630
O O6 0.082389 0.723583 0.808861
O O7 0.087144 0.998888 0.769901
O O8 0.529988 0.762235 0.043500
O O9 0.635128 0.749700 0.102452
O O10 0.553134 0.895970 0.176104
O O11 0.952208 0.889848 0.625844
O O12 0.000000 0.000000 0.497119
O O13 0.866907 0.774191 0.699416
O O14 0.976592 0.759704 0.758442
O O15 0.250000 0.722592 0.167259
O O16 0.319661 0.520122 0.118582
O O17 0.250000 0.297050 0.122386
O O18 0.500000 0.500000 0.804697
#
# Coordination Sequence:
#
# PCOD9362588 Si02
#       8
#     8   8   8   8   8   8   8   8
#     4  11  22  33  50  83 115 135 166 217 273 312
#     4  10  21  34  51  78 109 139 169 210 264 316
#     4  10  19  32  52  79 107 136 174 221 263 302
#     4  10  18  32  53  74 105 145 181 211 249 310
#     4   9  17  32  52  73  99 137 180 214 250 305
#     4   9  18  34  55  75  99 137 180 214 251 310
#     4   9  19  38  60  76  96 137 186 218 250 309
#     4  10  18  31  51  74 104 140 176 213 252 302
#
# _framework density 18.699494000000001
#
# number of rings (size 3 to 8) (size 9 to 14) (size 15 to 20)
#    0.000    2.250    0.000    6.750    0.000    3.500 
#    0.000    1.250    0.000    0.000    0.000    7.000 
#    0.000    0.000    0.000    0.000    0.000    0.000 
#
# Total GULP energy -178498.707082 kJ/mol
# GULP energy per Si atom -5578.084596 kJ/mol
# Density = 1.865693 g / cm^3
# Si number density = 18.699494 Si / 1000 Ang^3
#
#
#
# Elastic Constant Matrix: (Units=GPa)
#
#
# Indices 1 2 3 4 5 6 
#
# 1 85.3601 -1.2451 -14.3175 0.0000 0.0000 0.0000
# 2 -1.2451 41.1862 15.2574 0.0000 0.0000 0.0000
# 3 -14.3175 15.2574 45.6979 0.0000 0.0000 0.0000
# 4 0.0000 0.0000 0.0000 12.6856 0.0000 0.0000
# 5 0.0000 0.0000 0.0000 0.0000 -8.7379 0.0000
# 6 0.0000 0.0000 0.0000 0.0000 0.0000 18.3085
#
#
#
# Elastic Compliance Matrix: (Units=1/GPa)
#
#
# Indices 1 2 3 4 5 6 
#
# 1 0.012418 -0.001216 0.004297 0.000000 0.000000 0.000000
# 2 -0.001216 0.027826 -0.009671 0.000000 0.000000 0.000000
# 3 0.004297 -0.009671 0.026458 0.000000 0.000000 0.000000
# 4 0.000000 0.000000 0.000000 0.078830 0.000000 0.000000
# 5 0.000000 0.000000 0.000000 0.000000 -0.114444 0.000000
# 6 0.000000 0.000000 0.000000 0.000000 0.000000 0.054619
#
#
# Mechanical properties :
#
#
# Convention : Reuss Voigt Hill
#
# Bulk Modulus (GPa) = 18.68457 19.07041 18.87749
# Shear Modulus (GPa) = 42.83416 15.95454 29.39435
#
# Velocity S-wave (km/s) = 4.79127 2.92414 3.96906
# Velocity P-wave (km/s) = 6.37355 4.64987 5.57868
#
# Compressibility (1/GPa) = 0.05352009
#
# Stress axis : x y z
#
# Youngs Moduli (GPa) = 80.52803 35.93767 37.79556
#
# Poissons Ratio (x) = 0.04371 -0.16240
# Poissons Ratio (y) = 0.09795 0.36554
# Poissons Ratio (z) = -0.34601 0.34757
#
# Static dielectric constant tensor:
#      x y z
#    x 1.644010 0.000000 0.000000 
#    y 0.000000 1.657230 0.000000 
#    z 0.000000 0.000000 1.650760 
# 
# From -- ./inp_files/21529.got.cif
#   From: 2010.05.17/outbox.cif.g08.bks.cpg/sg40_11_cif.got.tgz:21529.got - 2010.06.03 18:35:42.
