data_PCOD9362291
_publ_section_title
;
Structure prediction by ZEFSAII (Michael W. Deem and Ramdas Pophale) SiO2 
 PCOD9362291
Probable space group: A M A 2
;
_chemical_formula_sum "Si O2"
_cell_formula_units_Z 56
_cell_length_a 8.943766
_cell_length_b 22.405856
_cell_length_c 18.273364
_cell_angle_alpha 90.000000
_cell_angle_beta 90.000000
_cell_angle_gamma 90.000000
_cell_volume 3661.849355
_symmetry_space_group_name_H-M "A M A 2"
_symmetry_group_IT_number 40
_symmetry_cell_setting 'orthorhombic'
loop_
_space_group_symop_operation_xyz
x,y,z
-x,-y,z
1/2-x,y,z
1/2+x,-y,z
x,1/2+y,1/2+z
-x,1/2-y,1/2+z
1/2-x,1/2+y,1/2+z
1/2+x,1/2-y,1/2+z
loop_
_atom_site_type_symbol
_atom_site_label
_atom_site_fract_x
_atom_site_fract_y
_atom_site_fract_z
Si Si1 0.573616 0.305124 0.445840
Si Si2 0.074408 0.148909 0.096497
Si Si3 0.426367 0.788932 0.636837
Si Si4 0.926544 0.817831 0.491318
Si Si5 0.927895 0.564878 0.713548
Si Si6 0.929820 0.851036 0.332968
Si Si7 0.073050 0.724094 0.287577
O O1 0.750000 0.287473 0.454728
O O2 0.546760 0.353426 0.509079
O O3 0.471386 0.248809 0.465604
O O4 0.550804 0.316549 0.360052
O O5 0.250000 0.136072 0.110510
O O6 0.048633 0.218102 0.119670
O O7 0.974432 0.105722 0.144543
O O8 0.250000 0.797503 0.643599
O O9 0.488574 0.825622 0.567698
O O10 0.507087 0.801766 0.713118
O O11 0.750000 0.821804 0.503673
O O12 0.965624 0.856502 0.419526
O O13 0.750000 0.561055 0.719749
O O14 0.000000 0.500000 0.705730
O O15 0.997367 0.597960 0.784054
O O16 0.750000 0.850481 0.324688
O O17 0.993939 0.787552 0.304552
O O18 0.250000 0.734689 0.279353
#
# Coordination Sequence:
#
# PCOD9362291 Si02
#       7
#     8   8   8   8   8   8   8
#     4   8  16  28  42  61  86 116 146 180 220 264
#     4   9  17  31  46  60  86 117 148 186 228 266
#     4  10  18  27  42  63  92 123 149 182 222 262
#     4   9  17  27  42  62  85 114 149 183 217 265
#     4  12  24  35  49  66  86 116 155 196 230 270
#     4  10  19  32  46  62  87 117 148 188 231 266
#     4  10  17  26  43  66  90 119 154 182 215 266
#
# _framework density 15.292818
#
# number of rings (size 3 to 8) (size 9 to 14) (size 15 to 20)
#    0.000    2.286    1.429    3.857    0.000    4.571 
#    0.000    0.000    0.000    0.000    0.000    0.000 
#    0.000    1.143    0.000    5.429    0.000    4.714 
#
# Total GULP energy -155984.110390 kJ/mol
# GULP energy per Si atom -5570.861085 kJ/mol
# Density = 1.525801 g / cm^3
# Si number density = 15.292818 Si / 1000 Ang^3
#
#
#
# Elastic Constant Matrix: (Units=GPa)
#
#
# Indices 1 2 3 4 5 6 
#
# 1 83.0152 28.5237 64.4744 0.0000 0.0000 0.0000
# 2 28.5237 32.9851 25.7382 0.0000 0.0000 0.0000
# 3 64.4744 25.7382 142.0469 0.0000 0.0000 0.0000
# 4 0.0000 0.0000 0.0000 8.7453 0.0000 0.0000
# 5 0.0000 0.0000 0.0000 0.0000 25.4400 0.0000
# 6 0.0000 0.0000 0.0000 0.0000 0.0000 15.3794
#
#
#
# Elastic Compliance Matrix: (Units=1/GPa)
#
#
# Indices 1 2 3 4 5 6 
#
# 1 0.022864 -0.013596 -0.007915 0.000000 0.000000 0.000000
# 2 -0.013596 0.043394 -0.001691 0.000000 0.000000 0.000000
# 3 -0.007915 -0.001691 0.010939 0.000000 0.000000 0.000000
# 4 0.000000 0.000000 0.000000 0.114347 0.000000 0.000000
# 5 0.000000 0.000000 0.000000 0.000000 0.039308 0.000000
# 6 0.000000 0.000000 0.000000 0.000000 0.000000 0.065022
#
#
# Mechanical properties :
#
#
# Convention : Reuss Voigt Hill
#
# Bulk Modulus (GPa) = 32.47528 55.05775 43.76651
# Shear Modulus (GPa) = 14.18267 19.20032 16.69150
#
# Velocity S-wave (km/s) = 3.04864 3.54716 3.30731
# Velocity P-wave (km/s) = 5.80293 7.27028 6.57765
#
# Compressibility (1/GPa) = 0.03079265
#
# Stress axis : x y z
#
# Youngs Moduli (GPa) = 43.73594 23.04470 91.41790
#
# Poissons Ratio (x) = 0.31332 0.72353
# Poissons Ratio (y) = 0.59465 0.15463
# Poissons Ratio (z) = 0.34615 0.03898
#
# Static dielectric constant tensor:
#      x y z
#    x 1.509060 0.000000 0.000000 
#    y 0.000000 1.464460 0.000000 
#    z 0.000000 0.000000 1.564020 
# 
# From -- ./inp_files/19471.got.cif
#   From: 2010.05.17/outbox.cif.g08.bks.cpg/sg40_10_cif.got.tgz:19471.got - 2010.06.03 18:35:42.
