data_PCOD9362216
_publ_section_title
;
Structure prediction by ZEFSAII (Michael W. Deem and Ramdas Pophale) SiO2 
 PCOD9362216
Probable space group: A B M 2
;
_chemical_formula_sum "Si O2"
_cell_formula_units_Z 28
_cell_length_a 15.000000
_cell_length_b 21.000000
_cell_length_c 9.000000
_cell_angle_alpha 90.000000
_cell_angle_beta 90.000000
_cell_angle_gamma 90.000000
_cell_volume 2835.000000
_symmetry_space_group_name_H-M "A B M 2"
_symmetry_group_IT_number 39
_symmetry_cell_setting 'orthorhombic'
loop_
_space_group_symop_operation_xyz
x,y,z
-x,-y,z
-x,1/2+y,z
x,1/2-y,z
x,1/2+y,1/2+z
-x,1/2-y,1/2+z
-x,y,1/2+z
x,-y,1/2+z
loop_
_atom_site_type_symbol
_atom_site_label
_atom_site_fract_x
_atom_site_fract_y
_atom_site_fract_z
Si Si1 0.834817 0.410736 0.760480
Si Si2 0.868629 0.504490 0.012669
Si Si3 0.453773 0.327549 0.245115
Si Si4 0.287844 0.826008 0.929510
Si Si5 0.789003 0.826228 0.748145
Si Si6 0.378087 0.827692 0.426342
Si Si7 0.046292 0.586420 0.262040
O O1 0.810302 0.447974 0.611695
O O2 0.780780 0.348717 0.803102
O O3 0.941707 0.399268 0.752603
O O4 0.819251 0.459548 0.896363
O O5 0.919501 0.459461 0.130144
O O6 0.932243 0.548337 0.912232
O O7 0.454512 0.250000 0.239419
O O8 0.384848 0.347204 0.374543
O O9 0.552253 0.346527 0.296783
O O10 0.416030 0.349004 0.085754
O O11 0.290147 0.750000 0.935423
O O12 0.253833 0.847140 0.090795
O O13 0.793119 0.750000 0.749274
O O14 0.720929 0.847285 0.877268
O O15 0.887585 0.854095 0.761045
O O16 0.377279 0.750000 0.430434
#
# Coordination Sequence:
#
# PCOD9362216 Si02
#       7
#     8   8   8   8   8   8   8
#     4  11  20  35  56  78 106 140 181 227 268 308
#     4  10  21  36  56  78  99 134 189 238 266 298
#     4   9  17  31  52  77 105 138 176 217 260 311
#     4  10  21  35  51  78 114 146 175 211 267 331
#     4  10  21  35  51  78 114 146 175 211 267 331
#     4   9  17  31  52  77 105 138 176 217 260 311
#     4  11  20  35  56  78 106 140 181 227 268 308
#
# _framework density 9.8765429999999999
#
# number of rings (size 3 to 8) (size 9 to 14) (size 15 to 20)
#    0.000    2.000    1.429    4.286    2.000    4.000 
#    0.000    0.000    0.000    0.000    0.000    6.000 
#    0.000    0.000    0.000    0.000    0.000    0.000 
#
# Total GULP energy -156150.629599 kJ/mol
# GULP energy per Si atom -5576.808200 kJ/mol
# Density = 0.985406 g / cm^3
# Si number density = 9.876543 Si / 1000 Ang^3
#
#
#
# Elastic Constant Matrix: (Units=GPa)
#
#
# Indices 1 2 3 4 5 6 
#
# 1 56.3402 23.1886 8.7839 0.0000 0.0000 0.0000
# 2 23.1886 16.7226 21.0777 0.0000 0.0000 0.0000
# 3 8.7839 21.0777 95.3558 0.0000 0.0000 0.0000
# 4 0.0000 0.0000 0.0000 23.8359 0.0000 0.0000
# 5 0.0000 0.0000 0.0000 0.0000 26.8364 0.0000
# 6 0.0000 0.0000 0.0000 0.0000 0.0000 -0.8736
#
#
#
# Elastic Compliance Matrix: (Units=1/GPa)
#
#
# Indices 1 2 3 4 5 6 
#
# 1 0.055219 -0.097256 0.016411 0.000000 0.000000 0.000000
# 2 -0.097256 0.254186 -0.047227 0.000000 0.000000 0.000000
# 3 0.016411 -0.047227 0.019415 0.000000 0.000000 0.000000
# 4 0.000000 0.000000 0.000000 0.041954 0.000000 0.000000
# 5 0.000000 0.000000 0.000000 0.000000 0.037263 0.000000
# 6 0.000000 0.000000 0.000000 0.000000 0.000000 -1.144696
#
#
# Mechanical properties :
#
#
# Convention : Reuss Voigt Hill
#
# Bulk Modulus (GPa) = 13.75957 30.50212 22.13084
# Shear Modulus (GPa) = -10.95793 17.65096 3.34652
#
# Velocity S-wave (km/s) = -2.35786 2.99252 1.30302
# Velocity P-wave (km/s) = 0.65708 5.23598 3.67313
#
# Compressibility (1/GPa) = 0.07267670
#
# Stress axis : x y z
#
# Youngs Moduli (GPa) = 18.10956 3.93412 51.50782
#
# Poissons Ratio (x) = 0.38262 -0.84530
# Poissons Ratio (y) = 1.76126 2.43257
# Poissons Ratio (z) = -0.29720 0.18580
#
# Static dielectric constant tensor:
#      x y z
#    x 1.723270 0.000000 0.000000 
#    y 0.000000 1.697000 0.000000 
#    z 0.000000 0.000000 1.746990 
# 
# From -- ./inp_files/3412.got.cif
#   From: 2010.05.17/outbox.ucp.g08.bks.cvg/sg39_2_cif.got.tgz:3412.got - 2010.06.11 10:41:16.
