data_PCOD9362135
_publ_section_title
;
Structure prediction by ZEFSAII (Michael W. Deem and Ramdas Pophale) SiO2 
 PCOD9362135
Probable space group: A B M 2
;
_chemical_formula_sum "Si O2"
_cell_formula_units_Z 40
_cell_length_a 7.982928
_cell_length_b 21.735236
_cell_length_c 9.357420
_cell_angle_alpha 90.000000
_cell_angle_beta 90.000000
_cell_angle_gamma 90.000000
_cell_volume 1623.613655
_symmetry_space_group_name_H-M "A B M 2"
_symmetry_group_IT_number 39
_symmetry_cell_setting 'orthorhombic'
loop_
_space_group_symop_operation_xyz
x,y,z
-x,-y,z
-x,1/2+y,z
x,1/2-y,z
x,1/2+y,1/2+z
-x,1/2-y,1/2+z
-x,y,1/2+z
x,-y,1/2+z
loop_
_atom_site_type_symbol
_atom_site_label
_atom_site_fract_x
_atom_site_fract_y
_atom_site_fract_z
Si Si1 0.182468 0.491343 0.019860
Si Si2 0.148427 0.863593 0.364047
Si Si3 0.158801 0.179829 0.552520
Si Si4 0.371548 0.551959 0.795145
Si Si5 0.511891 0.681539 0.365793
O O1 0.304150 0.473522 0.146937
O O2 0.000000 0.500000 0.084541
O O3 0.170698 0.433088 0.915308
O O4 0.235348 0.548913 0.922103
O O5 0.318492 0.827654 0.409146
O O6 0.983420 0.835383 0.436330
O O7 0.138340 0.860952 0.193190
O O8 0.130143 0.250000 0.601908
O O9 0.346543 0.178447 0.488695
O O10 0.500000 0.500000 0.848096
O O11 0.445019 0.619933 0.776380
O O12 0.528964 0.750000 0.299441
#
# Coordination Sequence:
#
# PCOD9362135 Si02
#       5
#     8   8   8   8   8
#     4  12  29  47  78 113 154 205 264 331 402 481
#     4  12  28  48  79 116 160 212 271 334 401 482
#     4  11  27  49  75 114 163 211 270 333 403 484
#     4  12  27  50  79 112 156 200 261 330 399 480
#     4  11  27  51  81 117 161 214 268 331 409 484
#
# _framework density 24.636405
#
# number of rings (size 3 to 8) (size 9 to 14) (size 15 to 20)
#    0.000    0.400    2.000    4.200   14.000    0.000 
#    0.000    1.000    0.000    0.000    0.000    0.000 
#    0.000    0.000    0.000    0.000    0.000    0.000 
#
# Total GULP energy -112081.043161 kJ/mol
# GULP energy per Si atom -5604.052158 kJ/mol
# Density = 2.458033 g / cm^3
# Si number density = 24.636405 Si / 1000 Ang^3
#
#
#
# Elastic Constant Matrix: (Units=GPa)
#
#
# Indices 1 2 3 4 5 6 
#
# 1 153.6234 25.2649 58.6176 0.0000 0.0000 0.0000
# 2 25.2649 134.9536 10.6030 0.0000 0.0000 0.0000
# 3 58.6176 10.6030 108.2823 0.0000 0.0000 0.0000
# 4 0.0000 0.0000 0.0000 18.8221 0.0000 0.0000
# 5 0.0000 0.0000 0.0000 0.0000 37.3226 0.0000
# 6 0.0000 0.0000 0.0000 0.0000 0.0000 32.1854
#
#
#
# Elastic Compliance Matrix: (Units=1/GPa)
#
#
# Indices 1 2 3 4 5 6 
#
# 1 0.008400 -0.001225 -0.004427 0.000000 0.000000 0.000000
# 2 -0.001225 0.007646 -0.000086 0.000000 0.000000 0.000000
# 3 -0.004427 -0.000086 0.011640 0.000000 0.000000 0.000000
# 4 0.000000 0.000000 0.000000 0.053129 0.000000 0.000000
# 5 0.000000 0.000000 0.000000 0.000000 0.026793 0.000000
# 6 0.000000 0.000000 0.000000 0.000000 0.000000 0.031070
#
#
# Mechanical properties :
#
#
# Convention : Reuss Voigt Hill
#
# Bulk Modulus (GPa) = 61.68776 65.09228 63.39002
# Shear Modulus (GPa) = 32.14231 37.82427 34.98329
#
# Velocity S-wave (km/s) = 3.61594 3.92254 3.77236
# Velocity P-wave (km/s) = 6.52127 6.85519 6.69031
#
# Compressibility (1/GPa) = 0.01621067
#
# Stress axis : x y z
#
# Youngs Moduli (GPa) = 119.04448 130.78776 85.90862
#
# Poissons Ratio (x) = 0.16018 0.38036
# Poissons Ratio (y) = 0.14580 0.00736
# Poissons Ratio (z) = 0.52706 0.01121
#
# Static dielectric constant tensor:
#      x y z
#    x 2.000050 0.000000 0.000000 
#    y 0.000000 1.967490 0.000000 
#    z 0.000000 0.000000 1.908180 
# 
# From -- ./inp_files/2096.got.cif
#   From: 2010.05.17/outbox.cif.g08.bks.cpg/sg39_2_cif.got.tgz:2096.got - 2010.06.03 18:22:40.
