data_PCOD9362902
_publ_section_title
;
Structure prediction by ZEFSAII (Michael W. Deem and Ramdas Pophale) SiO2 
 PCOD9362902
Probable space group: A M A 2
;
_chemical_formula_sum "Si O2"
_cell_formula_units_Z 64
_cell_length_a 8.763900
_cell_length_b 21.692593
_cell_length_c 16.188563
_cell_angle_alpha 90.000000
_cell_angle_beta 90.000000
_cell_angle_gamma 90.000000
_cell_volume 3077.635488
_symmetry_space_group_name_H-M "A M A 2"
_symmetry_group_IT_number 40
_symmetry_cell_setting 'orthorhombic'
loop_
_space_group_symop_operation_xyz
x,y,z
-x,-y,z
1/2-x,y,z
1/2+x,-y,z
x,1/2+y,1/2+z
-x,1/2-y,1/2+z
1/2-x,1/2+y,1/2+z
1/2+x,1/2-y,1/2+z
loop_
_atom_site_type_symbol
_atom_site_label
_atom_site_fract_x
_atom_site_fract_y
_atom_site_fract_z
Si Si1 0.432099 0.431396 0.322940
Si Si2 0.433254 0.699566 0.066756
Si Si3 0.566957 0.930742 0.994374
Si Si4 0.935199 0.317779 0.246936
Si Si5 0.568900 0.936518 0.507343
Si Si6 0.076659 0.893625 0.343255
Si Si7 0.423344 0.253341 0.906800
Si Si8 0.432659 0.069243 0.175580
O O1 0.500000 0.500000 0.314852
O O2 0.250000 0.433622 0.321687
O O3 0.490564 0.405210 0.411786
O O4 0.499776 0.386486 0.253948
O O5 0.250000 0.700789 0.062163
O O6 0.480564 0.713368 0.160582
O O7 0.481611 0.628363 0.048151
O O8 0.495340 0.743444 0.994919
O O9 0.750000 0.932617 0.983646
O O10 0.500000 0.000000 0.998778
O O11 0.531771 0.903278 0.084585
O O12 0.750000 0.319409 0.248742
O O13 0.990806 0.282924 0.328931
O O14 0.750000 0.939814 0.513943
O O15 0.519396 0.930181 0.411531
O O16 0.500000 0.000000 0.541446
O O17 0.250000 0.917797 0.340657
O O18 0.081462 0.823709 0.375049
O O19 0.004099 0.896289 0.253054
O O20 0.250000 0.231014 0.920103
O O21 0.250000 0.066132 0.182715
O O22 0.500000 0.000000 0.178655
#
# Coordination Sequence:
#
# PCOD9362902 Si02
#       8
#     8   8   8   8   8   8   8   8
#     4  11  22  37  59  87 117 151 189 233 286 346
#     4   9  20  38  61  85 116 153 192 239 290 342
#     4   9  17  31  50  72 105 145 184 227 280 333
#     4  10  21  41  64  87 118 154 192 238 292 347
#     4  10  19  32  51  78 110 147 187 232 284 342
#     4  10  19  32  50  74 106 147 190 235 286 342
#     4   9  20  39  61  82 112 151 191 239 292 340
#     4  10  19  30  47  73 106 146 189 237 287 340
#
# _framework density 20.795186999999999
#
# number of rings (size 3 to 8) (size 9 to 14) (size 15 to 20)
#    0.000    2.250    0.000    3.750    0.000    4.000 
#    2.250    1.250    0.000    0.000    0.000    0.000 
#    0.000    0.000    0.000    0.000    0.000    0.000 
#
# Total GULP energy -178582.623224 kJ/mol
# GULP energy per Si atom -5580.706976 kJ/mol
# Density = 2.074786 g / cm^3
# Si number density = 20.795187 Si / 1000 Ang^3
#
#
#
# Elastic Constant Matrix: (Units=GPa)
#
#
# Indices 1 2 3 4 5 6 
#
# 1 43.5749 6.7000 31.5296 0.0000 0.0000 0.0000
# 2 6.7000 38.0750 29.2962 0.0000 0.0000 0.0000
# 3 31.5296 29.2962 153.1091 0.0000 0.0000 0.0000
# 4 0.0000 0.0000 0.0000 28.5234 0.0000 0.0000
# 5 0.0000 0.0000 0.0000 0.0000 24.0403 0.0000
# 6 0.0000 0.0000 0.0000 0.0000 0.0000 1.4197
#
#
#
# Elastic Compliance Matrix: (Units=1/GPa)
#
#
# Indices 1 2 3 4 5 6 
#
# 1 0.026977 -0.000554 -0.005449 0.000000 0.000000 0.000000
# 2 -0.000554 0.030810 -0.005781 0.000000 0.000000 0.000000
# 3 -0.005449 -0.005781 0.008760 0.000000 0.000000 0.000000
# 4 0.000000 0.000000 0.000000 0.035059 0.000000 0.000000
# 5 0.000000 0.000000 0.000000 0.000000 0.041597 0.000000
# 6 0.000000 0.000000 0.000000 0.000000 0.000000 0.704385
#
#
# Mechanical properties :
#
#
# Convention : Reuss Voigt Hill
#
# Bulk Modulus (GPa) = 23.26811 41.09005 32.17908
# Shear Modulus (GPa) = 5.64664 21.94555 13.79610
#
# Velocity S-wave (km/s) = 1.64962 3.25209 2.57850
# Velocity P-wave (km/s) = 3.85251 5.82269 4.93688
#
# Compressibility (1/GPa) = 0.04297728
#
# Stress axis : x y z
#
# Youngs Moduli (GPa) = 37.06831 32.45738 114.16017
#
# Poissons Ratio (x) = 0.01799 0.62210
# Poissons Ratio (y) = 0.02054 0.65997
# Poissons Ratio (z) = 0.20200 0.18764
#
# Static dielectric constant tensor:
#      x y z
#    x 1.708690 0.000000 0.000000 
#    y 0.000000 1.769250 0.000000 
#    z 0.000000 0.000000 1.775050 
# 
# From -- ./inp_files/15597.got.cif
#   From: 2010.05.17/outbox.cif.g08.bks.cpg/sg40_8_cif.got.tgz:15597.got - 2010.06.03 18:35:42.
