data_PCOD9362925
_publ_section_title
;
Structure prediction by ZEFSAII (Michael W. Deem and Ramdas Pophale) SiO2 
 PCOD9362925
Probable space group: A M A 2
;
_chemical_formula_sum "Si O2"
_cell_formula_units_Z 48
_cell_length_a 8.569874
_cell_length_b 24.528832
_cell_length_c 14.173467
_cell_angle_alpha 90.000000
_cell_angle_beta 90.000000
_cell_angle_gamma 90.000000
_cell_volume 2979.390319
_symmetry_space_group_name_H-M "A M A 2"
_symmetry_group_IT_number 40
_symmetry_cell_setting 'orthorhombic'
loop_
_space_group_symop_operation_xyz
x,y,z
-x,-y,z
1/2-x,y,z
1/2+x,-y,z
x,1/2+y,1/2+z
-x,1/2-y,1/2+z
1/2-x,1/2+y,1/2+z
1/2+x,1/2-y,1/2+z
loop_
_atom_site_type_symbol
_atom_site_label
_atom_site_fract_x
_atom_site_fract_y
_atom_site_fract_z
Si Si1 0.562712 0.835668 0.331470
Si Si2 0.061797 0.167398 0.915404
Si Si3 0.562471 0.940820 0.019296
Si Si4 0.061034 0.228898 0.730073
Si Si5 0.061823 0.226582 0.517104
Si Si6 0.064091 0.940809 0.230597
O O1 0.750000 0.839267 0.328078
O O2 0.507021 0.786939 0.262777
O O3 0.513663 0.816489 0.436590
O O4 0.490770 0.892283 0.297936
O O5 0.250000 0.168350 0.918555
O O6 0.013835 0.185193 0.809917
O O7 0.010750 0.108339 0.951587
O O8 0.999987 0.214685 0.984064
O O9 0.750000 0.942429 0.021895
O O10 0.501898 0.930279 0.125342
O O11 0.500000 0.000000 0.990052
O O12 0.250000 0.232914 0.731624
O O13 0.011663 0.214826 0.623919
O O14 0.250000 0.228397 0.515652
O O15 0.250000 0.942868 0.225714
O O16 0.000000 0.000000 0.260234
#
# Coordination Sequence:
#
# PCOD9362925 Si02
#       6
#     8   8   8   8   8   8
#     4  10  19  31  46  69  96 122 151 188 229 271
#     4   9  18  30  46  67  93 121 152 188 228 269
#     4  10  19  31  47  69  94 122 152 188 229 272
#     4   9  17  31  48  68  92 123 157 189 225 269
#     4   9  18  30  47  68  92 121 153 186 225 269
#     4  11  21  33  49  69  92 121 152 187 227 272
#
# _framework density 16.110678
#
# number of rings (size 3 to 8) (size 9 to 14) (size 15 to 20)
#    0.000    2.333    0.000    4.500    0.000    5.333 
#    0.000    0.000    0.000    1.000    0.000    2.333 
#    0.000    0.000    0.000    0.000    0.000    0.000 
#
# Total GULP energy -133860.557139 kJ/mol
# GULP energy per Si atom -5577.523214 kJ/mol
# Density = 1.607401 g / cm^3
# Si number density = 16.110678 Si / 1000 Ang^3
#
#
#
# Elastic Constant Matrix: (Units=GPa)
#
#
# Indices 1 2 3 4 5 6 
#
# 1 44.0177 36.4721 28.4106 0.0000 0.0000 0.0000
# 2 36.4721 153.3161 90.9271 0.0000 0.0000 0.0000
# 3 28.4106 90.9271 126.0004 0.0000 0.0000 0.0000
# 4 0.0000 0.0000 0.0000 18.1731 0.0000 0.0000
# 5 0.0000 0.0000 0.0000 0.0000 6.8673 0.0000
# 6 0.0000 0.0000 0.0000 0.0000 0.0000 27.7297
#
#
#
# Elastic Compliance Matrix: (Units=1/GPa)
#
#
# Indices 1 2 3 4 5 6 
#
# 1 0.028815 -0.005247 -0.002711 0.000000 0.000000 0.000000
# 2 -0.005247 0.012358 -0.007735 0.000000 0.000000 0.000000
# 3 -0.002711 -0.007735 0.014130 0.000000 0.000000 0.000000
# 4 0.000000 0.000000 0.000000 0.055026 0.000000 0.000000
# 5 0.000000 0.000000 0.000000 0.000000 0.145617 0.000000
# 6 0.000000 0.000000 0.000000 0.000000 0.000000 0.036062
#
#
# Mechanical properties :
#
#
# Convention : Reuss Voigt Hill
#
# Bulk Modulus (GPa) = 41.81070 70.55041 56.18056
# Shear Modulus (GPa) = 15.08902 21.72233 18.40568
#
# Velocity S-wave (km/s) = 3.06369 3.67593 3.38368
# Velocity P-wave (km/s) = 6.20672 7.86783 7.08612
#
# Compressibility (1/GPa) = 0.02391732
#
# Stress axis : x y z
#
# Youngs Moduli (GPa) = 34.70363 80.91861 70.77360
#
# Poissons Ratio (x) = 0.42460 0.19184
# Poissons Ratio (y) = 0.18210 0.54743
# Poissons Ratio (z) = 0.09407 0.62590
#
# Static dielectric constant tensor:
#      x y z
#    x 1.544660 0.000000 0.000000 
#    y 0.000000 1.519540 0.000000 
#    z 0.000000 0.000000 1.546960 
# 
# From -- ./inp_files/10309.got.cif
#   From: 2010.05.17/outbox.cif.g08.bks.cpg/sg40_6_cif.got.tgz:10309.got - 2010.06.03 18:35:42.
