data_PCOD9362694
_publ_section_title
;
Structure prediction by ZEFSAII (Michael W. Deem and Ramdas Pophale) SiO2 
 PCOD9362694
Probable space group: A M A 2
;
_chemical_formula_sum "Si O2"
_cell_formula_units_Z 48
_cell_length_a 16.472329
_cell_length_b 9.344718
_cell_length_c 16.402895
_cell_angle_alpha 90.000000
_cell_angle_beta 90.000000
_cell_angle_gamma 90.000000
_cell_volume 2524.885642
_symmetry_space_group_name_H-M "A M A 2"
_symmetry_group_IT_number 40
_symmetry_cell_setting 'orthorhombic'
loop_
_space_group_symop_operation_xyz
x,y,z
-x,-y,z
1/2-x,y,z
1/2+x,-y,z
x,1/2+y,1/2+z
-x,1/2-y,1/2+z
1/2-x,1/2+y,1/2+z
1/2+x,1/2-y,1/2+z
loop_
_atom_site_type_symbol
_atom_site_label
_atom_site_fract_x
_atom_site_fract_y
_atom_site_fract_z
Si Si1 0.157050 0.479304 0.375000
Si Si2 0.348774 0.200831 0.456678
Si Si3 0.393685 0.799573 0.722259
Si Si4 0.920180 0.286016 0.274702
Si Si5 0.153016 0.550575 0.121906
Si Si6 0.653805 0.477650 0.795362
O O1 0.250000 0.521784 0.392847
O O2 0.125460 0.365260 0.441434
O O3 0.156863 0.383703 0.292035
O O4 0.103763 0.616419 0.352307
O O5 0.250000 0.206691 0.457801
O O6 0.376438 0.125832 0.539326
O O7 0.370596 0.104542 0.378550
O O8 0.486117 0.803497 0.752252
O O9 0.363901 0.636802 0.723769
O O10 0.383301 0.894294 0.641666
O O11 0.870452 0.349726 0.198194
O O12 0.895500 0.122808 0.286985
O O13 0.250000 0.536265 0.117411
O O14 0.750000 0.508389 0.798263
#
# Coordination Sequence:
#
# PCOD9362694 Si02
#       6
#     8   8   8   8   8   8
#     4   9  16  31  52  74  98 133 171 209 253 310
#     4   8  17  32  53  76 100 129 172 216 259 312
#     4  10  19  32  50  74 106 139 174 214 256 309
#     4  11  20  31  51  79 105 133 173 219 262 309
#     4  10  18  33  54  76 101 139 176 209 256 317
#     4  10  19  35  55  77 101 135 178 223 264 311
#
# _framework density 19.010760999999999
#
# number of rings (size 3 to 8) (size 9 to 14) (size 15 to 20)
#    0.000    2.333    0.000    7.500    0.000    0.000 
#    0.000    8.333    0.000    8.000    0.000    0.000 
#    0.000    0.000    0.000    0.000    0.000    0.000 
#
# Total GULP energy -133840.699398 kJ/mol
# GULP energy per Si atom -5576.695808 kJ/mol
# Density = 1.896749 g / cm^3
# Si number density = 19.010761 Si / 1000 Ang^3
#
#
#
# Elastic Constant Matrix: (Units=GPa)
#
#
# Indices 1 2 3 4 5 6 
#
# 1 69.4795 12.0177 1.8069 0.0000 0.0000 0.0000
# 2 12.0177 107.6556 36.3558 0.0000 0.0000 0.0000
# 3 1.8069 36.3558 69.7919 0.0000 0.0000 0.0000
# 4 0.0000 0.0000 0.0000 33.4442 0.0000 0.0000
# 5 0.0000 0.0000 0.0000 0.0000 4.3045 0.0000
# 6 0.0000 0.0000 0.0000 0.0000 0.0000 25.5408
#
#
#
# Elastic Compliance Matrix: (Units=1/GPa)
#
#
# Indices 1 2 3 4 5 6 
#
# 1 0.014695 -0.001835 0.000575 0.000000 0.000000 0.000000
# 2 -0.001835 0.011501 -0.005943 0.000000 0.000000 0.000000
# 3 0.000575 -0.005943 0.017409 0.000000 0.000000 0.000000
# 4 0.000000 0.000000 0.000000 0.029901 0.000000 0.000000
# 5 0.000000 0.000000 0.000000 0.000000 0.232314 0.000000
# 6 0.000000 0.000000 0.000000 0.000000 0.000000 0.039153
#
#
# Mechanical properties :
#
#
# Convention : Reuss Voigt Hill
#
# Bulk Modulus (GPa) = 34.24704 38.58754 36.41729
# Shear Modulus (GPa) = 13.54601 25.77433 19.66017
#
# Velocity S-wave (km/s) = 2.67225 3.68608 3.21932
# Velocity P-wave (km/s) = 5.25118 6.20146 5.74600
#
# Compressibility (1/GPa) = 0.02919960
#
# Stress axis : x y z
#
# Youngs Moduli (GPa) = 68.04983 86.95015 57.43993
#
# Poissons Ratio (x) = 0.15953 -0.03304
# Poissons Ratio (y) = 0.12485 0.34139
# Poissons Ratio (z) = -0.03915 0.51679
#
# Static dielectric constant tensor:
#      x y z
#    x 1.669970 0.000000 0.000000 
#    y 0.000000 1.682340 0.000000 
#    z 0.000000 0.000000 1.678750 
# 
# From -- ./inp_files/20566.got.cif
#   From: 2010.05.17/outbox.cif.g08.bks.cpg/sg40_11_cif.got.tgz:20566.got - 2010.06.03 18:35:42.
