data_PCOD9362250
_publ_section_title
;
Structure prediction by ZEFSAII (Michael W. Deem and Ramdas Pophale) SiO2 
 PCOD9362250
Probable space group: A M A 2
;
_chemical_formula_sum "Si O2"
_cell_formula_units_Z 28
_cell_length_a 5.739219
_cell_length_b 14.942304
_cell_length_c 11.999769
_cell_angle_alpha 90.000000
_cell_angle_beta 90.000000
_cell_angle_gamma 90.000000
_cell_volume 1029.066050
_symmetry_space_group_name_H-M "A M A 2"
_symmetry_group_IT_number 40
_symmetry_cell_setting 'orthorhombic'
loop_
_space_group_symop_operation_xyz
x,y,z
-x,-y,z
1/2-x,y,z
1/2+x,-y,z
x,1/2+y,1/2+z
-x,1/2-y,1/2+z
1/2-x,1/2+y,1/2+z
1/2+x,1/2-y,1/2+z
loop_
_atom_site_type_symbol
_atom_site_label
_atom_site_fract_x
_atom_site_fract_y
_atom_site_fract_z
Si Si1 0.250000 0.461823 0.581671
Si Si2 0.750000 0.119540 0.346025
Si Si3 0.250000 0.717711 0.603837
Si Si4 0.250000 0.258900 0.564737
Si Si5 0.750000 0.411524 0.822794
Si Si6 0.750000 0.122559 0.856017
Si Si7 0.750000 0.332990 0.347975
O O1 0.500000 0.500000 0.606821
O O2 0.250000 0.358814 0.621372
O O3 0.250000 0.455234 0.446589
O O4 0.484894 0.109147 0.390541
O O5 0.750000 0.017556 0.290564
O O6 0.491527 0.772504 0.597168
O O7 0.250000 0.653163 0.712569
O O8 0.250000 0.662606 0.485578
O O9 0.250000 0.287173 0.434348
O O10 0.250000 0.273217 0.821681
O O11 0.492460 0.125377 0.804767
#
# Coordination Sequence:
#
# PCOD9362250 Si02
#       7
#     4   4   4   4   4   4   4
#     4  10  16  26  36  60  97 128 157 218 277 296
#     4  10  21  36  51  70 106 152 174 209 280 335
#     4  10  17  33  47  67  98 132 182 230 250 307
#     4   8  17  27  39  63  90 130 175 216 250 296
#     4  10  21  36  47  76 108 142 172 221 274 329
#     4   8  17  27  42  67  89 120 187 227 249 287
#     4  10  17  33  52  67  90 144 191 223 244 320
#
# _framework density 27.209135
#
# number of rings (size 3 to 8) (size 9 to 14) (size 15 to 20)
#    0.857    1.714    0.000    3.429    0.000    0.000 
#   15.429    0.000    0.000    0.000    0.000    0.000 
#    0.000    0.000   97.143    1.714    0.000    0.000 
#
# Total GULP energy -77938.151694 kJ/mol
# GULP energy per Si atom -5567.010835 kJ/mol
# Density = 2.714721 g / cm^3
# Si number density = 27.209135 Si / 1000 Ang^3
#
#
#
# Elastic Constant Matrix: (Units=GPa)
#
#
# Indices 1 2 3 4 5 6 
#
# 1 343.1728 36.8545 7.3367 0.0000 0.0000 0.0000
# 2 36.8545 85.8777 33.4374 0.0000 0.0000 0.0000
# 3 7.3367 33.4374 75.5314 0.0000 0.0000 0.0000
# 4 0.0000 0.0000 0.0000 42.5382 0.0000 0.0000
# 5 0.0000 0.0000 0.0000 0.0000 -0.1548 0.0000
# 6 0.0000 0.0000 0.0000 0.0000 0.0000 9.5450
#
#
#
# Elastic Compliance Matrix: (Units=1/GPa)
#
#
# Indices 1 2 3 4 5 6 
#
# 1 0.003062 -0.001448 0.000344 0.000000 0.000000 0.000000
# 2 -0.001448 0.014754 -0.006391 0.000000 0.000000 0.000000
# 3 0.000344 -0.006391 0.016035 0.000000 0.000000 0.000000
# 4 0.000000 0.000000 0.000000 0.023508 0.000000 0.000000
# 5 0.000000 0.000000 0.000000 0.000000 -6.460876 0.000000
# 6 0.000000 0.000000 0.000000 0.000000 0.000000 0.104767
#
#
# Mechanical properties :
#
#
# Convention : Reuss Voigt Hill
#
# Bulk Modulus (GPa) = 53.01915 73.31546 63.16730
# Shear Modulus (GPa) = -0.79650 38.84924 19.02637
#
# Velocity S-wave (km/s) = -0.54163 3.78273 2.64723
# Velocity P-wave (km/s) = 4.37458 6.78840 5.71048
#
# Compressibility (1/GPa) = 0.01886111
#
# Stress axis : x y z
#
# Youngs Moduli (GPa) = 326.56989 67.77726 62.36197
#
# Poissons Ratio (x) = 0.09813 -0.02142
# Poissons Ratio (y) = 0.47283 0.39855
# Poissons Ratio (z) = -0.11219 0.43316
#
# Static dielectric constant tensor:
#      x y z
#    x 2.156490 0.000000 0.000000 
#    y 0.000000 2.203230 0.000000 
#    z 0.000000 0.000000 2.427950 
# 
# From -- ./inp_files/9551.got.cif
#   From: 2010.05.17/outbox.cif.g08.bks.cpg/sg40_5_cif.got.tgz:9551.got - 2010.06.03 18:35:42.
