data_PCOD9362057
_publ_section_title
;
Structure prediction by ZEFSAII (Michael W. Deem and Ramdas Pophale) SiO2 
 PCOD9362057
Probable space group: A B M 2
;
_chemical_formula_sum "Si O2"
_cell_formula_units_Z 48
_cell_length_a 8.207714
_cell_length_b 14.669089
_cell_length_c 18.834784
_cell_angle_alpha 90.000000
_cell_angle_beta 90.000000
_cell_angle_gamma 90.000000
_cell_volume 2267.702101
_symmetry_space_group_name_H-M "A B M 2"
_symmetry_group_IT_number 39
_symmetry_cell_setting 'orthorhombic'
loop_
_space_group_symop_operation_xyz
x,y,z
-x,-y,z
-x,1/2+y,z
x,1/2-y,z
x,1/2+y,1/2+z
-x,1/2-y,1/2+z
-x,y,1/2+z
x,-y,1/2+z
loop_
_atom_site_type_symbol
_atom_site_label
_atom_site_fract_x
_atom_site_fract_y
_atom_site_fract_z
Si Si1 0.205715 0.250000 0.233560
Si Si2 0.449284 0.750000 0.157109
Si Si3 0.168769 0.947654 0.801109
Si Si4 0.596986 0.413300 0.932395
Si Si5 0.919354 0.750000 0.073635
Si Si6 0.586929 0.750000 0.993314
Si Si7 0.118911 0.073814 0.535475
Si Si8 0.324643 0.047508 0.667543
O O1 0.399867 0.250000 0.213613
O O2 0.150844 0.342586 0.273745
O O3 0.136218 0.250000 0.154545
O O4 0.503751 0.750000 0.073091
O O5 0.352004 0.656328 0.169186
O O6 0.313930 0.939320 0.859144
O O7 0.238834 0.007419 0.736512
O O8 0.000000 0.000000 0.822997
O O9 0.500000 0.500000 0.960039
O O10 0.468322 0.333568 0.944103
O O11 0.747035 0.389593 0.982443
O O12 0.774076 0.750000 0.016244
O O13 0.020338 0.659119 0.062756
O O14 0.211457 0.025582 0.600427
O O15 0.000000 0.000000 0.500986
O O16 0.500000 0.000000 0.659216
#
# Coordination Sequence:
#
# PCOD9362057 Si02
#       8
#     4   4   8   8   4   4   8   8
#     4  11  23  44  71 104 148 183 239 300 365 437
#     4  11  23  40  75 106 134 182 244 304 356 418
#     4  12  27  47  70 105 152 196 242 305 373 442
#     4  12  26  47  70 100 142 196 247 296 358 441
#     4  11  24  42  71 108 137 181 233 305 371 425
#     4  11  24  46  71 104 139 184 244 301 360 438
#     4  12  24  40  68 103 141 180 234 301 362 416
#     4  12  23  42  71 107 143 187 248 302 363 442
#
# _framework density 21.166802000000001
#
# number of rings (size 3 to 8) (size 9 to 14) (size 15 to 20)
#    0.000    0.333    3.333    6.500    2.333    0.667 
#    0.000    0.833    0.000    0.000    0.000    0.000 
#    0.000    0.000    0.000    0.000    0.000    0.000 
#
# Total GULP energy -134120.561907 kJ/mol
# GULP energy per Si atom -5588.356746 kJ/mol
# Density = 2.111863 g / cm^3
# Si number density = 21.166802 Si / 1000 Ang^3
#
#
#
# Elastic Constant Matrix: (Units=GPa)
#
#
# Indices 1 2 3 4 5 6 
#
# 1 70.5371 7.8219 -5.7954 0.0000 0.0000 0.0000
# 2 7.8219 104.8807 -28.9722 0.0000 0.0000 0.0000
# 3 -5.7954 -28.9722 42.1849 0.0000 0.0000 0.0000
# 4 0.0000 0.0000 0.0000 533.9740 0.0000 0.0000
# 5 0.0000 0.0000 0.0000 0.0000 28.9255 0.0000
# 6 0.0000 0.0000 0.0000 0.0000 0.0000 18.5846
#
#
#
# Elastic Compliance Matrix: (Units=1/GPa)
#
#
# Indices 1 2 3 4 5 6 
#
# 1 0.014375 -0.000650 0.001528 0.000000 0.000000 0.000000
# 2 -0.000650 0.011796 0.008012 0.000000 0.000000 0.000000
# 3 0.001528 0.008012 0.029418 0.000000 0.000000 0.000000
# 4 0.000000 0.000000 0.000000 0.001873 0.000000 0.000000
# 5 0.000000 0.000000 0.000000 0.000000 0.034572 0.000000
# 6 0.000000 0.000000 0.000000 0.000000 0.000000 0.053808
#
#
# Mechanical properties :
#
#
# Convention : Reuss Voigt Hill
#
# Bulk Modulus (GPa) = 13.62929 18.19014 15.90972
# Shear Modulus (GPa) = 32.78340 132.60005 82.69173
#
# Velocity S-wave (km/s) = 3.93976 7.92346 6.25712
# Velocity P-wave (km/s) = 5.21044 9.60837 7.72882
#
# Compressibility (1/GPa) = 0.07337137
#
# Stress axis : x y z
#
# Youngs Moduli (GPa) = 69.56726 84.77120 33.99273
#
# Poissons Ratio (x) = 0.05508 -0.05196
# Poissons Ratio (y) = 0.04521 -0.27236
# Poissons Ratio (z) = -0.10633 -0.67922
#
# Static dielectric constant tensor:
#      x y z
#    x 1.766010 0.000000 0.000000 
#    y 0.000000 1.428630 0.000000 
#    z 0.000000 0.000000 1.762430 
# 
# From -- ./inp_files/11658.got.cif
#   From: 2010.05.17/outbox.cif.g08.bks.cpg/sg39_6_cif.got.tgz:11658.got - 2010.06.03 18:22:40.
