data_PCOD9362710
_publ_section_title
;
Structure prediction by ZEFSAII (Michael W. Deem and Ramdas Pophale) SiO2 
 PCOD9362710
Probable space group: A M A 2
;
_chemical_formula_sum "Si O2"
_cell_formula_units_Z 64
_cell_length_a 28.231381
_cell_length_b 18.371744
_cell_length_c 6.094959
_cell_angle_alpha 90.000000
_cell_angle_beta 90.000000
_cell_angle_gamma 90.000000
_cell_volume 3161.209634
_symmetry_space_group_name_H-M "A M A 2"
_symmetry_group_IT_number 40
_symmetry_cell_setting 'orthorhombic'
loop_
_space_group_symop_operation_xyz
x,y,z
-x,-y,z
1/2-x,y,z
1/2+x,-y,z
x,1/2+y,1/2+z
-x,1/2-y,1/2+z
1/2-x,1/2+y,1/2+z
1/2+x,1/2-y,1/2+z
loop_
_atom_site_type_symbol
_atom_site_label
_atom_site_fract_x
_atom_site_fract_y
_atom_site_fract_z
Si Si1 0.376646 0.987672 0.235170
Si Si2 0.618483 0.892098 0.593061
Si Si3 0.197200 0.444050 0.412022
Si Si4 0.382408 0.381665 0.105369
Si Si5 0.700006 0.704752 0.616140
Si Si6 0.372796 0.728153 0.785573
Si Si7 0.805194 0.326925 0.428125
Si Si8 0.055959 0.501424 0.359538
O O1 0.381026 0.909289 0.355242
O O2 0.366559 0.043198 0.430155
O O3 0.337471 0.997409 0.043248
O O4 0.425734 0.000839 0.109468
O O5 0.598208 0.828095 0.436253
O O6 0.663898 0.865884 0.736587
O O7 0.578911 0.927215 0.747994
O O8 0.250000 0.468967 0.351435
O O9 0.167901 0.407228 0.214165
O O10 0.202343 0.380791 0.594232
O O11 0.392349 0.295816 0.142812
O O12 0.420453 0.431337 0.237669
O O13 0.750000 0.733410 0.518985
O O14 0.657911 0.730450 0.466782
O O15 0.696759 0.741917 0.850522
O O16 0.337533 0.677759 0.642528
O O17 0.750000 0.350785 0.450333
O O18 0.000000 0.500000 0.340954
#
# Coordination Sequence:
#
# PCOD9362710 Si02
#       8
#     8   8   8   8   8   8   8   8
#     4  10  20  36  56  84 113 150 198 241 298 348
#     4  10  22  38  57  83 119 153 194 245 291 350
#     4   9  17  30  50  80 119 156 195 239 281 334
#     4   9  20  36  59  91 117 148 193 248 296 354
#     4   8  15  27  45  74 109 150 197 235 268 320
#     4  10  18  33  57  82 118 155 186 235 291 337
#     4  10  19  31  51  82 122 169 206 230 276 350
#     4  10  22  43  68  86 105 145 200 251 314 379
#
# _framework density 20.245412999999999
#
# number of rings (size 3 to 8) (size 9 to 14) (size 15 to 20)
#    0.000    2.500    0.000    1.875    0.000    5.000 
#    0.000    8.750    5.500    0.000    0.000    0.000 
#    0.000    0.000    0.000    0.000    0.000    0.000 
#
# Total GULP energy -178153.009221 kJ/mol
# GULP energy per Si atom -5567.281538 kJ/mol
# Density = 2.019933 g / cm^3
# Si number density = 20.245413 Si / 1000 Ang^3
#
#
#
# Elastic Constant Matrix: (Units=GPa)
#
#
# Indices 1 2 3 4 5 6 
#
# 1 112.3055 26.6270 26.2323 0.0000 0.0000 0.0000
# 2 26.6270 91.3518 25.9780 0.0000 0.0000 0.0000
# 3 26.2323 25.9780 70.6655 0.0000 0.0000 0.0000
# 4 0.0000 0.0000 0.0000 42.1315 0.0000 0.0000
# 5 0.0000 0.0000 0.0000 0.0000 -0.1332 0.0000
# 6 0.0000 0.0000 0.0000 0.0000 0.0000 16.6781
#
#
#
# Elastic Compliance Matrix: (Units=1/GPa)
#
#
# Indices 1 2 3 4 5 6 
#
# 1 0.010097 -0.002096 -0.002977 0.000000 0.000000 0.000000
# 2 -0.002096 0.012660 -0.003876 0.000000 0.000000 0.000000
# 3 -0.002977 -0.003876 0.016681 0.000000 0.000000 0.000000
# 4 0.000000 0.000000 0.000000 0.023735 0.000000 0.000000
# 5 0.000000 0.000000 0.000000 0.000000 -7.505092 0.000000
# 6 0.000000 0.000000 0.000000 0.000000 0.000000 0.059959
#
#
# Mechanical properties :
#
#
# Convention : Reuss Voigt Hill
#
# Bulk Modulus (GPa) = 46.42785 47.99970 47.21377
# Shear Modulus (GPa) = -0.67964 24.76764 12.04400
#
# Velocity S-wave (km/s) = -0.58002 3.50147 2.44170
# Velocity P-wave (km/s) = 4.74697 6.33304 5.59648
#
# Compressibility (1/GPa) = 0.02153879
#
# Stress axis : x y z
#
# Youngs Moduli (GPa) = 99.04152 78.98957 59.94733
#
# Poissons Ratio (x) = 0.16558 0.17849
# Poissons Ratio (y) = 0.20762 0.23235
# Poissons Ratio (z) = 0.29489 0.30615
#
# Static dielectric constant tensor:
#      x y z
#    x 1.727170 0.000000 0.000000 
#    y 0.000000 1.831180 0.000000 
#    z 0.000000 0.000000 1.737410 
# 
# From -- ./inp_files/3233.got.cif
#   From: 2010.05.17/outbox.cif.g08.bks.cpg/sg40_2_cif.got.tgz:3233.got - 2010.06.03 18:35:42.
