data_PCOD9362862
_publ_section_title
;
Structure prediction by ZEFSAII (Michael W. Deem and Ramdas Pophale) SiO2 
 PCOD9362862
Probable space group: A M A 2
;
_chemical_formula_sum "Si O2"
_cell_formula_units_Z 64
_cell_length_a 8.932090
_cell_length_b 27.040115
_cell_length_c 18.511685
_cell_angle_alpha 90.000000
_cell_angle_beta 90.000000
_cell_angle_gamma 90.000000
_cell_volume 4471.029921
_symmetry_space_group_name_H-M "A M A 2"
_symmetry_group_IT_number 40
_symmetry_cell_setting 'orthorhombic'
loop_
_space_group_symop_operation_xyz
x,y,z
-x,-y,z
1/2-x,y,z
1/2+x,-y,z
x,1/2+y,1/2+z
-x,1/2-y,1/2+z
1/2-x,1/2+y,1/2+z
1/2+x,1/2-y,1/2+z
loop_
_atom_site_type_symbol
_atom_site_label
_atom_site_fract_x
_atom_site_fract_y
_atom_site_fract_z
Si Si1 0.071447 0.645502 0.223980
Si Si2 0.430431 0.647657 0.898266
Si Si3 0.421627 0.200884 0.257251
Si Si4 0.428493 0.257218 0.976592
Si Si5 0.071645 0.946824 0.643215
Si Si6 0.928760 0.553228 0.972501
Si Si7 0.422495 0.301358 0.353258
Si Si8 0.426815 0.745090 0.132192
O O1 0.250000 0.640700 0.229795
O O2 0.040847 0.692366 0.171059
O O3 0.999998 0.596844 0.189652
O O4 0.001537 0.659020 0.301619
O O5 0.250000 0.649516 0.904811
O O6 0.467986 0.658920 0.814324
O O7 0.500308 0.692028 0.945621
O O8 0.495214 0.596429 0.926748
O O9 0.250000 0.192489 0.233894
O O10 0.422219 0.250725 0.306020
O O11 0.524649 0.212919 0.189319
O O12 0.250000 0.259998 0.971632
O O13 0.490428 0.213289 0.925723
O O14 0.482209 0.250945 0.058444
O O15 0.250000 0.948508 0.653728
O O16 0.043134 0.937194 0.557911
O O17 0.000000 0.000000 0.660464
O O18 0.750000 0.552376 0.961641
O O19 0.000000 0.500000 0.955575
O O20 0.250000 0.314232 0.368088
O O21 0.250000 0.747307 0.117604
#
# Coordination Sequence:
#
# PCOD9362862 Si02
#       8
#     8   8   8   8   8   8   8   8
#     4  10  19  30  45  64  86 114 147 180 216 259
#     4  10  19  31  46  63  86 115 147 181 218 259
#     4   8  16  29  43  60  83 111 141 176 215 254
#     4  11  20  29  43  63  88 116 147 180 215 257
#     4  10  20  32  45  62  85 114 147 184 221 255
#     4  10  20  32  46  64  87 115 148 184 220 256
#     4   9  17  30  45  61  84 112 143 178 215 255
#     4  10  19  29  43  63  87 115 146 179 214 255
#
# _framework density 14.314375
#
# number of rings (size 3 to 8) (size 9 to 14) (size 15 to 20)
#    0.000    2.250    0.000    4.875    0.000    8.500 
#    0.000    0.000    0.000    0.000    0.000    0.000 
#    0.000    1.000    0.000    7.000    0.000    5.500 
#
# Total GULP energy -178469.471058 kJ/mol
# GULP energy per Si atom -5577.170971 kJ/mol
# Density = 1.428179 g / cm^3
# Si number density = 14.314375 Si / 1000 Ang^3
#
#
#
# Elastic Constant Matrix: (Units=GPa)
#
#
# Indices 1 2 3 4 5 6 
#
# 1 94.6336 55.9119 62.6086 0.0000 0.0000 0.0000
# 2 55.9119 97.9739 59.1092 0.0000 0.0000 0.0000
# 3 62.6086 59.1092 87.9691 0.0000 0.0000 0.0000
# 4 0.0000 0.0000 0.0000 28.4009 0.0000 0.0000
# 5 0.0000 0.0000 0.0000 0.0000 25.6993 0.0000
# 6 0.0000 0.0000 0.0000 0.0000 0.0000 23.8581
#
#
#
# Elastic Compliance Matrix: (Units=1/GPa)
#
#
# Indices 1 2 3 4 5 6 
#
# 1 0.021374 -0.005079 -0.011800 0.000000 0.000000 0.000000
# 2 -0.005079 0.018372 -0.008730 0.000000 0.000000 0.000000
# 3 -0.011800 -0.008730 0.025632 0.000000 0.000000 0.000000
# 4 0.000000 0.000000 0.000000 0.035210 0.000000 0.000000
# 5 0.000000 0.000000 0.000000 0.000000 0.038912 0.000000
# 6 0.000000 0.000000 0.000000 0.000000 0.000000 0.041915
#
#
# Mechanical properties :
#
#
# Convention : Reuss Voigt Hill
#
# Bulk Modulus (GPa) = 70.61787 70.64843 70.63315
# Shear Modulus (GPa) = 21.06570 22.45477 21.76024
#
# Velocity S-wave (km/s) = 3.84037 3.96496 3.90316
# Velocity P-wave (km/s) = 8.31295 8.39186 8.35250
#
# Compressibility (1/GPa) = 0.01416072
#
# Stress axis : x y z
#
# Youngs Moduli (GPa) = 46.78480 54.42960 39.01435
#
# Poissons Ratio (x) = 0.27645 0.46036
# Poissons Ratio (y) = 0.23763 0.34060
# Poissons Ratio (z) = 0.55204 0.47518
#
# Static dielectric constant tensor:
#      x y z
#    x 1.475750 0.000000 0.000000 
#    y 0.000000 1.448940 0.000000 
#    z 0.000000 0.000000 1.464400 
# 
# From -- ./inp_files/19620.got.cif
#   From: 2010.05.17/outbox.cif.g08.bks.cpg/sg40_10_cif.got.tgz:19620.got - 2010.06.03 18:35:42.
