data_PCOD9362609
_publ_section_title
;
Structure prediction by ZEFSAII (Michael W. Deem and Ramdas Pophale) SiO2 
 PCOD9362609
Probable space group: A M A 2
;
_chemical_formula_sum "Si O2"
_cell_formula_units_Z 64
_cell_length_a 7.401747
_cell_length_b 24.105163
_cell_length_c 16.249219
_cell_angle_alpha 90.000000
_cell_angle_beta 90.000000
_cell_angle_gamma 90.000000
_cell_volume 2899.190820
_symmetry_space_group_name_H-M "A M A 2"
_symmetry_group_IT_number 40
_symmetry_cell_setting 'orthorhombic'
loop_
_space_group_symop_operation_xyz
x,y,z
-x,-y,z
1/2-x,y,z
1/2+x,-y,z
x,1/2+y,1/2+z
-x,1/2-y,1/2+z
1/2-x,1/2+y,1/2+z
1/2+x,1/2-y,1/2+z
loop_
_atom_site_type_symbol
_atom_site_label
_atom_site_fract_x
_atom_site_fract_y
_atom_site_fract_z
Si Si1 0.034546 0.065134 0.125000
Si Si2 0.471506 0.634605 0.781871
Si Si3 0.968367 0.744543 0.029270
Si Si4 0.033625 0.565198 0.125002
Si Si5 0.028494 0.634608 0.468131
Si Si6 0.541246 0.375260 0.287214
Si Si7 0.958754 0.875263 0.462788
Si Si8 0.031633 0.755454 0.720733
O O1 0.250000 0.073520 0.125000
O O2 0.968003 0.095304 0.207525
O O3 0.968002 0.095307 0.042478
O O4 0.000000 0.000000 0.124997
O O5 0.250000 0.634454 0.783302
O O6 0.536001 0.616288 0.871859
O O7 0.525539 0.697733 0.761604
O O8 0.750000 0.743051 0.028084
O O9 0.024735 0.742957 0.125001
O O10 0.025539 0.802264 0.988397
O O11 0.034998 0.690097 0.982934
O O12 0.250000 0.575364 0.125001
O O13 0.960985 0.593364 0.208367
O O14 0.000000 0.500000 0.125005
O O15 0.960985 0.593361 0.041636
O O16 0.250000 0.634456 0.466700
O O17 0.963999 0.616290 0.378143
O O18 0.750000 0.393164 0.292196
O O19 0.534997 0.309900 0.267070
O O20 0.750000 0.893168 0.457806
O O21 0.250000 0.756946 0.721918
#
# Coordination Sequence:
#
# PCOD9362609 Si02
#       8
#     8   8   8   8   8   8   8   8
#     4  10  20  37  56  76 102 137 179 220 257 302
#     4   9  18  34  56  77 104 140 173 206 255 315
#     4  10  18  31  54  81 106 137 171 204 251 313
#     4  10  22  37  52  72 100 135 175 214 255 300
#     4   9  18  34  56  77 104 140 173 206 255 315
#     4  10  20  35  54  78 106 137 170 211 261 306
#     4  10  20  35  54  78 106 137 170 211 261 306
#     4  10  18  31  54  81 106 137 171 204 251 313
#
# _framework density 22.075126000000001
#
# number of rings (size 3 to 8) (size 9 to 14) (size 15 to 20)
#    0.000    2.250    2.500    0.750    0.000    2.000 
#    0.000    2.500    0.000    0.000    0.000    0.000 
#    0.000    0.000    0.000    0.000    0.000    0.000 
#
# Total GULP energy -178838.496009 kJ/mol
# GULP energy per Si atom -5588.703000 kJ/mol
# Density = 2.202488 g / cm^3
# Si number density = 22.075126 Si / 1000 Ang^3
#
#
#
# Elastic Constant Matrix: (Units=GPa)
#
#
# Indices 1 2 3 4 5 6 
#
# 1 74.0690 -13.9168 8.9874 0.0000 0.0000 0.0000
# 2 -13.9168 144.1596 99.2638 0.0000 0.0000 0.0000
# 3 8.9874 99.2638 257.9107 0.0000 0.0000 0.0000
# 4 0.0000 0.0000 0.0000 -1.1014 0.0000 0.0000
# 5 0.0000 0.0000 0.0000 0.0000 -8.4187 0.0000
# 6 0.0000 0.0000 0.0000 0.0000 0.0000 25.0232
#
#
#
# Elastic Compliance Matrix: (Units=1/GPa)
#
#
# Indices 1 2 3 4 5 6 
#
# 1 0.014103 0.002313 -0.001382 0.000000 0.000000 0.000000
# 2 0.002313 0.009817 -0.003859 0.000000 0.000000 0.000000
# 3 -0.001382 -0.003859 0.005411 0.000000 0.000000 0.000000
# 4 0.000000 0.000000 0.000000 -0.907956 0.000000 0.000000
# 5 0.000000 0.000000 0.000000 0.000000 -0.118783 0.000000
# 6 0.000000 0.000000 0.000000 0.000000 0.000000 0.039963
#
#
# Mechanical properties :
#
#
# Convention : Reuss Voigt Hill
#
# Bulk Modulus (GPa) = 42.59776 73.86757 58.23266
# Shear Modulus (GPa) = -5.29793 28.55430 11.62818
#
# Velocity S-wave (km/s) = -1.55086 3.60044 2.29760
# Velocity P-wave (km/s) = 4.01643 7.12873 5.78578
#
# Compressibility (1/GPa) = 0.02347542
#
# Stress axis : x y z
#
# Youngs Moduli (GPa) = 70.90635 101.86182 184.81906
#
# Poissons Ratio (x) = -0.23559 0.25534
# Poissons Ratio (y) = -0.16399 0.71322
# Poissons Ratio (z) = 0.09796 0.39309
#
# Static dielectric constant tensor:
#      x y z
#    x 1.845160 0.000000 0.000000 
#    y 0.000000 1.733140 0.000000 
#    z 0.000000 0.000000 1.814190 
# 
# From -- ./inp_files/15581.got.cif
#   From: 2010.05.17/outbox.cif.g08.bks.cpg/sg40_8_cif.got.tgz:15581.got - 2010.06.03 18:35:42.
