data_PCOD9362644
_publ_section_title
;
Structure prediction by ZEFSAII (Michael W. Deem and Ramdas Pophale) SiO2 
 PCOD9362644
Probable space group: A M A 2
;
_chemical_formula_sum "Si O2"
_cell_formula_units_Z 48
_cell_length_a 7.472053
_cell_length_b 28.092218
_cell_length_c 10.078157
_cell_angle_alpha 90.000000
_cell_angle_beta 90.000000
_cell_angle_gamma 90.000000
_cell_volume 2115.471083
_symmetry_space_group_name_H-M "A M A 2"
_symmetry_group_IT_number 40
_symmetry_cell_setting 'orthorhombic'
loop_
_space_group_symop_operation_xyz
x,y,z
-x,-y,z
1/2-x,y,z
1/2+x,-y,z
x,1/2+y,1/2+z
-x,1/2-y,1/2+z
1/2-x,1/2+y,1/2+z
1/2+x,1/2-y,1/2+z
loop_
_atom_site_type_symbol
_atom_site_label
_atom_site_fract_x
_atom_site_fract_y
_atom_site_fract_z
Si Si1 0.031151 0.125430 0.518870
Si Si2 0.969476 0.911925 0.033319
Si Si3 0.535672 0.945077 0.747168
Si Si4 0.462786 0.051339 0.304878
Si Si5 0.960897 0.305880 0.608082
Si Si6 0.033896 0.224089 0.401581
O O1 0.250000 0.126157 0.521939
O O2 0.970090 0.095305 0.645509
O O3 0.970976 0.094383 0.393377
O O4 0.974607 0.179238 0.491946
O O5 0.750000 0.911715 0.028626
O O6 0.030152 0.944332 0.155647
O O7 0.028980 0.858206 0.068076
O O8 0.031852 0.932453 0.893715
O O9 0.750000 0.940700 0.748054
O O10 0.500000 0.000000 0.711062
O O11 0.250000 0.056703 0.300125
O O12 0.500000 0.000000 0.364763
O O13 0.750000 0.312702 0.631953
O O14 0.981574 0.271039 0.482544
O O15 0.029737 0.284190 0.748903
O O16 0.250000 0.224264 0.397481
#
# Coordination Sequence:
#
# PCOD9362644 Si02
#       6
#     8   8   8   8   8   8
#     4   9  18  34  55  76 103 141 180 215 262 327
#     4   9  18  34  55  76 103 141 180 215 262 327
#     4  10  20  34  53  78 106 140 181 220 263 318
#     4  10  18  32  53  76 102 134 173 216 263 316
#     4  10  21  38  59  84 112 144 185 232 278 330
#     4  10  21  38  59  84 112 144 185 232 278 330
#
# _framework density 22.689981
#
# number of rings (size 3 to 8) (size 9 to 14) (size 15 to 20)
#    0.000    2.333    1.667    1.000    2.333    0.667 
#    0.000    3.333    0.000    0.000    0.000    0.000 
#    0.000    0.000    0.000    0.000    0.000    0.000 
#
# Total GULP energy -134009.487347 kJ/mol
# GULP energy per Si atom -5583.728639 kJ/mol
# Density = 2.263834 g / cm^3
# Si number density = 22.689981 Si / 1000 Ang^3
#
#
#
# Elastic Constant Matrix: (Units=GPa)
#
#
# Indices 1 2 3 4 5 6 
#
# 1 61.6306 -10.5729 1.6362 0.0000 0.0000 0.0000
# 2 -10.5729 97.5015 -4.9051 0.0000 0.0000 0.0000
# 3 1.6362 -4.9051 80.4456 0.0000 0.0000 0.0000
# 4 0.0000 0.0000 0.0000 80.5628 0.0000 0.0000
# 5 0.0000 0.0000 0.0000 0.0000 308.3125 0.0000
# 6 0.0000 0.0000 0.0000 0.0000 0.0000 18.4746
#
#
#
# Elastic Compliance Matrix: (Units=1/GPa)
#
#
# Indices 1 2 3 4 5 6 
#
# 1 0.016537 0.001782 -0.000228 0.000000 0.000000 0.000000
# 2 0.001782 0.010480 0.000603 0.000000 0.000000 0.000000
# 3 -0.000228 0.000603 0.012472 0.000000 0.000000 0.000000
# 4 0.000000 0.000000 0.000000 0.012413 0.000000 0.000000
# 5 0.000000 0.000000 0.000000 0.000000 0.003243 0.000000
# 6 0.000000 0.000000 0.000000 0.000000 0.000000 0.054128
#
#
# Mechanical properties :
#
#
# Convention : Reuss Voigt Hill
#
# Bulk Modulus (GPa) = 22.82941 23.54378 23.18660
# Shear Modulus (GPa) = 41.81959 98.36461 70.09210
#
# Velocity S-wave (km/s) = 4.29778 6.59133 5.56402
# Velocity P-wave (km/s) = 5.89161 8.26598 7.17766
#
# Compressibility (1/GPa) = 0.04380314
#
# Stress axis : x y z
#
# Youngs Moduli (GPa) = 60.46890 95.42169 80.17868
#
# Poissons Ratio (x) = -0.17003 0.01826
# Poissons Ratio (y) = -0.10775 -0.04833
# Poissons Ratio (z) = 0.01377 -0.05752
#
# Static dielectric constant tensor:
#      x y z
#    x 1.162670 0.000000 0.000000 
#    y 0.000000 0.796520 0.000000 
#    z 0.000000 0.000000 1.839720 
# 
# From -- ./inp_files/4589.got.cif
#   From: 2010.05.17/outbox.cif.g08.bks.cpg/sg40_3_cif.got.tgz:4589.got - 2010.06.03 18:35:42.
