data_PCOD9362148
_publ_section_title
;
Structure prediction by ZEFSAII (Michael W. Deem and Ramdas Pophale) SiO2 
 PCOD9362148
Probable space group: A B M 2
;
_chemical_formula_sum "Si O2"
_cell_formula_units_Z 32
_cell_length_a 4.807552
_cell_length_b 32.526945
_cell_length_c 8.304353
_cell_angle_alpha 90.000000
_cell_angle_beta 90.000000
_cell_angle_gamma 90.000000
_cell_volume 1298.593030
_symmetry_space_group_name_H-M "A B M 2"
_symmetry_group_IT_number 39
_symmetry_cell_setting 'orthorhombic'
loop_
_space_group_symop_operation_xyz
x,y,z
-x,-y,z
-x,1/2+y,z
x,1/2-y,z
x,1/2+y,1/2+z
-x,1/2-y,1/2+z
-x,y,1/2+z
x,-y,1/2+z
loop_
_atom_site_type_symbol
_atom_site_label
_atom_site_fract_x
_atom_site_fract_y
_atom_site_fract_z
Si Si1 0.905748 0.546875 0.013070
Si Si2 0.392863 0.328385 0.221489
Si Si3 0.087303 0.297256 0.535805
Si Si4 0.388496 0.078601 0.329051
O O1 0.764752 0.555789 0.183453
O O2 0.000000 0.500000 0.002733
O O3 0.670489 0.556880 0.881712
O O4 0.171440 0.575592 0.977289
O O5 0.234678 0.305722 0.366320
O O6 0.676696 0.307083 0.168114
O O7 0.439831 0.374909 0.275810
O O8 0.177929 0.325733 0.071841
O O9 0.996855 0.250000 0.545786
#
# Coordination Sequence:
#
# PCOD9362148 Si02
#       4
#     8   8   8   8
#     4  12  26  45  71 102 138 179 227 286 344 407
#     4  12  25  44  70 100 137 184 231 284 343 408
#     4  12  24  42  66 100 139 182 231 286 342 404
#     4  12  25  47  71 102 138 181 231 284 343 411
#
# _framework density 24.642053000000001
#
# number of rings (size 3 to 8) (size 9 to 14) (size 15 to 20)
#    0.000    0.000    0.000   11.250    0.000    2.000 
#    0.000    1.250    0.000    0.000    0.000    0.000 
#    0.000    0.000    0.000    0.000    0.000    0.000 
#
# Total GULP energy -89907.327353 kJ/mol
# GULP energy per Si atom -5619.207960 kJ/mol
# Density = 2.458597 g / cm^3
# Si number density = 24.642053 Si / 1000 Ang^3
#
#
#
# Elastic Constant Matrix: (Units=GPa)
#
#
# Indices 1 2 3 4 5 6 
#
# 1 115.8327 28.7239 22.1778 0.0000 0.0000 0.0000
# 2 28.7239 109.6226 16.5805 0.0000 0.0000 0.0000
# 3 22.1778 16.5805 75.0340 0.0000 0.0000 0.0000
# 4 0.0000 0.0000 0.0000 39.8358 0.0000 0.0000
# 5 0.0000 0.0000 0.0000 0.0000 54.6838 0.0000
# 6 0.0000 0.0000 0.0000 0.0000 0.0000 -65.8606
#
#
#
# Elastic Compliance Matrix: (Units=1/GPa)
#
#
# Indices 1 2 3 4 5 6 
#
# 1 0.009623 -0.002164 -0.002366 0.000000 0.000000 0.000000
# 2 -0.002164 0.009924 -0.001553 0.000000 0.000000 0.000000
# 3 -0.002366 -0.001553 0.014370 0.000000 0.000000 0.000000
# 4 0.000000 0.000000 0.000000 0.025103 0.000000 0.000000
# 5 0.000000 0.000000 0.000000 0.000000 0.018287 0.000000
# 6 0.000000 0.000000 0.000000 0.000000 0.000000 -0.015184
#
#
# Mechanical properties :
#
#
# Convention : Reuss Voigt Hill
#
# Bulk Modulus (GPa) = 45.97600 48.38374 47.17987
# Shear Modulus (GPa) = 61.32004 21.26560 41.29282
#
# Velocity S-wave (km/s) = 4.99383 2.94084 4.09798
# Velocity P-wave (km/s) = 7.20758 5.58647 6.44817
#
# Compressibility (1/GPa) = 0.02175048
#
# Stress axis : x y z
#
# Youngs Moduli (GPa) = 103.92131 100.76522 69.58980
#
# Poissons Ratio (x) = 0.21801 0.16466
# Poissons Ratio (y) = 0.22483 0.10811
# Poissons Ratio (z) = 0.24589 0.15654
#
# Static dielectric constant tensor:
#      x y z
#    x 1.927570 0.000000 0.000000 
#    y 0.000000 1.853140 0.000000 
#    z 0.000000 0.000000 2.030670 
# 
# From -- ./inp_files/1715.got.cif
#   From: 2010.05.17/outbox.cif.g08.bks.cpg/sg39_1_cif.got.tgz:1715.got - 2010.06.03 18:22:40.
