data_PCOD9362328
_publ_section_title
;
Structure prediction by ZEFSAII (Michael W. Deem and Ramdas Pophale) SiO2 
 PCOD9362328
Probable space group: A M A 2
;
_chemical_formula_sum "Si O2"
_cell_formula_units_Z 64
_cell_length_a 14.477400
_cell_length_b 16.850624
_cell_length_c 12.685161
_cell_angle_alpha 90.000000
_cell_angle_beta 90.000000
_cell_angle_gamma 90.000000
_cell_volume 3094.585922
_symmetry_space_group_name_H-M "A M A 2"
_symmetry_group_IT_number 40
_symmetry_cell_setting 'orthorhombic'
loop_
_space_group_symop_operation_xyz
x,y,z
-x,-y,z
1/2-x,y,z
1/2+x,-y,z
x,1/2+y,1/2+z
-x,1/2-y,1/2+z
1/2-x,1/2+y,1/2+z
1/2+x,1/2-y,1/2+z
loop_
_atom_site_type_symbol
_atom_site_label
_atom_site_fract_x
_atom_site_fract_y
_atom_site_fract_z
Si Si1 0.136358 0.959274 0.636030
Si Si2 0.136838 0.872061 0.848126
Si Si3 0.353933 0.894869 0.417191
Si Si4 0.360492 0.931360 0.071502
Si Si5 0.361723 0.190831 0.377255
Si Si6 0.137067 0.139421 0.612014
Si Si7 0.863412 0.707064 0.731830
Si Si8 0.898948 0.968395 0.263239
O O1 0.250000 0.959652 0.632167
O O2 0.107879 0.913109 0.740203
O O3 0.102766 0.918876 0.527807
O O4 0.107298 0.050743 0.637760
O O5 0.250000 0.872601 0.848973
O O6 0.107385 0.780259 0.853987
O O7 0.105192 0.919553 0.952791
O O8 0.250000 0.867056 0.441662
O O9 0.397394 0.827193 0.343377
O O10 0.344957 0.973338 0.343460
O O11 0.250000 0.925502 0.066167
O O12 0.392135 0.856930 0.143152
O O13 0.379906 0.009056 0.141728
O O14 0.250000 0.192983 0.379052
O O15 0.391374 0.164214 0.494193
O O16 0.387082 0.122314 0.294456
O O17 0.250000 0.140068 0.612368
O O18 0.107529 0.206277 0.695215
O O19 0.750000 0.705146 0.734498
O O20 0.000000 0.000000 0.285089
#
# Coordination Sequence:
#
# PCOD9362328 Si02
#       8
#     8   8   8   8   8   8   8   8
#     4   9  16  26  44  74 105 128 151 197 258 301
#     4   9  17  29  50  78 103 127 162 204 252 306
#     4   9  16  29  49  71 100 132 161 201 255 296
#     4   9  16  30  51  75  99 127 165 212 256 297
#     4  10  17  30  52  77 100 128 169 212 246 291
#     4   9  14  23  43  72  99 123 158 195 233 284
#     4   8  13  22  41  69  92 117 157 198 229 275
#     4  11  21  31  49  74 104 129 172 215 259 297
#
# _framework density 20.681280999999998
#
# number of rings (size 3 to 8) (size 9 to 14) (size 15 to 20)
#    0.000    2.750    2.500    1.875    0.000    0.000 
#    0.000    1.250    2.750    6.750    0.000    0.000 
#    0.000    0.000    0.000    0.000    0.000    0.000 
#
# Total GULP energy -178508.400823 kJ/mol
# GULP energy per Si atom -5578.387526 kJ/mol
# Density = 2.063421 g / cm^3
# Si number density = 20.681281 Si / 1000 Ang^3
#
#
#
# Elastic Constant Matrix: (Units=GPa)
#
#
# Indices 1 2 3 4 5 6 
#
# 1 32.9484 6.8880 11.6475 0.0000 0.0000 0.0000
# 2 6.8880 162.6535 123.1082 0.0000 0.0000 0.0000
# 3 11.6475 123.1082 188.0037 0.0000 0.0000 0.0000
# 4 0.0000 0.0000 0.0000 37.6786 0.0000 0.0000
# 5 0.0000 0.0000 0.0000 0.0000 -85.9007 0.0000
# 6 0.0000 0.0000 0.0000 0.0000 0.0000 8.0589
#
#
#
# Elastic Compliance Matrix: (Units=1/GPa)
#
#
# Indices 1 2 3 4 5 6 
#
# 1 0.031037 0.000280 -0.002106 0.000000 0.000000 0.000000
# 2 0.000280 0.012192 -0.008001 0.000000 0.000000 0.000000
# 3 -0.002106 -0.008001 0.010688 0.000000 0.000000 0.000000
# 4 0.000000 0.000000 0.000000 0.026540 0.000000 0.000000
# 5 0.000000 0.000000 0.000000 0.000000 -0.011641 0.000000
# 6 0.000000 0.000000 0.000000 0.000000 0.000000 0.124086
#
#
# Mechanical properties :
#
#
# Convention : Reuss Voigt Hill
#
# Bulk Modulus (GPa) = 29.18623 74.09922 51.64272
# Shear Modulus (GPa) = 22.32374 8.09816 15.21095
#
# Velocity S-wave (km/s) = 3.28901 1.98096 2.71494
# Velocity P-wave (km/s) = 5.34476 6.41398 5.90363
#
# Compressibility (1/GPa) = 0.03426274
#
# Stress axis : x y z
#
# Youngs Moduli (GPa) = 32.22012 82.02310 93.55864
#
# Poissons Ratio (x) = -0.02293 0.19702
# Poissons Ratio (y) = -0.00901 0.74853
# Poissons Ratio (z) = 0.06785 0.65624
#
# Static dielectric constant tensor:
#      x y z
#    x 1.919580 0.000000 0.000000 
#    y 0.000000 1.714140 0.000000 
#    z 0.000000 0.000000 1.741040 
# 
# From -- ./inp_files/13238.got.cif
#   From: 2010.05.17/outbox.cif.g08.bks.cpg/sg40_7_cif.got.tgz:13238.got - 2010.06.03 18:35:42.
