data_PCOD9362960
_publ_section_title
;
Structure prediction by ZEFSAII (Michael W. Deem and Ramdas Pophale) SiO2 
 PCOD9362960
Probable space group: A M A 2
;
_chemical_formula_sum "Si O2"
_cell_formula_units_Z 48
_cell_length_a 9.229247
_cell_length_b 32.098529
_cell_length_c 9.210612
_cell_angle_alpha 90.000000
_cell_angle_beta 90.000000
_cell_angle_gamma 90.000000
_cell_volume 2728.600077
_symmetry_space_group_name_H-M "A M A 2"
_symmetry_group_IT_number 40
_symmetry_cell_setting 'orthorhombic'
loop_
_space_group_symop_operation_xyz
x,y,z
-x,-y,z
1/2-x,y,z
1/2+x,-y,z
x,1/2+y,1/2+z
-x,1/2-y,1/2+z
1/2-x,1/2+y,1/2+z
1/2+x,1/2-y,1/2+z
loop_
_atom_site_type_symbol
_atom_site_label
_atom_site_fract_x
_atom_site_fract_y
_atom_site_fract_z
Si Si1 0.574734 0.631803 0.309780
Si Si2 0.923150 0.791630 0.313233
Si Si3 0.576328 0.712085 0.504842
Si Si4 0.915455 0.540701 0.339822
Si Si5 0.923370 0.373781 0.999705
Si Si6 0.917836 0.041639 0.485614
O O1 0.750000 0.629980 0.285017
O O2 0.542896 0.670731 0.412101
O O3 0.531002 0.587061 0.378166
O O4 0.493704 0.635885 0.156537
O O5 0.750000 0.788401 0.292204
O O6 0.968201 0.752986 0.414757
O O7 0.952636 0.835066 0.394309
O O8 0.000955 0.789240 0.159695
O O9 0.750000 0.713751 0.524004
O O10 0.750000 0.536905 0.387086
O O11 0.918488 0.540601 0.162856
O O12 0.000000 0.500000 0.390349
O O13 0.750000 0.379272 0.014187
O O14 0.997264 0.416413 0.945208
O O15 0.750000 0.042514 0.440167
O O16 0.000000 0.000000 0.436068
#
# Coordination Sequence:
#
# PCOD9362960 Si02
#       6
#     8   8   8   8   8   8
#     4   9  18  32  50  74 102 132 171 214 254 303
#     4  10  22  37  53  77 105 131 167 214 259 308
#     4  10  21  37  56  76 100 133 171 212 260 312
#     4   8  14  24  40  65  96 126 158 199 242 286
#     4  10  19  31  49  75 106 137 170 210 256 305
#     4   9  16  27  45  71 102 135 171 211 253 296
#
# _framework density 17.591438
#
# number of rings (size 3 to 8) (size 9 to 14) (size 15 to 20)
#    0.000    2.667    0.000    3.000    0.000    6.667 
#    0.000    0.000    0.000    1.000    0.000    4.667 
#    0.000    0.000    0.000    0.000    0.000    0.000 
#
# Total GULP energy -133818.484092 kJ/mol
# GULP energy per Si atom -5575.770171 kJ/mol
# Density = 1.755140 g / cm^3
# Si number density = 17.591438 Si / 1000 Ang^3
#
#
#
# Elastic Constant Matrix: (Units=GPa)
#
#
# Indices 1 2 3 4 5 6 
#
# 1 67.5934 85.8411 51.9404 0.0000 0.0000 0.0000
# 2 85.8411 203.4224 80.7164 0.0000 0.0000 0.0000
# 3 51.9404 80.7164 81.6477 0.0000 0.0000 0.0000
# 4 0.0000 0.0000 0.0000 18.0727 0.0000 0.0000
# 5 0.0000 0.0000 0.0000 0.0000 22.7933 0.0000
# 6 0.0000 0.0000 0.0000 0.0000 0.0000 29.3433
#
#
#
# Elastic Compliance Matrix: (Units=1/GPa)
#
#
# Indices 1 2 3 4 5 6 
#
# 1 0.040116 -0.011193 -0.014455 0.000000 0.000000 0.000000
# 2 -0.011193 0.011212 -0.003964 0.000000 0.000000 0.000000
# 3 -0.014455 -0.003964 0.025362 0.000000 0.000000 0.000000
# 4 0.000000 0.000000 0.000000 0.055332 0.000000 0.000000
# 5 0.000000 0.000000 0.000000 0.000000 0.043873 0.000000
# 6 0.000000 0.000000 0.000000 0.000000 0.000000 0.034079
#
#
# Mechanical properties :
#
#
# Convention : Reuss Voigt Hill
#
# Bulk Modulus (GPa) = 57.25049 87.73992 72.49521
# Shear Modulus (GPa) = 18.18057 22.98624 20.58341
#
# Velocity S-wave (km/s) = 3.21828 3.61871 3.42436
# Velocity P-wave (km/s) = 6.81359 8.21248 7.54552
#
# Compressibility (1/GPa) = 0.01746710
#
# Stress axis : x y z
#
# Youngs Moduli (GPa) = 24.92744 89.19175 39.42965
#
# Poissons Ratio (x) = 0.99831 0.56995
# Poissons Ratio (y) = 0.27901 0.15628
# Poissons Ratio (z) = 0.36033 0.35351
#
# Static dielectric constant tensor:
#      x y z
#    x 1.593180 0.000000 0.000000 
#    y 0.000000 1.617830 0.000000 
#    z 0.000000 0.000000 1.564470 
# 
# From -- ./inp_files/4624.got.cif
#   From: 2010.05.17/outbox.cif.g08.bks.cpg/sg40_3_cif.got.tgz:4624.got - 2010.06.03 18:35:42.
