data_PCOD9362426
_publ_section_title
;
Structure prediction by ZEFSAII (Michael W. Deem and Ramdas Pophale) SiO2 
 PCOD9362426
Probable space group: A M A 2
;
_chemical_formula_sum "Si O2"
_cell_formula_units_Z 56
_cell_length_a 8.762158
_cell_length_b 22.714613
_cell_length_c 18.323302
_cell_angle_alpha 90.000000
_cell_angle_beta 90.000000
_cell_angle_gamma 90.000000
_cell_volume 3646.868987
_symmetry_space_group_name_H-M "A M A 2"
_symmetry_group_IT_number 40
_symmetry_cell_setting 'orthorhombic'
loop_
_space_group_symop_operation_xyz
x,y,z
-x,-y,z
1/2-x,y,z
1/2+x,-y,z
x,1/2+y,1/2+z
-x,1/2-y,1/2+z
1/2-x,1/2+y,1/2+z
1/2+x,1/2-y,1/2+z
loop_
_atom_site_type_symbol
_atom_site_label
_atom_site_fract_x
_atom_site_fract_y
_atom_site_fract_z
Si Si1 0.566867 0.848376 0.055530
Si Si2 0.068450 0.782226 0.754931
Si Si3 0.067541 0.688647 0.943879
Si Si4 0.431918 0.684789 0.398720
Si Si5 0.432772 0.935028 0.173521
Si Si6 0.932295 0.778801 0.601206
Si Si7 0.432670 0.844590 0.301707
O O1 0.750000 0.844470 0.062799
O O2 0.501750 0.900283 0.104698
O O3 0.495587 0.786680 0.083485
O O4 0.530875 0.854901 0.969178
O O5 0.250000 0.778739 0.755814
O O6 0.010689 0.823782 0.820725
O O7 0.007770 0.800186 0.675717
O O8 0.001138 0.716806 0.771120
O O9 0.250000 0.693503 0.934769
O O10 0.989575 0.750818 0.923804
O O11 0.000743 0.645673 0.882540
O O12 0.035914 0.681225 0.029779
O O13 0.250000 0.685597 0.389024
O O14 0.250000 0.937204 0.166901
O O15 0.470112 0.896110 0.245078
O O16 0.500000 0.000000 0.178884
O O17 0.750000 0.774537 0.610241
O O18 0.250000 0.838240 0.305994
#
# Coordination Sequence:
#
# PCOD9362426 Si02
#       7
#     8   8   8   8   8   8   8
#     4  10  19  31  47  64  85 116 151 187 228 270
#     4  11  19  26  42  65  89 120 152 182 218 264
#     4   9  17  27  42  62  84 114 148 181 217 264
#     4   9  17  28  42  61  86 115 146 181 220 266
#     4  11  23  35  49  66  88 119 155 196 231 266
#     4  10  18  28  42  63  91 120 150 182 220 264
#     4  10  19  31  45  61  85 116 147 185 230 266
#
# _framework density 15.355637
#
# number of rings (size 3 to 8) (size 9 to 14) (size 15 to 20)
#    0.000    2.000    1.429    5.571    0.000    5.143 
#    0.000    0.000    0.000    0.000    0.000    0.000 
#    0.000    1.143    0.000    8.000    0.000    5.857 
#
# Total GULP energy -156059.225543 kJ/mol
# GULP energy per Si atom -5573.543769 kJ/mol
# Density = 1.532069 g / cm^3
# Si number density = 15.355637 Si / 1000 Ang^3
#
#
#
# Elastic Constant Matrix: (Units=GPa)
#
#
# Indices 1 2 3 4 5 6 
#
# 1 77.1827 25.0768 63.9057 0.0000 0.0000 0.0000
# 2 25.0768 46.1118 41.9021 0.0000 0.0000 0.0000
# 3 63.9057 41.9021 168.5369 0.0000 0.0000 0.0000
# 4 0.0000 0.0000 0.0000 12.9151 0.0000 0.0000
# 5 0.0000 0.0000 0.0000 0.0000 31.7342 0.0000
# 6 0.0000 0.0000 0.0000 0.0000 0.0000 14.2408
#
#
#
# Elastic Compliance Matrix: (Units=1/GPa)
#
#
# Indices 1 2 3 4 5 6 
#
# 1 0.019768 -0.005089 -0.006231 0.000000 0.000000 0.000000
# 2 -0.005089 0.029326 -0.005362 0.000000 0.000000 0.000000
# 3 -0.006231 -0.005362 0.009629 0.000000 0.000000 0.000000
# 4 0.000000 0.000000 0.000000 0.077429 0.000000 0.000000
# 5 0.000000 0.000000 0.000000 0.000000 0.031512 0.000000
# 6 0.000000 0.000000 0.000000 0.000000 0.000000 0.070221
#
#
# Mechanical properties :
#
#
# Convention : Reuss Voigt Hill
#
# Bulk Modulus (GPa) = 39.42993 61.51116 50.47055
# Shear Modulus (GPa) = 17.87628 22.50781 20.19204
#
# Velocity S-wave (km/s) = 3.41567 3.83269 3.63017
# Velocity P-wave (km/s) = 6.42567 7.72856 7.10704
#
# Compressibility (1/GPa) = 0.02536144
#
# Stress axis : x y z
#
# Youngs Moduli (GPa) = 50.58572 34.09955 103.85380
#
# Poissons Ratio (x) = 0.17353 0.64707
# Poissons Ratio (y) = 0.25742 0.55681
# Poissons Ratio (z) = 0.31518 0.18283
#
# Static dielectric constant tensor:
#      x y z
#    x 1.510850 0.000000 0.000000 
#    y 0.000000 1.464010 0.000000 
#    z 0.000000 0.000000 1.576820 
# 
# From -- ./inp_files/19476.got.cif
#   From: 2010.05.17/outbox.cif.g08.bks.cpg/sg40_10_cif.got.tgz:19476.got - 2010.06.03 18:35:42.
