data_PCOD9362477
_publ_section_title
;
Structure prediction by ZEFSAII (Michael W. Deem and Ramdas Pophale) SiO2 
 PCOD9362477
Probable space group: A M A 2
;
_chemical_formula_sum "Si O2"
_cell_formula_units_Z 64
_cell_length_a 8.050531
_cell_length_b 19.407286
_cell_length_c 22.347938
_cell_angle_alpha 90.000000
_cell_angle_beta 90.000000
_cell_angle_gamma 90.000000
_cell_volume 3491.618537
_symmetry_space_group_name_H-M "A M A 2"
_symmetry_group_IT_number 40
_symmetry_cell_setting 'orthorhombic'
loop_
_space_group_symop_operation_xyz
x,y,z
-x,-y,z
1/2-x,y,z
1/2+x,-y,z
x,1/2+y,1/2+z
-x,1/2-y,1/2+z
1/2-x,1/2+y,1/2+z
1/2+x,1/2-y,1/2+z
loop_
_atom_site_type_symbol
_atom_site_label
_atom_site_fract_x
_atom_site_fract_y
_atom_site_fract_z
Si Si1 0.450187 0.725749 0.539900
Si Si2 0.557391 0.074280 0.899660
Si Si3 0.951302 0.921790 0.714558
Si Si4 0.550657 0.926756 0.036283
Si Si5 0.555044 0.575922 0.957485
Si Si6 0.446905 0.128583 0.585316
Si Si7 0.954208 0.218887 0.409653
Si Si8 0.561269 0.816981 0.813424
O O1 0.250000 0.730296 0.540542
O O2 0.496379 0.648792 0.561471
O O3 0.516229 0.790077 0.577872
O O4 0.502230 0.739441 0.470384
O O5 0.750000 0.087235 0.885650
O O6 0.441449 0.129789 0.868751
O O7 0.500000 0.000000 0.877027
O O8 0.531545 0.073462 0.970668
O O9 0.750000 0.919126 0.716567
O O10 0.008904 0.902678 0.647655
O O11 0.014270 0.862384 0.759948
O O12 0.000000 0.000000 0.729761
O O13 0.750000 0.927533 0.029286
O O14 0.500000 0.000000 0.065436
O O15 0.500000 0.500000 0.940577
O O16 0.750000 0.579005 0.949198
O O17 0.485538 0.641207 0.921188
O O18 0.519431 0.590992 0.027236
O O19 0.250000 0.118654 0.583530
O O20 0.750000 0.220866 0.407879
O O21 0.015164 0.251109 0.347137
O O22 0.750000 0.799481 0.795587
#
# Coordination Sequence:
#
# PCOD9362477 Si02
#       8
#     8   8   8   8   8   8   8   8
#     4   9  17  31  49  69  93 127 162 197 246 297
#     4  11  20  28  40  62  90 124 161 194 231 273
#     4  10  22  35  50  70  96 130 169 204 241 280
#     4  10  18  29  44  65  94 125 159 193 236 287
#     4  10  19  32  50  74  97 125 156 193 245 299
#     4  10  20  33  49  72  97 126 164 208 245 285
#     4   8  15  29  48  67  91 120 154 190 235 290
#     4  10  18  33  50  65  91 127 162 201 237 281
#
# _framework density 18.329606999999999
#
# number of rings (size 3 to 8) (size 9 to 14) (size 15 to 20)
#    0.000    2.250    1.250    4.500    0.000    4.500 
#    0.000    0.625    0.000    0.000    0.000    0.875 
#    0.000    4.000    0.000    0.000    0.000    0.250 
#
# Total GULP energy -178283.074745 kJ/mol
# GULP energy per Si atom -5571.346086 kJ/mol
# Density = 1.828789 g / cm^3
# Si number density = 18.329607 Si / 1000 Ang^3
#
#
#
# Elastic Constant Matrix: (Units=GPa)
#
#
# Indices 1 2 3 4 5 6 
#
# 1 29.9275 3.9707 -3.8513 0.0000 0.0000 0.0000
# 2 3.9707 136.8359 36.7965 0.0000 0.0000 0.0000
# 3 -3.8513 36.7965 62.4220 0.0000 0.0000 0.0000
# 4 0.0000 0.0000 0.0000 19.5609 0.0000 0.0000
# 5 0.0000 0.0000 0.0000 0.0000 -526.6866 0.0000
# 6 0.0000 0.0000 0.0000 0.0000 0.0000 24.7911
#
#
#
# Elastic Compliance Matrix: (Units=1/GPa)
#
#
# Indices 1 2 3 4 5 6 
#
# 1 0.034070 -0.001847 0.003191 0.000000 0.000000 0.000000
# 2 -0.001847 0.008785 -0.005292 0.000000 0.000000 0.000000
# 3 0.003191 -0.005292 0.019337 0.000000 0.000000 0.000000
# 4 0.000000 0.000000 0.000000 0.051122 0.000000 0.000000
# 5 0.000000 0.000000 0.000000 0.000000 -0.001899 0.000000
# 6 0.000000 0.000000 0.000000 0.000000 0.000000 0.040337
#
#
# Mechanical properties :
#
#
# Convention : Reuss Voigt Hill
#
# Bulk Modulus (GPa) = 18.41820 33.66859 26.04339
# Shear Modulus (GPa) = 28.12991 -83.64895 -27.75952
#
# Velocity S-wave (km/s) = 3.92174 -6.76277 -3.89583
# Velocity P-wave (km/s) = 5.52963 6.52470 2.44897
#
# Compressibility (1/GPa) = 0.05429413
#
# Stress axis : x y z
#
# Youngs Moduli (GPa) = 29.35164 113.83319 51.71541
#
# Poissons Ratio (x) = 0.21020 -0.16500
# Poissons Ratio (y) = 0.05420 0.27370
# Poissons Ratio (z) = -0.09365 0.60245
#
# Static dielectric constant tensor:
#      x y z
#    x 1.660220 0.000000 0.000000 
#    y 0.000000 1.803000 0.000000 
#    z 0.000000 0.000000 1.632050 
# 
# From -- ./inp_files/22511.got.cif
#   From: 2010.05.17/outbox.cif.g08.bks.cpg/sg40_12_cif.got.tgz:22511.got - 2010.06.03 18:35:42.
