data_PCOD9362128
_publ_section_title
;
Structure prediction by ZEFSAII (Michael W. Deem and Ramdas Pophale) SiO2 
 PCOD9362128
Probable space group: A B M 2
;
_chemical_formula_sum "Si O2"
_cell_formula_units_Z 56
_cell_length_a 5.117982
_cell_length_b 14.998010
_cell_length_c 31.110661
_cell_angle_alpha 90.000000
_cell_angle_beta 90.000000
_cell_angle_gamma 90.000000
_cell_volume 2388.040190
_symmetry_space_group_name_H-M "A B M 2"
_symmetry_group_IT_number 39
_symmetry_cell_setting 'orthorhombic'
loop_
_space_group_symop_operation_xyz
x,y,z
-x,-y,z
-x,1/2+y,z
x,1/2-y,z
x,1/2+y,1/2+z
-x,1/2-y,1/2+z
-x,y,1/2+z
x,-y,1/2+z
loop_
_atom_site_type_symbol
_atom_site_label
_atom_site_fract_x
_atom_site_fract_y
_atom_site_fract_z
Si Si1 0.078214 0.899076 0.736330
Si Si2 0.173140 0.750000 0.444256
Si Si3 0.401920 0.347297 0.787719
Si Si4 0.387650 0.099565 0.587217
Si Si5 0.500000 0.500000 0.850124
Si Si6 0.113546 0.648947 0.638136
Si Si7 0.115230 0.407079 0.416944
Si Si8 0.493153 0.109365 0.490935
O O1 0.829039 0.845739 0.753091
O O2 0.127982 0.890671 0.685667
O O3 0.331415 0.869791 0.762669
O O4 0.000000 0.000000 0.745288
O O5 0.256164 0.830676 0.479182
O O6 0.095554 0.669488 0.409416
O O7 0.425599 0.250000 0.808441
O O8 0.355647 0.427245 0.820927
O O9 0.103665 0.102526 0.608394
O O10 0.390413 0.132449 0.538160
O O11 0.603423 0.147901 0.616190
O O12 0.500000 0.000000 0.585583
O O13 0.703197 0.443134 0.878640
O O14 0.021551 0.750000 0.642641
O O15 0.298185 0.361766 0.452894
O O16 0.000000 0.500000 0.434527
O O17 0.500000 0.000000 0.488120
#
# Coordination Sequence:
#
# PCOD9362128 Si02
#       8
#     8   4   8   8   4   8   8   8
#     4  12  24  50  77 109 156 205 254 313 399 468
#     4  12  26  46  84 108 150 218 252 328 406 474
#     4  12  27  49  80 114 153 204 255 318 395 479
#     4  11  26  44  72 107 151 204 259 323 386 448
#     4  12  28  50  74 122 148 192 256 334 392 476
#     4  12  26  44  71 112 152 200 261 324 377 461
#     4  12  26  49  78 108 155 198 262 326 403 476
#     4  11  25  48  71 111 152 203 266 321 390 484
#
# _framework density 23.450192999999999
#
# number of rings (size 3 to 8) (size 9 to 14) (size 15 to 20)
#    0.000    0.286    3.571    4.286    7.000    0.000 
#    1.286    0.000    0.000    0.000    0.000    0.000 
#    0.000    0.000    0.000    0.000    0.000    0.000 
#
# Total GULP energy -156139.501635 kJ/mol
# GULP energy per Si atom -5576.410773 kJ/mol
# Density = 2.339682 g / cm^3
# Si number density = 23.450193 Si / 1000 Ang^3
#
#
#
# Elastic Constant Matrix: (Units=GPa)
#
#
# Indices 1 2 3 4 5 6 
#
# 1 84.7465 14.9850 30.3347 0.0000 0.0000 0.0000
# 2 14.9850 172.4623 36.0707 0.0000 0.0000 0.0000
# 3 30.3347 36.0707 108.4269 0.0000 0.0000 0.0000
# 4 0.0000 0.0000 0.0000 10.8740 0.0000 0.0000
# 5 0.0000 0.0000 0.0000 0.0000 52.7332 0.0000
# 6 0.0000 0.0000 0.0000 0.0000 0.0000 18.0187
#
#
#
# Elastic Compliance Matrix: (Units=1/GPa)
#
#
# Indices 1 2 3 4 5 6 
#
# 1 0.013139 -0.000401 -0.003543 0.000000 0.000000 0.000000
# 2 -0.000401 0.006244 -0.001965 0.000000 0.000000 0.000000
# 3 -0.003543 -0.001965 0.010868 0.000000 0.000000 0.000000
# 4 0.000000 0.000000 0.000000 0.091962 0.000000 0.000000
# 5 0.000000 0.000000 0.000000 0.000000 0.018963 0.000000
# 6 0.000000 0.000000 0.000000 0.000000 0.000000 0.055498
#
#
# Mechanical properties :
#
#
# Convention : Reuss Voigt Hill
#
# Bulk Modulus (GPa) = 54.24808 58.71294 56.48051
# Shear Modulus (GPa) = 23.29530 35.27489 29.28510
#
# Velocity S-wave (km/s) = 3.15524 3.88267 3.53770
# Velocity P-wave (km/s) = 6.03801 6.72249 6.38942
#
# Compressibility (1/GPa) = 0.01843383
#
# Stress axis : x y z
#
# Youngs Moduli (GPa) = 76.11052 160.14858 92.01612
#
# Poissons Ratio (x) = 0.06417 0.32597
# Poissons Ratio (y) = 0.03050 0.18083
# Poissons Ratio (z) = 0.26963 0.31472
#
# Static dielectric constant tensor:
#      x y z
#    x 1.994410 0.000000 0.000000 
#    y 0.000000 1.906150 0.000000 
#    z 0.000000 0.000000 1.885360 
# 
# From -- ./inp_files/17292.got.cif
#   From: 2010.05.17/outbox.cif.g08.bks.cpg/sg39_9_cif.got.tgz:17292.got - 2010.06.03 18:22:40.
