data_PCOD9362441
_publ_section_title
;
Structure prediction by ZEFSAII (Michael W. Deem and Ramdas Pophale) SiO2 
 PCOD9362441
Probable space group: A M A 2
;
_chemical_formula_sum "Si O2"
_cell_formula_units_Z 64
_cell_length_a 14.754590
_cell_length_b 18.174169
_cell_length_c 14.609999
_cell_angle_alpha 90.000000
_cell_angle_beta 90.000000
_cell_angle_gamma 90.000000
_cell_volume 3917.706474
_symmetry_space_group_name_H-M "A M A 2"
_symmetry_group_IT_number 40
_symmetry_cell_setting 'orthorhombic'
loop_
_space_group_symop_operation_xyz
x,y,z
-x,-y,z
1/2-x,y,z
1/2+x,-y,z
x,1/2+y,1/2+z
-x,1/2-y,1/2+z
1/2-x,1/2+y,1/2+z
1/2+x,1/2-y,1/2+z
loop_
_atom_site_type_symbol
_atom_site_label
_atom_site_fract_x
_atom_site_fract_y
_atom_site_fract_z
Si Si1 0.855769 0.320773 0.772940
Si Si2 0.356268 0.113212 0.461565
Si Si3 0.602915 0.525678 0.260664
Si Si4 0.473895 0.823046 0.777881
Si Si5 0.855245 0.819786 0.063673
Si Si6 0.852175 0.042433 0.551638
Si Si7 0.148431 0.615389 0.374331
Si Si8 0.981047 0.679119 0.060093
O O1 0.750000 0.296553 0.777358
O O2 0.867903 0.380503 0.852375
O O3 0.922057 0.252838 0.794215
O O4 0.871991 0.345136 0.668085
O O5 0.250000 0.127530 0.482392
O O6 0.423769 0.170895 0.509074
O O7 0.378086 0.032837 0.501235
O O8 0.500000 0.500000 0.243345
O O9 0.593444 0.608405 0.298049
O O10 0.647589 0.527277 0.160968
O O11 0.641838 0.465805 0.330401
O O12 0.567483 0.836960 0.830598
O O13 0.494412 0.826724 0.669388
O O14 0.750000 0.793381 0.061092
O O15 0.923766 0.752989 0.043217
O O16 0.863886 0.880008 0.983857
O O17 0.750000 0.062398 0.524119
O O18 0.919754 0.109096 0.533012
O O19 0.250000 0.643852 0.354101
#
# Coordination Sequence:
#
# PCOD9362441 Si02
#       8
#     8   8   8   8   8   8   8   8
#     4   9  18  32  47  64  86 115 153 187 214 248
#     4  10  19  29  44  66  91 118 145 178 219 261
#     4   9  17  28  43  66  94 119 142 173 217 265
#     4   9  18  30  46  68  91 117 143 177 220 264
#     4   9  18  31  47  66  87 116 152 184 214 251
#     4  10  18  28  45  69  93 115 141 175 220 268
#     4  10  18  28  44  67  94 119 143 176 219 263
#     4  10  18  30  47  66  92 117 142 178 220 264
#
# _framework density 16.336089000000001
#
# number of rings (size 3 to 8) (size 9 to 14) (size 15 to 20)
#    0.000    2.500    0.000    4.125    0.000    5.000 
#    0.000    0.000    0.000    4.500    0.000    0.000 
#    0.000   14.000    0.000    0.000    0.000    0.000 
#
# Total GULP energy -178229.098297 kJ/mol
# GULP energy per Si atom -5569.659322 kJ/mol
# Density = 1.629891 g / cm^3
# Si number density = 16.336089 Si / 1000 Ang^3
#
#
#
# Elastic Constant Matrix: (Units=GPa)
#
#
# Indices 1 2 3 4 5 6 
#
# 1 62.0635 16.5810 35.0172 0.0000 0.0000 0.0000
# 2 16.5810 41.2648 38.3427 0.0000 0.0000 0.0000
# 3 35.0172 38.3427 72.8474 0.0000 0.0000 0.0000
# 4 0.0000 0.0000 0.0000 19.6607 0.0000 0.0000
# 5 0.0000 0.0000 0.0000 0.0000 23.2998 0.0000
# 6 0.0000 0.0000 0.0000 0.0000 0.0000 14.9497
#
#
#
# Elastic Compliance Matrix: (Units=1/GPa)
#
#
# Indices 1 2 3 4 5 6 
#
# 1 0.022188 0.001947 -0.011691 0.000000 0.000000 0.000000
# 2 0.001947 0.047602 -0.025991 0.000000 0.000000 0.000000
# 3 -0.011691 -0.025991 0.033027 0.000000 0.000000 0.000000
# 4 0.000000 0.000000 0.000000 0.050863 0.000000 0.000000
# 5 0.000000 0.000000 0.000000 0.000000 0.042919 0.000000
# 6 0.000000 0.000000 0.000000 0.000000 0.000000 0.066891
#
#
# Mechanical properties :
#
#
# Convention : Reuss Voigt Hill
#
# Bulk Modulus (GPa) = 31.89955 39.56194 35.73075
# Shear Modulus (GPa) = 14.47563 17.33099 15.90331
#
# Velocity S-wave (km/s) = 2.98000 3.26068 3.12349
# Velocity P-wave (km/s) = 5.60446 6.20050 5.91000
#
# Compressibility (1/GPa) = 0.03134840
#
# Stress axis : x y z
#
# Youngs Moduli (GPa) = 45.06859 21.00766 30.27829
#
# Poissons Ratio (x) = -0.04090 0.35397
# Poissons Ratio (y) = -0.08775 0.78695
# Poissons Ratio (z) = 0.52688 0.54600
#
# Static dielectric constant tensor:
#      x y z
#    x 1.562670 0.000000 0.000000 
#    y 0.000000 1.547640 0.000000 
#    z 0.000000 0.000000 1.551000 
# 
# From -- ./inp_files/17279.got.cif
#   From: 2010.05.17/outbox.cif.g08.bks.cpg/sg40_9_cif.got.tgz:17279.got - 2010.06.03 18:35:42.
