data_PCOD9362733
_publ_section_title
;
Structure prediction by ZEFSAII (Michael W. Deem and Ramdas Pophale) SiO2 
 PCOD9362733
Probable space group: A M A 2
;
_chemical_formula_sum "Si O2"
_cell_formula_units_Z 64
_cell_length_a 18.815946
_cell_length_b 21.407225
_cell_length_c 7.414495
_cell_angle_alpha 90.000000
_cell_angle_beta 90.000000
_cell_angle_gamma 90.000000
_cell_volume 2986.537748
_symmetry_space_group_name_H-M "A M A 2"
_symmetry_group_IT_number 40
_symmetry_cell_setting 'orthorhombic'
loop_
_space_group_symop_operation_xyz
x,y,z
-x,-y,z
1/2-x,y,z
1/2+x,-y,z
x,1/2+y,1/2+z
-x,1/2-y,1/2+z
1/2-x,1/2+y,1/2+z
1/2+x,1/2-y,1/2+z
loop_
_atom_site_type_symbol
_atom_site_label
_atom_site_fract_x
_atom_site_fract_y
_atom_site_fract_z
Si Si1 0.909312 0.287891 0.452990
Si Si2 0.454583 0.346228 0.951356
Si Si3 0.114504 0.608443 0.043867
Si Si4 0.330628 0.233944 0.571459
Si Si5 0.061112 0.336354 0.512750
Si Si6 0.575621 0.022508 0.450677
Si Si7 0.574839 0.024892 0.026486
Si Si8 0.834813 0.405757 0.453672
O O1 0.927315 0.219329 0.531918
O O2 0.863347 0.273760 0.273335
O O3 0.867494 0.344378 0.552150
O O4 0.987200 0.317420 0.421072
O O5 0.452881 0.337065 0.731971
O O6 0.408259 0.406874 0.010734
O O7 0.535129 0.365532 0.003279
O O8 0.164086 0.665453 0.983914
O O9 0.132387 0.599962 0.253636
O O10 0.124231 0.538494 0.969030
O O11 0.250000 0.254926 0.582821
O O12 0.380346 0.284241 0.477115
O O13 0.086446 0.405255 0.457134
O O14 0.563877 0.032209 0.239436
O O15 0.500000 0.000000 0.531500
O O16 0.500000 0.000000 0.950292
O O17 0.635107 0.972755 0.011620
O O18 0.750000 0.403311 0.452594
#
# Coordination Sequence:
#
# PCOD9362733 Si02
#       8
#     8   8   8   8   8   8   8   8
#     4  10  18  34  57  83 115 147 192 239 282 343
#     4   9  18  32  55  88 112 144 192 246 283 336
#     4  10  18  34  55  78 115 153 187 229 286 348
#     4  10  21  36  57  85 118 154 190 237 299 354
#     4  10  19  35  60  89 112 149 200 248 284 345
#     4   8  17  32  55  82 112 140 185 238 280 327
#     4  10  19  36  59  86 114 145 194 245 284 341
#     4  11  24  38  56  85 121 155 189 236 301 357
#
# _framework density 21.429496
#
# number of rings (size 3 to 8) (size 9 to 14) (size 15 to 20)
#    0.000    2.250    2.500    2.250    0.000    2.000 
#    0.000    1.250    0.000    7.500    0.000    0.000 
#    0.000    0.000    0.000    0.000    0.000    0.000 
#
# Total GULP energy -178258.356700 kJ/mol
# GULP energy per Si atom -5570.573647 kJ/mol
# Density = 2.138072 g / cm^3
# Si number density = 21.429496 Si / 1000 Ang^3
#
#
#
# Elastic Constant Matrix: (Units=GPa)
#
#
# Indices 1 2 3 4 5 6 
#
# 1 122.7688 54.6569 6.8156 0.0000 0.0000 0.0000
# 2 54.6569 194.0930 -3.4463 0.0000 0.0000 0.0000
# 3 6.8156 -3.4463 48.1586 0.0000 0.0000 0.0000
# 4 0.0000 0.0000 0.0000 -308.2943 0.0000 0.0000
# 5 0.0000 0.0000 0.0000 0.0000 26.2939 0.0000
# 6 0.0000 0.0000 0.0000 0.0000 0.0000 21.7127
#
#
#
# Elastic Compliance Matrix: (Units=1/GPa)
#
#
# Indices 1 2 3 4 5 6 
#
# 1 0.009424 -0.002681 -0.001525 0.000000 0.000000 0.000000
# 2 -0.002681 0.005921 0.000803 0.000000 0.000000 0.000000
# 3 -0.001525 0.000803 0.021038 0.000000 0.000000 0.000000
# 4 0.000000 0.000000 0.000000 -0.003244 0.000000 0.000000
# 5 0.000000 0.000000 0.000000 0.000000 0.038032 0.000000
# 6 0.000000 0.000000 0.000000 0.000000 0.000000 0.046056
#
#
# Mechanical properties :
#
#
# Convention : Reuss Voigt Hill
#
# Bulk Modulus (GPa) = 33.81041 53.45254 43.63148
# Shear Modulus (GPa) = 37.34352 -31.59125 2.87613
#
# Velocity S-wave (km/s) = 4.17900 -3.84369 1.15976
# Velocity P-wave (km/s) = 6.25277 2.30195 4.71148
#
# Compressibility (1/GPa) = 0.02957669
#
# Stress axis : x y z
#
# Youngs Moduli (GPa) = 106.11688 168.88069 47.53287
#
# Poissons Ratio (x) = 0.45273 0.07251
# Poissons Ratio (y) = 0.28448 -0.03818
# Poissons Ratio (z) = 0.16188 -0.13563
#
# Static dielectric constant tensor:
#      x y z
#    x 1.725080 0.000000 0.000000 
#    y 0.000000 2.078450 0.000000 
#    z 0.000000 0.000000 1.849620 
# 
# From -- ./inp_files/7787.got.cif
#   From: 2010.05.17/outbox.cif.g08.bks.cpg/sg40_4_cif.got.tgz:7787.got - 2010.06.03 18:35:42.
