data_PCOD9362730
_publ_section_title
;
Structure prediction by ZEFSAII (Michael W. Deem and Ramdas Pophale) SiO2 
 PCOD9362730
Probable space group: A M A 2
;
_chemical_formula_sum "Si O2"
_cell_formula_units_Z 60
_cell_length_a 24.389696
_cell_length_b 15.410854
_cell_length_c 8.487762
_cell_angle_alpha 90.000000
_cell_angle_beta 90.000000
_cell_angle_gamma 90.000000
_cell_volume 3190.261527
_symmetry_space_group_name_H-M "A M A 2"
_symmetry_group_IT_number 40
_symmetry_cell_setting 'orthorhombic'
loop_
_space_group_symop_operation_xyz
x,y,z
-x,-y,z
1/2-x,y,z
1/2+x,-y,z
x,1/2+y,1/2+z
-x,1/2-y,1/2+z
1/2-x,1/2+y,1/2+z
1/2+x,1/2-y,1/2+z
loop_
_atom_site_type_symbol
_atom_site_label
_atom_site_fract_x
_atom_site_fract_y
_atom_site_fract_z
Si Si1 0.476989 0.649241 0.155550
Si Si2 0.185296 0.371623 0.406336
Si Si3 0.596425 0.886245 0.368780
Si Si4 0.609136 0.988351 0.058810
Si Si5 0.688849 0.316612 0.072209
Si Si6 0.379362 0.192682 0.864495
Si Si7 0.102329 0.291320 0.168049
Si Si8 0.000000 0.000000 0.897947
O O1 0.430173 0.708091 0.241028
O O2 0.538886 0.682325 0.148938
O O3 0.479528 0.572570 0.280347
O O4 0.455619 0.618575 0.985160
O O5 0.250000 0.387440 0.368254
O O6 0.158239 0.447594 0.511423
O O7 0.183236 0.280064 0.499943
O O8 0.143687 0.356370 0.258328
O O9 0.602189 0.962066 0.241311
O O10 0.647526 0.881726 0.486743
O O11 0.599282 0.796665 0.271023
O O12 0.615633 0.897921 0.961222
O O13 0.551323 0.029358 0.002521
O O14 0.750000 0.346361 0.045371
O O15 0.673194 0.312351 0.254203
O O16 0.376610 0.266598 0.995313
#
# Coordination Sequence:
#
# PCOD9362730 Si02
#       8
#     8   8   8   8   8   8   8   4
#     4  10  18  34  53  81 116 148 183 232 288 349
#     4  10  21  37  58  81 112 151 188 229 285 336
#     4   9  20  34  56  83 109 145 195 230 285 343
#     4  10  20  38  54  83 114 144 191 232 280 343
#     4   9  19  38  56  77 109 147 188 237 280 329
#     4   9  20  34  56  82 109 145 190 230 285 339
#     4  10  18  35  57  82 111 145 186 239 279 339
#     4  10  20  34  54  78 118 152 174 234 290 336
#
# _framework density 18.807236
#
# number of rings (size 3 to 8) (size 9 to 14) (size 15 to 20)
#    0.000    2.400    1.333    0.800    0.000    2.133 
#    7.200    2.667    0.000    0.000    0.000    0.000 
#    0.000    0.000    0.000    0.000    0.000    0.000 
#
# Total GULP energy -167083.263647 kJ/mol
# GULP energy per Si atom -5569.442122 kJ/mol
# Density = 1.876443 g / cm^3
# Si number density = 18.807236 Si / 1000 Ang^3
#
#
#
# Elastic Constant Matrix: (Units=GPa)
#
#
# Indices 1 2 3 4 5 6 
#
# 1 91.8473 13.1195 37.4822 0.0000 0.0000 0.0000
# 2 13.1195 15.3281 27.8657 0.0000 0.0000 0.0000
# 3 37.4822 27.8657 115.3342 0.0000 0.0000 0.0000
# 4 0.0000 0.0000 0.0000 -10.2235 0.0000 0.0000
# 5 0.0000 0.0000 0.0000 0.0000 17.8615 0.0000
# 6 0.0000 0.0000 0.0000 0.0000 0.0000 20.9318
#
#
#
# Elastic Compliance Matrix: (Units=1/GPa)
#
#
# Indices 1 2 3 4 5 6 
#
# 1 0.012863 -0.006081 -0.002711 0.000000 0.000000 0.000000
# 2 -0.006081 0.119215 -0.026827 0.000000 0.000000 0.000000
# 3 -0.002711 -0.026827 0.016033 0.000000 0.000000 0.000000
# 4 0.000000 0.000000 0.000000 -0.097814 0.000000 0.000000
# 5 0.000000 0.000000 0.000000 0.000000 0.055986 0.000000
# 6 0.000000 0.000000 0.000000 0.000000 0.000000 0.047774
#
#
# Mechanical properties :
#
#
# Convention : Reuss Voigt Hill
#
# Bulk Modulus (GPa) = 13.00850 42.16049 27.58450
# Shear Modulus (GPa) = 19.92673 15.31678 17.62175
#
# Velocity S-wave (km/s) = 3.25857 2.85688 3.06431
# Velocity P-wave (km/s) = 4.59232 5.77479 5.21716
#
# Compressibility (1/GPa) = 0.07687280
#
# Stress axis : x y z
#
# Youngs Moduli (GPa) = 77.74497 8.38820 62.37073
#
# Poissons Ratio (x) = 0.05101 0.16909
# Poissons Ratio (y) = 0.47275 1.67323
# Poissons Ratio (z) = 0.21077 0.22503
#
# Static dielectric constant tensor:
#      x y z
#    x 1.712310 0.000000 0.000000 
#    y 0.000000 1.735510 0.000000 
#    z 0.000000 0.000000 1.649000 
# 
# From -- ./inp_files/8871.got.cif
#   From: 2010.05.17/outbox.cif.g08.bks.cpg/sg40_5_cif.got.tgz:8871.got - 2010.06.03 18:35:42.
