data_PCOD9362013
_publ_section_title
;
Structure prediction by ZEFSAII (Michael W. Deem and Ramdas Pophale) SiO2 
 PCOD9362013
Probable space group: A B M 2
;
_chemical_formula_sum "Si O2"
_cell_formula_units_Z 64
_cell_length_a 24.754100
_cell_length_b 8.153576
_cell_length_c 15.820787
_cell_angle_alpha 90.000000
_cell_angle_beta 90.000000
_cell_angle_gamma 90.000000
_cell_volume 3193.179616
_symmetry_space_group_name_H-M "A B M 2"
_symmetry_group_IT_number 39
_symmetry_cell_setting 'orthorhombic'
loop_
_space_group_symop_operation_xyz
x,y,z
-x,-y,z
-x,1/2+y,z
x,1/2-y,z
x,1/2+y,1/2+z
-x,1/2-y,1/2+z
-x,y,1/2+z
x,-y,1/2+z
loop_
_atom_site_type_symbol
_atom_site_label
_atom_site_fract_x
_atom_site_fract_y
_atom_site_fract_z
Si Si1 0.637299 0.048970 0.958810
Si Si2 0.872368 0.547944 0.395784
Si Si3 0.939504 0.441857 0.054090
Si Si4 0.757376 0.945933 0.660675
Si Si5 0.363554 0.052280 0.653596
Si Si6 0.561836 0.554280 0.306441
Si Si7 0.242360 0.446636 0.459336
Si Si8 0.871520 0.058173 0.710887
O O1 0.637488 0.250000 0.959112
O O2 0.594479 0.992684 0.889141
O O3 0.698060 0.992759 0.934864
O O4 0.626525 0.998300 0.056266
O O5 0.871100 0.750000 0.396922
O O6 0.911111 0.487160 0.470230
O O7 0.811094 0.490283 0.413894
O O8 0.890125 0.497752 0.302554
O O9 0.942763 0.250000 0.039493
O O10 0.900755 0.472109 0.133427
O O11 0.000000 0.500000 0.069474
O O12 0.761343 0.750000 0.675509
O O13 0.696668 0.002962 0.681608
O O14 0.763709 0.972670 0.559882
O O15 0.807040 0.032653 0.705620
O O16 0.361591 0.250000 0.651081
O O17 0.407672 0.999985 0.721302
O O18 0.500000 0.500000 0.307263
O O19 0.563404 0.750000 0.309227
O O20 0.243313 0.250000 0.446625
O O21 0.883660 0.250000 0.703486
#
# Coordination Sequence:
#
# PCOD9362013 Si02
#       8
#     8   8   8   8   8   8   8   8
#     4   8  17  33  56  82 110 147 189 229 280 339
#     4   9  19  34  57  85 115 151 189 229 280 338
#     4  11  23  43  64  82 112 154 195 236 285 340
#     4   9  17  33  58  84 117 156 189 227 284 344
#     4   9  19  37  59  84 114 150 191 235 285 341
#     4  11  23  38  57  82 112 149 192 237 285 341
#     4   8  13  29  56  82 109 146 186 223 273 340
#     4  11  22  35  57  91 121 150 191 237 282 335
#
# _framework density 20.042718000000001
#
# number of rings (size 3 to 8) (size 9 to 14) (size 15 to 20)
#    0.000    2.500    1.250    2.625    1.750    1.500 
#    0.000    6.250    0.000    1.500    0.000    0.000 
#    0.000    0.000    0.000    0.000    0.000    0.000 
#
# Total GULP energy -178561.892552 kJ/mol
# GULP energy per Si atom -5580.059142 kJ/mol
# Density = 1.999710 g / cm^3
# Si number density = 20.042718 Si / 1000 Ang^3
#
#
#
# Elastic Constant Matrix: (Units=GPa)
#
#
# Indices 1 2 3 4 5 6 
#
# 1 76.7955 2.9715 29.2163 0.0000 0.0000 0.0000
# 2 2.9715 7.9966 4.3681 0.0000 0.0000 0.0000
# 3 29.2163 4.3681 63.9291 0.0000 0.0000 0.0000
# 4 0.0000 0.0000 0.0000 14.3867 0.0000 0.0000
# 5 0.0000 0.0000 0.0000 0.0000 -25.7347 0.0000
# 6 0.0000 0.0000 0.0000 0.0000 0.0000 21.7345
#
#
#
# Elastic Compliance Matrix: (Units=1/GPa)
#
#
# Indices 1 2 3 4 5 6 
#
# 1 0.015793 -0.002001 -0.007081 0.000000 0.000000 0.000000
# 2 -0.002001 0.130156 -0.007979 0.000000 0.000000 0.000000
# 3 -0.007081 -0.007979 0.019424 0.000000 0.000000 0.000000
# 4 0.000000 0.000000 0.000000 0.069509 0.000000 0.000000
# 5 0.000000 0.000000 0.000000 0.000000 -0.038858 0.000000
# 6 0.000000 0.000000 0.000000 0.000000 0.000000 0.046010
#
#
# Mechanical properties :
#
#
# Convention : Reuss Voigt Hill
#
# Bulk Modulus (GPa) = 7.61897 24.64810 16.13354
# Shear Modulus (GPa) = 15.62971 9.55497 12.59234
#
# Velocity S-wave (km/s) = 2.79555 2.18578 2.50926
# Velocity P-wave (km/s) = 3.77224 4.32374 4.05737
#
# Compressibility (1/GPa) = 0.13125139
#
# Stress axis : x y z
#
# Youngs Moduli (GPa) = 63.31978 7.68311 51.48398
#
# Poissons Ratio (x) = 0.01537 0.36455
# Poissons Ratio (y) = 0.12668 0.41078
# Poissons Ratio (z) = 0.44836 0.06130
#
# Static dielectric constant tensor:
#      x y z
#    x 1.711580 0.000000 0.000000 
#    y 0.000000 1.707160 0.000000 
#    z 0.000000 0.000000 1.714350 
# 
# From -- ./inp_files/10633.got.cif
#   From: 2010.05.17/outbox.cif.g08.bks.cpg/sg39_6_cif.got.tgz:10633.got - 2010.06.03 18:22:40.
