data_PCOD9362548
_publ_section_title
;
Structure prediction by ZEFSAII (Michael W. Deem and Ramdas Pophale) SiO2 
 PCOD9362548
Probable space group: A M A 2
;
_chemical_formula_sum "Si O2"
_cell_formula_units_Z 64
_cell_length_a 8.620190
_cell_length_b 23.924320
_cell_length_c 19.686233
_cell_angle_alpha 90.000000
_cell_angle_beta 90.000000
_cell_angle_gamma 90.000000
_cell_volume 4059.934827
_symmetry_space_group_name_H-M "A M A 2"
_symmetry_group_IT_number 40
_symmetry_cell_setting 'orthorhombic'
loop_
_space_group_symop_operation_xyz
x,y,z
-x,-y,z
1/2-x,y,z
1/2+x,-y,z
x,1/2+y,1/2+z
-x,1/2-y,1/2+z
1/2-x,1/2+y,1/2+z
1/2+x,1/2-y,1/2+z
loop_
_atom_site_type_symbol
_atom_site_label
_atom_site_fract_x
_atom_site_fract_y
_atom_site_fract_z
Si Si1 0.434663 0.160293 0.992850
Si Si2 0.436095 0.561583 0.124766
Si Si3 0.437108 0.752068 0.759839
Si Si4 0.936181 0.562460 0.405290
Si Si5 0.437179 0.383112 0.260918
Si Si6 0.561861 0.834460 0.538258
Si Si7 0.937905 0.766815 0.411538
Si Si8 0.564432 0.222296 0.118176
O O1 0.250000 0.160353 0.990879
O O2 0.499725 0.102421 0.964159
O O3 0.498899 0.209556 0.943933
O O4 0.492704 0.176442 0.068022
O O5 0.500000 0.500000 0.112398
O O6 0.250000 0.560055 0.123676
O O7 0.490165 0.583885 0.198144
O O8 0.492274 0.607293 0.069548
O O9 0.250000 0.749519 0.755141
O O10 0.481847 0.817776 0.758311
O O11 0.484725 0.728364 0.833307
O O12 0.509023 0.721256 0.695412
O O13 0.750000 0.562037 0.407880
O O14 0.982748 0.589712 0.332770
O O15 0.000000 0.500000 0.409916
O O16 0.250000 0.385979 0.255891
O O17 0.750000 0.835988 0.538565
O O18 0.513627 0.816415 0.462534
O O19 0.516029 0.782843 0.587078
O O20 0.750000 0.762965 0.413279
O O21 0.750000 0.219037 0.114189
#
# Coordination Sequence:
#
# PCOD9362548 Si02
#       8
#     8   8   8   8   8   8   8   8
#     4  11  21  33  50  74  99 130 169 210 251 301
#     4  11  21  33  47  68  95 132 174 209 244 289
#     4  10  18  30  50  76 102 129 162 202 250 301
#     4  11  22  37  52  71  99 137 175 212 252 296
#     4  10  20  33  48  70 101 134 167 205 244 286
#     4   8  16  30  48  67  90 124 164 199 241 293
#     4   9  17  33  52  71  98 130 161 204 256 303
#     4  10  19  33  51  71  98 131 164 204 251 301
#
# _framework density 15.763799000000001
#
# number of rings (size 3 to 8) (size 9 to 14) (size 15 to 20)
#    0.000    2.000    2.500    3.375    0.000    2.500 
#    0.000    0.625    0.000    0.000    0.000    0.875 
#    0.000    4.000    0.000    0.000    0.000    0.000 
#
# Total GULP energy -178555.361106 kJ/mol
# GULP energy per Si atom -5579.855035 kJ/mol
# Density = 1.572792 g / cm^3
# Si number density = 15.763799 Si / 1000 Ang^3
#
#
#
# Elastic Constant Matrix: (Units=GPa)
#
#
# Indices 1 2 3 4 5 6 
#
# 1 34.5472 28.0631 37.2133 0.0000 0.0000 0.0000
# 2 28.0631 96.9842 71.1995 0.0000 0.0000 0.0000
# 3 37.2133 71.1995 145.8916 0.0000 0.0000 0.0000
# 4 0.0000 0.0000 0.0000 20.5028 0.0000 0.0000
# 5 0.0000 0.0000 0.0000 0.0000 21.5433 0.0000
# 6 0.0000 0.0000 0.0000 0.0000 0.0000 14.7597
#
#
#
# Elastic Compliance Matrix: (Units=1/GPa)
#
#
# Indices 1 2 3 4 5 6 
#
# 1 0.042590 -0.006776 -0.007557 0.000000 0.000000 0.000000
# 2 -0.006776 0.017146 -0.006639 0.000000 0.000000 0.000000
# 3 -0.007557 -0.006639 0.012022 0.000000 0.000000 0.000000
# 4 0.000000 0.000000 0.000000 0.048774 0.000000 0.000000
# 5 0.000000 0.000000 0.000000 0.000000 0.046418 0.000000
# 6 0.000000 0.000000 0.000000 0.000000 0.000000 0.067752
#
#
# Mechanical properties :
#
#
# Convention : Reuss Voigt Hill
#
# Bulk Modulus (GPa) = 33.54151 61.15276 47.34714
# Shear Modulus (GPa) = 17.44690 20.75764 19.10227
#
# Velocity S-wave (km/s) = 3.33042 3.63270 3.48484
# Velocity P-wave (km/s) = 6.00939 7.51483 6.80388
#
# Compressibility (1/GPa) = 0.02981381
#
# Stress axis : x y z
#
# Youngs Moduli (GPa) = 23.47965 58.32350 83.18024
#
# Poissons Ratio (x) = 0.39520 0.62857
# Poissons Ratio (y) = 0.15910 0.55225
# Poissons Ratio (z) = 0.17743 0.38722
#
# Static dielectric constant tensor:
#      x y z
#    x 1.529000 0.000000 0.000000 
#    y 0.000000 1.506990 0.000000 
#    z 0.000000 0.000000 1.530290 
# 
# From -- ./inp_files/22532.got.cif
#   From: 2010.05.17/outbox.cif.g08.bks.cpg/sg40_12_cif.got.tgz:22532.got - 2010.06.03 18:35:42.
