data_PCOD9362114
_publ_section_title
;
Structure prediction by ZEFSAII (Michael W. Deem and Ramdas Pophale) SiO2 
 PCOD9362114
Probable space group: A B M 2
;
_chemical_formula_sum "Si O2"
_cell_formula_units_Z 40
_cell_length_a 10.906837
_cell_length_b 19.340261
_cell_length_c 8.178193
_cell_angle_alpha 90.000000
_cell_angle_beta 90.000000
_cell_angle_gamma 90.000000
_cell_volume 1725.116817
_symmetry_space_group_name_H-M "A B M 2"
_symmetry_group_IT_number 39
_symmetry_cell_setting 'orthorhombic'
loop_
_space_group_symop_operation_xyz
x,y,z
-x,-y,z
-x,1/2+y,z
x,1/2-y,z
x,1/2+y,1/2+z
-x,1/2-y,1/2+z
-x,y,1/2+z
x,-y,1/2+z
loop_
_atom_site_type_symbol
_atom_site_label
_atom_site_fract_x
_atom_site_fract_y
_atom_site_fract_z
Si Si1 0.857205 0.987495 0.288480
Si Si2 0.239489 0.598844 0.482217
Si Si3 0.142472 0.250000 0.927955
Si Si4 0.695187 0.620198 0.463022
Si Si5 0.140729 0.250000 0.536456
Si Si6 0.476495 0.580726 0.670585
O O1 0.783818 0.944648 0.427179
O O2 0.801538 0.063888 0.312366
O O3 0.833779 0.941433 0.127497
O O4 0.000000 0.000000 0.313895
O O5 0.207090 0.679491 0.487476
O O6 0.381289 0.583140 0.518223
O O7 0.145469 0.250000 0.732096
O O8 0.000588 0.250000 0.982630
O O9 0.784825 0.684433 0.471250
O O10 0.602709 0.614721 0.614915
O O11 0.601189 0.618909 0.309684
O O12 0.500000 0.500000 0.710529
#
# Coordination Sequence:
#
# PCOD9362114 Si02
#       6
#     8   8   4   8   4   8
#     4  11  24  44  76 114 154 203 284 325 398 472
#     4  11  27  45  79 112 158 216 261 337 401 473
#     4  12  32  53  79 110 170 211 270 342 414 487
#     4  11  27  46  78 113 159 209 266 329 413 475
#     4  12  32  53  77 110 164 215 276 330 424 491
#     4  11  24  46  77 115 160 199 272 332 402 476
#
# _framework density 23.186837000000001
#
# number of rings (size 3 to 8) (size 9 to 14) (size 15 to 20)
#    0.000    0.800    2.000    2.400   16.800    1.600 
#    0.000    0.000    0.000    0.000    0.000    0.000 
#    0.000    0.000    0.000    0.000    0.000    0.000 
#
# Total GULP energy -111949.551292 kJ/mol
# GULP energy per Si atom -5597.477565 kJ/mol
# Density = 2.313406 g / cm^3
# Si number density = 23.186837 Si / 1000 Ang^3
#
#
#
# Elastic Constant Matrix: (Units=GPa)
#
#
# Indices 1 2 3 4 5 6 
#
# 1 172.9288 51.0803 32.2614 0.0000 0.0000 0.0000
# 2 51.0803 156.1678 34.6576 0.0000 0.0000 0.0000
# 3 32.2614 34.6576 91.4074 0.0000 0.0000 0.0000
# 4 0.0000 0.0000 0.0000 23.4200 0.0000 0.0000
# 5 0.0000 0.0000 0.0000 0.0000 34.1444 0.0000
# 6 0.0000 0.0000 0.0000 0.0000 0.0000 40.2655
#
#
#
# Elastic Compliance Matrix: (Units=1/GPa)
#
#
# Indices 1 2 3 4 5 6 
#
# 1 0.006623 -0.001799 -0.001655 0.000000 0.000000 0.000000
# 2 -0.001799 0.007480 -0.002201 0.000000 0.000000 0.000000
# 3 -0.001655 -0.002201 0.012359 0.000000 0.000000 0.000000
# 4 0.000000 0.000000 0.000000 0.042698 0.000000 0.000000
# 5 0.000000 0.000000 0.000000 0.000000 0.029287 0.000000
# 6 0.000000 0.000000 0.000000 0.000000 0.000000 0.024835
#
#
# Mechanical properties :
#
#
# Convention : Reuss Voigt Hill
#
# Bulk Modulus (GPa) = 66.00262 72.94472 69.47367
# Shear Modulus (GPa) = 35.80514 39.73294 37.76904
#
# Velocity S-wave (km/s) = 3.93390 4.14405 4.04034
# Velocity P-wave (km/s) = 7.01152 7.37736 7.19676
#
# Compressibility (1/GPa) = 0.01515091
#
# Stress axis : x y z
#
# Youngs Moduli (GPa) = 150.99064 133.68482 80.91307
#
# Poissons Ratio (x) = 0.24048 0.13395
# Poissons Ratio (y) = 0.27161 0.17811
# Poissons Ratio (z) = 0.24996 0.29428
#
# Static dielectric constant tensor:
#      x y z
#    x 1.839260 0.000000 0.000000 
#    y 0.000000 1.873480 0.000000 
#    z 0.000000 0.000000 2.000730 
# 
# From -- ./inp_files/2564.got.cif
#   From: 2010.05.17/outbox.cif.g08.bks.cpg/sg39_2_cif.got.tgz:2564.got - 2010.06.03 18:22:40.
