data_PCOD9362026
_publ_section_title
;
Structure prediction by ZEFSAII (Michael W. Deem and Ramdas Pophale) SiO2 
 PCOD9362026
Probable space group: A B M 2
;
_chemical_formula_sum "Si O2"
_cell_formula_units_Z 40
_cell_length_a 9.211631
_cell_length_b 21.659126
_cell_length_c 8.151745
_cell_angle_alpha 90.000000
_cell_angle_beta 90.000000
_cell_angle_gamma 90.000000
_cell_volume 1626.402549
_symmetry_space_group_name_H-M "A B M 2"
_symmetry_group_IT_number 39
_symmetry_cell_setting 'orthorhombic'
loop_
_space_group_symop_operation_xyz
x,y,z
-x,-y,z
-x,1/2+y,z
x,1/2-y,z
x,1/2+y,1/2+z
-x,1/2-y,1/2+z
-x,y,1/2+z
x,-y,1/2+z
loop_
_atom_site_type_symbol
_atom_site_label
_atom_site_fract_x
_atom_site_fract_y
_atom_site_fract_z
Si Si1 0.970523 0.570611 0.109810
Si Si2 0.468974 0.070199 0.202086
Si Si3 0.277260 0.383924 0.906533
Si Si4 0.220390 0.119003 0.403052
Si Si5 0.355218 0.250000 0.344185
Si Si6 0.689972 0.750000 0.953463
O O1 0.888642 0.609660 0.248401
O O2 0.000000 0.500000 0.155728
O O3 0.857251 0.573053 0.955817
O O4 0.121088 0.600192 0.054617
O O5 0.620403 0.099204 0.255893
O O6 0.354744 0.074362 0.354124
O O7 0.500000 0.000000 0.157201
O O8 0.388666 0.107768 0.060239
O O9 0.232014 0.312776 0.900427
O O10 0.284045 0.187602 0.413297
O O11 0.527247 0.250000 0.378792
O O12 0.327274 0.250000 0.149517
#
# Coordination Sequence:
#
# PCOD9362026 Si02
#       6
#     8   8   8   8   4   4
#     4  11  24  44  66  97 140 178 223 277 334 407
#     4  11  22  39  63  97 130 168 221 272 328 399
#     4  11  23  40  69  95 128 174 216 277 333 391
#     4  11  25  44  66  97 136 179 223 277 336 399
#     4  12  24  47  71  97 139 167 231 286 334 402
#     4  12  20  47  69  97 135 163 223 286 330 390
#
# _framework density 24.594158
#
# number of rings (size 3 to 8) (size 9 to 14) (size 15 to 20)
#    0.000    0.800    6.000    2.400    0.000    6.400 
#    3.600    0.000    0.000    0.000    0.000    0.000 
#    0.000    0.000    0.000    0.000    0.000    0.000 
#
# Total GULP energy -112115.322323 kJ/mol
# GULP energy per Si atom -5605.766116 kJ/mol
# Density = 2.453818 g / cm^3
# Si number density = 24.594158 Si / 1000 Ang^3
#
#
#
# Elastic Constant Matrix: (Units=GPa)
#
#
# Indices 1 2 3 4 5 6 
#
# 1 121.7012 5.5237 32.7495 0.0000 0.0000 0.0000
# 2 5.5237 145.3612 10.0292 0.0000 0.0000 0.0000
# 3 32.7495 10.0292 32.6563 0.0000 0.0000 0.0000
# 4 0.0000 0.0000 0.0000 24.1371 0.0000 0.0000
# 5 0.0000 0.0000 0.0000 0.0000 58.7584 0.0000
# 6 0.0000 0.0000 0.0000 0.0000 0.0000 11.4216
#
#
#
# Elastic Compliance Matrix: (Units=1/GPa)
#
#
# Indices 1 2 3 4 5 6 
#
# 1 0.011272 0.000359 -0.011415 0.000000 0.000000 0.000000
# 2 0.000359 0.007040 -0.002522 0.000000 0.000000 0.000000
# 3 -0.011415 -0.002522 0.042844 0.000000 0.000000 0.000000
# 4 0.000000 0.000000 0.000000 0.041430 0.000000 0.000000
# 5 0.000000 0.000000 0.000000 0.000000 0.017019 0.000000
# 6 0.000000 0.000000 0.000000 0.000000 0.000000 0.087553
#
#
# Mechanical properties :
#
#
# Convention : Reuss Voigt Hill
#
# Bulk Modulus (GPa) = 29.41147 44.03596 36.72371
# Shear Modulus (GPa) = 20.35445 35.62454 27.98949
#
# Velocity S-wave (km/s) = 2.87995 3.81004 3.37717
# Velocity P-wave (km/s) = 4.80036 6.10730 5.49284
#
# Compressibility (1/GPa) = 0.03400034
#
# Stress axis : x y z
#
# Youngs Moduli (GPa) = 88.71382 142.04974 23.34059
#
# Poissons Ratio (x) = -0.05103 0.26643
# Poissons Ratio (y) = -0.03187 0.05887
# Poissons Ratio (z) = 1.01264 0.35829
#
# Static dielectric constant tensor:
#      x y z
#    x 1.928510 0.000000 0.000000 
#    y 0.000000 1.858710 0.000000 
#    z 0.000000 0.000000 2.095570 
# 
# From -- ./inp_files/2150.got.cif
#   From: 2010.05.17/outbox.cif.g08.bks.cpg/sg39_2_cif.got.tgz:2150.got - 2010.06.03 18:22:40.
