data_PCOD9362769
_publ_section_title
;
Structure prediction by ZEFSAII (Michael W. Deem and Ramdas Pophale) SiO2 
 PCOD9362769
Probable space group: A M A 2
;
_chemical_formula_sum "Si O2"
_cell_formula_units_Z 48
_cell_length_a 14.648538
_cell_length_b 6.916182
_cell_length_c 17.667865
_cell_angle_alpha 90.000000
_cell_angle_beta 90.000000
_cell_angle_gamma 90.000000
_cell_volume 1789.965941
_symmetry_space_group_name_H-M "A M A 2"
_symmetry_group_IT_number 40
_symmetry_cell_setting 'orthorhombic'
loop_
_space_group_symop_operation_xyz
x,y,z
-x,-y,z
1/2-x,y,z
1/2+x,-y,z
x,1/2+y,1/2+z
-x,1/2-y,1/2+z
1/2-x,1/2+y,1/2+z
1/2+x,1/2-y,1/2+z
loop_
_atom_site_type_symbol
_atom_site_label
_atom_site_fract_x
_atom_site_fract_y
_atom_site_fract_z
Si Si1 0.852021 0.253905 0.609700
Si Si2 0.647880 0.823945 0.685355
Si Si3 0.154112 0.308001 0.859044
Si Si4 0.041030 0.691908 0.737901
Si Si5 0.145849 0.273994 0.375608
Si Si6 0.991701 0.231053 0.479463
O O1 0.750000 0.285829 0.581851
O O2 0.876149 0.376653 0.684207
O O3 0.929215 0.297416 0.548416
O O4 0.855641 0.036194 0.645463
O O5 0.750000 0.752385 0.657125
O O6 0.655503 0.780429 0.775524
O O7 0.539497 0.765371 0.682277
O O8 0.250000 0.256425 0.897115
O O9 0.151689 0.540882 0.864354
O O10 0.069848 0.231870 0.905941
O O11 0.085160 0.827587 0.801697
O O12 0.000000 0.500000 0.775408
O O13 0.250000 0.343745 0.373199
O O14 0.091351 0.305351 0.454166
O O15 0.000000 0.000000 0.489851
#
# Coordination Sequence:
#
# PCOD9362769 Si02
#       6
#     8   8   8   8   8   8
#     4  11  25  40  61  93 132 171 211 267 330 390
#     4  10  20  36  57  90 124 160 209 263 322 380
#     4   9  16  30  56  85 114 153 208 262 312 367
#     4  12  21  38  62  91 125 165 213 262 319 384
#     4  10  19  33  60  94 122 158 215 272 313 366
#     4  10  18  35  56  88 122 166 214 265 317 376
#
# _framework density 26.816153
#
# number of rings (size 3 to 8) (size 9 to 14) (size 15 to 20)
#    0.000    1.667    3.333    3.000    0.000    1.333 
#    0.000    0.833    3.667    0.000    0.000    0.000 
#    0.000    0.000    0.000    0.000    0.000    0.000 
#
# Total GULP energy -133843.781315 kJ/mol
# GULP energy per Si atom -5576.824221 kJ/mol
# Density = 2.675512 g / cm^3
# Si number density = 26.816153 Si / 1000 Ang^3
#
#
#
# Elastic Constant Matrix: (Units=GPa)
#
#
# Indices 1 2 3 4 5 6 
#
# 1 219.9515 16.3644 66.7761 0.0000 0.0000 0.0000
# 2 16.3644 108.5614 -1.1394 0.0000 0.0000 0.0000
# 3 66.7761 -1.1394 124.1249 0.0000 0.0000 0.0000
# 4 0.0000 0.0000 0.0000 18.0471 0.0000 0.0000
# 5 0.0000 0.0000 0.0000 0.0000 32.4164 0.0000
# 6 0.0000 0.0000 0.0000 0.0000 0.0000 9.2618
#
#
#
# Elastic Compliance Matrix: (Units=1/GPa)
#
#
# Indices 1 2 3 4 5 6 
#
# 1 0.005514 -0.000862 -0.002974 0.000000 0.000000 0.000000
# 2 -0.000862 0.009347 0.000550 0.000000 0.000000 0.000000
# 3 -0.002974 0.000550 0.009661 0.000000 0.000000 0.000000
# 4 0.000000 0.000000 0.000000 0.055411 0.000000 0.000000
# 5 0.000000 0.000000 0.000000 0.000000 0.030849 0.000000
# 6 0.000000 0.000000 0.000000 0.000000 0.000000 0.107971
#
#
# Mechanical properties :
#
#
# Convention : Reuss Voigt Hill
#
# Bulk Modulus (GPa) = 55.71421 68.51555 62.11488
# Shear Modulus (GPa) = 21.61620 36.65418 29.13519
#
# Velocity S-wave (km/s) = 2.84225 3.70113 3.29975
# Velocity P-wave (km/s) = 5.62073 6.62345 6.14259
#
# Compressibility (1/GPa) = 0.01794874
#
# Stress axis : x y z
#
# Youngs Moduli (GPa) = 181.37237 106.98475 103.50454
#
# Poissons Ratio (x) = 0.09225 0.30783
# Poissons Ratio (y) = 0.15640 -0.05690
# Poissons Ratio (z) = 0.53941 -0.05881
#
# Static dielectric constant tensor:
#      x y z
#    x 2.203130 0.000000 0.000000 
#    y 0.000000 2.207670 0.000000 
#    z 0.000000 0.000000 2.041720 
# 
# From -- ./inp_files/20578.got.cif
#   From: 2010.05.17/outbox.cif.g08.bks.cpg/sg40_11_cif.got.tgz:20578.got - 2010.06.03 18:35:42.
