data_PCOD9362954
_publ_section_title
;
Structure prediction by ZEFSAII (Michael W. Deem and Ramdas Pophale) SiO2 
 PCOD9362954
Probable space group: A M A 2
;
_chemical_formula_sum "Si O2"
_cell_formula_units_Z 64
_cell_length_a 9.525983
_cell_length_b 16.593578
_cell_length_c 22.006291
_cell_angle_alpha 90.000000
_cell_angle_beta 90.000000
_cell_angle_gamma 90.000000
_cell_volume 3478.537542
_symmetry_space_group_name_H-M "A M A 2"
_symmetry_group_IT_number 40
_symmetry_cell_setting 'orthorhombic'
loop_
_space_group_symop_operation_xyz
x,y,z
-x,-y,z
1/2-x,y,z
1/2+x,-y,z
x,1/2+y,1/2+z
-x,1/2-y,1/2+z
1/2-x,1/2+y,1/2+z
1/2+x,1/2-y,1/2+z
loop_
_atom_site_type_symbol
_atom_site_label
_atom_site_fract_x
_atom_site_fract_y
_atom_site_fract_z
Si Si1 0.415169 0.421260 0.136580
Si Si2 0.589284 0.923101 0.241425
Si Si3 0.917189 0.239628 0.568737
Si Si4 0.413999 0.782092 0.299944
Si Si5 0.407514 0.370664 0.273533
Si Si6 0.589332 0.575751 0.409100
Si Si7 0.086858 0.234210 0.933944
Si Si8 0.911988 0.421057 0.594703
O O1 0.500000 0.500000 0.116120
O O2 0.250000 0.429100 0.120516
O O3 0.468151 0.335587 0.109065
O O4 0.423541 0.415263 0.209805
O O5 0.750000 0.926809 0.262189
O O6 0.509903 0.845804 0.266231
O O7 0.590448 0.921820 0.168144
O O8 0.500000 0.000000 0.261368
O O9 0.750000 0.245665 0.582193
O O10 0.936102 0.221249 0.497490
O O11 0.969860 0.331696 0.578229
O O12 0.250000 0.792234 0.285714
O O13 0.471215 0.694977 0.280394
O O14 0.432502 0.785699 0.372933
O O15 0.250000 0.332195 0.272249
O O16 0.410686 0.422262 0.335140
O O17 0.500000 0.500000 0.429989
O O18 0.750000 0.572189 0.429419
O O19 0.514339 0.657628 0.429498
O O20 0.250000 0.206190 0.933475
O O21 0.750000 0.427386 0.572843
O O22 0.000000 0.500000 0.575444
#
# Coordination Sequence:
#
# PCOD9362954 Si02
#       8
#     8   8   8   8   8   8   8   8
#     4  10  20  35  55  78 103 134 173 215 261 310
#     4  10  19  32  51  75 103 131 162 204 254 307
#     4   9  18  35  56  74 100 139 175 209 254 305
#     4  10  19  31  50  75 101 131 167 206 251 301
#     4   9  18  32  51  75 103 133 163 200 251 308
#     4  10  19  31  49  74 104 134 163 200 247 299
#     4   9  19  35  52  70  96 132 172 209 246 296
#     4   9  18  33  54  79 105 134 167 205 253 308
#
# _framework density 18.398536
#
# number of rings (size 3 to 8) (size 9 to 14) (size 15 to 20)
#    0.000    2.500    0.000    2.250    0.000    4.500 
#    0.000    3.750    0.000    1.500    0.000    0.000 
#    0.000    0.000    0.000    0.000    0.000    0.000 
#
# Total GULP energy -178391.604213 kJ/mol
# GULP energy per Si atom -5574.737632 kJ/mol
# Density = 1.835666 g / cm^3
# Si number density = 18.398536 Si / 1000 Ang^3
#
#
#
# Elastic Constant Matrix: (Units=GPa)
#
#
# Indices 1 2 3 4 5 6 
#
# 1 85.3504 33.1541 26.9001 0.0000 0.0000 0.0000
# 2 33.1541 76.7859 20.0116 0.0000 0.0000 0.0000
# 3 26.9001 20.0116 46.4119 0.0000 0.0000 0.0000
# 4 0.0000 0.0000 0.0000 3.8292 0.0000 0.0000
# 5 0.0000 0.0000 0.0000 0.0000 13.8160 0.0000
# 6 0.0000 0.0000 0.0000 0.0000 0.0000 34.3824
#
#
#
# Elastic Compliance Matrix: (Units=1/GPa)
#
#
# Indices 1 2 3 4 5 6 
#
# 1 0.015888 -0.005025 -0.007042 0.000000 0.000000 0.000000
# 2 -0.005025 0.016261 -0.004099 0.000000 0.000000 0.000000
# 3 -0.007042 -0.004099 0.027395 0.000000 0.000000 0.000000
# 4 0.000000 0.000000 0.000000 0.261150 0.000000 0.000000
# 5 0.000000 0.000000 0.000000 0.000000 0.072380 0.000000
# 6 0.000000 0.000000 0.000000 0.000000 0.000000 0.029085
#
#
# Mechanical properties :
#
#
# Convention : Reuss Voigt Hill
#
# Bulk Modulus (GPa) = 36.74782 40.96441 38.85611
# Shear Modulus (GPa) = 10.78610 18.97104 14.87857
#
# Velocity S-wave (km/s) = 2.42388 3.21458 2.84682
# Velocity P-wave (km/s) = 5.27733 6.00762 5.65427
#
# Compressibility (1/GPa) = 0.02721250
#
# Stress axis : x y z
#
# Youngs Moduli (GPa) = 62.94215 61.49689 36.50301
#
# Poissons Ratio (x) = 0.30900 0.25705
# Poissons Ratio (y) = 0.31626 0.14963
# Poissons Ratio (z) = 0.44323 0.25208
#
# Static dielectric constant tensor:
#      x y z
#    x 1.631160 0.000000 0.000000 
#    y 0.000000 1.641110 0.000000 
#    z 0.000000 0.000000 1.647430 
# 
# From -- ./inp_files/24276.got.cif
#   From: 2010.05.17/outbox.cif.g08.bks.cpg/sg40_13_cif.got.tgz:24276.got - 2010.06.03 18:35:42.
