data_PCOD9362880
_publ_section_title
;
Structure prediction by ZEFSAII (Michael W. Deem and Ramdas Pophale) SiO2 
 PCOD9362880
Probable space group: A M A 2
;
_chemical_formula_sum "Si O2"
_cell_formula_units_Z 64
_cell_length_a 8.788243
_cell_length_b 21.849333
_cell_length_c 16.126842
_cell_angle_alpha 90.000000
_cell_angle_beta 90.000000
_cell_angle_gamma 90.000000
_cell_volume 3096.631816
_symmetry_space_group_name_H-M "A M A 2"
_symmetry_group_IT_number 40
_symmetry_cell_setting 'orthorhombic'
loop_
_space_group_symop_operation_xyz
x,y,z
-x,-y,z
1/2-x,y,z
1/2+x,-y,z
x,1/2+y,1/2+z
-x,1/2-y,1/2+z
1/2-x,1/2+y,1/2+z
1/2+x,1/2-y,1/2+z
loop_
_atom_site_type_symbol
_atom_site_label
_atom_site_fract_x
_atom_site_fract_y
_atom_site_fract_z
Si Si1 0.431701 0.305713 0.766670
Si Si2 0.932973 0.568769 0.193831
Si Si3 0.566397 0.436257 0.713541
Si Si4 0.569601 0.067943 0.873561
Si Si5 0.077462 0.108071 0.037537
Si Si6 0.931255 0.932197 0.521984
Si Si7 0.933930 0.680950 0.948633
Si Si8 0.076203 0.245548 0.107999
O O1 0.250000 0.310304 0.759786
O O2 0.501549 0.373590 0.752073
O O3 0.471770 0.287805 0.861047
O O4 0.491105 0.260403 0.695238
O O5 0.750000 0.567518 0.183613
O O6 0.972971 0.596240 0.283685
O O7 0.000000 0.500000 0.198275
O O8 0.008263 0.593702 0.110582
O O9 0.500000 0.500000 0.747459
O O10 0.750000 0.435604 0.719070
O O11 0.522491 0.431434 0.615758
O O12 0.750000 0.061660 0.872733
O O13 0.500000 0.000000 0.879712
O O14 0.517693 0.103630 0.954415
O O15 0.250000 0.088845 0.017287
O O16 0.081597 0.176571 0.072627
O O17 0.750000 0.935429 0.522112
O O18 0.994260 0.886273 0.453261
O O19 0.000000 0.000000 0.512296
O O20 0.750000 0.676792 0.952968
O O21 0.987875 0.716315 0.030770
O O22 0.250000 0.266229 0.124163
#
# Coordination Sequence:
#
# PCOD9362880 Si02
#       8
#     8   8   8   8   8   8   8   8
#     4  10  21  38  62  89 119 154 196 245 292 345
#     4   9  17  31  49  71 106 146 185 228 282 337
#     4  10  20  34  54  82 117 156 196 239 295 353
#     4  10  19  29  46  73 107 147 191 238 288 342
#     4   9  18  32  51  75 106 147 191 235 288 345
#     4  11  22  37  60  88 117 151 191 236 289 349
#     4  10  22  42  65  88 119 156 193 238 295 350
#     4   9  20  41  63  82 113 155 192 239 297 345
#
# _framework density 20.667617
#
# number of rings (size 3 to 8) (size 9 to 14) (size 15 to 20)
#    0.000    2.250    0.000    4.500    0.000    7.000 
#    2.250    0.000    0.000    0.000    0.000    0.000 
#    0.000    0.000    0.000    0.000    0.000    0.000 
#
# Total GULP energy -178538.896424 kJ/mol
# GULP energy per Si atom -5579.340513 kJ/mol
# Density = 2.062058 g / cm^3
# Si number density = 20.667617 Si / 1000 Ang^3
#
#
#
# Elastic Constant Matrix: (Units=GPa)
#
#
# Indices 1 2 3 4 5 6 
#
# 1 46.1924 5.6523 51.8368 0.0000 0.0000 0.0000
# 2 5.6523 43.0115 32.7443 0.0000 0.0000 0.0000
# 3 51.8368 32.7443 148.3826 0.0000 0.0000 0.0000
# 4 0.0000 0.0000 0.0000 22.2188 0.0000 0.0000
# 5 0.0000 0.0000 0.0000 0.0000 14.3127 0.0000
# 6 0.0000 0.0000 0.0000 0.0000 0.0000 0.8960
#
#
#
# Elastic Compliance Matrix: (Units=1/GPa)
#
#
# Indices 1 2 3 4 5 6 
#
# 1 0.036836 0.005957 -0.014183 0.000000 0.000000 0.000000
# 2 0.005957 0.028907 -0.008460 0.000000 0.000000 0.000000
# 3 -0.014183 -0.008460 0.013561 0.000000 0.000000 0.000000
# 4 0.000000 0.000000 0.000000 0.045007 0.000000 0.000000
# 5 0.000000 0.000000 0.000000 0.000000 0.069868 0.000000
# 6 0.000000 0.000000 0.000000 0.000000 0.000000 1.116034
#
#
# Mechanical properties :
#
#
# Convention : Reuss Voigt Hill
#
# Bulk Modulus (GPa) = 21.77164 46.45036 34.11100
# Shear Modulus (GPa) = 3.67946 17.30907 10.49426
#
# Velocity S-wave (km/s) = 1.33573 2.89709 2.25581
# Velocity P-wave (km/s) = 3.59666 5.80643 4.82962
#
# Compressibility (1/GPa) = 0.04593131
#
# Stress axis : x y z
#
# Youngs Moduli (GPa) = 27.14768 34.59332 73.74129
#
# Poissons Ratio (x) = -0.20606 1.04586
# Poissons Ratio (y) = -0.16171 0.62385
# Poissons Ratio (z) = 0.38503 0.29266
#
# Static dielectric constant tensor:
#      x y z
#    x 1.716660 0.000000 0.000000 
#    y 0.000000 1.770650 0.000000 
#    z 0.000000 0.000000 1.787120 
# 
# From -- ./inp_files/15622.got.cif
#   From: 2010.05.17/outbox.cif.g08.bks.cpg/sg40_8_cif.got.tgz:15622.got - 2010.06.03 18:35:42.
