data_PCOD9362356
_publ_section_title
;
Structure prediction by ZEFSAII (Michael W. Deem and Ramdas Pophale) SiO2 
 PCOD9362356
Probable space group: A M A 2
;
_chemical_formula_sum "Si O2"
_cell_formula_units_Z 64
_cell_length_a 23.042423
_cell_length_b 8.504109
_cell_length_c 15.520572
_cell_angle_alpha 90.000000
_cell_angle_beta 90.000000
_cell_angle_gamma 90.000000
_cell_volume 3041.337983
_symmetry_space_group_name_H-M "A M A 2"
_symmetry_group_IT_number 40
_symmetry_cell_setting 'orthorhombic'
loop_
_space_group_symop_operation_xyz
x,y,z
-x,-y,z
1/2-x,y,z
1/2+x,-y,z
x,1/2+y,1/2+z
-x,1/2-y,1/2+z
1/2-x,1/2+y,1/2+z
1/2+x,1/2-y,1/2+z
loop_
_atom_site_type_symbol
_atom_site_label
_atom_site_fract_x
_atom_site_fract_y
_atom_site_fract_z
Si Si1 0.030892 0.671839 0.960820
Si Si2 0.814251 0.555205 0.743967
Si Si3 0.857704 0.494072 0.925373
Si Si4 0.606480 0.866670 0.119683
Si Si5 0.317236 0.936978 0.611167
Si Si6 0.878804 0.862762 0.753921
Si Si7 0.079257 0.158886 0.928224
Si Si8 0.489654 0.687145 0.159768
O O1 0.093672 0.640783 0.923330
O O2 0.000000 0.500000 0.955369
O O3 0.988751 0.799840 0.918986
O O4 0.033548 0.707966 0.062441
O O5 0.750000 0.527382 0.709215
O O6 0.820920 0.482259 0.838950
O O7 0.863973 0.493117 0.680635
O O8 0.826930 0.738506 0.758317
O O9 0.889470 0.667151 0.926517
O O10 0.824989 0.487785 0.016439
O O11 0.656745 0.737148 0.106929
O O12 0.549156 0.786298 0.162017
O O13 0.589068 0.914770 0.022349
O O14 0.250000 0.940738 0.636491
O O15 0.359209 0.020263 0.679731
O O16 0.893555 0.931274 0.847669
O O17 0.938378 0.775006 0.725673
O O18 0.500000 0.500000 0.171100
#
# Coordination Sequence:
#
# PCOD9362356 Si02
#       8
#     8   8   8   8   8   8   8   8
#     4   8  13  28  52  82 111 139 177 230 280 334
#     4  11  24  39  54  83 122 153 192 240 286 342
#     4   9  17  33  55  83 108 146 192 237 279 335
#     4  10  21  39  60  83 114 155 193 234 288 346
#     4  11  20  36  61  84 108 152 201 236 278 341
#     4  11  21  36  60  88 116 149 190 243 295 334
#     4   8  18  32  56  82 113 148 189 227 285 356
#     4  10  17  34  61  89 114 139 187 246 289 337
#
# _framework density 21.043372000000002
#
# number of rings (size 3 to 8) (size 9 to 14) (size 15 to 20)
#    0.000    2.250    2.500    2.625    1.750    0.500 
#    0.000    3.125    5.500    0.000    0.000    0.000 
#    0.000    0.000    0.000    0.000    0.000    0.000 
#
# Total GULP energy -178546.158928 kJ/mol
# GULP energy per Si atom -5579.567466 kJ/mol
# Density = 2.099548 g / cm^3
# Si number density = 21.043372 Si / 1000 Ang^3
#
#
#
# Elastic Constant Matrix: (Units=GPa)
#
#
# Indices 1 2 3 4 5 6 
#
# 1 93.0374 5.7587 16.0949 0.0000 0.0000 0.0000
# 2 5.7587 21.5495 17.7496 0.0000 0.0000 0.0000
# 3 16.0949 17.7496 79.0384 0.0000 0.0000 0.0000
# 4 0.0000 0.0000 0.0000 15.7003 0.0000 0.0000
# 5 0.0000 0.0000 0.0000 0.0000 24.0938 0.0000
# 6 0.0000 0.0000 0.0000 0.0000 0.0000 21.5841
#
#
#
# Elastic Compliance Matrix: (Units=1/GPa)
#
#
# Indices 1 2 3 4 5 6 
#
# 1 0.011173 -0.001364 -0.001969 0.000000 0.000000 0.000000
# 2 -0.001364 0.057103 -0.012546 0.000000 0.000000 0.000000
# 3 -0.001969 -0.012546 0.015870 0.000000 0.000000 0.000000
# 4 0.000000 0.000000 0.000000 0.063693 0.000000 0.000000
# 5 0.000000 0.000000 0.000000 0.000000 0.041505 0.000000
# 6 0.000000 0.000000 0.000000 0.000000 0.000000 0.046330
#
#
# Mechanical properties :
#
#
# Convention : Reuss Voigt Hill
#
# Bulk Modulus (GPa) = 19.08798 30.31464 24.70131
# Shear Modulus (GPa) = 17.55031 22.54377 20.04704
#
# Velocity S-wave (km/s) = 2.89105 3.27662 3.08986
# Velocity P-wave (km/s) = 4.49830 5.36210 4.94908
#
# Compressibility (1/GPa) = 0.05238898
#
# Stress axis : x y z
#
# Youngs Moduli (GPa) = 89.49818 17.51226 63.01025
#
# Poissons Ratio (x) = 0.02389 0.12406
# Poissons Ratio (y) = 0.12209 0.79051
# Poissons Ratio (z) = 0.17622 0.21971
#
# Static dielectric constant tensor:
#      x y z
#    x 1.736430 0.000000 0.000000 
#    y 0.000000 1.781770 0.000000 
#    z 0.000000 0.000000 1.774800 
# 
# From -- ./inp_files/18507.got.cif
#   From: 2010.05.17/outbox.cif.g08.bks.cpg/sg40_10_cif.got.tgz:18507.got - 2010.06.03 18:35:42.
