data_PCOD9362110
_publ_section_title
;
Structure prediction by ZEFSAII (Michael W. Deem and Ramdas Pophale) SiO2 
 PCOD9362110
Probable space group: A B M 2
;
_chemical_formula_sum "Si O2"
_cell_formula_units_Z 40
_cell_length_a 8.544619
_cell_length_b 10.211405
_cell_length_c 22.532520
_cell_angle_alpha 90.000000
_cell_angle_beta 90.000000
_cell_angle_gamma 90.000000
_cell_volume 1966.020170
_symmetry_space_group_name_H-M "A B M 2"
_symmetry_group_IT_number 39
_symmetry_cell_setting 'orthorhombic'
loop_
_space_group_symop_operation_xyz
x,y,z
-x,-y,z
-x,1/2+y,z
x,1/2-y,z
x,1/2+y,1/2+z
-x,1/2-y,1/2+z
-x,y,1/2+z
x,-y,1/2+z
loop_
_atom_site_type_symbol
_atom_site_label
_atom_site_fract_x
_atom_site_fract_y
_atom_site_fract_z
Si Si1 0.176459 0.250000 0.194160
Si Si2 0.684662 0.980371 0.272379
Si Si3 0.142903 0.100138 0.388090
Si Si4 0.309402 0.250000 0.064934
Si Si5 0.812504 0.250000 0.227736
Si Si6 0.813743 0.519321 0.519996
Si Si7 0.326966 0.750000 0.097946
O O1 0.255420 0.122206 0.223219
O O2 0.202954 0.250000 0.124004
O O3 0.994372 0.250000 0.210690
O O4 0.732998 0.923833 0.336235
O O5 0.500000 0.000000 0.267257
O O6 0.769365 0.119009 0.262885
O O7 0.086750 0.250000 0.385017
O O8 0.209816 0.073671 0.453639
O O9 0.000000 0.000000 0.379408
O O10 0.269292 0.380324 0.028673
O O11 0.488557 0.250000 0.085703
O O12 0.711887 0.250000 0.167263
O O13 0.748660 0.622695 0.567207
O O14 0.000000 0.500000 0.528229
#
# Coordination Sequence:
#
# PCOD9362110 Si02
#       7
#     4   8   8   4   4   8   4
#     4  12  24  47  68  99 136 179 231 273 333 412
#     4  12  26  44  69 101 139 175 223 284 343 400
#     4  11  25  46  73 101 136 180 230 280 334 408
#     4  12  26  41  70 101 138 179 219 283 345 398
#     4  12  26  43  72  99 132 185 225 277 335 408
#     4  11  24  44  70  98 133 180 229 278 329 406
#     4  12  24  45  66 101 142 173 225 279 343 404
#
# _framework density 20.345669999999998
#
# number of rings (size 3 to 8) (size 9 to 14) (size 15 to 20)
#    0.000    0.400    2.000    7.200    5.600    1.600 
#    0.000    0.000    0.000    0.000    0.000    0.000 
#    0.000    0.000    0.000    0.000    0.000    0.000 
#
# Total GULP energy -112044.425723 kJ/mol
# GULP energy per Si atom -5602.221286 kJ/mol
# Density = 2.029936 g / cm^3
# Si number density = 20.345670 Si / 1000 Ang^3
#
#
#
# Elastic Constant Matrix: (Units=GPa)
#
#
# Indices 1 2 3 4 5 6 
#
# 1 104.8183 28.8739 13.9342 0.0000 0.0000 0.0000
# 2 28.8739 174.4426 29.4300 0.0000 0.0000 0.0000
# 3 13.9342 29.4300 63.6527 0.0000 0.0000 0.0000
# 4 0.0000 0.0000 0.0000 4.8828 0.0000 0.0000
# 5 0.0000 0.0000 0.0000 0.0000 -103.6903 0.0000
# 6 0.0000 0.0000 0.0000 0.0000 0.0000 58.1600
#
#
#
# Elastic Compliance Matrix: (Units=1/GPa)
#
#
# Indices 1 2 3 4 5 6 
#
# 1 0.010138 -0.001414 -0.001566 0.000000 0.000000 0.000000
# 2 -0.001414 0.006415 -0.002656 0.000000 0.000000 0.000000
# 3 -0.001566 -0.002656 0.017281 0.000000 0.000000 0.000000
# 4 0.000000 0.000000 0.000000 0.204801 0.000000 0.000000
# 5 0.000000 0.000000 0.000000 0.000000 -0.009644 0.000000
# 6 0.000000 0.000000 0.000000 0.000000 0.000000 0.017194
#
#
# Mechanical properties :
#
#
# Convention : Reuss Voigt Hill
#
# Bulk Modulus (GPa) = 44.32202 54.15444 49.23823
# Shear Modulus (GPa) = 18.86954 9.91554 14.39254
#
# Velocity S-wave (km/s) = 3.04871 2.21000 2.66259
# Velocity P-wave (km/s) = 5.85018 5.76083 5.80567
#
# Compressibility (1/GPa) = 0.02256215
#
# Stress axis : x y z
#
# Youngs Moduli (GPa) = 98.63955 155.89128 57.86650
#
# Poissons Ratio (x) = 0.22042 0.09059
# Poissons Ratio (y) = 0.13947 0.15371
# Poissons Ratio (z) = 0.15443 0.41410
#
# Static dielectric constant tensor:
#      x y z
#    x 1.685130 0.000000 0.000000 
#    y 0.000000 1.695560 0.000000 
#    z 0.000000 0.000000 1.697150 
# 
# From -- ./inp_files/15483.got.cif
#   From: 2010.05.17/outbox.cif.g08.bks.cpg/sg39_8_cif.got.tgz:15483.got - 2010.06.03 18:22:40.
