data_PCOD9362774
_publ_section_title
;
Structure prediction by ZEFSAII (Michael W. Deem and Ramdas Pophale) SiO2 
 PCOD9362774
Probable space group: A M A 2
;
_chemical_formula_sum "Si O2"
_cell_formula_units_Z 64
_cell_length_a 16.064006
_cell_length_b 16.808285
_cell_length_c 12.346422
_cell_angle_alpha 90.000000
_cell_angle_beta 90.000000
_cell_angle_gamma 90.000000
_cell_volume 3333.637540
_symmetry_space_group_name_H-M "A M A 2"
_symmetry_group_IT_number 40
_symmetry_cell_setting 'orthorhombic'
loop_
_space_group_symop_operation_xyz
x,y,z
-x,-y,z
1/2-x,y,z
1/2+x,-y,z
x,1/2+y,1/2+z
-x,1/2-y,1/2+z
1/2-x,1/2+y,1/2+z
1/2+x,1/2-y,1/2+z
loop_
_atom_site_type_symbol
_atom_site_label
_atom_site_fract_x
_atom_site_fract_y
_atom_site_fract_z
Si Si1 0.892215 0.259681 0.100250
Si Si2 0.150494 0.708563 0.346867
Si Si3 0.344618 0.107240 0.437565
Si Si4 0.851439 0.972835 0.825933
Si Si5 0.350033 0.228699 0.270155
Si Si6 0.082955 0.792035 0.555301
Si Si7 0.350794 0.867505 0.933669
Si Si8 0.351514 0.469566 0.086556
O O1 0.867181 0.262721 0.224887
O O2 0.986271 0.287018 0.082151
O O3 0.841263 0.324397 0.029999
O O4 0.879669 0.174295 0.043737
O O5 0.250000 0.712625 0.366182
O O6 0.122372 0.616321 0.353910
O O7 0.104005 0.759880 0.436767
O O8 0.250000 0.085409 0.407651
O O9 0.383839 0.151785 0.334508
O O10 0.382418 0.029849 0.493568
O O11 0.750000 0.972244 0.826464
O O12 0.879154 0.043587 0.905522
O O13 0.876614 0.996381 0.703893
O O14 0.250000 0.226506 0.278775
O O15 0.373750 0.237272 0.146294
O O16 0.377222 0.307489 0.336623
O O17 0.116370 0.881099 0.569756
O O18 0.250000 0.868065 0.934658
O O19 0.250000 0.468578 0.085355
#
# Coordination Sequence:
#
# PCOD9362774 Si02
#       8
#     8   8   8   8   8   8   8   8
#     4  11  23  36  56  84 124 156 195 236 300 359
#     4  11  23  41  61  88 122 158 195 249 305 360
#     4   9  18  35  61  82 107 148 199 243 283 346
#     4   9  17  33  62  89 109 140 199 255 291 336
#     4   9  17  33  57  82 109 147 191 237 285 349
#     4  12  25  35  56  87 127 155 189 242 305 356
#     4   9  17  34  62  86 107 147 198 244 282 349
#     4  10  18  35  58  86 113 147 198 250 291 348
#
# _framework density 19.198248
#
# number of rings (size 3 to 8) (size 9 to 14) (size 15 to 20)
#    0.000    2.000    2.500    3.000    3.500    0.500 
#    0.000    3.125    0.000    3.000    0.000    0.000 
#    0.000    0.000    0.000    0.000    0.000    0.000 
#
# Total GULP energy -178597.147205 kJ/mol
# GULP energy per Si atom -5581.160850 kJ/mol
# Density = 1.915455 g / cm^3
# Si number density = 19.198248 Si / 1000 Ang^3
#
#
#
# Elastic Constant Matrix: (Units=GPa)
#
#
# Indices 1 2 3 4 5 6 
#
# 1 26.6374 3.7027 -8.7090 0.0000 0.0000 0.0000
# 2 3.7027 76.9817 22.1171 0.0000 0.0000 0.0000
# 3 -8.7090 22.1171 64.0876 0.0000 0.0000 0.0000
# 4 0.0000 0.0000 0.0000 35.7856 0.0000 0.0000
# 5 0.0000 0.0000 0.0000 0.0000 7.0119 0.0000
# 6 0.0000 0.0000 0.0000 0.0000 0.0000 -7.5223
#
#
#
# Elastic Compliance Matrix: (Units=1/GPa)
#
#
# Indices 1 2 3 4 5 6 
#
# 1 0.040314 -0.003900 0.006824 0.000000 0.000000 0.000000
# 2 -0.003900 0.014797 -0.005637 0.000000 0.000000 0.000000
# 3 0.006824 -0.005637 0.018476 0.000000 0.000000 0.000000
# 4 0.000000 0.000000 0.000000 0.027944 0.000000 0.000000
# 5 0.000000 0.000000 0.000000 0.000000 0.142615 0.000000
# 6 0.000000 0.000000 0.000000 0.000000 0.000000 -0.132938
#
#
# Mechanical properties :
#
#
# Convention : Reuss Voigt Hill
#
# Bulk Modulus (GPa) = 14.67057 22.43648 18.55353
# Shear Modulus (GPa) = 35.87987 17.09477 26.48732
#
# Velocity S-wave (km/s) = 4.32778 2.98725 3.71843
# Velocity P-wave (km/s) = 5.71237 4.85905 5.30290
#
# Compressibility (1/GPa) = 0.06816368
#
# Stress axis : x y z
#
# Youngs Moduli (GPa) = 24.80506 67.58099 54.12364
#
# Poissons Ratio (x) = 0.26354 -0.36935
# Poissons Ratio (y) = 0.09673 0.30507
# Poissons Ratio (z) = -0.16928 0.38092
#
# Static dielectric constant tensor:
#      x y z
#    x 1.728840 0.000000 0.000000 
#    y 0.000000 1.669840 0.000000 
#    z 0.000000 0.000000 1.659600 
# 
# From -- ./inp_files/12463.got.cif
#   From: 2010.05.17/outbox.cif.g08.bks.cpg/sg40_7_cif.got.tgz:12463.got - 2010.06.03 18:35:42.
