data_PCOD9362820
_publ_section_title
;
Structure prediction by ZEFSAII (Michael W. Deem and Ramdas Pophale) SiO2 
 PCOD9362820
Probable space group: A M A 2
;
_chemical_formula_sum "Si O2"
_cell_formula_units_Z 44
_cell_length_a 23.327066
_cell_length_b 14.021230
_cell_length_c 5.514745
_cell_angle_alpha 90.000000
_cell_angle_beta 90.000000
_cell_angle_gamma 90.000000
_cell_volume 1803.730575
_symmetry_space_group_name_H-M "A M A 2"
_symmetry_group_IT_number 40
_symmetry_cell_setting 'orthorhombic'
loop_
_space_group_symop_operation_xyz
x,y,z
-x,-y,z
1/2-x,y,z
1/2+x,-y,z
x,1/2+y,1/2+z
-x,1/2-y,1/2+z
1/2-x,1/2+y,1/2+z
1/2+x,1/2-y,1/2+z
loop_
_atom_site_type_symbol
_atom_site_label
_atom_site_fract_x
_atom_site_fract_y
_atom_site_fract_z
Si Si1 0.966766 0.098406 0.182730
Si Si2 0.750000 0.072924 0.024943
Si Si3 0.750000 0.762954 0.779601
Si Si4 0.351063 0.687327 0.601917
Si Si5 0.054174 0.340495 0.185006
Si Si6 0.750000 0.410276 0.902172
Si Si7 0.127473 0.987130 0.903917
O O1 0.975127 0.157268 0.424891
O O2 0.982425 0.149894 0.930141
O O3 0.000000 0.000000 0.198570
O O4 0.900395 0.069844 0.132107
O O5 0.807039 0.042790 0.886028
O O6 0.750000 0.015569 0.283991
O O7 0.750000 0.184999 0.071059
O O8 0.750000 0.870779 0.674918
O O9 0.692554 0.752775 0.935274
O O10 0.400073 0.755304 0.704598
O O11 0.308100 0.637205 0.793003
O O12 0.376986 0.599226 0.448832
O O13 0.089453 0.441901 0.192066
#
# Coordination Sequence:
#
# PCOD9362820 Si02
#       7
#     8   4   4   8   8   4   8
#     4  10  22  44  67  92 124 169 213 261 331 376
#     4  10  18  38  58  91 126 173 211 248 330 378
#     4  11  21  31  58  83 128 173 207 267 300 402
#     4  10  21  37  55  93 123 168 216 259 329 369
#     4  10  22  40  65  93 122 165 206 271 312 386
#     4   9  21  35  54  80 132 168 212 261 308 386
#     4   9  22  38  63  91 130 168 210 269 309 396
#
# _framework density 24.393885000000001
#
# number of rings (size 3 to 8) (size 9 to 14) (size 15 to 20)
#    1.091    1.091    0.000    3.273    2.545    5.091 
#    0.000    4.545    0.000    0.000    0.000    0.000 
#    0.000    0.000    0.000    0.000    0.000    0.000 
#
# Total GULP energy -122878.948290 kJ/mol
# GULP energy per Si atom -5585.406740 kJ/mol
# Density = 2.433836 g / cm^3
# Si number density = 24.393885 Si / 1000 Ang^3
#
#
#
# Elastic Constant Matrix: (Units=GPa)
#
#
# Indices 1 2 3 4 5 6 
#
# 1 72.4486 29.1705 15.0074 0.0000 0.0000 0.0000
# 2 29.1705 117.4261 9.5301 0.0000 0.0000 0.0000
# 3 15.0074 9.5301 99.6152 0.0000 0.0000 0.0000
# 4 0.0000 0.0000 0.0000 74.0032 0.0000 0.0000
# 5 0.0000 0.0000 0.0000 0.0000 -946.9543 0.0000
# 6 0.0000 0.0000 0.0000 0.0000 0.0000 29.5644
#
#
#
# Elastic Compliance Matrix: (Units=1/GPa)
#
#
# Indices 1 2 3 4 5 6 
#
# 1 0.015727 -0.003744 -0.002011 0.000000 0.000000 0.000000
# 2 -0.003744 0.009474 -0.000342 0.000000 0.000000 0.000000
# 3 -0.002011 -0.000342 0.010374 0.000000 0.000000 0.000000
# 4 0.000000 0.000000 0.000000 0.013513 0.000000 0.000000
# 5 0.000000 0.000000 0.000000 0.000000 -0.001056 0.000000
# 6 0.000000 0.000000 0.000000 0.000000 0.000000 0.033824
#
#
# Mechanical properties :
#
#
# Convention : Reuss Voigt Hill
#
# Bulk Modulus (GPa) = 42.77023 44.10064 43.43543
# Shear Modulus (GPa) = 49.09472 -152.95853 -51.93190
#
# Velocity S-wave (km/s) = 4.49105 -7.92715 -4.61900
# Velocity P-wave (km/s) = 6.66813 8.10361 3.25612
#
# Compressibility (1/GPa) = 0.02338075
#
# Stress axis : x y z
#
# Youngs Moduli (GPa) = 63.58580 105.55501 96.39138
#
# Poissons Ratio (x) = 0.39515 0.19386
# Poissons Ratio (y) = 0.23804 0.03300
# Poissons Ratio (z) = 0.12788 0.03614
#
# Static dielectric constant tensor:
#      x y z
#    x 2.952990 0.000000 0.000000 
#    y 0.000000 1.882810 0.000000 
#    z 0.000000 0.000000 1.999960 
# 
# From -- ./inp_files/3062.got.cif
#   From: 2010.05.17/outbox.cif.g08.bks.cpg/sg40_2_cif.got.tgz:3062.got - 2010.06.03 18:35:42.
