data_PCOD9362641
_publ_section_title
;
Structure prediction by ZEFSAII (Michael W. Deem and Ramdas Pophale) SiO2 
 PCOD9362641
Probable space group: A M A 2
;
_chemical_formula_sum "Si O2"
_cell_formula_units_Z 64
_cell_length_a 8.721850
_cell_length_b 19.146242
_cell_length_c 21.855448
_cell_angle_alpha 90.000000
_cell_angle_beta 90.000000
_cell_angle_gamma 90.000000
_cell_volume 3649.655485
_symmetry_space_group_name_H-M "A M A 2"
_symmetry_group_IT_number 40
_symmetry_cell_setting 'orthorhombic'
loop_
_space_group_symop_operation_xyz
x,y,z
-x,-y,z
1/2-x,y,z
1/2+x,-y,z
x,1/2+y,1/2+z
-x,1/2-y,1/2+z
1/2-x,1/2+y,1/2+z
1/2+x,1/2-y,1/2+z
loop_
_atom_site_type_symbol
_atom_site_label
_atom_site_fract_x
_atom_site_fract_y
_atom_site_fract_z
Si Si1 0.433623 0.863803 0.772930
Si Si2 0.567916 0.923908 0.897277
Si Si3 0.567069 0.075202 0.640033
Si Si4 0.929312 0.677610 0.497453
Si Si5 0.064841 0.214696 0.590564
Si Si6 0.426605 0.572088 0.582704
Si Si7 0.074463 0.573649 0.730076
Si Si8 0.933946 0.723260 0.722412
O O1 0.250000 0.861834 0.779454
O O2 0.506816 0.901788 0.830742
O O3 0.472127 0.904999 0.710426
O O4 0.497095 0.785414 0.763498
O O5 0.750000 0.929281 0.897070
O O6 0.515753 0.862839 0.943767
O O7 0.500000 0.000000 0.913752
O O8 0.750000 0.075072 0.634725
O O9 0.497474 0.137258 0.599751
O O10 0.500000 0.000000 0.624909
O O11 0.750000 0.681540 0.481915
O O12 0.984384 0.750935 0.526110
O O13 0.959303 0.629277 0.556541
O O14 0.250000 0.215136 0.590942
O O15 0.015633 0.257471 0.652241
O O16 0.500000 0.500000 0.561234
O O17 0.250000 0.581507 0.561656
O O18 0.424274 0.571207 0.655905
O O19 0.250000 0.577308 0.751280
O O20 0.000000 0.500000 0.750481
O O21 0.989085 0.646606 0.742986
O O22 0.750000 0.725918 0.723949
#
# Coordination Sequence:
#
# PCOD9362641 Si02
#       8
#     8   8   8   8   8   8   8   8
#     4  10  21  37  56  79 105 139 179 224 269 317
#     4  12  25  40  56  77 105 143 185 227 265 311
#     4  10  20  33  54  80 108 137 170 213 265 317
#     4  11  21  35  52  72 101 138 176 218 261 309
#     4   9  19  33  51  74 103 136 172 212 261 316
#     4  10  19  29  43  64  94 132 172 211 250 299
#     4  10  19  29  44  68 100 136 173 214 259 311
#     4  10  18  32  52  76 104 137 175 219 268 322
#
# _framework density 17.535900999999999
#
# number of rings (size 3 to 8) (size 9 to 14) (size 15 to 20)
#    0.000    1.750    1.250    4.125    0.000    5.000 
#    0.000    0.000    0.000    0.000    0.000    0.875 
#    0.000    4.000    0.000    0.000    0.000    0.125 
#
# Total GULP energy -178503.898958 kJ/mol
# GULP energy per Si atom -5578.246842 kJ/mol
# Density = 1.749599 g / cm^3
# Si number density = 17.535901 Si / 1000 Ang^3
#
#
#
# Elastic Constant Matrix: (Units=GPa)
#
#
# Indices 1 2 3 4 5 6 
#
# 1 65.6079 36.2051 25.5873 0.0000 0.0000 0.0000
# 2 36.2051 136.4216 36.5533 0.0000 0.0000 0.0000
# 3 25.5873 36.5533 56.9686 0.0000 0.0000 0.0000
# 4 0.0000 0.0000 0.0000 7.3047 0.0000 0.0000
# 5 0.0000 0.0000 0.0000 0.0000 25.6878 0.0000
# 6 0.0000 0.0000 0.0000 0.0000 0.0000 29.5218
#
#
#
# Elastic Compliance Matrix: (Units=1/GPa)
#
#
# Indices 1 2 3 4 5 6 
#
# 1 0.019744 -0.003458 -0.006649 0.000000 0.000000 0.000000
# 2 -0.003458 0.009458 -0.004515 0.000000 0.000000 0.000000
# 3 -0.006649 -0.004515 0.023437 0.000000 0.000000 0.000000
# 4 0.000000 0.000000 0.000000 0.136899 0.000000 0.000000
# 5 0.000000 0.000000 0.000000 0.000000 0.038929 0.000000
# 6 0.000000 0.000000 0.000000 0.000000 0.000000 0.033873
#
#
# Mechanical properties :
#
#
# Convention : Reuss Voigt Hill
#
# Bulk Modulus (GPa) = 42.74649 50.63216 46.68932
# Shear Modulus (GPa) = 16.70109 23.21301 19.95705
#
# Velocity S-wave (km/s) = 3.08944 3.64227 3.37719
# Velocity P-wave (km/s) = 6.09554 6.82820 6.47225
#
# Compressibility (1/GPa) = 0.02339373
#
# Stress axis : x y z
#
# Youngs Moduli (GPa) = 50.64952 105.73236 42.66759
#
# Poissons Ratio (x) = 0.36565 0.28369
# Poissons Ratio (y) = 0.17516 0.19265
# Poissons Ratio (z) = 0.33676 0.47741
#
# Static dielectric constant tensor:
#      x y z
#    x 1.591470 0.000000 0.000000 
#    y 0.000000 1.628080 0.000000 
#    z 0.000000 0.000000 1.600620 
# 
# From -- ./inp_files/22411.got.cif
#   From: 2010.05.17/outbox.cif.g08.bks.cpg/sg40_12_cif.got.tgz:22411.got - 2010.06.03 18:35:42.
