data_PCOD9362226
_publ_section_title
;
Structure prediction by ZEFSAII (Michael W. Deem and Ramdas Pophale) SiO2 
 PCOD9362226
Probable space group: A B M 2
;
_chemical_formula_sum "Si O2"
_cell_formula_units_Z 20
_cell_length_a 12.000000
_cell_length_b 18.000000
_cell_length_c 9.000000
_cell_angle_alpha 90.000000
_cell_angle_beta 90.000000
_cell_angle_gamma 90.000000
_cell_volume 1944.000000
_symmetry_space_group_name_H-M "A B M 2"
_symmetry_group_IT_number 39
_symmetry_cell_setting 'orthorhombic'
loop_
_space_group_symop_operation_xyz
x,y,z
-x,-y,z
-x,1/2+y,z
x,1/2-y,z
x,1/2+y,1/2+z
-x,1/2-y,1/2+z
-x,y,1/2+z
x,-y,1/2+z
loop_
_atom_site_type_symbol
_atom_site_label
_atom_site_fract_x
_atom_site_fract_y
_atom_site_fract_z
Si Si1 0.256121 0.939487 0.268450
Si Si2 0.338536 0.337581 0.516742
Si Si3 0.562692 0.926766 0.015806
Si Si4 0.753662 0.161030 0.700508
Si Si5 0.116924 0.044232 0.057271
O O1 0.287832 0.868221 0.170088
O O2 0.365117 0.952765 0.372106
O O3 0.156522 0.940180 0.388989
O O4 0.211830 0.995804 0.142661
O O5 0.351568 0.250000 0.525729
O O6 0.458447 0.373613 0.482820
O O7 0.260535 0.355177 0.375368
O O8 0.500000 0.000000 0.080014
O O9 0.649233 0.878869 0.115998
O O10 0.750172 0.250000 0.677237
O O11 0.867092 0.123144 0.640317
O O12 0.000000 0.000000 0.064082
#
# Coordination Sequence:
#
# PCOD9362226 Si02
#       5
#     8   8   8   8   8
#     4  11  24  39  63  97 129 167 219 271 317 382
#     4  11  23  39  61  94 136 176 211 255 317 389
#     4  11  22  37  62  97 135 178 219 258 313 385
#     4  10  22  40  64  96 133 171 215 268 325 388
#     4  11  23  43  69  94 124 166 218 274 330 380
#
# _framework density 10.288066000000001
#
# number of rings (size 3 to 8) (size 9 to 14) (size 15 to 20)
#    0.000    1.200    0.000    7.200    0.000    8.800 
#    0.000    2.000    0.000    8.400    0.000    0.000 
#    0.000    0.000    0.000    0.000    0.000    0.000 
#
# Total GULP energy -111647.227562 kJ/mol
# GULP energy per Si atom -5582.361378 kJ/mol
# Density = 1.026465 g / cm^3
# Si number density = 10.288066 Si / 1000 Ang^3
#
#
#
# Elastic Constant Matrix: (Units=GPa)
#
#
# Indices 1 2 3 4 5 6 
#
# 1 112.0713 57.7072 54.3939 0.0000 0.0000 0.0000
# 2 57.7072 108.6309 54.9265 0.0000 0.0000 0.0000
# 3 54.3939 54.9265 123.6654 0.0000 0.0000 0.0000
# 4 0.0000 0.0000 0.0000 35.1395 0.0000 0.0000
# 5 0.0000 0.0000 0.0000 0.0000 14.6734 0.0000
# 6 0.0000 0.0000 0.0000 0.0000 0.0000 37.9828
#
#
#
# Elastic Compliance Matrix: (Units=1/GPa)
#
#
# Indices 1 2 3 4 5 6 
#
# 1 0.013372 -0.005325 -0.003516 0.000000 0.000000 0.000000
# 2 -0.005325 0.013992 -0.003872 0.000000 0.000000 0.000000
# 3 -0.003516 -0.003872 0.011353 0.000000 0.000000 0.000000
# 4 0.000000 0.000000 0.000000 0.028458 0.000000 0.000000
# 5 0.000000 0.000000 0.000000 0.000000 0.068150 0.000000
# 6 0.000000 0.000000 0.000000 0.000000 0.000000 0.026328
#
#
# Mechanical properties :
#
#
# Convention : Reuss Voigt Hill
#
# Bulk Modulus (GPa) = 75.25082 75.38032 75.31557
# Shear Modulus (GPa) = 26.10820 29.38181 27.74500
#
# Velocity S-wave (km/s) = 3.56597 3.78293 3.67605
# Velocity P-wave (km/s) = 7.32162 7.46961 7.39599
#
# Compressibility (1/GPa) = 0.01328889
#
# Stress axis : x y z
#
# Youngs Moduli (GPa) = 74.78532 71.46698 88.08352
#
# Poissons Ratio (x) = 0.38059 0.30971
# Poissons Ratio (y) = 0.39826 0.34110
# Poissons Ratio (z) = 0.26296 0.27675
#
# Static dielectric constant tensor:
#      x y z
#    x 1.732480 0.000000 0.000000 
#    y 0.000000 1.773850 0.000000 
#    z 0.000000 0.000000 1.765890 
# 
# From -- ./inp_files/2530.got.cif
#   From: 2010.05.17/outbox.ucp.g08.bks.cvg/sg39_2_cif.got.tgz:2530.got - 2010.06.11 10:41:16.
