data_PCOD9362682
_publ_section_title
;
Structure prediction by ZEFSAII (Michael W. Deem and Ramdas Pophale) SiO2 
 PCOD9362682
Probable space group: A M A 2
;
_chemical_formula_sum "Si O2"
_cell_formula_units_Z 56
_cell_length_a 19.504558
_cell_length_b 9.697663
_cell_length_c 16.203763
_cell_angle_alpha 90.000000
_cell_angle_beta 90.000000
_cell_angle_gamma 90.000000
_cell_volume 3064.919580
_symmetry_space_group_name_H-M "A M A 2"
_symmetry_group_IT_number 40
_symmetry_cell_setting 'orthorhombic'
loop_
_space_group_symop_operation_xyz
x,y,z
-x,-y,z
1/2-x,y,z
1/2+x,-y,z
x,1/2+y,1/2+z
-x,1/2-y,1/2+z
1/2-x,1/2+y,1/2+z
1/2+x,1/2-y,1/2+z
loop_
_atom_site_type_symbol
_atom_site_label
_atom_site_fract_x
_atom_site_fract_y
_atom_site_fract_z
Si Si1 0.331005 0.449943 0.030210
Si Si2 0.422298 0.690980 0.498567
Si Si3 0.923746 0.945850 0.831361
Si Si4 0.047295 0.634473 0.046005
Si Si5 0.828685 0.132511 0.722034
Si Si6 0.060863 0.801217 0.214991
Si Si7 0.409042 0.603876 0.687457
O O1 0.250000 0.466237 0.011978
O O2 0.364459 0.310312 0.993618
O O3 0.382536 0.575068 0.007489
O O4 0.338747 0.430122 0.129773
O O5 0.413915 0.579032 0.427909
O O6 0.496683 0.767029 0.493535
O O7 0.417681 0.622933 0.588860
O O8 0.915917 0.797681 0.787724
O O9 0.873565 0.051425 0.787495
O O10 0.000000 0.000000 0.815095
O O11 0.064411 0.715655 0.129805
O O12 0.000000 0.500000 0.065987
O O13 0.750000 0.119478 0.743360
O O14 0.851356 0.291064 0.716287
O O15 0.981063 0.843118 0.224945
O O16 0.100872 0.944789 0.208652
#
# Coordination Sequence:
#
# PCOD9362682 Si02
#       7
#     8   8   8   8   8   8   8
#     4   9  17  34  59  82 111 156 198 230 282 355
#     4   9  21  33  55  83 116 144 189 244 292 332
#     4  12  22  35  57  91 112 147 191 248 289 342
#     4   9  16  32  54  82 115 151 189 239 287 339
#     4  10  20  37  59  84 119 158 194 234 291 356
#     4  10  18  32  59  81 112 141 193 238 282 328
#     4   9  19  37  55  82 110 153 186 237 287 341
#
# _framework density 18.271279
#
# number of rings (size 3 to 8) (size 9 to 14) (size 15 to 20)
#    0.000    2.286    2.857    1.286    4.000    0.571 
#    7.714    1.429    0.000    2.571    0.000    0.000 
#    0.000    0.000    0.000    0.000    0.000    0.000 
#
# Total GULP energy -156207.117930 kJ/mol
# GULP energy per Si atom -5578.825640 kJ/mol
# Density = 1.822969 g / cm^3
# Si number density = 18.271279 Si / 1000 Ang^3
#
#
#
# Elastic Constant Matrix: (Units=GPa)
#
#
# Indices 1 2 3 4 5 6 
#
# 1 119.2233 34.2259 30.1623 0.0000 0.0000 0.0000
# 2 34.2259 91.9192 28.3004 0.0000 0.0000 0.0000
# 3 30.1623 28.3004 46.0091 0.0000 0.0000 0.0000
# 4 0.0000 0.0000 0.0000 21.8963 0.0000 0.0000
# 5 0.0000 0.0000 0.0000 0.0000 7.7343 0.0000
# 6 0.0000 0.0000 0.0000 0.0000 0.0000 14.4218
#
#
#
# Elastic Compliance Matrix: (Units=1/GPa)
#
#
# Indices 1 2 3 4 5 6 
#
# 1 0.010400 -0.002188 -0.005472 0.000000 0.000000 0.000000
# 2 -0.002188 0.013881 -0.007104 0.000000 0.000000 0.000000
# 3 -0.005472 -0.007104 0.029692 0.000000 0.000000 0.000000
# 4 0.000000 0.000000 0.000000 0.045670 0.000000 0.000000
# 5 0.000000 0.000000 0.000000 0.000000 0.129294 0.000000
# 6 0.000000 0.000000 0.000000 0.000000 0.000000 0.069340
#
#
# Mechanical properties :
#
#
# Convention : Reuss Voigt Hill
#
# Bulk Modulus (GPa) = 40.90826 49.16989 45.03907
# Shear Modulus (GPa) = 14.88306 19.77469 17.32887
#
# Velocity S-wave (km/s) = 2.85715 3.29338 3.08299
# Velocity P-wave (km/s) = 5.77255 6.43671 6.11366
#
# Compressibility (1/GPa) = 0.02444494
#
# Stress axis : x y z
#
# Youngs Moduli (GPa) = 96.15304 72.04152 33.67895
#
# Poissons Ratio (x) = 0.15760 0.18431
# Poissons Ratio (y) = 0.21034 0.23926
# Poissons Ratio (z) = 0.52619 0.51179
#
# Static dielectric constant tensor:
#      x y z
#    x 1.619490 0.000000 0.000000 
#    y 0.000000 1.661780 0.000000 
#    z 0.000000 0.000000 1.626070 
# 
# From -- ./inp_files/18200.got.cif
#   From: 2010.05.17/outbox.cif.g08.bks.cpg/sg40_10_cif.got.tgz:18200.got - 2010.06.03 18:35:42.
