data_PCOD9362749
_publ_section_title
;
Structure prediction by ZEFSAII (Michael W. Deem and Ramdas Pophale) SiO2 
 PCOD9362749
Probable space group: A M A 2
;
_chemical_formula_sum "Si O2"
_cell_formula_units_Z 64
_cell_length_a 8.636890
_cell_length_b 21.176056
_cell_length_c 20.217417
_cell_angle_alpha 90.000000
_cell_angle_beta 90.000000
_cell_angle_gamma 90.000000
_cell_volume 3697.669866
_symmetry_space_group_name_H-M "A M A 2"
_symmetry_group_IT_number 40
_symmetry_cell_setting 'orthorhombic'
loop_
_space_group_symop_operation_xyz
x,y,z
-x,-y,z
1/2-x,y,z
1/2+x,-y,z
x,1/2+y,1/2+z
-x,1/2-y,1/2+z
1/2-x,1/2+y,1/2+z
1/2+x,1/2-y,1/2+z
loop_
_atom_site_type_symbol
_atom_site_label
_atom_site_fract_x
_atom_site_fract_y
_atom_site_fract_z
Si Si1 0.437477 0.314998 0.381770
Si Si2 0.063188 0.566995 0.884083
Si Si3 0.062646 0.264790 0.520415
Si Si4 0.566014 0.933165 0.801313
Si Si5 0.564020 0.238683 0.167179
Si Si6 0.065626 0.881109 0.667010
Si Si7 0.436752 0.688613 0.799843
Si Si8 0.563071 0.883121 0.525391
O O1 0.250000 0.320369 0.380496
O O2 0.491078 0.304192 0.457294
O O3 0.507842 0.375571 0.346460
O O4 0.478055 0.251407 0.341376
O O5 0.250000 0.566318 0.883708
O O6 0.013371 0.626057 0.839053
O O7 0.000000 0.500000 0.861023
O O8 0.014267 0.579448 0.960102
O O9 0.250000 0.266649 0.518206
O O10 0.015754 0.285053 0.594139
O O11 0.021370 0.190715 0.513867
O O12 0.750000 0.934697 0.800580
O O13 0.504857 0.920315 0.727166
O O14 0.500000 0.000000 0.824831
O O15 0.750000 0.244361 0.168425
O O16 0.494015 0.308944 0.174892
O O17 0.507102 0.196159 0.227292
O O18 0.250000 0.882054 0.671273
O O19 0.010725 0.903443 0.594643
O O20 0.250000 0.687533 0.795136
O O21 0.750000 0.886110 0.531597
#
# Coordination Sequence:
#
# PCOD9362749 Si02
#       8
#     8   8   8   8   8   8   8   8
#     4  10  18  34  59  82 106 140 181 224 273 325
#     4  10  21  36  54  78 110 150 187 226 273 325
#     4   8  15  30  54  80 106 139 176 217 268 324
#     4  12  25  40  56  79 109 144 183 225 272 324
#     4  10  19  32  54  83 111 141 180 225 272 320
#     4  11  21  34  52  78 111 147 183 220 265 318
#     4  10  19  33  56  81 109 145 184 224 275 324
#     4   9  17  33  53  75 106 146 188 224 263 316
#
# _framework density 17.308198000000001
#
# number of rings (size 3 to 8) (size 9 to 14) (size 15 to 20)
#    0.000    2.000    2.500    3.375    0.000    1.500 
#    0.000    4.375    0.000    0.750    0.000    1.750 
#    0.000    0.000    0.000    0.000    0.000    0.000 
#
# Total GULP energy -178613.217225 kJ/mol
# GULP energy per Si atom -5581.663038 kJ/mol
# Density = 1.726880 g / cm^3
# Si number density = 17.308198 Si / 1000 Ang^3
#
#
#
# Elastic Constant Matrix: (Units=GPa)
#
#
# Indices 1 2 3 4 5 6 
#
# 1 50.2426 37.8541 38.3265 0.0000 0.0000 0.0000
# 2 37.8541 116.1275 69.1325 0.0000 0.0000 0.0000
# 3 38.3265 69.1325 127.4119 0.0000 0.0000 0.0000
# 4 0.0000 0.0000 0.0000 21.5031 0.0000 0.0000
# 5 0.0000 0.0000 0.0000 0.0000 -5.6583 0.0000
# 6 0.0000 0.0000 0.0000 0.0000 0.0000 18.9964
#
#
#
# Elastic Compliance Matrix: (Units=1/GPa)
#
#
# Indices 1 2 3 4 5 6 
#
# 1 0.028561 -0.006197 -0.005229 0.000000 0.000000 0.000000
# 2 -0.006197 0.014065 -0.005767 0.000000 0.000000 0.000000
# 3 -0.005229 -0.005767 0.012551 0.000000 0.000000 0.000000
# 4 0.000000 0.000000 0.000000 0.046505 0.000000 0.000000
# 5 0.000000 0.000000 0.000000 0.000000 -0.176731 0.000000
# 6 0.000000 0.000000 0.000000 0.000000 0.000000 0.052642
#
#
# Mechanical properties :
#
#
# Convention : Reuss Voigt Hill
#
# Bulk Modulus (GPa) = 48.10008 64.93424 56.51716
# Shear Modulus (GPa) = 264.42180 16.86617 140.64398
#
# Velocity S-wave (km/s) = 12.37353 3.12502 9.02413
# Velocity P-wave (km/s) = 15.23121 7.11470 11.88715
#
# Compressibility (1/GPa) = 0.02078999
#
# Stress axis : x y z
#
# Youngs Moduli (GPa) = 35.01231 71.10036 79.67727
#
# Poissons Ratio (x) = 0.44063 0.41662
# Poissons Ratio (y) = 0.21698 0.45951
# Poissons Ratio (z) = 0.18307 0.41004
#
# Static dielectric constant tensor:
#      x y z
#    x 1.585940 0.000000 0.000000 
#    y 0.000000 1.571220 0.000000 
#    z 0.000000 0.000000 1.602170 
# 
# From -- ./inp_files/22367.got.cif
#   From: 2010.05.17/outbox.cif.g08.bks.cpg/sg40_12_cif.got.tgz:22367.got - 2010.06.03 18:35:42.
