data_PCOD9362067
_publ_section_title
;
Structure prediction by ZEFSAII (Michael W. Deem and Ramdas Pophale) SiO2 
 PCOD9362067
Probable space group: A B M 2
;
_chemical_formula_sum "Si O2"
_cell_formula_units_Z 64
_cell_length_a 9.368927
_cell_length_b 20.405163
_cell_length_c 15.397778
_cell_angle_alpha 90.000000
_cell_angle_beta 90.000000
_cell_angle_gamma 90.000000
_cell_volume 2943.662242
_symmetry_space_group_name_H-M "A B M 2"
_symmetry_group_IT_number 39
_symmetry_cell_setting 'orthorhombic'
loop_
_space_group_symop_operation_xyz
x,y,z
-x,-y,z
-x,1/2+y,z
x,1/2-y,z
x,1/2+y,1/2+z
-x,1/2-y,1/2+z
-x,y,1/2+z
x,-y,1/2+z
loop_
_atom_site_type_symbol
_atom_site_label
_atom_site_fract_x
_atom_site_fract_y
_atom_site_fract_z
Si Si1 0.177877 0.050693 0.315780
Si Si2 0.339798 0.028074 0.146768
Si Si3 0.896741 0.448081 0.073724
Si Si4 0.657650 0.826397 0.386031
Si Si5 0.591304 0.822814 0.118145
Si Si6 0.095690 0.927714 0.402799
Si Si7 0.735472 0.823740 0.591215
Si Si8 0.661176 0.322596 0.413179
O O1 0.252826 0.016526 0.234938
O O2 0.257828 0.117855 0.336866
O O3 0.011875 0.071617 0.320823
O O4 0.181665 0.995329 0.390753
O O5 0.340673 0.107256 0.140845
O O6 0.500000 0.000000 0.148832
O O7 0.251476 0.989853 0.072217
O O8 0.846384 0.380019 0.115318
O O9 0.000000 0.500000 0.120890
O O10 0.004578 0.571602 0.989439
O O11 0.681916 0.750000 0.362851
O O12 0.702479 0.831689 0.487723
O O13 0.490296 0.841438 0.371886
O O14 0.634494 0.750000 0.153147
O O15 0.421031 0.829680 0.133768
O O16 0.621581 0.818909 0.015144
O O17 0.207272 0.870049 0.401966
O O18 0.788565 0.750000 0.605703
O O19 0.698998 0.250000 0.382255
#
# Coordination Sequence:
#
# PCOD9362067 Si02
#       8
#     8   8   8   8   8   8   8   8
#     4  11  25  41  58  95 134 173 215 260 322 389
#     4  12  27  43  65  96 130 176 218 268 329 383
#     4  12  22  40  65  97 127 166 220 267 322 386
#     4   9  18  36  64  94 123 167 219 274 322 371
#     4   9  19  39  65  95 126 159 214 277 322 374
#     4  11  23  42  61  93 131 173 215 265 322 385
#     4   9  17  35  63  95 126 159 216 277 323 372
#     4   9  20  38  66  99 127 158 216 283 323 369
#
# _framework density 21.741624000000002
#
# number of rings (size 3 to 8) (size 9 to 14) (size 15 to 20)
#    0.000    1.750    3.750    2.250    3.500    1.500 
#    0.000    1.250    0.000    0.750    0.000    0.000 
#    0.000    0.000    0.000    0.000    0.000    0.000 
#
# Total GULP energy -178272.216041 kJ/mol
# GULP energy per Si atom -5571.006751 kJ/mol
# Density = 2.169214 g / cm^3
# Si number density = 21.741624 Si / 1000 Ang^3
#
#
#
# Elastic Constant Matrix: (Units=GPa)
#
#
# Indices 1 2 3 4 5 6 
#
# 1 133.6321 87.7385 32.6171 0.0000 0.0000 0.0000
# 2 87.7385 154.0820 13.4302 0.0000 0.0000 0.0000
# 3 32.6171 13.4302 44.9087 0.0000 0.0000 0.0000
# 4 0.0000 0.0000 0.0000 13.8230 0.0000 0.0000
# 5 0.0000 0.0000 0.0000 0.0000 7.8274 0.0000
# 6 0.0000 0.0000 0.0000 0.0000 0.0000 51.9224
#
#
#
# Elastic Compliance Matrix: (Units=1/GPa)
#
#
# Indices 1 2 3 4 5 6 
#
# 1 0.014406 -0.007486 -0.008224 0.000000 0.000000 0.000000
# 2 -0.007486 0.010554 0.002281 0.000000 0.000000 0.000000
# 3 -0.008224 0.002281 0.027558 0.000000 0.000000 0.000000
# 4 0.000000 0.000000 0.000000 0.072343 0.000000 0.000000
# 5 0.000000 0.000000 0.000000 0.000000 0.127756 0.000000
# 6 0.000000 0.000000 0.000000 0.000000 0.000000 0.019259
#
#
# Mechanical properties :
#
#
# Convention : Reuss Voigt Hill
#
# Bulk Modulus (GPa) = 38.97178 66.68825 52.83002
# Shear Modulus (GPa) = 16.27134 27.97037 22.12086
#
# Velocity S-wave (km/s) = 2.73865 3.59066 3.19320
# Velocity P-wave (km/s) = 5.28811 6.92316 6.16012
#
# Compressibility (1/GPa) = 0.02565959
#
# Stress axis : x y z
#
# Youngs Moduli (GPa) = 69.41649 94.74990 36.28657
#
# Poissons Ratio (x) = 0.70932 0.29842
# Poissons Ratio (y) = 0.51967 -0.08277
# Poissons Ratio (z) = 0.57089 -0.21612
#
# Static dielectric constant tensor:
#      x y z
#    x 1.820340 0.000000 0.000000 
#    y 0.000000 1.810800 0.000000 
#    z 0.000000 0.000000 1.865770 
# 
# From -- ./inp_files/14293.got.cif
#   From: 2010.05.17/outbox.cif.g08.bks.cpg/sg39_8_cif.got.tgz:14293.got - 2010.06.03 18:22:40.
