data_PCOD9362727
_publ_section_title
;
Structure prediction by ZEFSAII (Michael W. Deem and Ramdas Pophale) SiO2 
 PCOD9362727
Probable space group: A M A 2
;
_chemical_formula_sum "Si O2"
_cell_formula_units_Z 64
_cell_length_a 14.600598
_cell_length_b 15.104653
_cell_length_c 11.982927
_cell_angle_alpha 90.000000
_cell_angle_beta 90.000000
_cell_angle_gamma 90.000000
_cell_volume 2642.678369
_symmetry_space_group_name_H-M "A M A 2"
_symmetry_group_IT_number 40
_symmetry_cell_setting 'orthorhombic'
loop_
_space_group_symop_operation_xyz
x,y,z
-x,-y,z
1/2-x,y,z
1/2+x,-y,z
x,1/2+y,1/2+z
-x,1/2-y,1/2+z
1/2-x,1/2+y,1/2+z
1/2+x,1/2-y,1/2+z
loop_
_atom_site_type_symbol
_atom_site_label
_atom_site_fract_x
_atom_site_fract_y
_atom_site_fract_z
Si Si1 0.004656 0.090505 0.977980
Si Si2 0.114266 0.806383 0.309516
Si Si3 0.352780 0.096397 0.793338
Si Si4 0.064541 0.103903 0.562015
Si Si5 0.151290 0.681363 0.623873
Si Si6 0.437923 0.586001 0.816432
Si Si7 0.350655 0.875841 0.556823
Si Si8 0.644946 0.199806 0.058533
O O1 0.065911 0.065263 0.872388
O O2 0.067671 0.158363 0.044498
O O3 0.000000 0.000000 0.046139
O O4 0.905772 0.134399 0.973069
O O5 0.140743 0.703459 0.304591
O O6 0.151003 0.847010 0.424967
O O7 0.141939 0.839706 0.185413
O O8 0.006963 0.829559 0.317774
O O9 0.250000 0.067791 0.821114
O O10 0.379090 0.071223 0.667927
O O11 0.097152 0.070162 0.441545
O O12 0.088143 0.208987 0.560737
O O13 0.954879 0.088698 0.572139
O O14 0.250000 0.660386 0.571316
O O15 0.137861 0.618727 0.730589
O O16 0.148913 0.787142 0.634453
O O17 0.500000 0.500000 0.789943
O O18 0.250000 0.918340 0.577139
O O19 0.750000 0.217419 0.029983
#
# Coordination Sequence:
#
# PCOD9362727 Si02
#       8
#     8   8   8   8   8   8   8   8
#     4  12  24  41  60  90 132 159 202 260 323 389
#     4  10  18  35  61  88 124 161 212 254 298 368
#     4  11  22  41  69  91 113 162 217 262 315 382
#     4  10  21  40  64  89 123 160 218 269 311 367
#     4  11  21  37  61  89 124 166 204 248 307 377
#     4  11  23  40  59  88 133 170 205 254 321 376
#     4  10  18  33  61  93 124 163 208 256 312 368
#     4  11  22  37  62  92 123 164 211 265 319 373
#
# _framework density 24.217853000000002
#
# number of rings (size 3 to 8) (size 9 to 14) (size 15 to 20)
#    0.000    1.250    3.750    4.500    0.000    2.500 
#    0.000    5.000    0.000    3.000    0.000    0.000 
#    0.000    0.000    0.000    0.000    0.000    0.000 
#
# Total GULP energy -178661.279898 kJ/mol
# GULP energy per Si atom -5583.164997 kJ/mol
# Density = 2.416273 g / cm^3
# Si number density = 24.217853 Si / 1000 Ang^3
#
#
#
# Elastic Constant Matrix: (Units=GPa)
#
#
# Indices 1 2 3 4 5 6 
#
# 1 158.3366 32.9358 31.5966 0.0000 0.0000 0.0000
# 2 32.9358 53.8823 16.9551 0.0000 0.0000 0.0000
# 3 31.5966 16.9551 116.6602 0.0000 0.0000 0.0000
# 4 0.0000 0.0000 0.0000 14.6156 0.0000 0.0000
# 5 0.0000 0.0000 0.0000 0.0000 33.0699 0.0000
# 6 0.0000 0.0000 0.0000 0.0000 0.0000 13.5893
#
#
#
# Elastic Compliance Matrix: (Units=1/GPa)
#
#
# Indices 1 2 3 4 5 6 
#
# 1 0.007454 -0.004109 -0.001422 0.000000 0.000000 0.000000
# 2 -0.004109 0.021713 -0.002043 0.000000 0.000000 0.000000
# 3 -0.001422 -0.002043 0.009254 0.000000 0.000000 0.000000
# 4 0.000000 0.000000 0.000000 0.068420 0.000000 0.000000
# 5 0.000000 0.000000 0.000000 0.000000 0.030239 0.000000
# 6 0.000000 0.000000 0.000000 0.000000 0.000000 0.073587
#
#
# Mechanical properties :
#
#
# Convention : Reuss Voigt Hill
#
# Bulk Modulus (GPa) = 42.96591 54.65046 48.80818
# Shear Modulus (GPa) = 21.40658 28.74771 25.07715
#
# Velocity S-wave (km/s) = 2.97630 3.44909 3.22138
# Velocity P-wave (km/s) = 5.43977 6.20297 5.83386
#
# Compressibility (1/GPa) = 0.02327427
#
# Stress axis : x y z
#
# Youngs Moduli (GPa) = 134.15468 46.05441 108.06287
#
# Poissons Ratio (x) = 0.18924 0.15363
# Poissons Ratio (y) = 0.55124 0.22076
# Poissons Ratio (z) = 0.19073 0.09408
#
# Static dielectric constant tensor:
#      x y z
#    x 1.802480 0.000000 0.000000 
#    y 0.000000 2.102740 0.000000 
#    z 0.000000 0.000000 2.002230 
# 
# From -- ./inp_files/12458.got.cif
#   From: 2010.05.17/outbox.cif.g08.bks.cpg/sg40_7_cif.got.tgz:12458.got - 2010.06.03 18:35:42.
