data_PCOD9362544
_publ_section_title
;
Structure prediction by ZEFSAII (Michael W. Deem and Ramdas Pophale) SiO2 
 PCOD9362544
Probable space group: A M A 2
;
_chemical_formula_sum "Si O2"
_cell_formula_units_Z 48
_cell_length_a 17.017667
_cell_length_b 9.365450
_cell_length_c 11.677936
_cell_angle_alpha 90.000000
_cell_angle_beta 90.000000
_cell_angle_gamma 90.000000
_cell_volume 1861.207361
_symmetry_space_group_name_H-M "A M A 2"
_symmetry_group_IT_number 40
_symmetry_cell_setting 'orthorhombic'
loop_
_space_group_symop_operation_xyz
x,y,z
-x,-y,z
1/2-x,y,z
1/2+x,-y,z
x,1/2+y,1/2+z
-x,1/2-y,1/2+z
1/2-x,1/2+y,1/2+z
1/2+x,1/2-y,1/2+z
loop_
_atom_site_type_symbol
_atom_site_label
_atom_site_fract_x
_atom_site_fract_y
_atom_site_fract_z
Si Si1 0.585161 0.452815 0.361830
Si Si2 0.917479 0.821989 0.619435
Si Si3 0.583871 0.743258 0.049116
Si Si4 0.416764 0.996727 0.224675
Si Si5 0.750000 0.203862 0.531616
Si Si6 0.250000 0.685595 0.140464
Si Si7 0.250000 0.460213 0.794446
Si Si8 0.750000 0.481736 0.387939
O O1 0.500000 0.500000 0.404482
O O2 0.578151 0.426514 0.227986
O O3 0.599129 0.298831 0.420555
O O4 0.662170 0.546979 0.391069
O O5 0.913496 0.660907 0.670289
O O6 0.829765 0.843644 0.571219
O O7 0.999812 0.832306 0.554012
O O8 0.576243 0.885199 0.125660
O O9 0.666010 0.673180 0.089403
O O10 0.500000 0.000000 0.291477
O O11 0.334922 0.033484 0.285827
O O12 0.750000 0.122079 0.412876
O O13 0.750000 0.372339 0.496231
O O14 0.250000 0.847821 0.187826
O O15 0.250000 0.598406 0.262697
#
# Coordination Sequence:
#
# PCOD9362544 Si02
#       8
#     8   8   8   8   4   4   4   4
#     4  10  18  31  50  73  98 129 166 207 251 302
#     4   9  17  29  47  71 100 131 161 204 255 301
#     4  10  18  30  49  76 102 128 167 209 251 299
#     4   9  16  26  44  72 101 129 161 203 250 296
#     4   9  17  29  48  71  98 132 166 206 252 305
#     4   7  12  25  43  63  88 122 156 188 238 293
#     4   9  15  27  45  69 100 134 164 200 254 307
#     4   7  14  27  44  65  90 118 156 196 238 287
#
# _framework density 25.789712000000002
#
# number of rings (size 3 to 8) (size 9 to 14) (size 15 to 20)
#    0.000    3.000    0.000    5.000    0.000    0.000 
#    0.000    3.333    0.000    8.000    0.000    3.500 
#    0.000    0.000    0.000    0.000    0.000    0.000 
#
# Total GULP energy -133852.431124 kJ/mol
# GULP energy per Si atom -5577.184630 kJ/mol
# Density = 2.573101 g / cm^3
# Si number density = 25.789712 Si / 1000 Ang^3
#
#
#
# Elastic Constant Matrix: (Units=GPa)
#
#
# Indices 1 2 3 4 5 6 
#
# 1 360.4825 15.4453 31.7530 0.0000 0.0000 0.0000
# 2 15.4453 58.6552 9.0091 0.0000 0.0000 0.0000
# 3 31.7530 9.0091 50.2839 0.0000 0.0000 0.0000
# 4 0.0000 0.0000 0.0000 20.8047 0.0000 0.0000
# 5 0.0000 0.0000 0.0000 0.0000 24.8419 0.0000
# 6 0.0000 0.0000 0.0000 0.0000 0.0000 -26.7606
#
#
#
# Elastic Compliance Matrix: (Units=1/GPa)
#
#
# Indices 1 2 3 4 5 6 
#
# 1 0.002952 -0.000505 -0.001774 0.000000 0.000000 0.000000
# 2 -0.000505 0.017618 -0.002838 0.000000 0.000000 0.000000
# 3 -0.001774 -0.002838 0.021515 0.000000 0.000000 0.000000
# 4 0.000000 0.000000 0.000000 0.048066 0.000000 0.000000
# 5 0.000000 0.000000 0.000000 0.000000 0.040255 0.000000
# 6 0.000000 0.000000 0.000000 0.000000 0.000000 -0.037368
#
#
# Mechanical properties :
#
#
# Convention : Reuss Voigt Hill
#
# Bulk Modulus (GPa) = 31.39448 64.64849 48.02148
# Shear Modulus (GPa) = 43.90310 31.32480 37.61395
#
# Velocity S-wave (km/s) = 4.13043 3.48893 3.82316
# Velocity P-wave (km/s) = 5.91159 6.43056 6.17653
#
# Compressibility (1/GPa) = 0.03185273
#
# Stress axis : x y z
#
# Youngs Moduli (GPa) = 338.76263 56.76149 46.47820
#
# Poissons Ratio (x) = 0.02866 0.08243
# Poissons Ratio (y) = 0.17104 0.13189
# Poissons Ratio (z) = 0.60083 0.16107
#
# Static dielectric constant tensor:
#      x y z
#    x 2.156920 0.000000 0.000000 
#    y 0.000000 2.059820 0.000000 
#    z 0.000000 0.000000 1.990400 
# 
# From -- ./inp_files/12945.got.cif
#   From: 2010.05.17/outbox.cif.g08.bks.cpg/sg40_7_cif.got.tgz:12945.got - 2010.06.03 18:35:42.
