data_PCOD9362307
_publ_section_title
;
Structure prediction by ZEFSAII (Michael W. Deem and Ramdas Pophale) SiO2 
 PCOD9362307
Probable space group: A M A 2
;
_chemical_formula_sum "Si O2"
_cell_formula_units_Z 56
_cell_length_a 8.609810
_cell_length_b 14.009702
_cell_length_c 30.202170
_cell_angle_alpha 90.000000
_cell_angle_beta 90.000000
_cell_angle_gamma 90.000000
_cell_volume 3643.012093
_symmetry_space_group_name_H-M "A M A 2"
_symmetry_group_IT_number 40
_symmetry_cell_setting 'orthorhombic'
loop_
_space_group_symop_operation_xyz
x,y,z
-x,-y,z
1/2-x,y,z
1/2+x,-y,z
x,1/2+y,1/2+z
-x,1/2-y,1/2+z
1/2-x,1/2+y,1/2+z
1/2+x,1/2-y,1/2+z
loop_
_atom_site_type_symbol
_atom_site_label
_atom_site_fract_x
_atom_site_fract_y
_atom_site_fract_z
Si Si1 0.061556 0.706040 0.250000
Si Si2 0.436427 0.895944 0.202064
Si Si3 0.563706 0.291607 0.616342
Si Si4 0.063630 0.607816 0.525030
Si Si5 0.936439 0.395418 0.159701
Si Si6 0.437163 0.608140 0.340348
Si Si7 0.435313 0.391538 0.432709
O O1 0.250000 0.705284 0.250590
O O2 0.013607 0.812852 0.236292
O O3 0.013962 0.637409 0.209354
O O4 0.010362 0.667668 0.297474
O O5 0.250000 0.897967 0.200848
O O6 0.496878 0.861380 0.154183
O O7 0.500000 0.000000 0.212779
O O8 0.750000 0.290886 0.619741
O O9 0.520913 0.330667 0.567992
O O10 0.499101 0.186815 0.627348
O O11 0.250000 0.602851 0.521557
O O12 0.000000 0.500000 0.530699
O O13 0.996029 0.649205 0.479161
O O14 0.750000 0.395376 0.158353
O O15 0.000000 0.500000 0.149880
O O16 0.500000 0.500000 0.335795
O O17 0.250000 0.604835 0.341920
O O18 0.499812 0.649576 0.386761
O O19 0.500000 0.500000 0.432987
O O20 0.250000 0.393122 0.431972
#
# Coordination Sequence:
#
# PCOD9362307 Si02
#       7
#     8   8   8   8   8   8   8
#     4   8  17  30  45  65  89 119 152 184 219 262
#     4  10  19  32  47  66  92 121 153 187 225 265
#     4  10  20  32  47  68  91 119 154 187 224 268
#     4  10  19  30  45  65  90 119 150 183 221 266
#     4  10  19  32  48  67  93 122 153 188 224 263
#     4  10  17  28  44  63  89 118 147 180 219 261
#     4  10  18  28  42  62  88 116 146 179 219 265
#
# _framework density 15.371895
#
# number of rings (size 3 to 8) (size 9 to 14) (size 15 to 20)
#    0.000    2.286    0.000    6.857    0.000    3.429 
#    0.000    7.857    0.000    0.000    0.000    1.000 
#    0.000    2.286    0.000    0.000    0.000    0.000 
#
# Total GULP energy -156120.129899 kJ/mol
# GULP energy per Si atom -5575.718925 kJ/mol
# Density = 1.533691 g / cm^3
# Si number density = 15.371895 Si / 1000 Ang^3
#
#
#
# Elastic Constant Matrix: (Units=GPa)
#
#
# Indices 1 2 3 4 5 6 
#
# 1 67.5104 28.4443 47.2031 0.0000 0.0000 0.0000
# 2 28.4443 90.9065 63.4349 0.0000 0.0000 0.0000
# 3 47.2031 63.4349 158.3014 0.0000 0.0000 0.0000
# 4 0.0000 0.0000 0.0000 21.3654 0.0000 0.0000
# 5 0.0000 0.0000 0.0000 0.0000 26.1712 0.0000
# 6 0.0000 0.0000 0.0000 0.0000 0.0000 22.0156
#
#
#
# Elastic Compliance Matrix: (Units=1/GPa)
#
#
# Indices 1 2 3 4 5 6 
#
# 1 0.019213 -0.002796 -0.004609 0.000000 0.000000 0.000000
# 2 -0.002796 0.015677 -0.005449 0.000000 0.000000 0.000000
# 3 -0.004609 -0.005449 0.009875 0.000000 0.000000 0.000000
# 4 0.000000 0.000000 0.000000 0.046805 0.000000 0.000000
# 5 0.000000 0.000000 0.000000 0.000000 0.038210 0.000000
# 6 0.000000 0.000000 0.000000 0.000000 0.000000 0.045422
#
#
# Mechanical properties :
#
#
# Convention : Reuss Voigt Hill
#
# Bulk Modulus (GPa) = 52.46922 66.09808 59.28365
# Shear Modulus (GPa) = 24.12426 25.75283 24.93855
#
# Velocity S-wave (km/s) = 3.96583 4.09751 4.03221
# Velocity P-wave (km/s) = 7.42817 8.09189 7.76713
#
# Compressibility (1/GPa) = 0.01905879
#
# Stress axis : x y z
#
# Youngs Moduli (GPa) = 52.04863 63.78743 101.26937
#
# Poissons Ratio (x) = 0.17833 0.46672
# Poissons Ratio (y) = 0.14551 0.55177
# Poissons Ratio (z) = 0.23988 0.34755
#
# Static dielectric constant tensor:
#      x y z
#    x 1.515130 0.000000 0.000000 
#    y 0.000000 1.491760 0.000000 
#    z 0.000000 0.000000 1.535940 
# 
# From -- ./inp_files/26403.got.cif
#   From: 2010.05.17/outbox.cif.g08.bks.cpg/sg40_14_cif.got.tgz:26403.got - 2010.06.03 18:35:42.
