data_PCOD9362592
_publ_section_title
;
Structure prediction by ZEFSAII (Michael W. Deem and Ramdas Pophale) SiO2 
 PCOD9362592
Probable space group: A M A 2
;
_chemical_formula_sum "Si O2"
_cell_formula_units_Z 64
_cell_length_a 8.708916
_cell_length_b 24.883893
_cell_length_c 14.029837
_cell_angle_alpha 90.000000
_cell_angle_beta 90.000000
_cell_angle_gamma 90.000000
_cell_volume 3040.430302
_symmetry_space_group_name_H-M "A M A 2"
_symmetry_group_IT_number 40
_symmetry_cell_setting 'orthorhombic'
loop_
_space_group_symop_operation_xyz
x,y,z
-x,-y,z
1/2-x,y,z
1/2+x,-y,z
x,1/2+y,1/2+z
-x,1/2-y,1/2+z
1/2-x,1/2+y,1/2+z
1/2+x,1/2-y,1/2+z
loop_
_atom_site_type_symbol
_atom_site_label
_atom_site_fract_x
_atom_site_fract_y
_atom_site_fract_z
Si Si1 0.433715 0.275054 0.512170
Si Si2 0.564439 0.674588 0.101707
Si Si3 0.937068 0.674105 0.310402
Si Si4 0.432542 0.440428 0.805975
Si Si5 0.923134 0.951865 0.018273
Si Si6 0.428365 0.945203 0.818041
Si Si7 0.567540 0.558237 0.031711
Si Si8 0.923605 0.354921 0.662918
O O1 0.250000 0.276285 0.510690
O O2 0.494182 0.214705 0.524633
O O3 0.489187 0.300313 0.410499
O O4 0.490110 0.308020 0.605370
O O5 0.750000 0.675200 0.094237
O O6 0.523952 0.697698 0.206998
O O7 0.515030 0.612610 0.084960
O O8 0.750000 0.672326 0.316317
O O9 0.994695 0.613060 0.296581
O O10 0.500000 0.500000 0.784117
O O11 0.250000 0.442093 0.788647
O O12 0.461277 0.432995 0.918998
O O13 0.500870 0.389329 0.748556
O O14 0.750000 0.963479 0.984275
O O15 0.040019 0.946208 0.931292
O O16 0.915058 0.899763 0.080673
O O17 0.000000 0.000000 0.076841
O O18 0.250000 0.945253 0.794186
O O19 0.500000 0.000000 0.779440
O O20 0.500000 0.500000 0.058008
O O21 0.750000 0.554501 0.046261
O O22 0.750000 0.337726 0.689192
#
# Coordination Sequence:
#
# PCOD9362592 Si02
#       8
#     8   8   8   8   8   8   8   8
#     4  11  23  41  61  86 117 156 200 248 298 353
#     4  10  22  43  66  90 118 154 196 243 298 357
#     4   9  20  39  62  84 116 157 195 238 296 354
#     4  10  20  35  56  87 123 161 204 252 302 357
#     4  10  19  29  45  72 107 147 191 232 279 333
#     4  10  18  31  51  79 113 152 190 232 282 338
#     4   9  20  39  65  92 122 155 194 245 302 356
#     4  11  22  35  54  82 116 160 204 246 297 352
#
# _framework density 21.049654
#
# number of rings (size 3 to 8) (size 9 to 14) (size 15 to 20)
#    0.000    2.000    1.250    3.000    0.000    5.000 
#    0.000    5.000    0.000    0.000    0.000    0.000 
#    0.000    0.000    0.000    0.000    0.000    0.000 
#
# Total GULP energy -178323.423221 kJ/mol
# GULP energy per Si atom -5572.606976 kJ/mol
# Density = 2.100174 g / cm^3
# Si number density = 21.049654 Si / 1000 Ang^3
#
#
#
# Elastic Constant Matrix: (Units=GPa)
#
#
# Indices 1 2 3 4 5 6 
#
# 1 29.9462 32.2528 35.5832 0.0000 0.0000 0.0000
# 2 32.2528 140.9163 62.3197 0.0000 0.0000 0.0000
# 3 35.5832 62.3197 127.8019 0.0000 0.0000 0.0000
# 4 0.0000 0.0000 0.0000 26.7430 0.0000 0.0000
# 5 0.0000 0.0000 0.0000 0.0000 -4.6498 0.0000
# 6 0.0000 0.0000 0.0000 0.0000 0.0000 32.5727
#
#
#
# Elastic Compliance Matrix: (Units=1/GPa)
#
#
# Indices 1 2 3 4 5 6 
#
# 1 0.055463 -0.007478 -0.011796 0.000000 0.000000 0.000000
# 2 -0.007478 0.010056 -0.002821 0.000000 0.000000 0.000000
# 3 -0.011796 -0.002821 0.012485 0.000000 0.000000 0.000000
# 4 0.000000 0.000000 0.000000 0.037393 0.000000 0.000000
# 5 0.000000 0.000000 0.000000 0.000000 -0.215062 0.000000
# 6 0.000000 0.000000 0.000000 0.000000 0.000000 0.030701
#
#
# Mechanical properties :
#
#
# Convention : Reuss Voigt Hill
#
# Bulk Modulus (GPa) = 29.57408 62.10842 45.84125
# Shear Modulus (GPa) = -370.27886 22.16709 -174.05589
#
# Velocity S-wave (km/s) = -13.27740 3.24865 -9.10317
# Velocity P-wave (km/s) = 14.86513 6.60616 9.41623
#
# Compressibility (1/GPa) = 0.03381339
#
# Stress axis : x y z
#
# Youngs Moduli (GPa) = 18.02997 99.44641 80.09784
#
# Poissons Ratio (x) = 0.74362 0.94483
# Poissons Ratio (y) = 0.13482 0.22599
# Poissons Ratio (z) = 0.21268 0.28058
#
# Static dielectric constant tensor:
#      x y z
#    x 1.749520 0.000000 0.000000 
#    y 0.000000 1.839120 0.000000 
#    z 0.000000 0.000000 1.804580 
# 
# From -- ./inp_files/15689.got.cif
#   From: 2010.05.17/outbox.cif.g08.bks.cpg/sg40_8_cif.got.tgz:15689.got - 2010.06.03 18:35:42.
