data_PCOD9362955
_publ_section_title
;
Structure prediction by ZEFSAII (Michael W. Deem and Ramdas Pophale) SiO2 
 PCOD9362955
Probable space group: A M A 2
;
_chemical_formula_sum "Si O2"
_cell_formula_units_Z 64
_cell_length_a 8.826838
_cell_length_b 31.007135
_cell_length_c 14.690423
_cell_angle_alpha 90.000000
_cell_angle_beta 90.000000
_cell_angle_gamma 90.000000
_cell_volume 4020.694698
_symmetry_space_group_name_H-M "A M A 2"
_symmetry_group_IT_number 40
_symmetry_cell_setting 'orthorhombic'
loop_
_space_group_symop_operation_xyz
x,y,z
-x,-y,z
1/2-x,y,z
1/2+x,-y,z
x,1/2+y,1/2+z
-x,1/2-y,1/2+z
1/2-x,1/2+y,1/2+z
1/2+x,1/2-y,1/2+z
loop_
_atom_site_type_symbol
_atom_site_label
_atom_site_fract_x
_atom_site_fract_y
_atom_site_fract_z
Si Si1 0.928209 0.870263 0.492070
Si Si2 0.921591 0.826224 0.296288
Si Si3 0.567424 0.790728 0.617107
Si Si4 0.930695 0.046218 0.418936
Si Si5 0.067321 0.453734 0.707649
Si Si6 0.069492 0.708779 0.507628
Si Si7 0.928181 0.135210 0.126201
Si Si8 0.573637 0.223148 0.811735
O O1 0.750000 0.878771 0.506911
O O2 0.944254 0.847551 0.393909
O O3 0.978442 0.834633 0.565080
O O4 0.014181 0.915280 0.483162
O O5 0.750000 0.837004 0.263962
O O6 0.929882 0.775110 0.307414
O O7 0.042038 0.842461 0.223755
O O8 0.750000 0.787330 0.613838
O O9 0.500193 0.748972 0.564849
O O10 0.508683 0.792087 0.720164
O O11 0.750000 0.043659 0.419916
O O12 0.978815 0.055101 0.313224
O O13 0.000000 0.000000 0.443816
O O14 0.250000 0.455817 0.706548
O O15 0.021571 0.414149 0.642960
O O16 0.000000 0.500000 0.682095
O O17 0.250000 0.712860 0.509062
O O18 0.018163 0.664377 0.555127
O O19 0.006764 0.709962 0.405130
O O20 0.750000 0.136017 0.104403
O O21 0.750000 0.209824 0.812439
#
# Coordination Sequence:
#
# PCOD9362955 Si02
#       8
#     8   8   8   8   8   8   8   8
#     4  10  20  34  51  73 104 140 175 212 258 307
#     4  10  19  31  49  74 104 138 175 214 257 305
#     4  11  22  37  54  76 105 139 177 220 264 310
#     4  10  19  32  49  74 104 136 174 212 257 308
#     4   9  19  32  48  73 102 135 170 211 259 309
#     4  12  24  36  52  76 104 141 181 217 261 309
#     4  11  21  34  51  75 105 139 179 218 258 307
#     4  11  22  38  54  75 104 138 179 222 264 306
#
# _framework density 15.917647000000001
#
# number of rings (size 3 to 8) (size 9 to 14) (size 15 to 20)
#    0.000    1.500    3.750    2.625    0.000    3.000 
#    0.000    0.000    0.000    0.000    0.000    0.875 
#    0.000    2.000    0.000    0.000    0.000    0.000 
#
# Total GULP energy -178622.741874 kJ/mol
# GULP energy per Si atom -5581.960684 kJ/mol
# Density = 1.588142 g / cm^3
# Si number density = 15.917647 Si / 1000 Ang^3
#
#
#
# Elastic Constant Matrix: (Units=GPa)
#
#
# Indices 1 2 3 4 5 6 
#
# 1 69.4296 49.2379 42.6003 0.0000 0.0000 0.0000
# 2 49.2379 126.5264 59.0154 0.0000 0.0000 0.0000
# 3 42.6003 59.0154 93.6762 0.0000 0.0000 0.0000
# 4 0.0000 0.0000 0.0000 20.1144 0.0000 0.0000
# 5 0.0000 0.0000 0.0000 0.0000 6.2521 0.0000
# 6 0.0000 0.0000 0.0000 0.0000 0.0000 21.9765
#
#
#
# Elastic Compliance Matrix: (Units=1/GPa)
#
#
# Indices 1 2 3 4 5 6 
#
# 1 0.022502 -0.005641 -0.006679 0.000000 0.000000 0.000000
# 2 -0.005641 0.012607 -0.005377 0.000000 0.000000 0.000000
# 3 -0.006679 -0.005377 0.017100 0.000000 0.000000 0.000000
# 4 0.000000 0.000000 0.000000 0.049716 0.000000 0.000000
# 5 0.000000 0.000000 0.000000 0.000000 0.159945 0.000000
# 6 0.000000 0.000000 0.000000 0.000000 0.000000 0.045503
#
#
# Mechanical properties :
#
#
# Convention : Reuss Voigt Hill
#
# Bulk Modulus (GPa) = 59.47338 65.70438 62.58888
# Shear Modulus (GPa) = 14.35254 18.92054 16.63654
#
# Velocity S-wave (km/s) = 3.00605 3.45142 3.23641
# Velocity P-wave (km/s) = 7.03511 7.56640 7.30558
#
# Compressibility (1/GPa) = 0.01681424
#
# Stress axis : x y z
#
# Youngs Moduli (GPa) = 44.44088 79.32328 58.48088
#
# Poissons Ratio (x) = 0.44749 0.39059
# Poissons Ratio (y) = 0.25071 0.31443
# Poissons Ratio (z) = 0.29682 0.42649
#
# Static dielectric constant tensor:
#      x y z
#    x 1.547160 0.000000 0.000000 
#    y 0.000000 1.530050 0.000000 
#    z 0.000000 0.000000 1.515420 
# 
# From -- ./inp_files/15883.got.cif
#   From: 2010.05.17/outbox.cif.g08.bks.cpg/sg40_8_cif.got.tgz:15883.got - 2010.06.03 18:35:42.
