data_PCOD9362832
_publ_section_title
;
Structure prediction by ZEFSAII (Michael W. Deem and Ramdas Pophale) SiO2 
 PCOD9362832
Probable space group: A M A 2
;
_chemical_formula_sum "Si O2"
_cell_formula_units_Z 64
_cell_length_a 22.049569
_cell_length_b 9.723406
_cell_length_c 16.410375
_cell_angle_alpha 90.000000
_cell_angle_beta 90.000000
_cell_angle_gamma 90.000000
_cell_volume 3518.333717
_symmetry_space_group_name_H-M "A M A 2"
_symmetry_group_IT_number 40
_symmetry_cell_setting 'orthorhombic'
loop_
_space_group_symop_operation_xyz
x,y,z
-x,-y,z
1/2-x,y,z
1/2+x,-y,z
x,1/2+y,1/2+z
-x,1/2-y,1/2+z
1/2-x,1/2+y,1/2+z
1/2+x,1/2-y,1/2+z
loop_
_atom_site_type_symbol
_atom_site_label
_atom_site_fract_x
_atom_site_fract_y
_atom_site_fract_z
Si Si1 0.179911 0.740168 0.013390
Si Si2 0.072091 0.331034 0.083562
Si Si3 0.321043 0.034537 0.362105
Si Si4 0.479237 0.658575 0.295647
Si Si5 0.123334 0.248964 0.912033
Si Si6 0.390732 0.758984 0.762397
Si Si7 0.065640 0.658503 0.113987
Si Si8 0.819495 0.537406 0.374288
O O1 0.250000 0.738115 0.044383
O O2 0.125604 0.729597 0.078036
O O3 0.173434 0.614899 0.948614
O O4 0.171744 0.873929 0.956523
O O5 0.102959 0.274552 0.165781
O O6 0.071741 0.496728 0.092487
O O7 0.000175 0.292426 0.079785
O O8 0.108949 0.280711 0.005784
O O9 0.250000 0.023617 0.343757
O O10 0.350705 0.886336 0.371438
O O11 0.353397 0.129919 0.295300
O O12 0.500000 0.500000 0.300915
O O13 0.439090 0.705089 0.370021
O O14 0.540133 0.747535 0.292523
O O15 0.442295 0.672748 0.211205
O O16 0.166382 0.119516 0.894620
O O17 0.361055 0.893899 0.804713
O O18 0.750000 0.556071 0.348703
#
# Coordination Sequence:
#
# PCOD9362832 Si02
#       8
#     8   8   8   8   8   8   8   8
#     4   9  19  37  62  90 119 159 204 251 300 370
#     4  10  21  34  62  92 121 156 197 256 314 362
#     4  10  22  40  62  90 126 159 205 254 300 370
#     4  11  21  38  63  89 123 159 202 261 297 369
#     4  12  23  37  63  92 126 160 202 256 323 356
#     4  10  20  42  64  86 120 162 213 248 307 366
#     4  10  18  39  61  89 123 154 205 256 294 369
#     4  10  21  39  62  86 121 166 211 249 302 376
#
# _framework density 18.190429999999999
#
# number of rings (size 3 to 8) (size 9 to 14) (size 15 to 20)
#    0.000    1.750    5.000    1.500    3.500    0.500 
#    2.250    6.250    0.000    0.000    0.000    0.000 
#    0.000    0.000    0.000    0.000    0.000    0.000 
#
# Total GULP energy -178554.106998 kJ/mol
# GULP energy per Si atom -5579.815844 kJ/mol
# Density = 1.814903 g / cm^3
# Si number density = 18.190430 Si / 1000 Ang^3
#
#
#
# Elastic Constant Matrix: (Units=GPa)
#
#
# Indices 1 2 3 4 5 6 
#
# 1 107.3506 26.9625 71.9044 0.0000 0.0000 0.0000
# 2 26.9625 82.5744 34.5598 0.0000 0.0000 0.0000
# 3 71.9044 34.5598 80.7526 0.0000 0.0000 0.0000
# 4 0.0000 0.0000 0.0000 9.2270 0.0000 0.0000
# 5 0.0000 0.0000 0.0000 0.0000 35.0418 0.0000
# 6 0.0000 0.0000 0.0000 0.0000 0.0000 14.7828
#
#
#
# Elastic Compliance Matrix: (Units=1/GPa)
#
#
# Indices 1 2 3 4 5 6 
#
# 1 0.023196 0.001304 -0.021213 0.000000 0.000000 0.000000
# 2 0.001304 0.014826 -0.007506 0.000000 0.000000 0.000000
# 3 -0.021213 -0.007506 0.034484 0.000000 0.000000 0.000000
# 4 0.000000 0.000000 0.000000 0.108377 0.000000 0.000000
# 5 0.000000 0.000000 0.000000 0.000000 0.028537 0.000000
# 6 0.000000 0.000000 0.000000 0.000000 0.000000 0.067646
#
#
# Mechanical properties :
#
#
# Convention : Reuss Voigt Hill
#
# Bulk Modulus (GPa) = 56.57133 59.72568 58.14850
# Shear Modulus (GPa) = 14.80213 20.96037 17.88125
#
# Velocity S-wave (km/s) = 2.85569 3.39820 3.13869
# Velocity P-wave (km/s) = 6.48385 6.94995 6.72094
#
# Compressibility (1/GPa) = 0.01767680
#
# Stress axis : x y z
#
# Youngs Moduli (GPa) = 43.11066 67.44861 28.99877
#
# Poissons Ratio (x) = -0.08795 0.61514
# Poissons Ratio (y) = -0.05622 0.21767
# Poissons Ratio (z) = 0.91449 0.50629
#
# Static dielectric constant tensor:
#      x y z
#    x 1.636530 0.000000 0.000000 
#    y 0.000000 1.619920 0.000000 
#    z 0.000000 0.000000 1.605710 
# 
# From -- ./inp_files/21407.got.cif
#   From: 2010.05.17/outbox.cif.g08.bks.cpg/sg40_11_cif.got.tgz:21407.got - 2010.06.03 18:35:42.
