data_PCOD9362462
_publ_section_title
;
Structure prediction by ZEFSAII (Michael W. Deem and Ramdas Pophale) SiO2 
 PCOD9362462
Probable space group: A M A 2
;
_chemical_formula_sum "Si O2"
_cell_formula_units_Z 24
_cell_length_a 5.595539
_cell_length_b 12.125916
_cell_length_c 14.534968
_cell_angle_alpha 90.000000
_cell_angle_beta 90.000000
_cell_angle_gamma 90.000000
_cell_volume 986.212635
_symmetry_space_group_name_H-M "A M A 2"
_symmetry_group_IT_number 40
_symmetry_cell_setting 'orthorhombic'
loop_
_space_group_symop_operation_xyz
x,y,z
-x,-y,z
1/2-x,y,z
1/2+x,-y,z
x,1/2+y,1/2+z
-x,1/2-y,1/2+z
1/2-x,1/2+y,1/2+z
1/2+x,1/2-y,1/2+z
loop_
_atom_site_type_symbol
_atom_site_label
_atom_site_fract_x
_atom_site_fract_y
_atom_site_fract_z
Si Si1 0.750000 0.526238 0.867520
Si Si2 0.250000 0.149607 0.538780
Si Si3 0.750000 0.743906 0.976406
Si Si4 0.750000 0.872713 0.754516
Si Si5 0.750000 0.621190 0.327056
Si Si6 0.250000 0.005471 0.014986
O O1 0.500000 0.500000 0.819609
O O2 0.750000 0.449220 0.962025
O O3 0.750000 0.653217 0.896060
O O4 0.499126 0.214467 0.525558
O O5 0.250000 0.118669 0.644969
O O6 0.750000 0.875288 0.964724
O O7 0.496776 0.824530 0.792343
O O8 0.750000 0.999878 0.784302
O O9 0.750000 0.588318 0.435119
O O10 0.500000 0.000000 0.067044
#
# Coordination Sequence:
#
# PCOD9362462 Si02
#       6
#     4   4   4   4   4   4
#     4   8  16  27  42  66  97 126 154 194 264 308
#     4  10  19  31  49  78 109 133 160 219 283 328
#     4  10  21  31  48  72 101 149 175 206 260 322
#     4  10  18  28  49  73 102 131 163 207 272 333
#     4  10  19  29  46  75  94 148 162 201 267 314
#     4  12  21  38  50  68 109 151 194 213 242 315
#
# _framework density 24.335522000000001
#
# number of rings (size 3 to 8) (size 9 to 14) (size 15 to 20)
#    0.000    2.000    3.333    2.000   14.000    0.000 
#    0.000    0.000    0.000    0.000    0.000    0.000 
#    0.000   24.000    0.000    0.000    0.000    0.000 
#
# Total GULP energy -66931.835255 kJ/mol
# GULP energy per Si atom -5577.652938 kJ/mol
# Density = 2.428013 g / cm^3
# Si number density = 24.335522 Si / 1000 Ang^3
#
#
#
# Elastic Constant Matrix: (Units=GPa)
#
#
# Indices 1 2 3 4 5 6 
#
# 1 300.7667 29.0286 26.0888 0.0000 0.0000 0.0000
# 2 29.0286 56.6527 23.7862 0.0000 0.0000 0.0000
# 3 26.0888 23.7862 45.3504 0.0000 0.0000 0.0000
# 4 0.0000 0.0000 0.0000 5.0050 0.0000 0.0000
# 5 0.0000 0.0000 0.0000 0.0000 15.8956 0.0000
# 6 0.0000 0.0000 0.0000 0.0000 0.0000 37.9909
#
#
#
# Elastic Compliance Matrix: (Units=1/GPa)
#
#
# Indices 1 2 3 4 5 6 
#
# 1 0.003566 -0.001239 -0.001402 0.000000 0.000000 0.000000
# 2 -0.001239 0.023067 -0.011386 0.000000 0.000000 0.000000
# 3 -0.001402 -0.011386 0.028829 0.000000 0.000000 0.000000
# 4 0.000000 0.000000 0.000000 0.199802 0.000000 0.000000
# 5 0.000000 0.000000 0.000000 0.000000 0.062910 0.000000
# 6 0.000000 0.000000 0.000000 0.000000 0.000000 0.026322
#
#
# Mechanical properties :
#
#
# Convention : Reuss Voigt Hill
#
# Bulk Modulus (GPa) = 36.48453 62.28634 49.38544
# Shear Modulus (GPa) = 13.09982 33.36936 23.23459
#
# Velocity S-wave (km/s) = 2.32265 3.70702 3.09327
# Velocity P-wave (km/s) = 4.71357 6.63122 5.75286
#
# Compressibility (1/GPa) = 0.02740887
#
# Stress axis : x y z
#
# Youngs Moduli (GPa) = 280.42838 43.35285 34.68759
#
# Poissons Ratio (x) = 0.05370 0.04862
# Poissons Ratio (y) = 0.34736 0.39495
# Poissons Ratio (z) = 0.39308 0.49361
#
# Static dielectric constant tensor:
#      x y z
#    x 2.117200 0.000000 0.000000 
#    y 0.000000 1.917200 0.000000 
#    z 0.000000 0.000000 1.903660 
# 
# From -- ./inp_files/14454.got.cif
#   From: 2010.05.17/outbox.cif.g08.bks.cpg/sg40_8_cif.got.tgz:14454.got - 2010.06.03 18:35:42.
