data_PCOD9362084
_publ_section_title
;
Structure prediction by ZEFSAII (Michael W. Deem and Ramdas Pophale) SiO2 
 PCOD9362084
Probable space group: A B M 2
;
_chemical_formula_sum "Si O2"
_cell_formula_units_Z 40
_cell_length_a 5.237095
_cell_length_b 29.888015
_cell_length_c 10.365517
_cell_angle_alpha 90.000000
_cell_angle_beta 90.000000
_cell_angle_gamma 90.000000
_cell_volume 1622.476790
_symmetry_space_group_name_H-M "A B M 2"
_symmetry_group_IT_number 39
_symmetry_cell_setting 'orthorhombic'
loop_
_space_group_symop_operation_xyz
x,y,z
-x,-y,z
-x,1/2+y,z
x,1/2-y,z
x,1/2+y,1/2+z
-x,1/2-y,1/2+z
-x,y,1/2+z
x,-y,1/2+z
loop_
_atom_site_type_symbol
_atom_site_label
_atom_site_fract_x
_atom_site_fract_y
_atom_site_fract_z
Si Si1 0.532849 0.413765 0.808070
Si Si2 0.478110 0.321968 0.940611
Si Si3 0.788293 0.701937 0.690351
Si Si4 0.983932 0.549922 0.925816
Si Si5 0.134608 0.370928 0.109798
O O1 0.564252 0.371751 0.903497
O O2 0.767796 0.446077 0.836940
O O3 0.606344 0.390840 0.672655
O O4 0.266898 0.437600 0.840842
O O5 0.421382 0.298869 0.804841
O O6 0.655468 0.301156 0.050011
O O7 0.209199 0.331726 0.010774
O O8 0.926025 0.750000 0.700541
O O9 0.954965 0.656533 0.707664
O O10 0.000000 0.500000 0.980482
O O11 0.988198 0.587216 0.037577
#
# Coordination Sequence:
#
# PCOD9362084 Si02
#       5
#     8   8   8   8   8
#     4  11  23  45  74 107 153 206 254 316 394 466
#     4  11  24  47  71 106 151 203 260 328 396 469
#     4  12  26  45  74 112 154 211 272 331 395 478
#     4  11  25  45  76 115 155 200 264 322 390 474
#     4  11  24  46  74 103 158 209 260 326 405 469
#
# _framework density 24.653666000000001
#
# number of rings (size 3 to 8) (size 9 to 14) (size 15 to 20)
#    0.000    0.800    4.000    3.600    0.000    2.400 
#    0.000    6.000    0.000    0.000    0.000    0.000 
#    0.000    0.000    0.000    0.000    0.000    0.000 
#
# Total GULP energy -111734.958988 kJ/mol
# GULP energy per Si atom -5586.747949 kJ/mol
# Density = 2.459755 g / cm^3
# Si number density = 24.653666 Si / 1000 Ang^3
#
#
#
# Elastic Constant Matrix: (Units=GPa)
#
#
# Indices 1 2 3 4 5 6 
#
# 1 106.3274 51.0164 25.2574 0.0000 0.0000 0.0000
# 2 51.0164 140.0846 4.6862 0.0000 0.0000 0.0000
# 3 25.2574 4.6862 89.0391 0.0000 0.0000 0.0000
# 4 0.0000 0.0000 0.0000 48.2018 0.0000 0.0000
# 5 0.0000 0.0000 0.0000 0.0000 37.6775 0.0000
# 6 0.0000 0.0000 0.0000 0.0000 0.0000 14.5020
#
#
#
# Elastic Compliance Matrix: (Units=1/GPa)
#
#
# Indices 1 2 3 4 5 6 
#
# 1 0.012269 -0.004359 -0.003251 0.000000 0.000000 0.000000
# 2 -0.004359 0.008700 0.000779 0.000000 0.000000 0.000000
# 3 -0.003251 0.000779 0.012112 0.000000 0.000000 0.000000
# 4 0.000000 0.000000 0.000000 0.020746 0.000000 0.000000
# 5 0.000000 0.000000 0.000000 0.000000 0.026541 0.000000
# 6 0.000000 0.000000 0.000000 0.000000 0.000000 0.068956
#
#
# Mechanical properties :
#
#
# Convention : Reuss Voigt Hill
#
# Bulk Modulus (GPa) = 51.49813 55.26345 53.38079
# Shear Modulus (GPa) = 29.50556 37.04234 33.27395
#
# Velocity S-wave (km/s) = 3.46324 3.88043 3.67775
# Velocity P-wave (km/s) = 6.07668 6.52239 6.30347
#
# Compressibility (1/GPa) = 0.01941818
#
# Stress axis : x y z
#
# Youngs Moduli (GPa) = 81.50797 114.94143 82.56148
#
# Poissons Ratio (x) = 0.50107 0.26839
# Poissons Ratio (y) = 0.35532 -0.06429
# Poissons Ratio (z) = 0.26497 -0.08951
#
# Static dielectric constant tensor:
#      x y z
#    x 2.046010 0.000000 0.000000 
#    y 0.000000 1.709040 0.000000 
#    z 0.000000 0.000000 2.069040 
# 
# From -- ./inp_files/4601.got.cif
#   From: 2010.05.17/outbox.cif.g08.bks.cpg/sg39_3_cif.got.tgz:4601.got - 2010.06.03 18:22:40.
