data_PCOD9362653
_publ_section_title
;
Structure prediction by ZEFSAII (Michael W. Deem and Ramdas Pophale) SiO2 
 PCOD9362653
Probable space group: A M A 2
;
_chemical_formula_sum "Si O2"
_cell_formula_units_Z 52
_cell_length_a 9.439228
_cell_length_b 21.344759
_cell_length_c 14.434981
_cell_angle_alpha 90.000000
_cell_angle_beta 90.000000
_cell_angle_gamma 90.000000
_cell_volume 2908.331778
_symmetry_space_group_name_H-M "A M A 2"
_symmetry_group_IT_number 40
_symmetry_cell_setting 'orthorhombic'
loop_
_space_group_symop_operation_xyz
x,y,z
-x,-y,z
1/2-x,y,z
1/2+x,-y,z
x,1/2+y,1/2+z
-x,1/2-y,1/2+z
1/2-x,1/2+y,1/2+z
1/2+x,1/2-y,1/2+z
loop_
_atom_site_type_symbol
_atom_site_label
_atom_site_fract_x
_atom_site_fract_y
_atom_site_fract_z
Si Si1 0.078839 0.935344 0.574710
Si Si2 0.578748 0.655694 0.909573
Si Si3 0.410360 0.602617 0.560155
Si Si4 0.080145 0.701386 0.405403
Si Si5 0.000000 0.500000 0.417788
Si Si6 0.420269 0.434983 0.739586
Si Si7 0.411407 0.892951 0.781370
O O1 0.250000 0.943791 0.569580
O O2 0.035319 0.882933 0.500361
O O3 0.043613 0.914022 0.679062
O O4 0.000000 0.000000 0.553963
O O5 0.750000 0.659013 0.913063
O O6 0.528215 0.727228 0.907068
O O7 0.543715 0.615718 0.818444
O O8 0.250000 0.607758 0.597009
O O9 0.447278 0.664644 0.501603
O O10 0.414145 0.545725 0.486024
O O11 0.520445 0.588299 0.641020
O O12 0.250000 0.700457 0.392570
O O13 0.008285 0.660538 0.325362
O O14 0.082175 0.452742 0.350049
O O15 0.500000 0.500000 0.760377
O O16 0.250000 0.443781 0.736888
O O17 0.250000 0.870480 0.775968
#
# Coordination Sequence:
#
# PCOD9362653 Si02
#       7
#     8   8   8   8   4   8   8
#     4  10  20  36  58  83 110 142 181 226 274 323
#     4   9  20  39  58  77 109 150 185 221 270 323
#     4  10  20  33  55  83 110 142 179 223 271 325
#     4   9  20  38  57  79 110 149 184 218 269 331
#     4  10  18  32  54  80 112 146 172 216 272 330
#     4  11  22  36  57  82 110 144 184 228 271 321
#     4  10  20  33  55  86 113 140 179 227 273 321
#
# _framework density 17.879664999999999
#
# number of rings (size 3 to 8) (size 9 to 14) (size 15 to 20)
#    0.000    2.154    1.538    1.385    0.000    4.923 
#    0.000    4.615    0.000    0.000    0.000    0.000 
#    0.000    0.000    0.000    0.000    0.000    0.000 
#
# Total GULP energy -145027.698178 kJ/mol
# GULP energy per Si atom -5577.988391 kJ/mol
# Density = 1.783897 g / cm^3
# Si number density = 17.879665 Si / 1000 Ang^3
#
#
#
# Elastic Constant Matrix: (Units=GPa)
#
#
# Indices 1 2 3 4 5 6 
#
# 1 40.8661 44.9085 30.0679 0.0000 0.0000 0.0000
# 2 44.9085 173.7241 74.1014 0.0000 0.0000 0.0000
# 3 30.0679 74.1014 107.6282 0.0000 0.0000 0.0000
# 4 0.0000 0.0000 0.0000 11.7233 0.0000 0.0000
# 5 0.0000 0.0000 0.0000 0.0000 17.3628 0.0000
# 6 0.0000 0.0000 0.0000 0.0000 0.0000 21.6414
#
#
#
# Elastic Compliance Matrix: (Units=1/GPa)
#
#
# Indices 1 2 3 4 5 6 
#
# 1 0.036113 -0.007124 -0.005184 0.000000 0.000000 0.000000
# 2 -0.007124 0.009555 -0.004588 0.000000 0.000000 0.000000
# 3 -0.005184 -0.004588 0.013898 0.000000 0.000000 0.000000
# 4 0.000000 0.000000 0.000000 0.085300 0.000000 0.000000
# 5 0.000000 0.000000 0.000000 0.000000 0.057594 0.000000
# 6 0.000000 0.000000 0.000000 0.000000 0.000000 0.046208
#
#
# Mechanical properties :
#
#
# Convention : Reuss Voigt Hill
#
# Bulk Modulus (GPa) = 38.79892 68.93043 53.86468
# Shear Modulus (GPa) = 17.17900 21.68821 19.43360
#
# Velocity S-wave (km/s) = 3.10306 3.48661 3.30041
# Velocity P-wave (km/s) = 5.88097 7.40572 6.68695
#
# Compressibility (1/GPa) = 0.02577391
#
# Stress axis : x y z
#
# Youngs Moduli (GPa) = 27.69059 104.65683 71.95041
#
# Poissons Ratio (x) = 0.74561 0.37298
# Poissons Ratio (y) = 0.19728 0.33013
# Poissons Ratio (z) = 0.14354 0.48019
#
# Static dielectric constant tensor:
#      x y z
#    x 1.613670 0.000000 0.000000 
#    y 0.000000 1.605250 0.000000 
#    z 0.000000 0.000000 1.599680 
# 
# From -- ./inp_files/15232.got.cif
#   From: 2010.05.17/outbox.cif.g08.bks.cpg/sg40_8_cif.got.tgz:15232.got - 2010.06.03 18:35:42.
