data_PCOD9362679
_publ_section_title
;
Structure prediction by ZEFSAII (Michael W. Deem and Ramdas Pophale) SiO2 
 PCOD9362679
Probable space group: A M A 2
;
_chemical_formula_sum "Si O2"
_cell_formula_units_Z 64
_cell_length_a 16.943142
_cell_length_b 16.720612
_cell_length_c 12.629490
_cell_angle_alpha 90.000000
_cell_angle_beta 90.000000
_cell_angle_gamma 90.000000
_cell_volume 3577.930772
_symmetry_space_group_name_H-M "A M A 2"
_symmetry_group_IT_number 40
_symmetry_cell_setting 'orthorhombic'
loop_
_space_group_symop_operation_xyz
x,y,z
-x,-y,z
1/2-x,y,z
1/2+x,-y,z
x,1/2+y,1/2+z
-x,1/2-y,1/2+z
1/2-x,1/2+y,1/2+z
1/2+x,1/2-y,1/2+z
loop_
_atom_site_type_symbol
_atom_site_label
_atom_site_fract_x
_atom_site_fract_y
_atom_site_fract_z
Si Si1 0.345572 0.147674 0.321840
Si Si2 0.345016 0.236699 0.671612
Si Si3 0.094950 0.089514 0.549783
Si Si4 0.345023 0.349281 0.854322
Si Si5 0.845999 0.006153 0.199209
Si Si6 0.653957 0.618620 0.516367
Si Si7 0.093011 0.407453 0.070712
Si Si8 0.845622 0.668416 0.285441
O O1 0.250000 0.145083 0.328666
O O2 0.378341 0.122669 0.435967
O O3 0.367649 0.238012 0.293508
O O4 0.371928 0.081382 0.236080
O O5 0.250000 0.235707 0.671865
O O6 0.373949 0.149945 0.638915
O O7 0.371448 0.273687 0.783799
O O8 0.368901 0.301618 0.581834
O O9 0.000857 0.089451 0.558402
O O10 0.124157 0.998522 0.561371
O O11 0.250000 0.348623 0.855880
O O12 0.369080 0.428971 0.788836
O O13 0.374977 0.355785 0.972810
O O14 0.750000 0.005275 0.197148
O O15 0.872026 0.042674 0.086658
O O16 0.750000 0.617985 0.515890
O O17 0.629009 0.625864 0.395026
O O18 0.117870 0.371068 0.182257
O O19 0.750000 0.664113 0.278762
#
# Coordination Sequence:
#
# PCOD9362679 Si02
#       8
#     8   8   8   8   8   8   8   8
#     4  10  18  32  58  85 105 134 180 231 273 320
#     4   9  17  32  56  81 101 130 181 230 264 313
#     4  11  22  36  53  77 107 149 188 221 256 324
#     4   9  17  32  55  81 108 135 170 224 278 316
#     4   8  14  26  51  83 107 126 161 219 273 310
#     4   8  14  28  51  80 104 127 166 217 268 313
#     4  11  24  36  49  78 114 151 179 216 274 320
#     4  10  20  34  54  79 109 142 179 221 268 327
#
# _framework density 17.887433000000001
#
# number of rings (size 3 to 8) (size 9 to 14) (size 15 to 20)
#    0.000    2.500    2.500    2.250    0.000    2.500 
#    0.000    1.250    0.000    3.000    0.000    0.000 
#    0.000    0.000    0.000    0.000    0.000    0.000 
#
# Total GULP energy -178395.517200 kJ/mol
# GULP energy per Si atom -5574.859913 kJ/mol
# Density = 1.784672 g / cm^3
# Si number density = 17.887433 Si / 1000 Ang^3
#
#
#
# Elastic Constant Matrix: (Units=GPa)
#
#
# Indices 1 2 3 4 5 6 
#
# 1 8.8928 16.2601 17.8587 0.0000 0.0000 0.0000
# 2 16.2601 103.7168 73.8600 0.0000 0.0000 0.0000
# 3 17.8587 73.8600 155.1347 0.0000 0.0000 0.0000
# 4 0.0000 0.0000 0.0000 32.8866 0.0000 0.0000
# 5 0.0000 0.0000 0.0000 0.0000 -2.1582 0.0000
# 6 0.0000 0.0000 0.0000 0.0000 0.0000 15.1326
#
#
#
# Elastic Compliance Matrix: (Units=1/GPa)
#
#
# Indices 1 2 3 4 5 6 
#
# 1 0.167811 -0.018990 -0.010277 0.000000 0.000000 0.000000
# 2 -0.018990 0.016736 -0.005782 0.000000 0.000000 0.000000
# 3 -0.010277 -0.005782 0.010382 0.000000 0.000000 0.000000
# 4 0.000000 0.000000 0.000000 0.030408 0.000000 0.000000
# 5 0.000000 0.000000 0.000000 0.000000 -0.463349 0.000000
# 6 0.000000 0.000000 0.000000 0.000000 0.000000 0.066083
#
#
# Mechanical properties :
#
#
# Convention : Reuss Voigt Hill
#
# Bulk Modulus (GPa) = 8.01081 53.74465 30.87773
# Shear Modulus (GPa) = -83.02713 19.82322 -31.60196
#
# Velocity S-wave (km/s) = -6.82035 3.33261 -4.20779
# Velocity P-wave (km/s) = 7.58517 6.70221 2.51149
#
# Compressibility (1/GPa) = 0.12483129
#
# Stress axis : x y z
#
# Youngs Moduli (GPa) = 5.95909 59.74981 96.32093
#
# Poissons Ratio (x) = 1.13465 0.98987
# Poissons Ratio (y) = 0.11316 0.55695
# Poissons Ratio (z) = 0.06124 0.34548
#
# Static dielectric constant tensor:
#      x y z
#    x 1.601080 0.000000 0.000000 
#    y 0.000000 1.620720 0.000000 
#    z 0.000000 0.000000 1.603240 
# 
# From -- ./inp_files/12444.got.cif
#   From: 2010.05.17/outbox.cif.g08.bks.cpg/sg40_7_cif.got.tgz:12444.got - 2010.06.03 18:35:42.
