data_PCOD9362338
_publ_section_title
;
Structure prediction by ZEFSAII (Michael W. Deem and Ramdas Pophale) SiO2 
 PCOD9362338
Probable space group: A M A 2
;
_chemical_formula_sum "Si O2"
_cell_formula_units_Z 64
_cell_length_a 18.258811
_cell_length_b 12.264380
_cell_length_c 15.975333
_cell_angle_alpha 90.000000
_cell_angle_beta 90.000000
_cell_angle_gamma 90.000000
_cell_volume 3577.404188
_symmetry_space_group_name_H-M "A M A 2"
_symmetry_group_IT_number 40
_symmetry_cell_setting 'orthorhombic'
loop_
_space_group_symop_operation_xyz
x,y,z
-x,-y,z
1/2-x,y,z
1/2+x,-y,z
x,1/2+y,1/2+z
-x,1/2-y,1/2+z
1/2-x,1/2+y,1/2+z
1/2+x,1/2-y,1/2+z
loop_
_atom_site_type_symbol
_atom_site_label
_atom_site_fract_x
_atom_site_fract_y
_atom_site_fract_z
Si Si1 0.167128 0.683588 0.721320
Si Si2 0.662435 0.213862 0.367201
Si Si3 0.450202 0.805057 0.111789
Si Si4 0.076949 0.967563 0.267050
Si Si5 0.384455 0.193408 0.041744
Si Si6 0.085436 0.462948 0.476323
Si Si7 0.583791 0.372826 0.239362
Si Si8 0.085744 0.393824 0.287553
O O1 0.250000 0.667128 0.749689
O O2 0.120027 0.574735 0.737711
O O3 0.164893 0.710036 0.622673
O O4 0.129727 0.786285 0.765665
O O5 0.750000 0.208786 0.368091
O O6 0.632404 0.234754 0.460581
O O7 0.635139 0.311661 0.306137
O O8 0.626810 0.106484 0.326320
O O9 0.532681 0.790691 0.077115
O O10 0.419649 0.695415 0.153613
O O11 0.446400 0.894229 0.186621
O O12 0.405507 0.859332 0.036317
O O13 0.000000 0.000000 0.308886
O O14 0.373948 0.068776 0.010885
O O15 0.101453 0.432205 0.381643
O O16 0.000000 0.500000 0.479733
O O17 0.500884 0.369516 0.276618
O O18 0.602792 0.500028 0.231050
#
# Coordination Sequence:
#
# PCOD9362338 Si02
#       8
#     8   8   8   8   8   8   8   8
#     4  12  24  38  59  87 124 162 195 242 308 371
#     4  11  23  37  58  90 125 158 194 248 310 364
#     4  10  18  33  64  93 113 144 203 262 294 337
#     4  11  20  40  64  89 117 154 205 256 297 351
#     4  11  19  37  58  89 119 153 194 244 301 355
#     4  10  17  31  59  89 112 144 196 257 290 333
#     4  10  19  36  60  84 117 157 201 249 293 352
#     4  11  20  37  57  86 119 156 202 247 298 350
#
# _framework density 17.890066999999998
#
# number of rings (size 3 to 8) (size 9 to 14) (size 15 to 20)
#    0.000    1.250    6.250    2.625    0.000    0.500 
#    0.000    2.500    0.000    0.000    0.000    0.000 
#    0.000    0.000    0.000    0.000    0.000    0.000 
#
# Total GULP energy -178585.863976 kJ/mol
# GULP energy per Si atom -5580.808249 kJ/mol
# Density = 1.784935 g / cm^3
# Si number density = 17.890067 Si / 1000 Ang^3
#
#
#
# Elastic Constant Matrix: (Units=GPa)
#
#
# Indices 1 2 3 4 5 6 
#
# 1 86.0736 40.5463 29.2642 0.0000 0.0000 0.0000
# 2 40.5463 100.6851 48.7226 0.0000 0.0000 0.0000
# 3 29.2642 48.7226 95.2576 0.0000 0.0000 0.0000
# 4 0.0000 0.0000 0.0000 29.7066 0.0000 0.0000
# 5 0.0000 0.0000 0.0000 0.0000 11.2967 0.0000
# 6 0.0000 0.0000 0.0000 0.0000 0.0000 13.7645
#
#
#
# Elastic Compliance Matrix: (Units=1/GPa)
#
#
# Indices 1 2 3 4 5 6 
#
# 1 0.014610 -0.004932 -0.001965 0.000000 0.000000 0.000000
# 2 -0.004932 0.014864 -0.006087 0.000000 0.000000 0.000000
# 3 -0.001965 -0.006087 0.014215 0.000000 0.000000 0.000000
# 4 0.000000 0.000000 0.000000 0.033663 0.000000 0.000000
# 5 0.000000 0.000000 0.000000 0.000000 0.088521 0.000000
# 6 0.000000 0.000000 0.000000 0.000000 0.000000 0.072650
#
#
# Mechanical properties :
#
#
# Convention : Reuss Voigt Hill
#
# Bulk Modulus (GPa) = 56.43795 57.67584 57.05689
# Shear Modulus (GPa) = 18.49116 21.85245 20.17180
#
# Velocity S-wave (km/s) = 3.21845 3.49877 3.36153
# Velocity P-wave (km/s) = 6.73994 6.97358 6.85776
#
# Compressibility (1/GPa) = 0.01771857
#
# Stress axis : x y z
#
# Youngs Moduli (GPa) = 68.44808 67.27690 70.34690
#
# Poissons Ratio (x) = 0.33183 0.13827
# Poissons Ratio (y) = 0.33760 0.42823
# Poissons Ratio (z) = 0.13453 0.40954
#
# Static dielectric constant tensor:
#      x y z
#    x 1.624820 0.000000 0.000000 
#    y 0.000000 1.621260 0.000000 
#    z 0.000000 0.000000 1.600360 
# 
# From -- ./inp_files/21228.got.cif
#   From: 2010.05.17/outbox.cif.g08.bks.cpg/sg40_11_cif.got.tgz:21228.got - 2010.06.03 18:35:42.
