data_PCOD9362467
_publ_section_title
;
Structure prediction by ZEFSAII (Michael W. Deem and Ramdas Pophale) SiO2 
 PCOD9362467
Probable space group: A M A 2
;
_chemical_formula_sum "Si O2"
_cell_formula_units_Z 64
_cell_length_a 8.604245
_cell_length_b 19.253520
_cell_length_c 21.906918
_cell_angle_alpha 90.000000
_cell_angle_beta 90.000000
_cell_angle_gamma 90.000000
_cell_volume 3629.143920
_symmetry_space_group_name_H-M "A M A 2"
_symmetry_group_IT_number 40
_symmetry_cell_setting 'orthorhombic'
loop_
_space_group_symop_operation_xyz
x,y,z
-x,-y,z
1/2-x,y,z
1/2+x,-y,z
x,1/2+y,1/2+z
-x,1/2-y,1/2+z
1/2-x,1/2+y,1/2+z
1/2+x,1/2-y,1/2+z
loop_
_atom_site_type_symbol
_atom_site_label
_atom_site_fract_x
_atom_site_fract_y
_atom_site_fract_z
Si Si1 0.069435 0.178798 0.925640
Si Si2 0.570670 0.072689 0.839098
Si Si3 0.927820 0.573533 0.191892
Si Si4 0.437419 0.283869 0.830860
Si Si5 0.062675 0.869785 0.157241
Si Si6 0.561696 0.726522 0.202655
Si Si7 0.064475 0.574465 0.783842
Si Si8 0.934884 0.075849 0.024671
O O1 0.250000 0.184410 0.941443
O O2 0.014220 0.251299 0.896101
O O3 0.041574 0.129394 0.867303
O O4 0.985539 0.137969 0.979784
O O5 0.750000 0.082437 0.859205
O O6 0.570954 0.072812 0.765948
O O7 0.500000 0.000000 0.859725
O O8 0.750000 0.573319 0.170933
O O9 0.993932 0.650742 0.179124
O O10 0.000000 0.500000 0.171864
O O11 0.250000 0.279861 0.826505
O O12 0.507853 0.242840 0.772241
O O13 0.493918 0.362363 0.822609
O O14 0.250000 0.870565 0.162360
O O15 0.015607 0.904046 0.093356
O O16 0.003066 0.790664 0.163520
O O17 0.990873 0.910460 0.214493
O O18 0.750000 0.726613 0.202501
O O19 0.250000 0.576267 0.786153
O O20 0.000000 0.500000 0.802998
O O21 0.750000 0.071020 0.023531
O O22 0.000000 0.000000 0.007715
#
# Coordination Sequence:
#
# PCOD9362467 Si02
#       8
#     8   8   8   8   8   8   8   8
#     4  11  22  34  50  71  99 135 173 211 254 298
#     4  10  18  29  43  62  93 129 168 205 241 290
#     4   9  18  28  42  66  96 130 166 202 245 297
#     4  10  20  33  50  74 102 133 169 209 254 310
#     4  10  21  36  54  77 102 135 176 218 262 309
#     4  10  18  31  50  74 101 133 170 212 261 311
#     4  11  21  34  55  80 107 137 167 209 260 311
#     4  11  24  39  55  74 102 138 180 220 257 302
#
# _framework density 17.635013000000001
#
# number of rings (size 3 to 8) (size 9 to 14) (size 15 to 20)
#    0.000    1.750    1.250    5.625    0.000    6.000 
#    0.000    0.000    0.000    0.000    0.000    0.875 
#    0.000    4.000    0.000    0.000    0.000    0.125 
#
# Total GULP energy -178445.084919 kJ/mol
# GULP energy per Si atom -5576.408904 kJ/mol
# Density = 1.759487 g / cm^3
# Si number density = 17.635013 Si / 1000 Ang^3
#
#
#
# Elastic Constant Matrix: (Units=GPa)
#
#
# Indices 1 2 3 4 5 6 
#
# 1 50.9191 20.5424 14.8582 0.0000 0.0000 0.0000
# 2 20.5424 128.8160 28.6701 0.0000 0.0000 0.0000
# 3 14.8582 28.6701 58.5178 0.0000 0.0000 0.0000
# 4 0.0000 0.0000 0.0000 7.3457 0.0000 0.0000
# 5 0.0000 0.0000 0.0000 0.0000 -1.8536 0.0000
# 6 0.0000 0.0000 0.0000 0.0000 0.0000 13.4595
#
#
#
# Elastic Compliance Matrix: (Units=1/GPa)
#
#
# Indices 1 2 3 4 5 6 
#
# 1 0.021923 -0.002533 -0.004325 0.000000 0.000000 0.000000
# 2 -0.002533 0.009006 -0.003769 0.000000 0.000000 0.000000
# 3 -0.004325 -0.003769 0.020034 0.000000 0.000000 0.000000
# 4 0.000000 0.000000 0.000000 0.136135 0.000000 0.000000
# 5 0.000000 0.000000 0.000000 0.000000 -0.539499 0.000000
# 6 0.000000 0.000000 0.000000 0.000000 0.000000 0.074297
#
#
# Mechanical properties :
#
#
# Convention : Reuss Voigt Hill
#
# Bulk Modulus (GPa) = 33.66192 40.71048 37.18620
# Shear Modulus (GPa) = -20.24723 15.40247 -2.42238
#
# Velocity S-wave (km/s) = -3.39208 2.95855 -1.17329
# Velocity P-wave (km/s) = 1.94627 5.89964 4.39282
#
# Compressibility (1/GPa) = 0.02970716
#
# Stress axis : x y z
#
# Youngs Moduli (GPa) = 45.61381 111.03853 49.91606
#
# Poissons Ratio (x) = 0.28131 0.21590
# Poissons Ratio (y) = 0.11556 0.18814
# Poissons Ratio (z) = 0.19729 0.41851
#
# Static dielectric constant tensor:
#      x y z
#    x 1.608520 0.000000 0.000000 
#    y 0.000000 1.658190 0.000000 
#    z 0.000000 0.000000 1.597060 
# 
# From -- ./inp_files/24393.got.cif
#   From: 2010.05.17/outbox.cif.g08.bks.cpg/sg40_13_cif.got.tgz:24393.got - 2010.06.03 18:35:42.
