data_PCOD9362833
_publ_section_title
;
Structure prediction by ZEFSAII (Michael W. Deem and Ramdas Pophale) SiO2 
 PCOD9362833
Probable space group: A M A 2
;
_chemical_formula_sum "Si O2"
_cell_formula_units_Z 64
_cell_length_a 27.898385
_cell_length_b 18.879376
_cell_length_c 5.555875
_cell_angle_alpha 90.000000
_cell_angle_beta 90.000000
_cell_angle_gamma 90.000000
_cell_volume 2926.302143
_symmetry_space_group_name_H-M "A M A 2"
_symmetry_group_IT_number 40
_symmetry_cell_setting 'orthorhombic'
loop_
_space_group_symop_operation_xyz
x,y,z
-x,-y,z
1/2-x,y,z
1/2+x,-y,z
x,1/2+y,1/2+z
-x,1/2-y,1/2+z
1/2-x,1/2+y,1/2+z
1/2+x,1/2-y,1/2+z
loop_
_atom_site_type_symbol
_atom_site_label
_atom_site_fract_x
_atom_site_fract_y
_atom_site_fract_z
Si Si1 0.503852 0.293305 0.939890
Si Si2 0.141049 0.983597 0.463915
Si Si3 0.901862 0.377474 0.002557
Si Si4 0.802846 0.320506 0.770077
Si Si5 0.833459 0.679528 0.473654
Si Si6 0.361017 0.709766 0.376458
Si Si7 0.906741 0.158802 0.604533
Si Si8 0.304154 0.478211 0.470146
O O1 0.490710 0.257523 0.679957
O O2 0.553096 0.335847 0.900916
O O3 0.461681 0.345497 0.031561
O O4 0.097409 0.038846 0.478023
O O5 0.122944 0.902594 0.470101
O O6 0.171144 0.994247 0.712024
O O7 0.168924 0.999943 0.216133
O O8 0.849494 0.352813 0.900767
O O9 0.896177 0.349101 0.272638
O O10 0.750000 0.344186 0.841478
O O11 0.806883 0.234786 0.796432
O O12 0.816178 0.330550 0.492172
O O13 0.840636 0.730778 0.697541
O O14 0.804752 0.607616 0.494130
O O15 0.886141 0.655817 0.376013
O O16 0.392787 0.760547 0.542205
O O17 0.250000 0.504746 0.470584
#
# Coordination Sequence:
#
# PCOD9362833 Si02
#       8
#     8   8   8   8   8   8   8   8
#     4  12  25  42  75 105 132 175 226 279 341 412
#     4  11  26  43  66  95 140 180 222 283 340 405
#     4  11  26  43  63  96 139 172 228 281 339 398
#     4  10  22  37  61  93 129 174 223 278 341 397
#     4   9  19  37  62  95 129 167 216 288 331 393
#     4  10  18  39  63  88 128 167 216 281 336 394
#     4  10  21  41  67  96 132 172 222 273 347 403
#     4  11  23  42  67  96 131 183 233 276 333 405
#
# _framework density 21.870605000000001
#
# number of rings (size 3 to 8) (size 9 to 14) (size 15 to 20)
#    0.000    1.500    2.500    3.000    1.750    4.000 
#    0.000    0.000    0.000    3.000    0.000    0.000 
#    0.000    0.000    0.000    0.000    0.000    0.000 
#
# Total GULP energy -178229.114034 kJ/mol
# GULP energy per Si atom -5569.659814 kJ/mol
# Density = 2.182083 g / cm^3
# Si number density = 21.870605 Si / 1000 Ang^3
#
#
#
# Elastic Constant Matrix: (Units=GPa)
#
#
# Indices 1 2 3 4 5 6 
#
# 1 123.4257 16.3546 29.9601 0.0000 0.0000 0.0000
# 2 16.3546 62.9861 16.0023 0.0000 0.0000 0.0000
# 3 29.9601 16.0023 91.5144 0.0000 0.0000 0.0000
# 4 0.0000 0.0000 0.0000 21.5608 0.0000 0.0000
# 5 0.0000 0.0000 0.0000 0.0000 23.6511 0.0000
# 6 0.0000 0.0000 0.0000 0.0000 0.0000 21.0938
#
#
#
# Elastic Compliance Matrix: (Units=1/GPa)
#
#
# Indices 1 2 3 4 5 6 
#
# 1 0.008963 -0.001655 -0.002645 0.000000 0.000000 0.000000
# 2 -0.001655 0.016920 -0.002417 0.000000 0.000000 0.000000
# 3 -0.002645 -0.002417 0.012216 0.000000 0.000000 0.000000
# 4 0.000000 0.000000 0.000000 0.046380 0.000000 0.000000
# 5 0.000000 0.000000 0.000000 0.000000 0.042281 0.000000
# 6 0.000000 0.000000 0.000000 0.000000 0.000000 0.047407
#
#
# Mechanical properties :
#
#
# Convention : Reuss Voigt Hill
#
# Bulk Modulus (GPa) = 40.54291 44.72893 42.63592
# Shear Modulus (GPa) = 25.53303 27.63508 26.58406
#
# Velocity S-wave (km/s) = 3.42052 3.55853 3.49021
# Velocity P-wave (km/s) = 5.84618 6.11394 5.98155
#
# Compressibility (1/GPa) = 0.02466523
#
# Stress axis : x y z
#
# Youngs Moduli (GPa) = 111.56444 59.10039 81.86149
#
# Poissons Ratio (x) = 0.09784 0.21652
# Poissons Ratio (y) = 0.18468 0.19784
# Poissons Ratio (z) = 0.29509 0.14283
#
# Static dielectric constant tensor:
#      x y z
#    x 1.851040 0.000000 0.000000 
#    y 0.000000 1.805600 0.000000 
#    z 0.000000 0.000000 1.983530 
# 
# From -- ./inp_files/3234.got.cif
#   From: 2010.05.17/outbox.cif.g08.bks.cpg/sg40_2_cif.got.tgz:3234.got - 2010.06.03 18:35:42.
