data_PCOD9362163
_publ_section_title
;
Structure prediction by ZEFSAII (Michael W. Deem and Ramdas Pophale) SiO2 
 PCOD9362163
Probable space group: A B M 2
;
_chemical_formula_sum "Si O2"
_cell_formula_units_Z 24
_cell_length_a 8.594115
_cell_length_b 14.318634
_cell_length_c 8.029386
_cell_angle_alpha 90.000000
_cell_angle_beta 90.000000
_cell_angle_gamma 90.000000
_cell_volume 988.064021
_symmetry_space_group_name_H-M "A B M 2"
_symmetry_group_IT_number 39
_symmetry_cell_setting 'orthorhombic'
loop_
_space_group_symop_operation_xyz
x,y,z
-x,-y,z
-x,1/2+y,z
x,1/2-y,z
x,1/2+y,1/2+z
-x,1/2-y,1/2+z
-x,y,1/2+z
x,-y,1/2+z
loop_
_atom_site_type_symbol
_atom_site_label
_atom_site_fract_x
_atom_site_fract_y
_atom_site_fract_z
Si Si1 0.141459 0.563754 0.172010
Si Si2 0.939188 0.250000 0.374451
Si Si3 0.258689 0.750000 0.723465
Si Si4 0.646109 0.068460 0.873822
O O1 0.093371 0.656151 0.270819
O O2 0.215939 0.491834 0.298150
O O3 0.000000 0.500000 0.097581
O O4 0.283458 0.592440 0.052456
O O5 0.838428 0.250000 0.547297
O O6 0.127791 0.250000 0.371217
O O7 0.363405 0.841333 0.754861
O O8 0.500000 0.000000 0.885494
#
# Coordination Sequence:
#
# PCOD9362163 Si02
#       4
#     8   4   4   8
#     4  12  25  46  78 116 150 207 261 323 382 461
#     4  12  26  47  83 118 151 199 267 330 377 467
#     4  12  26  49  79 116 155 205 261 322 397 457
#     4  12  27  48  76 115 162 206 257 321 394 467
#
# _framework density 24.289923999999999
#
# number of rings (size 3 to 8) (size 9 to 14) (size 15 to 20)
#    0.000    0.000    3.333    7.000    0.000    1.333 
#    0.000    8.333    0.000    0.000    0.000    0.000 
#    0.000    0.000    0.000    0.000    0.000    0.000 
#
# Total GULP energy -67064.200176 kJ/mol
# GULP energy per Si atom -5588.683348 kJ/mol
# Density = 2.423464 g / cm^3
# Si number density = 24.289924 Si / 1000 Ang^3
#
#
#
# Elastic Constant Matrix: (Units=GPa)
#
#
# Indices 1 2 3 4 5 6 
#
# 1 132.3300 63.9103 48.4501 0.0000 0.0000 0.0000
# 2 63.9103 214.1847 46.7957 0.0000 0.0000 0.0000
# 3 48.4501 46.7957 94.3819 0.0000 0.0000 0.0000
# 4 0.0000 0.0000 0.0000 -21.7114 0.0000 0.0000
# 5 0.0000 0.0000 0.0000 0.0000 6.5708 0.0000
# 6 0.0000 0.0000 0.0000 0.0000 0.0000 43.5215
#
#
#
# Elastic Compliance Matrix: (Units=1/GPa)
#
#
# Indices 1 2 3 4 5 6 
#
# 1 0.010088 -0.002107 -0.004134 0.000000 0.000000 0.000000
# 2 -0.002107 0.005676 -0.001733 0.000000 0.000000 0.000000
# 3 -0.004134 -0.001733 0.013576 0.000000 0.000000 0.000000
# 4 0.000000 0.000000 0.000000 -0.046059 0.000000 0.000000
# 5 0.000000 0.000000 0.000000 0.000000 0.152187 0.000000
# 6 0.000000 0.000000 0.000000 0.000000 0.000000 0.022977
#
#
# Mechanical properties :
#
#
# Convention : Reuss Voigt Hill
#
# Bulk Modulus (GPa) = 74.66357 84.35653 79.51005
# Shear Modulus (GPa) = 27.95513 24.45889 26.20701
#
# Velocity S-wave (km/s) = 3.39616 3.17670 3.28826
# Velocity P-wave (km/s) = 6.79587 6.94692 6.87181
#
# Compressibility (1/GPa) = 0.01339341
#
# Stress axis : x y z
#
# Youngs Moduli (GPa) = 99.12767 176.17649 73.65686
#
# Poissons Ratio (x) = 0.37120 0.30449
# Poissons Ratio (y) = 0.20886 0.12763
# Poissons Ratio (z) = 0.40979 0.30526
#
# Static dielectric constant tensor:
#      x y z
#    x 2.061140 0.000000 0.000000 
#    y 0.000000 1.625790 0.000000 
#    z 0.000000 0.000000 2.013190 
# 
# From -- ./inp_files/1885.got.cif
#   From: 2010.05.17/outbox.cif.g08.bks.cpg/sg39_1_cif.got.tgz:1885.got - 2010.06.03 18:22:40.
