data_PCOD9362248
_publ_section_title
;
Structure prediction by ZEFSAII (Michael W. Deem and Ramdas Pophale) SiO2 
 PCOD9362248
Probable space group: A M A 2
;
_chemical_formula_sum "Si O2"
_cell_formula_units_Z 40
_cell_length_a 8.508388
_cell_length_b 7.839173
_cell_length_c 28.143624
_cell_angle_alpha 90.000000
_cell_angle_beta 90.000000
_cell_angle_gamma 90.000000
_cell_volume 1877.143851
_symmetry_space_group_name_H-M "A M A 2"
_symmetry_group_IT_number 40
_symmetry_cell_setting 'orthorhombic'
loop_
_space_group_symop_operation_xyz
x,y,z
-x,-y,z
1/2-x,y,z
1/2+x,-y,z
x,1/2+y,1/2+z
-x,1/2-y,1/2+z
1/2-x,1/2+y,1/2+z
1/2+x,1/2-y,1/2+z
loop_
_atom_site_type_symbol
_atom_site_label
_atom_site_fract_x
_atom_site_fract_y
_atom_site_fract_z
Si Si1 0.560985 0.303355 0.843370
Si Si2 0.061431 0.308539 0.549101
Si Si3 0.936993 0.303569 0.646674
Si Si4 0.436942 0.303904 0.745034
Si Si5 0.060561 0.691254 0.945559
O O1 0.500000 0.500000 0.844148
O O2 0.750000 0.305681 0.840289
O O3 0.493133 0.225232 0.794975
O O4 0.513236 0.226160 0.894814
O O5 0.250000 0.301168 0.550396
O O6 0.004148 0.252017 0.497055
O O7 0.000000 0.500000 0.552225
O O8 0.997363 0.222702 0.597314
O O9 0.750000 0.308041 0.646446
O O10 0.000000 0.500000 0.647422
O O11 0.997600 0.225685 0.696162
O O12 0.500000 0.500000 0.745879
O O13 0.250000 0.307882 0.743297
O O14 0.250000 0.696678 0.946726
O O15 0.000000 0.500000 0.942485
#
# Coordination Sequence:
#
# PCOD9362248 Si02
#       5
#     8   8   8   8   8
#     4   9  15  25  39  59  85 114 144 180 221 266
#     4  10  19  32  47  68  94 123 155 191 228 270
#     4  10  17  26  40  60  85 116 148 184 226 271
#     4  10  16  23  36  57  84 114 143 179 223 270
#     4   9  19  32  48  68  94 123 155 190 228 269
#
# _framework density 21.308969000000001
#
# number of rings (size 3 to 8) (size 9 to 14) (size 15 to 20)
#    0.000    2.400    0.000    8.400    0.000    2.400 
#    0.000    0.000    0.000    0.000    0.000    1.400 
#    0.000    6.400    0.000    0.000    0.000    0.000 
#
# Total GULP energy -111418.893123 kJ/mol
# GULP energy per Si atom -5570.944656 kJ/mol
# Density = 2.126047 g / cm^3
# Si number density = 21.308969 Si / 1000 Ang^3
#
#
#
# Elastic Constant Matrix: (Units=GPa)
#
#
# Indices 1 2 3 4 5 6 
#
# 1 116.0532 -2.1526 70.1151 0.0000 0.0000 0.0000
# 2 -2.1526 16.6081 21.9193 0.0000 0.0000 0.0000
# 3 70.1151 21.9193 306.6060 0.0000 0.0000 0.0000
# 4 0.0000 0.0000 0.0000 19.5842 0.0000 0.0000
# 5 0.0000 0.0000 0.0000 0.0000 276.4148 0.0000
# 6 0.0000 0.0000 0.0000 0.0000 0.0000 -3.3011
#
#
#
# Elastic Compliance Matrix: (Units=1/GPa)
#
#
# Indices 1 2 3 4 5 6 
#
# 1 0.010351 0.004931 -0.002720 0.000000 0.000000 0.000000
# 2 0.004931 0.068834 -0.006049 0.000000 0.000000 0.000000
# 3 -0.002720 -0.006049 0.004316 0.000000 0.000000 0.000000
# 4 0.000000 0.000000 0.000000 0.051062 0.000000 0.000000
# 5 0.000000 0.000000 0.000000 0.000000 0.003618 0.000000
# 6 0.000000 0.000000 0.000000 0.000000 0.000000 -0.302928
#
#
# Mechanical properties :
#
#
# Convention : Reuss Voigt Hill
#
# Bulk Modulus (GPa) = 13.18800 68.78122 40.98461
# Shear Modulus (GPa) = -37.93687 81.83194 21.94753
#
# Velocity S-wave (km/s) = -4.22397 6.20370 3.21279
# Velocity P-wave (km/s) = 4.19366 9.14673 5.74787
#
# Compressibility (1/GPa) = 0.07582649
#
# Stress axis : x y z
#
# Youngs Moduli (GPa) = 96.60588 14.52779 231.70297
#
# Poissons Ratio (x) = -0.07164 0.63016
# Poissons Ratio (y) = -0.47637 1.40147
# Poissons Ratio (z) = 0.26274 0.08787
#
# Static dielectric constant tensor:
#      x y z
#    x 1.707020 0.000000 0.000000 
#    y 0.000000 1.805740 0.000000 
#    z 0.000000 0.000000 1.947510 
# 
# From -- ./inp_files/25190.got.cif
#   From: 2010.05.17/outbox.cif.g08.bks.cpg/sg40_13_cif.got.tgz:25190.got - 2010.06.03 18:35:42.
