data_PCOD9362988
_publ_section_title
;
Structure prediction by ZEFSAII (Michael W. Deem and Ramdas Pophale) SiO2 
 PCOD9362988
Probable space group: A M A 2
;
_chemical_formula_sum "Si O2"
_cell_formula_units_Z 56
_cell_length_a 9.408163
_cell_length_b 15.698096
_cell_length_c 20.187324
_cell_angle_alpha 90.000000
_cell_angle_beta 90.000000
_cell_angle_gamma 90.000000
_cell_volume 2981.470847
_symmetry_space_group_name_H-M "A M A 2"
_symmetry_group_IT_number 40
_symmetry_cell_setting 'orthorhombic'
loop_
_space_group_symop_operation_xyz
x,y,z
-x,-y,z
1/2-x,y,z
1/2+x,-y,z
x,1/2+y,1/2+z
-x,1/2-y,1/2+z
1/2-x,1/2+y,1/2+z
1/2+x,1/2-y,1/2+z
loop_
_atom_site_type_symbol
_atom_site_label
_atom_site_fract_x
_atom_site_fract_y
_atom_site_fract_z
Si Si1 0.586738 0.750198 0.473680
Si Si2 0.918771 0.745060 0.104079
Si Si3 0.587489 0.080786 0.129730
Si Si4 0.420397 0.910545 0.878862
Si Si5 0.088590 0.572291 0.898461
Si Si6 0.418999 0.804027 0.748344
Si Si7 0.911164 0.632090 0.777922
O O1 0.750000 0.735552 0.496760
O O2 0.485921 0.778071 0.533869
O O3 0.543316 0.666096 0.431094
O O4 0.589637 0.833435 0.428196
O O5 0.750000 0.757121 0.099206
O O6 0.943278 0.684890 0.168882
O O7 0.998762 0.834465 0.115779
O O8 0.750000 0.082690 0.104798
O O9 0.594988 0.080973 0.209356
O O10 0.500000 0.000000 0.104722
O O11 0.250000 0.922994 0.883924
O O12 0.449612 0.875884 0.803682
O O13 0.500000 0.000000 0.890897
O O14 0.250000 0.543526 0.890238
O O15 0.000000 0.500000 0.936928
O O16 0.008368 0.585598 0.830015
O O17 0.250000 0.783418 0.755921
O O18 0.515616 0.723172 0.765477
O O19 0.750000 0.643912 0.801949
#
# Coordination Sequence:
#
# PCOD9362988 Si02
#       7
#     8   8   8   8   8   8   8
#     4  10  22  41  60  81 119 161 194 242 304 361
#     4  10  21  36  59  83 110 152 196 244 297 356
#     4  10  20  33  50  77 112 147 186 230 282 345
#     4  10  21  39  62  89 119 159 203 249 303 358
#     4  11  22  37  57  82 113 151 188 234 290 347
#     4   9  18  37  59  82 115 153 192 238 298 352
#     4  10  19  31  53  84 114 145 182 229 280 339
#
# _framework density 18.782677
#
# number of rings (size 3 to 8) (size 9 to 14) (size 15 to 20)
#    0.000    2.000    1.429    2.143    0.000    6.286 
#    0.000    2.143    0.000    3.429    0.000    0.000 
#    0.000    0.000    0.000    0.000    0.000    0.000 
#
# Total GULP energy -155989.056539 kJ/mol
# GULP energy per Si atom -5571.037734 kJ/mol
# Density = 1.873993 g / cm^3
# Si number density = 18.782677 Si / 1000 Ang^3
#
#
#
# Elastic Constant Matrix: (Units=GPa)
#
#
# Indices 1 2 3 4 5 6 
#
# 1 101.1955 33.3170 37.2149 0.0000 0.0000 0.0000
# 2 33.3170 77.4484 12.8917 0.0000 0.0000 0.0000
# 3 37.2149 12.8917 64.1664 0.0000 0.0000 0.0000
# 4 0.0000 0.0000 0.0000 4.9023 0.0000 0.0000
# 5 0.0000 0.0000 0.0000 0.0000 -2.0007 0.0000
# 6 0.0000 0.0000 0.0000 0.0000 0.0000 32.4277
#
#
#
# Elastic Compliance Matrix: (Units=1/GPa)
#
#
# Indices 1 2 3 4 5 6 
#
# 1 0.014146 -0.004883 -0.007223 0.000000 0.000000 0.000000
# 2 -0.004883 0.015044 -0.000191 0.000000 0.000000 0.000000
# 3 -0.007223 -0.000191 0.019812 0.000000 0.000000 0.000000
# 4 0.000000 0.000000 0.000000 0.203988 0.000000 0.000000
# 5 0.000000 0.000000 0.000000 0.000000 -0.499815 0.000000
# 6 0.000000 0.000000 0.000000 0.000000 0.000000 0.030838
#
#
# Mechanical properties :
#
#
# Convention : Reuss Voigt Hill
#
# Bulk Modulus (GPa) = 40.96912 45.51749 43.24330
# Shear Modulus (GPa) = -27.28403 17.69161 -4.79621
#
# Velocity S-wave (km/s) = -3.81546 3.07239 -1.59971
# Velocity P-wave (km/s) = 1.56501 6.07227 4.43406
#
# Compressibility (1/GPa) = 0.02440863
#
# Stress axis : x y z
#
# Youngs Moduli (GPa) = 70.69202 66.47119 50.47436
#
# Poissons Ratio (x) = 0.32458 0.36459
# Poissons Ratio (y) = 0.34519 0.00962
# Poissons Ratio (z) = 0.51062 0.01266
#
# Static dielectric constant tensor:
#      x y z
#    x 1.665610 0.000000 0.000000 
#    y 0.000000 1.674370 0.000000 
#    z 0.000000 0.000000 1.730270 
# 
# From -- ./inp_files/22119.got.cif
#   From: 2010.05.17/outbox.cif.g08.bks.cpg/sg40_12_cif.got.tgz:22119.got - 2010.06.03 18:35:42.
