data_PCOD9362342
_publ_section_title
;
Structure prediction by ZEFSAII (Michael W. Deem and Ramdas Pophale) SiO2 
 PCOD9362342
Probable space group: A M A 2
;
_chemical_formula_sum "Si O2"
_cell_formula_units_Z 64
_cell_length_a 15.754474
_cell_length_b 9.341526
_cell_length_c 21.151397
_cell_angle_alpha 90.000000
_cell_angle_beta 90.000000
_cell_angle_gamma 90.000000
_cell_volume 3112.868620
_symmetry_space_group_name_H-M "A M A 2"
_symmetry_group_IT_number 40
_symmetry_cell_setting 'orthorhombic'
loop_
_space_group_symop_operation_xyz
x,y,z
-x,-y,z
1/2-x,y,z
1/2+x,-y,z
x,1/2+y,1/2+z
-x,1/2-y,1/2+z
1/2-x,1/2+y,1/2+z
1/2+x,1/2-y,1/2+z
loop_
_atom_site_type_symbol
_atom_site_label
_atom_site_fract_x
_atom_site_fract_y
_atom_site_fract_z
Si Si1 0.584135 0.902574 0.019950
Si Si2 0.876316 0.237916 0.851458
Si Si3 0.400651 0.009758 0.772802
Si Si4 0.840330 0.695824 0.495011
Si Si5 0.423907 0.712853 0.384055
Si Si6 0.153777 0.261470 0.685682
Si Si7 0.478661 0.670759 0.078206
Si Si8 0.398673 0.966241 0.297203
O O1 0.559369 0.779450 0.070775
O O2 0.500000 0.000000 0.010949
O O3 0.598471 0.815230 0.955745
O O4 0.649916 0.034583 0.024006
O O5 0.838743 0.191864 0.918711
O O6 0.855837 0.394184 0.825830
O O7 0.976401 0.231283 0.869519
O O8 0.863015 0.142834 0.788693
O O9 0.399275 0.076985 0.842733
O O10 0.352316 0.117388 0.727883
O O11 0.500000 0.000000 0.752550
O O12 0.750000 0.757365 0.515926
O O13 0.918685 0.795232 0.517354
O O14 0.383172 0.848227 0.351039
O O15 0.250000 0.278162 0.662121
O O16 0.081109 0.232870 0.633877
O O17 0.131461 0.394485 0.731784
O O18 0.500000 0.500000 0.083510
O O19 0.500000 0.000000 0.290620
#
# Coordination Sequence:
#
# PCOD9362342 Si02
#       8
#     8   8   8   8   8   8   8   8
#     4  10  18  36  61  89 119 166 215 253 307 384
#     4  10  17  32  59  94 128 162 203 256 303 376
#     4   9  17  33  61  88 124 164 212 246 294 376
#     4  11  23  38  60  97 137 166 202 268 339 391
#     4   9  14  30  55  89 122 158 207 248 290 357
#     4  11  24  44  61  88 130 165 204 264 329 376
#     4  11  25  42  69  88 114 171 237 272 316 375
#     4   9  21  33  61  95 129 164 206 249 307 375
#
# _framework density 20.559815
#
# number of rings (size 3 to 8) (size 9 to 14) (size 15 to 20)
#    0.000    2.000    3.750    1.875    1.750    2.500 
#    0.000    1.250    0.000    0.000    0.000    0.000 
#    0.000    0.000    0.000    0.000    0.000    0.000 
#
# Total GULP energy -178147.686292 kJ/mol
# GULP energy per Si atom -5567.115197 kJ/mol
# Density = 2.051302 g / cm^3
# Si number density = 20.559815 Si / 1000 Ang^3
#
#
#
# Elastic Constant Matrix: (Units=GPa)
#
#
# Indices 1 2 3 4 5 6 
#
# 1 42.3829 18.3334 5.3415 0.0000 0.0000 0.0000
# 2 18.3334 122.9121 24.6854 0.0000 0.0000 0.0000
# 3 5.3415 24.6854 74.9045 0.0000 0.0000 0.0000
# 4 0.0000 0.0000 0.0000 16.8711 0.0000 0.0000
# 5 0.0000 0.0000 0.0000 0.0000 -33.2384 0.0000
# 6 0.0000 0.0000 0.0000 0.0000 0.0000 10.3199
#
#
#
# Elastic Compliance Matrix: (Units=1/GPa)
#
#
# Indices 1 2 3 4 5 6 
#
# 1 0.025247 -0.003645 -0.000599 0.000000 0.000000 0.000000
# 2 -0.003645 0.009239 -0.002785 0.000000 0.000000 0.000000
# 3 -0.000599 -0.002785 0.014311 0.000000 0.000000 0.000000
# 4 0.000000 0.000000 0.000000 0.059273 0.000000 0.000000
# 5 0.000000 0.000000 0.000000 0.000000 -0.030086 0.000000
# 6 0.000000 0.000000 0.000000 0.000000 0.000000 0.096900
#
#
# Mechanical properties :
#
#
# Convention : Reuss Voigt Hill
#
# Bulk Modulus (GPa) = 28.78687 37.43555 33.11121
# Shear Modulus (GPa) = 24.93496 11.57980 18.25738
#
# Velocity S-wave (km/s) = 3.48631 2.37581 2.98319
# Velocity P-wave (km/s) = 5.49888 5.07677 5.29204
#
# Compressibility (1/GPa) = 0.03473806
#
# Stress axis : x y z
#
# Youngs Moduli (GPa) = 39.60895 108.23752 69.87728
#
# Poissons Ratio (x) = 0.39458 0.04185
# Poissons Ratio (y) = 0.14439 0.19459
# Poissons Ratio (z) = 0.02372 0.30142
#
# Static dielectric constant tensor:
#      x y z
#    x 1.991830 0.000000 0.000000 
#    y 0.000000 1.777150 0.000000 
#    z 0.000000 0.000000 1.747170 
# 
# From -- ./inp_files/23403.got.cif
#   From: 2010.05.17/outbox.cif.g08.bks.cpg/sg40_12_cif.got.tgz:23403.got - 2010.06.03 18:35:42.
