data_PCOD9362796
_publ_section_title
;
Structure prediction by ZEFSAII (Michael W. Deem and Ramdas Pophale) SiO2 
 PCOD9362796
Probable space group: A M A 2
;
_chemical_formula_sum "Si O2"
_cell_formula_units_Z 40
_cell_length_a 11.686708
_cell_length_b 10.658101
_cell_length_c 13.334186
_cell_angle_alpha 90.000000
_cell_angle_beta 90.000000
_cell_angle_gamma 90.000000
_cell_volume 1660.881063
_symmetry_space_group_name_H-M "A M A 2"
_symmetry_group_IT_number 40
_symmetry_cell_setting 'orthorhombic'
loop_
_space_group_symop_operation_xyz
x,y,z
-x,-y,z
1/2-x,y,z
1/2+x,-y,z
x,1/2+y,1/2+z
-x,1/2-y,1/2+z
1/2-x,1/2+y,1/2+z
1/2+x,1/2-y,1/2+z
loop_
_atom_site_type_symbol
_atom_site_label
_atom_site_fract_x
_atom_site_fract_y
_atom_site_fract_z
Si Si1 0.378582 0.170021 0.724250
Si Si2 0.124724 0.968615 0.218014
Si Si3 0.380441 0.075817 0.953052
Si Si4 0.438929 0.827524 0.549834
Si Si5 0.632051 0.423284 0.940903
O O1 0.250000 0.127396 0.688454
O O2 0.373077 0.319933 0.728267
O O3 0.390543 0.120176 0.836851
O O4 0.489542 0.149171 0.652209
O O5 0.250000 0.004971 0.174717
O O6 0.123558 0.028076 0.328704
O O7 0.000000 0.000000 0.173657
O O8 0.250000 0.017733 0.958323
O O9 0.500000 0.000000 0.969288
O O10 0.378528 0.195946 0.029820
O O11 0.375729 0.954891 0.514044
O O12 0.536252 0.825271 0.465064
O O13 0.750000 0.356296 0.956113
#
# Coordination Sequence:
#
# PCOD9362796 Si02
#       5
#     8   8   8   8   8
#     4  10  22  40  63  92 130 170 217 272 328 388
#     4  10  18  36  61  88 120 159 204 257 317 373
#     4  11  25  46  67  93 136 183 223 269 329 397
#     4  11  21  38  63  93 125 165 215 266 329 383
#     4  10  19  34  62  92 120 156 209 266 317 379
#
# _framework density 24.083604000000001
#
# number of rings (size 3 to 8) (size 9 to 14) (size 15 to 20)
#    0.000    1.600    4.000    1.200    2.800    2.400 
#    0.000    6.000    0.000    0.000    0.000    0.000 
#    0.000    0.000    0.000    0.000    0.000    0.000 
#
# Total GULP energy -111384.914015 kJ/mol
# GULP energy per Si atom -5569.245701 kJ/mol
# Density = 2.402879 g / cm^3
# Si number density = 24.083604 Si / 1000 Ang^3
#
#
#
# Elastic Constant Matrix: (Units=GPa)
#
#
# Indices 1 2 3 4 5 6 
#
# 1 228.7626 38.5829 29.1645 0.0000 0.0000 0.0000
# 2 38.5829 54.8449 13.7216 0.0000 0.0000 0.0000
# 3 29.1645 13.7216 161.2455 0.0000 0.0000 0.0000
# 4 0.0000 0.0000 0.0000 19.0367 0.0000 0.0000
# 5 0.0000 0.0000 0.0000 0.0000 -45.3496 0.0000
# 6 0.0000 0.0000 0.0000 0.0000 0.0000 -17.6039
#
#
#
# Elastic Compliance Matrix: (Units=1/GPa)
#
#
# Indices 1 2 3 4 5 6 
#
# 1 0.005020 -0.003376 -0.000621 0.000000 0.000000 0.000000
# 2 -0.003376 0.020901 -0.001168 0.000000 0.000000 0.000000
# 3 -0.000621 -0.001168 0.006413 0.000000 0.000000 0.000000
# 4 0.000000 0.000000 0.000000 0.052530 0.000000 0.000000
# 5 0.000000 0.000000 0.000000 0.000000 -0.022051 0.000000
# 6 0.000000 0.000000 0.000000 0.000000 0.000000 -0.056806
#
#
# Mechanical properties :
#
#
# Convention : Reuss Voigt Hill
#
# Bulk Modulus (GPa) = 45.44567 67.53232 56.48899
# Shear Modulus (GPa) = 211.22347 15.44224 113.33286
#
# Velocity S-wave (km/s) = 9.37522 2.53493 6.86733
# Velocity P-wave (km/s) = 11.66635 6.05553 9.29444
#
# Compressibility (1/GPa) = 0.02200430
#
# Stress axis : x y z
#
# Youngs Moduli (GPa) = 199.20756 47.84569 155.92431
#
# Poissons Ratio (x) = 0.16153 0.09677
# Poissons Ratio (y) = 0.67256 0.18211
# Poissons Ratio (z) = 0.12364 0.05588
#
# Static dielectric constant tensor:
#      x y z
#    x 2.159920 0.000000 0.000000 
#    y 0.000000 1.899980 0.000000 
#    z 0.000000 0.000000 1.919140 
# 
# From -- ./inp_files/16202.got.cif
#   From: 2010.05.17/outbox.cif.g08.bks.cpg/sg40_9_cif.got.tgz:16202.got - 2010.06.03 18:35:42.
