data_PCOD9362737
_publ_section_title
;
Structure prediction by ZEFSAII (Michael W. Deem and Ramdas Pophale) SiO2 
 PCOD9362737
Probable space group: A M A 2
;
_chemical_formula_sum "Si O2"
_cell_formula_units_Z 52
_cell_length_a 19.860750
_cell_length_b 13.956068
_cell_length_c 10.034101
_cell_angle_alpha 90.000000
_cell_angle_beta 90.000000
_cell_angle_gamma 90.000000
_cell_volume 2781.231822
_symmetry_space_group_name_H-M "A M A 2"
_symmetry_group_IT_number 40
_symmetry_cell_setting 'orthorhombic'
loop_
_space_group_symop_operation_xyz
x,y,z
-x,-y,z
1/2-x,y,z
1/2+x,-y,z
x,1/2+y,1/2+z
-x,1/2-y,1/2+z
1/2-x,1/2+y,1/2+z
1/2+x,1/2-y,1/2+z
loop_
_atom_site_type_symbol
_atom_site_label
_atom_site_fract_x
_atom_site_fract_y
_atom_site_fract_z
Si Si1 0.000000 0.000000 0.821950
Si Si2 0.089919 0.877388 0.022018
Si Si3 0.100198 0.157424 0.819373
Si Si4 0.539626 0.138144 0.317019
Si Si5 0.106827 0.555912 0.860829
Si Si6 0.329459 0.061140 0.073250
Si Si7 0.172258 0.693859 0.051208
O O1 0.052522 0.073771 0.756315
O O2 0.955662 0.071966 0.912029
O O3 0.122924 0.775498 0.992690
O O4 0.151268 0.950112 0.049876
O O5 0.045485 0.869844 0.156261
O O6 0.058747 0.253669 0.852142
O O7 0.133627 0.117854 0.954112
O O8 0.154219 0.185005 0.707083
O O9 0.466317 0.106063 0.363962
O O10 0.592146 0.057752 0.368328
O O11 0.139857 0.582222 0.718519
O O12 0.153616 0.596249 0.976252
O O13 0.250000 0.077385 0.070418
O O14 0.250000 0.718098 0.032405
#
# Coordination Sequence:
#
# PCOD9362737 Si02
#       7
#     4   8   8   8   8   8   8
#     4  10  18  34  56  86 104 130 180 232 276 300
#     4   9  18  33  57  79 106 138 176 222 264 319
#     4  10  21  35  56  77 108 140 174 219 263 320
#     4   9  18  35  55  80 102 135 177 218 271 311
#     4  10  20  34  57  78 104 134 175 226 262 306
#     4  10  19  35  55  78 102 137 177 214 256 313
#     4  11  22  36  51  78 113 149 177 209 264 326
#
# _framework density 18.696750999999999
#
# number of rings (size 3 to 8) (size 9 to 14) (size 15 to 20)
#    0.000    2.154    0.000    5.077    0.000    2.462 
#    0.000    5.385    0.000    0.000    0.000    0.000 
#    0.000    0.000    0.000    0.000    0.000    0.000 
#
# Total GULP energy -145028.988635 kJ/mol
# GULP energy per Si atom -5578.038024 kJ/mol
# Density = 1.865420 g / cm^3
# Si number density = 18.696751 Si / 1000 Ang^3
#
#
#
# Elastic Constant Matrix: (Units=GPa)
#
#
# Indices 1 2 3 4 5 6 
#
# 1 72.1693 19.3106 6.3063 0.0000 0.0000 0.0000
# 2 19.3106 92.1967 13.7496 0.0000 0.0000 0.0000
# 3 6.3063 13.7496 28.5917 0.0000 0.0000 0.0000
# 4 0.0000 0.0000 0.0000 26.0875 0.0000 0.0000
# 5 0.0000 0.0000 0.0000 0.0000 19.9022 0.0000
# 6 0.0000 0.0000 0.0000 0.0000 0.0000 15.8382
#
#
#
# Elastic Compliance Matrix: (Units=1/GPa)
#
#
# Indices 1 2 3 4 5 6 
#
# 1 0.014775 -0.002810 -0.001907 0.000000 0.000000 0.000000
# 2 -0.002810 0.012219 -0.005256 0.000000 0.000000 0.000000
# 3 -0.001907 -0.005256 0.037924 0.000000 0.000000 0.000000
# 4 0.000000 0.000000 0.000000 0.038333 0.000000 0.000000
# 5 0.000000 0.000000 0.000000 0.000000 0.050246 0.000000
# 6 0.000000 0.000000 0.000000 0.000000 0.000000 0.063139
#
#
# Mechanical properties :
#
#
# Convention : Reuss Voigt Hill
#
# Bulk Modulus (GPa) = 22.23715 30.18786 26.21251
# Shear Modulus (GPa) = 19.87508 22.60499 21.24004
#
# Velocity S-wave (km/s) = 3.26394 3.48089 3.37416
# Velocity P-wave (km/s) = 5.11115 5.68652 5.40649
#
# Compressibility (1/GPa) = 0.04496978
#
# Stress axis : x y z
#
# Youngs Moduli (GPa) = 67.68232 81.84091 26.36886
#
# Poissons Ratio (x) = 0.22998 0.05030
# Poissons Ratio (y) = 0.19020 0.13860
# Poissons Ratio (z) = 0.12910 0.43017
#
# Static dielectric constant tensor:
#      x y z
#    x 1.642650 0.000000 0.000000 
#    y 0.000000 1.652230 0.000000 
#    z 0.000000 0.000000 1.633630 
# 
# From -- ./inp_files/8232.got.cif
#   From: 2010.05.17/outbox.cif.g08.bks.cpg/sg40_5_cif.got.tgz:8232.got - 2010.06.03 18:35:42.
