data_PCOD9362701
_publ_section_title
;
Structure prediction by ZEFSAII (Michael W. Deem and Ramdas Pophale) SiO2 
 PCOD9362701
Probable space group: A M A 2
;
_chemical_formula_sum "Si O2"
_cell_formula_units_Z 48
_cell_length_a 8.454751
_cell_length_b 29.138023
_cell_length_c 10.641944
_cell_angle_alpha 90.000000
_cell_angle_beta 90.000000
_cell_angle_gamma 90.000000
_cell_volume 2621.693231
_symmetry_space_group_name_H-M "A M A 2"
_symmetry_group_IT_number 40
_symmetry_cell_setting 'orthorhombic'
loop_
_space_group_symop_operation_xyz
x,y,z
-x,-y,z
1/2-x,y,z
1/2+x,-y,z
x,1/2+y,1/2+z
-x,1/2-y,1/2+z
1/2-x,1/2+y,1/2+z
1/2+x,1/2-y,1/2+z
loop_
_atom_site_type_symbol
_atom_site_label
_atom_site_fract_x
_atom_site_fract_y
_atom_site_fract_z
Si Si1 0.558627 0.356202 0.454490
Si Si2 0.442971 0.145241 0.443935
Si Si3 0.558664 0.306021 0.199158
Si Si4 0.938024 0.549540 0.551439
Si Si5 0.060460 0.049481 0.336713
Si Si6 0.441128 0.202025 0.198463
O O1 0.750000 0.357918 0.455786
O O2 0.507196 0.331483 0.326487
O O3 0.495750 0.407606 0.470071
O O4 0.507365 0.326381 0.575540
O O5 0.250000 0.145375 0.444538
O O6 0.496019 0.167018 0.574825
O O7 0.492935 0.092931 0.418505
O O8 0.493255 0.176041 0.325131
O O9 0.750000 0.305727 0.198656
O O10 0.501175 0.253825 0.195951
O O11 0.750000 0.548324 0.556789
O O12 0.000000 0.500000 0.507055
O O13 0.003079 0.556150 0.693339
O O14 0.250000 0.048745 0.334340
O O15 0.000000 0.000000 0.380537
O O16 0.250000 0.202513 0.198207
#
# Coordination Sequence:
#
# PCOD9362701 Si02
#       6
#     8   8   8   8   8   8
#     4  10  20  36  55  78 110 144 178 220 268 314
#     4   9  18  34  54  75 107 143 173 210 266 318
#     4  10  21  35  53  78 107 143 181 219 263 315
#     4  11  21  34  56  83 108 136 176 221 267 317
#     4  10  18  33  55  79 107 137 173 217 267 314
#     4  10  19  34  54  75 105 145 181 221 265 308
#
# _framework density 18.308779000000001
#
# number of rings (size 3 to 8) (size 9 to 14) (size 15 to 20)
#    0.000    2.000    1.667    4.000    0.000    1.333 
#    0.000    2.500    0.000    2.000    0.000    0.000 
#    0.000    0.000    0.000    0.000    0.000    0.000 
#
# Total GULP energy -134007.157773 kJ/mol
# GULP energy per Si atom -5583.631574 kJ/mol
# Density = 1.826711 g / cm^3
# Si number density = 18.308779 Si / 1000 Ang^3
#
#
#
# Elastic Constant Matrix: (Units=GPa)
#
#
# Indices 1 2 3 4 5 6 
#
# 1 31.0733 28.6644 24.0874 0.0000 0.0000 0.0000
# 2 28.6644 203.8528 100.7086 0.0000 0.0000 0.0000
# 3 24.0874 100.7086 147.5286 0.0000 0.0000 0.0000
# 4 0.0000 0.0000 0.0000 -0.6050 0.0000 0.0000
# 5 0.0000 0.0000 0.0000 0.0000 7.2569 0.0000
# 6 0.0000 0.0000 0.0000 0.0000 0.0000 34.8847
#
#
#
# Elastic Compliance Matrix: (Units=1/GPa)
#
#
# Indices 1 2 3 4 5 6 
#
# 1 0.038410 -0.003475 -0.003899 0.000000 0.000000 0.000000
# 2 -0.003475 0.007716 -0.004700 0.000000 0.000000 0.000000
# 3 -0.003899 -0.004700 0.010623 0.000000 0.000000 0.000000
# 4 0.000000 0.000000 0.000000 -1.652852 0.000000 0.000000
# 5 0.000000 0.000000 0.000000 0.000000 0.137800 0.000000
# 6 0.000000 0.000000 0.000000 0.000000 0.000000 0.028666
#
#
# Mechanical properties :
#
#
# Convention : Reuss Voigt Hill
#
# Bulk Modulus (GPa) = 30.67345 76.59729 53.63537
# Shear Modulus (GPa) = -3.58520 23.57360 9.99420
#
# Velocity S-wave (km/s) = -1.40087 3.59215 2.33892
# Velocity P-wave (km/s) = 3.76473 7.68973 6.05413
#
# Compressibility (1/GPa) = 0.03260148
#
# Stress axis : x y z
#
# Youngs Moduli (GPa) = 26.03493 129.60188 94.13224
#
# Poissons Ratio (x) = 0.45030 0.36707
# Poissons Ratio (y) = 0.09046 0.44241
# Poissons Ratio (z) = 0.10152 0.60912
#
# Static dielectric constant tensor:
#      x y z
#    x 1.625840 0.000000 0.000000 
#    y 0.000000 1.613370 0.000000 
#    z 0.000000 0.000000 1.615420 
# 
# From -- ./inp_files/10255.got.cif
#   From: 2010.05.17/outbox.cif.g08.bks.cpg/sg40_6_cif.got.tgz:10255.got - 2010.06.03 18:35:42.
