data_PCOD9362480
_publ_section_title
;
Structure prediction by ZEFSAII (Michael W. Deem and Ramdas Pophale) SiO2 
 PCOD9362480
Probable space group: A M A 2
;
_chemical_formula_sum "Si O2"
_cell_formula_units_Z 64
_cell_length_a 7.914591
_cell_length_b 31.706723
_cell_length_c 14.934614
_cell_angle_alpha 90.000000
_cell_angle_beta 90.000000
_cell_angle_gamma 90.000000
_cell_volume 3747.777829
_symmetry_space_group_name_H-M "A M A 2"
_symmetry_group_IT_number 40
_symmetry_cell_setting 'orthorhombic'
loop_
_space_group_symop_operation_xyz
x,y,z
-x,-y,z
1/2-x,y,z
1/2+x,-y,z
x,1/2+y,1/2+z
-x,1/2-y,1/2+z
1/2-x,1/2+y,1/2+z
1/2+x,1/2-y,1/2+z
loop_
_atom_site_type_symbol
_atom_site_label
_atom_site_fract_x
_atom_site_fract_y
_atom_site_fract_z
Si Si1 0.555651 0.369794 0.023190
Si Si2 0.549260 0.547500 0.726120
Si Si3 0.044050 0.367134 0.655162
Si Si4 0.545659 0.292965 0.137932
Si Si5 0.952144 0.232494 0.834862
Si Si6 0.548633 0.452185 0.933904
Si Si7 0.456213 0.291717 0.531409
Si Si8 0.054127 0.328171 0.845797
O O1 0.750000 0.376863 0.051207
O O2 0.479783 0.336101 0.092642
O O3 0.478847 0.415464 0.998731
O O4 0.551397 0.345276 0.928590
O O5 0.500000 0.500000 0.702292
O O6 0.750000 0.549625 0.723907
O O7 0.483408 0.584601 0.661610
O O8 0.500671 0.555231 0.830084
O O9 0.250000 0.367546 0.648635
O O10 0.983781 0.334060 0.580999
O O11 0.000886 0.347879 0.751856
O O12 0.750000 0.293204 0.130286
O O13 0.498751 0.289338 0.241718
O O14 0.488108 0.250903 0.083798
O O15 0.750000 0.238254 0.837537
O O16 0.036340 0.278312 0.836853
O O17 0.003711 0.209978 0.927241
O O18 0.500000 0.500000 0.957315
O O19 0.750000 0.449240 0.936717
O O20 0.250000 0.291479 0.535685
O O21 0.250000 0.339578 0.861787
#
# Coordination Sequence:
#
# PCOD9362480 Si02
#       8
#     8   8   8   8   8   8   8   8
#     4  10  20  33  48  69  97 131 163 196 240 284
#     4  10  18  29  45  67  94 122 156 192 232 282
#     4   9  17  29  46  67  89 125 163 188 223 279
#     4  10  19  34  51  67  94 130 161 193 240 287
#     4  11  21  33  48  70  97 125 163 204 238 275
#     4  10  19  30  46  68  96 126 157 192 236 284
#     4   9  17  31  49  66  91 126 158 191 233 280
#     4  11  19  29  48  70  96 129 165 196 232 281
#
# _framework density 17.076786999999999
#
# number of rings (size 3 to 8) (size 9 to 14) (size 15 to 20)
#    0.000    2.000    3.750    2.250    0.000    1.000 
#    0.000    0.000    0.000    0.000    0.000    0.875 
#    0.000    6.000    0.000    0.000    0.000    0.000 
#
# Total GULP energy -178422.948406 kJ/mol
# GULP energy per Si atom -5575.717138 kJ/mol
# Density = 1.703792 g / cm^3
# Si number density = 17.076787 Si / 1000 Ang^3
#
#
#
# Elastic Constant Matrix: (Units=GPa)
#
#
# Indices 1 2 3 4 5 6 
#
# 1 24.1452 5.8205 2.3621 0.0000 0.0000 0.0000
# 2 5.8205 158.6271 71.4060 0.0000 0.0000 0.0000
# 3 2.3621 71.4060 104.8077 0.0000 0.0000 0.0000
# 4 0.0000 0.0000 0.0000 23.9889 0.0000 0.0000
# 5 0.0000 0.0000 0.0000 0.0000 8.8482 0.0000
# 6 0.0000 0.0000 0.0000 0.0000 0.0000 14.1080
#
#
#
# Elastic Compliance Matrix: (Units=1/GPa)
#
#
# Indices 1 2 3 4 5 6 
#
# 1 0.041787 -0.001600 0.000148 0.000000 0.000000 0.000000
# 2 -0.001600 0.009154 -0.006201 0.000000 0.000000 0.000000
# 3 0.000148 -0.006201 0.013762 0.000000 0.000000 0.000000
# 4 0.000000 0.000000 0.000000 0.041686 0.000000 0.000000
# 5 0.000000 0.000000 0.000000 0.000000 0.113017 0.000000
# 6 0.000000 0.000000 0.000000 0.000000 0.000000 0.070882
#
#
# Mechanical properties :
#
#
# Convention : Reuss Voigt Hill
#
# Bulk Modulus (GPa) = 20.24328 49.63971 34.94149
# Shear Modulus (GPa) = 15.52508 23.25511 19.39010
#
# Velocity S-wave (km/s) = 3.01846 3.69426 3.37332
# Velocity P-wave (km/s) = 4.90185 6.87956 5.97312
#
# Compressibility (1/GPa) = 0.04939912
#
# Stress axis : x y z
#
# Youngs Moduli (GPa) = 23.93068 109.24172 72.66153
#
# Poissons Ratio (x) = 0.17480 -0.01078
# Poissons Ratio (y) = 0.03829 0.45055
# Poissons Ratio (z) = -0.00355 0.67737
#
# Static dielectric constant tensor:
#      x y z
#    x 1.617660 0.000000 0.000000 
#    y 0.000000 1.626380 0.000000 
#    z 0.000000 0.000000 1.557310 
# 
# From -- ./inp_files/15890.got.cif
#   From: 2010.05.17/outbox.cif.g08.bks.cpg/sg40_8_cif.got.tgz:15890.got - 2010.06.03 18:35:42.
