data_PCOD9362937
_publ_section_title
;
Structure prediction by ZEFSAII (Michael W. Deem and Ramdas Pophale) SiO2 
 PCOD9362937
Probable space group: A M A 2
;
_chemical_formula_sum "Si O2"
_cell_formula_units_Z 64
_cell_length_a 8.983528
_cell_length_b 14.708989
_cell_length_c 28.602845
_cell_angle_alpha 90.000000
_cell_angle_beta 90.000000
_cell_angle_gamma 90.000000
_cell_volume 3779.540310
_symmetry_space_group_name_H-M "A M A 2"
_symmetry_group_IT_number 40
_symmetry_cell_setting 'orthorhombic'
loop_
_space_group_symop_operation_xyz
x,y,z
-x,-y,z
1/2-x,y,z
1/2+x,-y,z
x,1/2+y,1/2+z
-x,1/2-y,1/2+z
1/2-x,1/2+y,1/2+z
1/2+x,1/2-y,1/2+z
loop_
_atom_site_type_symbol
_atom_site_label
_atom_site_fract_x
_atom_site_fract_y
_atom_site_fract_z
Si Si1 0.570875 0.291661 0.617210
Si Si2 0.573244 0.409582 0.432214
Si Si3 0.428356 0.597770 0.707340
Si Si4 0.580919 0.354002 0.990801
Si Si5 0.418159 0.854893 0.025644
Si Si6 0.571305 0.707223 0.898115
Si Si7 0.570925 0.400642 0.814684
Si Si8 0.072516 0.909651 0.584615
O O1 0.750000 0.298350 0.611805
O O2 0.527579 0.330516 0.667644
O O3 0.494437 0.349978 0.576132
O O4 0.531817 0.185479 0.609707
O O5 0.500000 0.500000 0.411161
O O6 0.750000 0.418759 0.432193
O O7 0.514371 0.401195 0.485348
O O8 0.535271 0.313813 0.407296
O O9 0.500000 0.500000 0.697557
O O10 0.250000 0.588114 0.705248
O O11 0.465404 0.623707 0.760740
O O12 0.750000 0.389419 0.986722
O O13 0.497549 0.349557 0.941423
O O14 0.590445 0.249668 0.008341
O O15 0.488627 0.401293 0.031736
O O16 0.250000 0.891633 0.027723
O O17 0.750000 0.697949 0.897870
O O18 0.499364 0.669510 0.851010
O O19 0.500000 0.500000 0.823396
O O20 0.750000 0.404692 0.819859
O O21 0.250000 0.917716 0.584260
O O22 0.000000 0.000000 0.605855
#
# Coordination Sequence:
#
# PCOD9362937 Si02
#       8
#     8   8   8   8   8   8   8   8
#     4   9  18  33  51  71  99 133 166 201 244 293
#     4  10  20  33  50  72 101 136 171 206 243 287
#     4   9  19  35  54  76  99 125 158 198 246 297
#     4   9  17  30  47  68  95 127 164 201 237 282
#     4   9  17  29  46  69  97 128 163 201 239 281
#     4  10  20  34  52  75 102 131 165 205 249 295
#     4  10  20  35  55  77 100 126 159 201 250 302
#     4  10  19  31  48  70  99 134 169 205 243 285
#
# _framework density 16.933274999999998
#
# number of rings (size 3 to 8) (size 9 to 14) (size 15 to 20)
#    0.000    2.500    0.000    2.250    0.000    7.000 
#    0.000    3.750    0.000    0.750    0.000    3.500 
#    0.000    0.000    0.000    0.000    0.000    0.000 
#
# Total GULP energy -178438.873710 kJ/mol
# GULP energy per Si atom -5576.214803 kJ/mol
# Density = 1.689473 g / cm^3
# Si number density = 16.933275 Si / 1000 Ang^3
#
#
#
# Elastic Constant Matrix: (Units=GPa)
#
#
# Indices 1 2 3 4 5 6 
#
# 1 66.4949 46.9616 50.3631 0.0000 0.0000 0.0000
# 2 46.9616 96.8121 73.6856 0.0000 0.0000 0.0000
# 3 50.3631 73.6856 123.4566 0.0000 0.0000 0.0000
# 4 0.0000 0.0000 0.0000 22.2676 0.0000 0.0000
# 5 0.0000 0.0000 0.0000 0.0000 21.7993 0.0000
# 6 0.0000 0.0000 0.0000 0.0000 0.0000 27.4246
#
#
#
# Elastic Compliance Matrix: (Units=1/GPa)
#
#
# Indices 1 2 3 4 5 6 
#
# 1 0.024666 -0.007891 -0.005352 0.000000 0.000000 0.000000
# 2 -0.007891 0.021452 -0.009585 0.000000 0.000000 0.000000
# 3 -0.005352 -0.009585 0.016004 0.000000 0.000000 0.000000
# 4 0.000000 0.000000 0.000000 0.044908 0.000000 0.000000
# 5 0.000000 0.000000 0.000000 0.000000 0.045873 0.000000
# 6 0.000000 0.000000 0.000000 0.000000 0.000000 0.036464
#
#
# Mechanical properties :
#
#
# Convention : Reuss Voigt Hill
#
# Bulk Modulus (GPa) = 60.73224 69.86493 65.29859
# Shear Modulus (GPa) = 20.78902 22.01519 21.40210
#
# Velocity S-wave (km/s) = 3.50766 3.60962 3.55901
# Velocity P-wave (km/s) = 7.23522 7.66296 7.45216
#
# Compressibility (1/GPa) = 0.01646572
#
# Stress axis : x y z
#
# Youngs Moduli (GPa) = 40.54235 46.61523 62.48370
#
# Poissons Ratio (x) = 0.36784 0.33443
# Poissons Ratio (y) = 0.31992 0.59889
# Poissons Ratio (z) = 0.21700 0.44680
#
# Static dielectric constant tensor:
#      x y z
#    x 1.575060 0.000000 0.000000 
#    y 0.000000 1.596890 0.000000 
#    z 0.000000 0.000000 1.552020 
# 
# From -- ./inp_files/24275.got.cif
#   From: 2010.05.17/outbox.cif.g08.bks.cpg/sg40_13_cif.got.tgz:24275.got - 2010.06.03 18:35:42.
