data_PCOD9362742
_publ_section_title
;
Structure prediction by ZEFSAII (Michael W. Deem and Ramdas Pophale) SiO2 
 PCOD9362742
Probable space group: A M A 2
;
_chemical_formula_sum "Si O2"
_cell_formula_units_Z 64
_cell_length_a 8.705041
_cell_length_b 20.240465
_cell_length_c 21.184167
_cell_angle_alpha 90.000000
_cell_angle_beta 90.000000
_cell_angle_gamma 90.000000
_cell_volume 3732.524766
_symmetry_space_group_name_H-M "A M A 2"
_symmetry_group_IT_number 40
_symmetry_cell_setting 'orthorhombic'
loop_
_space_group_symop_operation_xyz
x,y,z
-x,-y,z
1/2-x,y,z
1/2+x,-y,z
x,1/2+y,1/2+z
-x,1/2-y,1/2+z
1/2-x,1/2+y,1/2+z
1/2+x,1/2-y,1/2+z
loop_
_atom_site_type_symbol
_atom_site_label
_atom_site_fract_x
_atom_site_fract_y
_atom_site_fract_z
Si Si1 0.566636 0.570630 0.535470
Si Si2 0.562825 0.210752 0.611384
Si Si3 0.565883 0.293853 0.732913
Si Si4 0.064437 0.205067 0.988675
Si Si5 0.934683 0.569655 0.918452
Si Si6 0.935796 0.210788 0.366412
Si Si7 0.065052 0.930306 0.566508
Si Si8 0.066172 0.929194 0.183991
O O1 0.500000 0.500000 0.515286
O O2 0.750000 0.569325 0.531729
O O3 0.501017 0.632000 0.496849
O O4 0.524045 0.579530 0.609710
O O5 0.750000 0.210400 0.611150
O O6 0.513204 0.247692 0.674782
O O7 0.514974 0.251973 0.549555
O O8 0.512751 0.134957 0.603399
O O9 0.750000 0.296021 0.732394
O O10 0.505794 0.268865 0.799923
O O11 0.501497 0.367271 0.721013
O O12 0.250000 0.202204 0.989830
O O13 0.018902 0.242443 0.924695
O O14 0.750000 0.566805 0.915812
O O15 0.984497 0.635485 0.882302
O O16 0.000000 0.500000 0.894978
O O17 0.978611 0.577017 0.992448
O O18 0.750000 0.211212 0.362752
O O19 0.250000 0.932737 0.568623
O O20 0.000000 0.000000 0.589467
O O21 0.250000 0.929864 0.189427
O O22 0.000000 0.000000 0.204430
#
# Coordination Sequence:
#
# PCOD9362742 Si02
#       8
#     8   8   8   8   8   8   8   8
#     4  10  20  33  53  82 111 137 170 219 269 319
#     4   9  17  32  55  77 100 135 177 215 261 314
#     4  11  22  35  53  76 105 141 179 223 268 316
#     4  10  18  34  58  78 101 139 181 221 265 315
#     4   9  17  30  49  72 100 135 170 205 246 298
#     4  10  21  36  53  74 105 144 180 216 263 320
#     4   9  16  30  51  77 103 129 166 209 255 305
#     4  10  20  34  52  76 107 142 178 216 261 317
#
# _framework density 17.146570000000001
#
# number of rings (size 3 to 8) (size 9 to 14) (size 15 to 20)
#    0.000    2.250    2.500    1.125    0.000    2.500 
#    0.000    3.125    0.000    0.750    0.000    3.500 
#    0.000    0.000    0.000    0.000    0.000    0.000 
#
# Total GULP energy -178564.312007 kJ/mol
# GULP energy per Si atom -5580.134750 kJ/mol
# Density = 1.710754 g / cm^3
# Si number density = 17.146570 Si / 1000 Ang^3
#
#
#
# Elastic Constant Matrix: (Units=GPa)
#
#
# Indices 1 2 3 4 5 6 
#
# 1 15.7804 24.9682 27.2267 0.0000 0.0000 0.0000
# 2 24.9682 136.3140 71.2725 0.0000 0.0000 0.0000
# 3 27.2267 71.2725 114.9423 0.0000 0.0000 0.0000
# 4 0.0000 0.0000 0.0000 22.6790 0.0000 0.0000
# 5 0.0000 0.0000 0.0000 0.0000 23.9795 0.0000
# 6 0.0000 0.0000 0.0000 0.0000 0.0000 27.9916
#
#
#
# Elastic Compliance Matrix: (Units=1/GPa)
#
#
# Indices 1 2 3 4 5 6 
#
# 1 0.115990 -0.010181 -0.021162 0.000000 0.000000 0.000000
# 2 -0.010181 0.011749 -0.004874 0.000000 0.000000 0.000000
# 3 -0.021162 -0.004874 0.016735 0.000000 0.000000 0.000000
# 4 0.000000 0.000000 0.000000 0.044094 0.000000 0.000000
# 5 0.000000 0.000000 0.000000 0.000000 0.041702 0.000000
# 6 0.000000 0.000000 0.000000 0.000000 0.000000 0.035725
#
#
# Mechanical properties :
#
#
# Convention : Reuss Voigt Hill
#
# Bulk Modulus (GPa) = 13.88108 57.10796 35.49452
# Shear Modulus (GPa) = 13.79535 24.50129 19.14832
#
# Velocity S-wave (km/s) = 2.83954 3.78422 3.34540
# Velocity P-wave (km/s) = 4.34325 7.24375 5.97225
#
# Compressibility (1/GPa) = 0.07204050
#
# Stress axis : x y z
#
# Youngs Moduli (GPa) = 8.62145 85.11352 59.75590
#
# Poissons Ratio (x) = 0.86653 1.26455
# Poissons Ratio (y) = 0.08777 0.29123
# Poissons Ratio (z) = 0.18245 0.41482
#
# Static dielectric constant tensor:
#      x y z
#    x 1.578980 0.000000 0.000000 
#    y 0.000000 1.571900 0.000000 
#    z 0.000000 0.000000 1.580760 
# 
# From -- ./inp_files/19615.got.cif
#   From: 2010.05.17/outbox.cif.g08.bks.cpg/sg40_10_cif.got.tgz:19615.got - 2010.06.03 18:35:42.
