data_PCOD9362125
_publ_section_title
;
Structure prediction by ZEFSAII (Michael W. Deem and Ramdas Pophale) SiO2 
 PCOD9362125
Probable space group: A B M 2
;
_chemical_formula_sum "Si O2"
_cell_formula_units_Z 32
_cell_length_a 4.651402
_cell_length_b 16.878560
_cell_length_c 16.365573
_cell_angle_alpha 90.000000
_cell_angle_beta 90.000000
_cell_angle_gamma 90.000000
_cell_volume 1284.844243
_symmetry_space_group_name_H-M "A B M 2"
_symmetry_group_IT_number 39
_symmetry_cell_setting 'orthorhombic'
loop_
_space_group_symop_operation_xyz
x,y,z
-x,-y,z
-x,1/2+y,z
x,1/2-y,z
x,1/2+y,1/2+z
-x,1/2-y,1/2+z
-x,y,1/2+z
x,-y,1/2+z
loop_
_atom_site_type_symbol
_atom_site_label
_atom_site_fract_x
_atom_site_fract_y
_atom_site_fract_z
Si Si1 0.553421 0.085478 0.452540
Si Si2 0.800329 0.579368 0.284014
Si Si3 0.722400 0.157547 0.204825
Si Si4 0.064134 0.339716 0.530426
O O1 0.398478 0.079977 0.364783
O O2 0.388086 0.154165 0.499248
O O3 0.882666 0.105687 0.469180
O O4 0.500000 0.000000 0.492095
O O5 0.553564 0.601682 0.217904
O O6 0.000000 0.500000 0.277212
O O7 0.045931 0.646496 0.277555
O O8 0.635692 0.250000 0.198560
O O9 0.903310 0.134377 0.124267
O O10 0.961719 0.250000 0.528361
#
# Coordination Sequence:
#
# PCOD9362125 Si02
#       4
#     8   8   8   8
#     4  12  25  44  68  99 139 181 232 290 351 420
#     4  12  25  44  70 103 145 190 237 295 358 428
#     4  11  25  45  70 103 143 187 239 296 354 424
#     4  11  25  45  70 101 137 180 234 293 351 418
#
# _framework density 24.905740999999999
#
# number of rings (size 3 to 8) (size 9 to 14) (size 15 to 20)
#    0.000    0.500    0.000    9.000    0.000   14.000 
#    0.000    1.250    0.000    0.000    0.000    0.000 
#    0.000    0.000    0.000    0.000    0.000    0.000 
#
# Total GULP energy -89326.254230 kJ/mol
# GULP energy per Si atom -5582.890889 kJ/mol
# Density = 2.484905 g / cm^3
# Si number density = 24.905741 Si / 1000 Ang^3
#
#
#
# Elastic Constant Matrix: (Units=GPa)
#
#
# Indices 1 2 3 4 5 6 
#
# 1 138.9020 55.1926 45.7216 0.0000 0.0000 0.0000
# 2 55.1926 98.0774 56.7829 0.0000 0.0000 0.0000
# 3 45.7216 56.7829 94.8085 0.0000 0.0000 0.0000
# 4 0.0000 0.0000 0.0000 23.1723 0.0000 0.0000
# 5 0.0000 0.0000 0.0000 0.0000 16.0587 0.0000
# 6 0.0000 0.0000 0.0000 0.0000 0.0000 58.7514
#
#
#
# Elastic Compliance Matrix: (Units=1/GPa)
#
#
# Indices 1 2 3 4 5 6 
#
# 1 0.009544 -0.004142 -0.002121 0.000000 0.000000 0.000000
# 2 -0.004142 0.017406 -0.008427 0.000000 0.000000 0.000000
# 3 -0.002121 -0.008427 0.016618 0.000000 0.000000 0.000000
# 4 0.000000 0.000000 0.000000 0.043155 0.000000 0.000000
# 5 0.000000 0.000000 0.000000 0.000000 0.062271 0.000000
# 6 0.000000 0.000000 0.000000 0.000000 0.000000 0.017021
#
#
# Mechanical properties :
#
#
# Convention : Reuss Voigt Hill
#
# Bulk Modulus (GPa) = 70.49455 71.90912 71.20183
# Shear Modulus (GPa) = 24.98429 31.20254 28.09341
#
# Velocity S-wave (km/s) = 3.17070 3.54337 3.36220
# Velocity P-wave (km/s) = 6.46300 6.75839 6.61234
#
# Compressibility (1/GPa) = 0.01418549
#
# Stress axis : x y z
#
# Youngs Moduli (GPa) = 104.78228 57.45078 60.17595
#
# Poissons Ratio (x) = 0.23798 0.12766
# Poissons Ratio (y) = 0.43405 0.50712
# Poissons Ratio (z) = 0.22229 0.48415
#
# Static dielectric constant tensor:
#      x y z
#    x 1.909210 0.000000 0.000000 
#    y 0.000000 1.906730 0.000000 
#    z 0.000000 0.000000 2.041250 
# 
# From -- ./inp_files/10861.got.cif
#   From: 2010.05.17/outbox.cif.g08.bks.cpg/sg39_6_cif.got.tgz:10861.got - 2010.06.03 18:22:40.
