data_PCOD9362578
_publ_section_title
;
Structure prediction by ZEFSAII (Michael W. Deem and Ramdas Pophale) SiO2 
 PCOD9362578
Probable space group: A M A 2
;
_chemical_formula_sum "Si O2"
_cell_formula_units_Z 64
_cell_length_a 8.642554
_cell_length_b 21.624700
_cell_length_c 16.208500
_cell_angle_alpha 90.000000
_cell_angle_beta 90.000000
_cell_angle_gamma 90.000000
_cell_volume 3029.249315
_symmetry_space_group_name_H-M "A M A 2"
_symmetry_group_IT_number 40
_symmetry_cell_setting 'orthorhombic'
loop_
_space_group_symop_operation_xyz
x,y,z
-x,-y,z
1/2-x,y,z
1/2+x,-y,z
x,1/2+y,1/2+z
-x,1/2-y,1/2+z
1/2-x,1/2+y,1/2+z
1/2+x,1/2-y,1/2+z
loop_
_atom_site_type_symbol
_atom_site_label
_atom_site_fract_x
_atom_site_fract_y
_atom_site_fract_z
Si Si1 0.566409 0.431898 0.320430
Si Si2 0.564425 0.696064 0.059425
Si Si3 0.434804 0.929636 0.992925
Si Si4 0.935713 0.311389 0.232984
Si Si5 0.567055 0.935111 0.501545
Si Si6 0.073819 0.895063 0.334396
Si Si7 0.426251 0.253565 0.894663
Si Si8 0.434758 0.070116 0.162750
O O1 0.500000 0.500000 0.305549
O O2 0.750000 0.436727 0.332934
O O3 0.494451 0.404961 0.405392
O O4 0.537096 0.384444 0.246386
O O5 0.750000 0.695650 0.053321
O O6 0.511251 0.713611 0.150375
O O7 0.504808 0.626429 0.041998
O O8 0.503926 0.740911 0.986101
O O9 0.750000 0.069626 0.995575
O O10 0.502113 0.901474 0.077063
O O11 0.500000 0.000000 0.992221
O O12 0.750000 0.301173 0.228554
O O13 0.998378 0.280885 0.316965
O O14 0.750000 0.933846 0.512273
O O15 0.522557 0.930073 0.404568
O O16 0.500000 0.000000 0.533479
O O17 0.250000 0.919646 0.330778
O O18 0.082285 0.824676 0.365243
O O19 0.997318 0.897979 0.245005
O O20 0.250000 0.228734 0.902928
O O21 0.250000 0.068810 0.160776
O O22 0.500000 0.000000 0.167062
#
# Coordination Sequence:
#
# PCOD9362578 Si02
#       8
#     8   8   8   8   8   8   8   8
#     4  10  20  35  57  83 115 151 187 232 288 348
#     4  10  21  39  62  88 119 155 196 247 299 351
#     4  10  18  31  50  72 105 144 185 231 284 337
#     4  10  21  40  64  88 116 155 196 240 296 354
#     4  11  21  35  56  84 118 156 197 239 292 355
#     4  10  19  34  54  78 111 150 193 244 298 349
#     4   8  18  39  62  81 112 152 192 240 297 347
#     4  11  20  31  48  74 109 149 195 241 291 349
#
# _framework density 21.127347
#
# number of rings (size 3 to 8) (size 9 to 14) (size 15 to 20)
#    0.000    2.000    0.000    7.125    0.000    1.500 
#    2.250    5.000    0.000    0.000    0.000    0.000 
#    0.000    0.000    0.000    0.000    0.000    0.000 
#
# Total GULP energy -178679.275122 kJ/mol
# GULP energy per Si atom -5583.727348 kJ/mol
# Density = 2.107926 g / cm^3
# Si number density = 21.127347 Si / 1000 Ang^3
#
#
#
# Elastic Constant Matrix: (Units=GPa)
#
#
# Indices 1 2 3 4 5 6 
#
# 1 102.4194 4.7333 34.6964 0.0000 0.0000 0.0000
# 2 4.7333 33.6718 25.2732 0.0000 0.0000 0.0000
# 3 34.6964 25.2732 153.9853 0.0000 0.0000 0.0000
# 4 0.0000 0.0000 0.0000 19.4554 0.0000 0.0000
# 5 0.0000 0.0000 0.0000 0.0000 48.0525 0.0000
# 6 0.0000 0.0000 0.0000 0.0000 0.0000 -3.8134
#
#
#
# Elastic Compliance Matrix: (Units=1/GPa)
#
#
# Indices 1 2 3 4 5 6 
#
# 1 0.010574 0.000344 -0.002439 0.000000 0.000000 0.000000
# 2 0.000344 0.033882 -0.005639 0.000000 0.000000 0.000000
# 3 -0.002439 -0.005639 0.007969 0.000000 0.000000 0.000000
# 4 0.000000 0.000000 0.000000 0.051400 0.000000 0.000000
# 5 0.000000 0.000000 0.000000 0.000000 0.020811 0.000000
# 6 0.000000 0.000000 0.000000 0.000000 0.000000 -0.262232
#
#
# Mechanical properties :
#
#
# Convention : Reuss Voigt Hill
#
# Bulk Modulus (GPa) = 27.05721 46.60914 36.83318
# Shear Modulus (GPa) = -45.53303 27.76381 -8.88461
#
# Velocity S-wave (km/s) = -4.64742 3.62901 -2.05290
# Velocity P-wave (km/s) = 3.99543 6.29830 3.44275
#
# Compressibility (1/GPa) = 0.03695873
#
# Stress axis : x y z
#
# Youngs Moduli (GPa) = 94.57027 29.51405 125.48389
#
# Poissons Ratio (x) = -0.01016 0.30607
# Poissons Ratio (y) = -0.03256 0.70755
# Poissons Ratio (z) = 0.23067 0.16642
#
# Static dielectric constant tensor:
#      x y z
#    x 1.718220 0.000000 0.000000 
#    y 0.000000 1.790030 0.000000 
#    z 0.000000 0.000000 1.803470 
# 
# From -- ./inp_files/15709.got.cif
#   From: 2010.05.17/outbox.cif.g08.bks.cpg/sg40_8_cif.got.tgz:15709.got - 2010.06.03 18:35:42.
