data_PCOD9362550
_publ_section_title
;
Structure prediction by ZEFSAII (Michael W. Deem and Ramdas Pophale) SiO2 
 PCOD9362550
Probable space group: A M A 2
;
_chemical_formula_sum "Si O2"
_cell_formula_units_Z 64
_cell_length_a 7.828972
_cell_length_b 21.379788
_cell_length_c 20.310397
_cell_angle_alpha 90.000000
_cell_angle_beta 90.000000
_cell_angle_gamma 90.000000
_cell_volume 3399.590029
_symmetry_space_group_name_H-M "A M A 2"
_symmetry_group_IT_number 40
_symmetry_cell_setting 'orthorhombic'
loop_
_space_group_symop_operation_xyz
x,y,z
-x,-y,z
1/2-x,y,z
1/2+x,-y,z
x,1/2+y,1/2+z
-x,1/2-y,1/2+z
1/2-x,1/2+y,1/2+z
1/2+x,1/2-y,1/2+z
loop_
_atom_site_type_symbol
_atom_site_label
_atom_site_fract_x
_atom_site_fract_y
_atom_site_fract_z
Si Si1 0.951007 0.248384 0.586980
Si Si2 0.044608 0.931020 0.800144
Si Si3 0.459564 0.689265 0.805186
Si Si4 0.041463 0.384970 0.440119
Si Si5 0.947118 0.108357 0.084279
Si Si6 0.052421 0.069790 0.227508
Si Si7 0.543856 0.261172 0.943060
Si Si8 0.541598 0.189340 0.720957
O O1 0.750000 0.261452 0.597166
O O2 0.010651 0.204381 0.646316
O O3 0.040834 0.316052 0.588628
O O4 0.977355 0.220268 0.514711
O O5 0.250000 0.925776 0.802748
O O6 0.981934 0.920841 0.875265
O O7 0.981161 0.874879 0.753829
O O8 0.000000 0.000000 0.776665
O O9 0.250000 0.689428 0.804721
O O10 0.526345 0.627509 0.768344
O O11 0.512972 0.698287 0.880788
O O12 0.509996 0.751144 0.764837
O O13 0.250000 0.387023 0.442312
O O14 0.980395 0.407876 0.511877
O O15 0.994711 0.311730 0.432537
O O16 0.750000 0.089159 0.086011
O O17 0.029209 0.080710 0.149536
O O18 0.250000 0.073913 0.242018
O O19 0.000000 0.000000 0.245220
O O20 0.750000 0.262474 0.945394
O O21 0.750000 0.187240 0.721716
#
# Coordination Sequence:
#
# PCOD9362550 Si02
#       8
#     8   8   8   8   8   8   8   8
#     4  10  18  30  50  78 106 132 166 210 261 307
#     4  10  19  33  51  71  98 132 170 208 247 294
#     4   9  16  31  56  77  94 130 178 213 250 308
#     4   8  15  28  48  70  96 130 166 201 240 292
#     4  10  19  32  50  75 104 138 175 209 249 301
#     4  11  22  36  53  75 104 138 176 216 262 314
#     4   9  16  30  53  77  98 127 170 213 254 302
#     4   9  16  30  54  75  95 132 174 207 246 302
#
# _framework density 18.825797999999999
#
# number of rings (size 3 to 8) (size 9 to 14) (size 15 to 20)
#    0.000    2.500    2.500    1.875    0.000    0.500 
#    0.000    6.875    0.000    0.750    0.000    5.250 
#    0.000    0.000    0.000    0.000    0.000    0.000 
#
# Total GULP energy -178484.196620 kJ/mol
# GULP energy per Si atom -5577.631144 kJ/mol
# Density = 1.878295 g / cm^3
# Si number density = 18.825798 Si / 1000 Ang^3
#
#
#
# Elastic Constant Matrix: (Units=GPa)
#
#
# Indices 1 2 3 4 5 6 
#
# 1 18.4504 1.0700 -0.9199 0.0000 0.0000 0.0000
# 2 1.0700 112.9795 65.2692 0.0000 0.0000 0.0000
# 3 -0.9199 65.2692 122.3837 0.0000 0.0000 0.0000
# 4 0.0000 0.0000 0.0000 18.0325 0.0000 0.0000
# 5 0.0000 0.0000 0.0000 0.0000 43.8742 0.0000
# 6 0.0000 0.0000 0.0000 0.0000 0.0000 21.2731
#
#
#
# Elastic Compliance Matrix: (Units=1/GPa)
#
#
# Indices 1 2 3 4 5 6 
#
# 1 0.054311 -0.001084 0.000987 0.000000 0.000000 0.000000
# 2 -0.001084 0.012814 -0.006842 0.000000 0.000000 0.000000
# 3 0.000987 -0.006842 0.011827 0.000000 0.000000 0.000000
# 4 0.000000 0.000000 0.000000 0.055455 0.000000 0.000000
# 5 0.000000 0.000000 0.000000 0.000000 0.022792 0.000000
# 6 0.000000 0.000000 0.000000 0.000000 0.000000 0.047008
#
#
# Mechanical properties :
#
#
# Convention : Reuss Voigt Hill
#
# Bulk Modulus (GPa) = 15.36728 42.73911 29.05320
# Shear Modulus (GPa) = 20.85246 29.19558 25.02402
#
# Velocity S-wave (km/s) = 3.33175 3.94233 3.64983
# Velocity P-wave (km/s) = 4.79389 6.59350 5.76436
#
# Compressibility (1/GPa) = 0.06507331
#
# Stress axis : x y z
#
# Youngs Moduli (GPa) = 18.41231 78.03837 84.54887
#
# Poissons Ratio (x) = 0.08461 -0.08341
# Poissons Ratio (y) = 0.01996 0.57850
# Poissons Ratio (z) = -0.01816 0.53395
#
# Static dielectric constant tensor:
#      x y z
#    x 1.693140 0.000000 0.000000 
#    y 0.000000 1.662400 0.000000 
#    z 0.000000 0.000000 1.671730 
# 
# From -- ./inp_files/22429.got.cif
#   From: 2010.05.17/outbox.cif.g08.bks.cpg/sg40_12_cif.got.tgz:22429.got - 2010.06.03 18:35:42.
