data_PCOD9362892
_publ_section_title
;
Structure prediction by ZEFSAII (Michael W. Deem and Ramdas Pophale) SiO2 
 PCOD9362892
Probable space group: A M A 2
;
_chemical_formula_sum "Si O2"
_cell_formula_units_Z 48
_cell_length_a 8.892140
_cell_length_b 13.503427
_cell_length_c 18.089263
_cell_angle_alpha 90.000000
_cell_angle_beta 90.000000
_cell_angle_gamma 90.000000
_cell_volume 2172.056738
_symmetry_space_group_name_H-M "A M A 2"
_symmetry_group_IT_number 40
_symmetry_cell_setting 'orthorhombic'
loop_
_space_group_symop_operation_xyz
x,y,z
-x,-y,z
1/2-x,y,z
1/2+x,-y,z
x,1/2+y,1/2+z
-x,1/2-y,1/2+z
1/2-x,1/2+y,1/2+z
1/2+x,1/2-y,1/2+z
loop_
_atom_site_type_symbol
_atom_site_label
_atom_site_fract_x
_atom_site_fract_y
_atom_site_fract_z
Si Si1 0.079997 0.133033 0.747180
Si Si2 0.073214 0.100604 0.367664
Si Si3 0.568883 0.825066 0.067226
Si Si4 0.431309 0.688172 0.404881
Si Si5 0.425426 0.901178 0.597902
Si Si6 0.580557 0.132114 0.216341
O O1 0.250000 0.092077 0.737901
O O2 0.027069 0.126069 0.831855
O O3 0.092598 0.250383 0.731550
O O4 0.964984 0.098790 0.685141
O O5 0.250000 0.100831 0.379895
O O6 0.001343 0.202088 0.397942
O O7 0.033400 0.099965 0.280143
O O8 0.000000 0.000000 0.397839
O O9 0.750000 0.831142 0.078427
O O10 0.525727 0.707625 0.070559
O O11 0.484373 0.878682 0.134109
O O12 0.530696 0.858002 0.984192
O O13 0.250000 0.700015 0.401899
O O14 0.250000 0.907757 0.584876
O O15 0.500000 0.000000 0.566424
O O16 0.750000 0.091000 0.224527
#
# Coordination Sequence:
#
# PCOD9362892 Si02
#       6
#     8   8   8   8   8   8
#     4   8  15  29  48  67  90 122 158 194 231 274
#     4  11  21  33  50  72  99 130 165 203 246 293
#     4   9  18  32  50  73 100 129 159 194 238 288
#     4   9  18  33  51  73 101 129 158 196 242 289
#     4  10  19  30  46  68  95 125 158 194 232 277
#     4   9  17  31  50  71  95 125 163 201 237 283
#
# _framework density 22.098870000000002
#
# number of rings (size 3 to 8) (size 9 to 14) (size 15 to 20)
#    0.000    2.667    0.000    3.500    0.000    6.000 
#    0.000    1.667    0.000    1.000    0.000    4.667 
#    0.000    0.000    0.000    0.000    0.000    0.000 
#
# Total GULP energy -133947.381566 kJ/mol
# GULP energy per Si atom -5581.140899 kJ/mol
# Density = 2.204857 g / cm^3
# Si number density = 22.098870 Si / 1000 Ang^3
#
#
#
# Elastic Constant Matrix: (Units=GPa)
#
#
# Indices 1 2 3 4 5 6 
#
# 1 33.2372 4.8851 12.1663 0.0000 0.0000 0.0000
# 2 4.8851 42.9082 -14.2602 0.0000 0.0000 0.0000
# 3 12.1663 -14.2602 149.0321 0.0000 0.0000 0.0000
# 4 0.0000 0.0000 0.0000 -1.7298 0.0000 0.0000
# 5 0.0000 0.0000 0.0000 0.0000 20.4488 0.0000
# 6 0.0000 0.0000 0.0000 0.0000 0.0000 23.6689
#
#
#
# Elastic Compliance Matrix: (Units=1/GPa)
#
#
# Indices 1 2 3 4 5 6 
#
# 1 0.031885 -0.004643 -0.003047 0.000000 0.000000 0.000000
# 2 -0.004643 0.024747 0.002747 0.000000 0.000000 0.000000
# 3 -0.003047 0.002747 0.007222 0.000000 0.000000 0.000000
# 4 0.000000 0.000000 0.000000 -0.578095 0.000000 0.000000
# 5 0.000000 0.000000 0.000000 0.000000 0.048903 0.000000
# 6 0.000000 0.000000 0.000000 0.000000 0.000000 0.042250
#
#
# Mechanical properties :
#
#
# Convention : Reuss Voigt Hill
#
# Bulk Modulus (GPa) = 18.52977 25.63999 22.08488
# Shear Modulus (GPa) = -12.65135 23.30333 5.32599
#
# Velocity S-wave (km/s) = -2.39527 3.25083 1.55413
# Velocity P-wave (km/s) = 0.86798 5.07131 3.63810
#
# Compressibility (1/GPa) = 0.05396720
#
# Stress axis : x y z
#
# Youngs Moduli (GPa) = 31.36320 40.40884 138.47420
#
# Poissons Ratio (x) = 0.18761 0.42195
# Poissons Ratio (y) = 0.14561 -0.38038
# Poissons Ratio (z) = 0.09557 -0.11100
#
# Static dielectric constant tensor:
#      x y z
#    x 1.760320 0.000000 0.000000 
#    y 0.000000 1.874410 0.000000 
#    z 0.000000 0.000000 1.848930 
# 
# From -- ./inp_files/15039.got.cif
#   From: 2010.05.17/outbox.cif.g08.bks.cpg/sg40_8_cif.got.tgz:15039.got - 2010.06.03 18:35:42.
