data_PCOD9362846
_publ_section_title
;
Structure prediction by ZEFSAII (Michael W. Deem and Ramdas Pophale) SiO2 
 PCOD9362846
Probable space group: A M A 2
;
_chemical_formula_sum "Si O2"
_cell_formula_units_Z 64
_cell_length_a 9.298576
_cell_length_b 18.607047
_cell_length_c 26.241416
_cell_angle_alpha 90.000000
_cell_angle_beta 90.000000
_cell_angle_gamma 90.000000
_cell_volume 4540.264622
_symmetry_space_group_name_H-M "A M A 2"
_symmetry_group_IT_number 40
_symmetry_cell_setting 'orthorhombic'
loop_
_space_group_symop_operation_xyz
x,y,z
-x,-y,z
1/2-x,y,z
1/2+x,-y,z
x,1/2+y,1/2+z
-x,1/2-y,1/2+z
1/2-x,1/2+y,1/2+z
1/2+x,1/2-y,1/2+z
loop_
_atom_site_type_symbol
_atom_site_label
_atom_site_fract_x
_atom_site_fract_y
_atom_site_fract_z
Si Si1 0.080639 0.329305 0.990740
Si Si2 0.422655 0.424169 0.609505
Si Si3 0.080602 0.924341 0.593123
Si Si4 0.584706 0.305140 0.149341
Si Si5 0.084447 0.290305 0.545767
Si Si6 0.422907 0.831712 0.210613
Si Si7 0.580924 0.425547 0.912031
Si Si8 0.580867 0.425364 0.790604
O O1 0.250000 0.325424 0.979925
O O2 0.993141 0.363140 0.944272
O O3 0.060491 0.382535 0.039360
O O4 0.016942 0.252546 0.007511
O O5 0.500000 0.500000 0.606384
O O6 0.250000 0.432696 0.608175
O O7 0.461786 0.369393 0.563832
O O8 0.457042 0.383940 0.662712
O O9 0.250000 0.934780 0.600628
O O10 0.014801 0.872388 0.636446
O O11 0.000000 0.000000 0.591700
O O12 0.750000 0.327909 0.158061
O O13 0.585480 0.256093 0.098171
O O14 0.539967 0.249520 0.193487
O O15 0.250000 0.292234 0.527542
O O16 0.250000 0.834346 0.218126
O O17 0.507011 0.862271 0.258704
O O18 0.500000 0.500000 0.924449
O O19 0.750000 0.431579 0.924377
O O20 0.566824 0.413938 0.851337
O O21 0.500000 0.500000 0.778059
O O22 0.750000 0.431626 0.778457
#
# Coordination Sequence:
#
# PCOD9362846 Si02
#       8
#     8   8   8   8   8   8   8   8
#     4  10  19  29  43  62  81 106 140 173 207 245
#     4   9  17  27  40  60  84 111 141 170 203 242
#     4  10  19  28  40  60  84 109 138 170 204 243
#     4   8  15  28  43  58  79 107 137 168 202 241
#     4   8  15  28  42  56  79 109 137 167 203 242
#     4   9  17  29  44  61  82 110 141 171 206 244
#     4  10  20  32  44  59  81 109 140 174 209 242
#     4  10  20  31  43  60  82 109 141 175 208 241
#
# _framework density 14.096094000000001
#
# number of rings (size 3 to 8) (size 9 to 14) (size 15 to 20)
#    0.000    2.750    0.000    3.750    0.000    6.500 
#    0.000    2.500    0.000    0.000    0.000    0.000 
#    0.000    1.000    0.000    5.500    0.000    4.250 
#
# Total GULP energy -178314.955282 kJ/mol
# GULP energy per Si atom -5572.342353 kJ/mol
# Density = 1.406401 g / cm^3
# Si number density = 14.096094 Si / 1000 Ang^3
#
#
#
# Elastic Constant Matrix: (Units=GPa)
#
#
# Indices 1 2 3 4 5 6 
#
# 1 76.3926 48.4753 34.3241 0.0000 0.0000 0.0000
# 2 48.4753 74.0270 17.9346 0.0000 0.0000 0.0000
# 3 34.3241 17.9346 32.6754 0.0000 0.0000 0.0000
# 4 0.0000 0.0000 0.0000 26.4496 0.0000 0.0000
# 5 0.0000 0.0000 0.0000 0.0000 14.2501 0.0000
# 6 0.0000 0.0000 0.0000 0.0000 0.0000 26.9160
#
#
#
# Elastic Compliance Matrix: (Units=1/GPa)
#
#
# Indices 1 2 3 4 5 6 
#
# 1 0.037520 -0.017324 -0.029904 0.000000 0.000000 0.000000
# 2 -0.017324 0.023580 0.005256 0.000000 0.000000 0.000000
# 3 -0.029904 0.005256 0.059132 0.000000 0.000000 0.000000
# 4 0.000000 0.000000 0.000000 0.037808 0.000000 0.000000
# 5 0.000000 0.000000 0.000000 0.000000 0.070175 0.000000
# 6 0.000000 0.000000 0.000000 0.000000 0.000000 0.037153
#
#
# Mechanical properties :
#
#
# Convention : Reuss Voigt Hill
#
# Bulk Modulus (GPa) = 27.55805 42.72922 35.14363
# Shear Modulus (GPa) = 13.83485 19.01387 16.42436
#
# Velocity S-wave (km/s) = 3.13624 3.67669 3.41716
# Velocity P-wave (km/s) = 5.71902 6.95720 6.36828
#
# Compressibility (1/GPa) = 0.03628704
#
# Stress axis : x y z
#
# Youngs Moduli (GPa) = 26.65275 42.40953 16.91136
#
# Poissons Ratio (x) = 0.73471 0.50572
# Poissons Ratio (y) = 0.46174 -0.08889
# Poissons Ratio (z) = 0.79702 -0.22291
#
# Static dielectric constant tensor:
#      x y z
#    x 1.467050 0.000000 0.000000 
#    y 0.000000 1.455360 0.000000 
#    z 0.000000 0.000000 1.454060 
# 
# From -- ./inp_files/24378.got.cif
#   From: 2010.05.17/outbox.cif.g08.bks.cpg/sg40_13_cif.got.tgz:24378.got - 2010.06.03 18:35:42.
