data_PCOD9362750
_publ_section_title
;
Structure prediction by ZEFSAII (Michael W. Deem and Ramdas Pophale) SiO2 
 PCOD9362750
Probable space group: A M A 2
;
_chemical_formula_sum "Si O2"
_cell_formula_units_Z 64
_cell_length_a 7.897016
_cell_length_b 15.946293
_cell_length_c 24.656292
_cell_angle_alpha 90.000000
_cell_angle_beta 90.000000
_cell_angle_gamma 90.000000
_cell_volume 3104.920768
_symmetry_space_group_name_H-M "A M A 2"
_symmetry_group_IT_number 40
_symmetry_cell_setting 'orthorhombic'
loop_
_space_group_symop_operation_xyz
x,y,z
-x,-y,z
1/2-x,y,z
1/2+x,-y,z
x,1/2+y,1/2+z
-x,1/2-y,1/2+z
1/2-x,1/2+y,1/2+z
1/2+x,1/2-y,1/2+z
loop_
_atom_site_type_symbol
_atom_site_label
_atom_site_fract_x
_atom_site_fract_y
_atom_site_fract_z
Si Si1 0.953046 0.153983 0.626570
Si Si2 0.546241 0.093395 0.742923
Si Si3 0.953471 0.407063 0.738085
Si Si4 0.547381 0.755304 0.436074
Si Si5 0.042140 0.747505 0.812531
Si Si6 0.548716 0.907501 0.509506
Si Si7 0.048226 0.593107 0.503974
Si Si8 0.457187 0.652246 0.621017
O O1 0.750000 0.157347 0.630956
O O2 0.017985 0.111794 0.681786
O O3 0.011350 0.250438 0.621899
O O4 0.994526 0.105863 0.571626
O O5 0.750000 0.098351 0.741505
O O6 0.487290 0.167423 0.782484
O O7 0.500000 0.000000 0.760235
O O8 0.750000 0.401108 0.736490
O O9 0.012945 0.332896 0.777499
O O10 0.015204 0.391232 0.676517
O O11 0.000000 0.500000 0.756447
O O12 0.750000 0.765950 0.432931
O O13 0.483305 0.756322 0.374503
O O14 0.478639 0.831756 0.472696
O O15 0.514360 0.667349 0.465516
O O16 0.250000 0.747557 0.812602
O O17 0.750000 0.901707 0.508636
O O18 0.500000 0.000000 0.490278
O O19 0.250000 0.598957 0.505540
O O20 0.983783 0.609467 0.565438
O O21 0.000000 0.500000 0.485968
O O22 0.250000 0.650930 0.620902
#
# Coordination Sequence:
#
# PCOD9362750 Si02
#       8
#     8   8   8   8   8   8   8   8
#     4  10  18  34  59  84 111 144 182 224 276 335
#     4  10  20  35  58  83 109 142 179 222 273 329
#     4  10  19  35  58  84 112 145 182 222 273 330
#     4  10  22  40  59  81 109 146 193 236 275 323
#     4   9  19  38  60  78 106 148 186 224 273 326
#     4  11  23  37  56  83 114 148 185 229 278 332
#     4  11  22  37  59  85 115 149 183 227 278 332
#     4   9  17  32  57  84 111 145 181 219 274 335
#
# _framework density 20.612442999999999
#
# number of rings (size 3 to 8) (size 9 to 14) (size 15 to 20)
#    0.000    2.000    2.500    1.500    0.000    3.000 
#    0.000    4.375    0.000    0.000    0.000    0.000 
#    0.000    0.000    0.000    0.000    0.000    0.000 
#
# Total GULP energy -178769.392049 kJ/mol
# GULP energy per Si atom -5586.543502 kJ/mol
# Density = 2.056553 g / cm^3
# Si number density = 20.612443 Si / 1000 Ang^3
#
#
#
# Elastic Constant Matrix: (Units=GPa)
#
#
# Indices 1 2 3 4 5 6 
#
# 1 14.5194 -8.1975 2.3212 0.0000 0.0000 0.0000
# 2 -8.1975 177.0761 75.6739 0.0000 0.0000 0.0000
# 3 2.3212 75.6739 152.0283 0.0000 0.0000 0.0000
# 4 0.0000 0.0000 0.0000 15.7966 0.0000 0.0000
# 5 0.0000 0.0000 0.0000 0.0000 16.7569 0.0000
# 6 0.0000 0.0000 0.0000 0.0000 0.0000 13.7863
#
#
#
# Elastic Compliance Matrix: (Units=1/GPa)
#
#
# Indices 1 2 3 4 5 6 
#
# 1 0.072168 0.004842 -0.003512 0.000000 0.000000 0.000000
# 2 0.004842 0.007498 -0.003806 0.000000 0.000000 0.000000
# 3 -0.003512 -0.003806 0.008526 0.000000 0.000000 0.000000
# 4 0.000000 0.000000 0.000000 0.063305 0.000000 0.000000
# 5 0.000000 0.000000 0.000000 0.000000 0.059677 0.000000
# 6 0.000000 0.000000 0.000000 0.000000 0.000000 0.072536
#
#
# Mechanical properties :
#
#
# Convention : Reuss Voigt Hill
#
# Bulk Modulus (GPa) = 12.01350 53.69101 32.85225
# Shear Modulus (GPa) = 15.80233 27.52304 21.66268
#
# Velocity S-wave (km/s) = 2.77183 3.65809 3.24536
# Velocity P-wave (km/s) = 4.01061 6.62922 5.47867
#
# Compressibility (1/GPa) = 0.08323969
#
# Stress axis : x y z
#
# Youngs Moduli (GPa) = 13.85647 133.36904 117.28975
#
# Poissons Ratio (x) = -0.64574 0.41191
# Poissons Ratio (y) = -0.06709 0.44642
# Poissons Ratio (z) = 0.04866 0.50762
#
# Static dielectric constant tensor:
#      x y z
#    x 1.750220 0.000000 0.000000 
#    y 0.000000 1.668890 0.000000 
#    z 0.000000 0.000000 1.726080 
# 
# From -- ./inp_files/24231.got.cif
#   From: 2010.05.17/outbox.cif.g08.bks.cpg/sg40_13_cif.got.tgz:24231.got - 2010.06.03 18:35:42.
