data_PCOD9362621
_publ_section_title
;
Structure prediction by ZEFSAII (Michael W. Deem and Ramdas Pophale) SiO2 
 PCOD9362621
Probable space group: A M A 2
;
_chemical_formula_sum "Si O2"
_cell_formula_units_Z 60
_cell_length_a 18.627498
_cell_length_b 16.661101
_cell_length_c 10.715265
_cell_angle_alpha 90.000000
_cell_angle_beta 90.000000
_cell_angle_gamma 90.000000
_cell_volume 3325.532057
_symmetry_space_group_name_H-M "A M A 2"
_symmetry_group_IT_number 40
_symmetry_cell_setting 'orthorhombic'
loop_
_space_group_symop_operation_xyz
x,y,z
-x,-y,z
1/2-x,y,z
1/2+x,-y,z
x,1/2+y,1/2+z
-x,1/2-y,1/2+z
1/2-x,1/2+y,1/2+z
1/2+x,1/2-y,1/2+z
loop_
_atom_site_type_symbol
_atom_site_label
_atom_site_fract_x
_atom_site_fract_y
_atom_site_fract_z
Si Si1 0.027505 0.206247 0.304840
Si Si2 0.667457 0.286543 0.489397
Si Si3 0.959480 0.369600 0.340901
Si Si4 0.031855 0.414596 0.600617
Si Si5 0.083778 0.871641 0.483974
Si Si6 0.828970 0.863749 0.257448
Si Si7 0.500000 0.500000 0.151457
Si Si8 0.834266 0.054018 0.246783
O O1 0.110412 0.187949 0.322828
O O2 0.006315 0.297568 0.283625
O O3 0.001375 0.154366 0.186917
O O4 0.984582 0.172958 0.423507
O O5 0.750000 0.276001 0.446120
O O6 0.614707 0.329191 0.389356
O O7 0.633233 0.201454 0.532941
O O8 0.668538 0.342220 0.611148
O O9 0.003917 0.400097 0.461493
O O10 0.954513 0.440839 0.241486
O O11 0.116604 0.419448 0.629377
O O12 0.000000 0.500000 0.643917
O O13 0.129733 0.906601 0.368310
O O14 0.052813 0.942939 0.569883
O O15 0.750000 0.844968 0.305836
O O16 0.841267 0.958533 0.265908
O O17 0.750000 0.073385 0.233945
#
# Coordination Sequence:
#
# PCOD9362621 Si02
#       8
#     8   8   8   8   8   8   4   8
#     4  10  20  36  58  82 111 153 200 239 298 350
#     4  10  20  38  60  83 114 158 198 239 298 364
#     4  11  23  36  58  87 123 154 197 253 297 356
#     4  11  19  37  60  85 114 152 200 246 292 356
#     4  10  22  37  60  83 119 155 199 246 295 368
#     4  10  18  31  56  83 108 138 189 242 286 342
#     4  12  24  36  56  92 122 158 202 250 306 354
#     4  10  20  35  60  89 112 147 195 250 296 350
#
# _framework density 18.042224999999998
#
# number of rings (size 3 to 8) (size 9 to 14) (size 15 to 20)
#    0.000    1.600    3.333    2.000    3.733    0.000 
#    0.000    2.000    0.000    3.200    0.000    0.000 
#    0.000    0.000    0.000    0.000    0.000    0.000 
#
# Total GULP energy -167330.861816 kJ/mol
# GULP energy per Si atom -5577.695394 kJ/mol
# Density = 1.800116 g / cm^3
# Si number density = 18.042225 Si / 1000 Ang^3
#
#
#
# Elastic Constant Matrix: (Units=GPa)
#
#
# Indices 1 2 3 4 5 6 
#
# 1 136.6665 25.8904 13.9476 0.0000 0.0000 0.0000
# 2 25.8904 86.6829 12.5114 0.0000 0.0000 0.0000
# 3 13.9476 12.5114 36.9333 0.0000 0.0000 0.0000
# 4 0.0000 0.0000 0.0000 -94.8521 0.0000 0.0000
# 5 0.0000 0.0000 0.0000 0.0000 17.1909 0.0000
# 6 0.0000 0.0000 0.0000 0.0000 0.0000 22.4879
#
#
#
# Elastic Compliance Matrix: (Units=1/GPa)
#
#
# Indices 1 2 3 4 5 6 
#
# 1 0.007939 -0.002038 -0.002308 0.000000 0.000000 0.000000
# 2 -0.002038 0.012653 -0.003517 0.000000 0.000000 0.000000
# 3 -0.002308 -0.003517 0.029139 0.000000 0.000000 0.000000
# 4 0.000000 0.000000 0.000000 -0.010543 0.000000 0.000000
# 5 0.000000 0.000000 0.000000 0.000000 0.058170 0.000000
# 6 0.000000 0.000000 0.000000 0.000000 0.000000 0.044468
#
#
# Mechanical properties :
#
#
# Convention : Reuss Voigt Hill
#
# Bulk Modulus (GPa) = 29.40697 40.55350 34.98024
# Shear Modulus (GPa) = 29.60592 2.82755 16.21674
#
# Velocity S-wave (km/s) = 4.05523 1.25323 3.00129
# Velocity P-wave (km/s) = 6.18553 4.96185 5.60717
#
# Compressibility (1/GPa) = 0.03400554
#
# Stress axis : x y z
#
# Youngs Moduli (GPa) = 125.96554 79.03523 34.31879
#
# Poissons Ratio (x) = 0.16108 0.07919
# Poissons Ratio (y) = 0.25673 0.12068
# Poissons Ratio (z) = 0.29068 0.27793
#
# Static dielectric constant tensor:
#      x y z
#    x 1.649880 0.000000 0.000000 
#    y 0.000000 1.647410 0.000000 
#    z 0.000000 0.000000 1.621640 
# 
# From -- ./inp_files/13068.got.cif
#   From: 2010.05.17/outbox.cif.g08.bks.cpg/sg40_7_cif.got.tgz:13068.got - 2010.06.03 18:35:42.
