data_PCOD9362598
_publ_section_title
;
Structure prediction by ZEFSAII (Michael W. Deem and Ramdas Pophale) SiO2 
 PCOD9362598
Probable space group: A M A 2
;
_chemical_formula_sum "Si O2"
_cell_formula_units_Z 64
_cell_length_a 18.525461
_cell_length_b 9.644195
_cell_length_c 18.740371
_cell_angle_alpha 90.000000
_cell_angle_beta 90.000000
_cell_angle_gamma 90.000000
_cell_volume 3348.213871
_symmetry_space_group_name_H-M "A M A 2"
_symmetry_group_IT_number 40
_symmetry_cell_setting 'orthorhombic'
loop_
_space_group_symop_operation_xyz
x,y,z
-x,-y,z
1/2-x,y,z
1/2+x,-y,z
x,1/2+y,1/2+z
-x,1/2-y,1/2+z
1/2-x,1/2+y,1/2+z
1/2+x,1/2-y,1/2+z
loop_
_atom_site_type_symbol
_atom_site_label
_atom_site_fract_x
_atom_site_fract_y
_atom_site_fract_z
Si Si1 0.671841 0.665631 0.735990
Si Si2 0.427467 0.275542 0.535865
Si Si3 0.335027 0.500112 0.046523
Si Si4 0.573815 0.219141 0.623309
Si Si5 0.967988 0.354261 0.897810
Si Si6 0.167859 0.017177 0.098865
Si Si7 0.987013 0.667452 0.742856
Si Si8 0.670745 0.511420 0.884490
O O1 0.750000 0.738585 0.724108
O O2 0.672592 0.537459 0.680547
O O3 0.592095 0.723248 0.719798
O O4 0.670177 0.616819 0.818356
O O5 0.367126 0.154693 0.541004
O O6 0.497756 0.244398 0.583374
O O7 0.458754 0.262787 0.456073
O O8 0.386642 0.414716 0.557811
O O9 0.250000 0.497919 0.065393
O O10 0.387608 0.422014 0.101104
O O11 0.341719 0.435799 0.965805
O O12 0.631644 0.333864 0.599488
O O13 0.550253 0.248314 0.704487
O O14 0.889650 0.398739 0.870050
O O15 0.000000 0.500000 0.929089
O O16 0.011895 0.318557 0.827891
O O17 0.250000 0.015581 0.070571
O O18 0.000000 0.500000 0.727409
O O19 0.750000 0.447061 0.886453
#
# Coordination Sequence:
#
# PCOD9362598 Si02
#       8
#     8   8   8   8   8   8   8   8
#     4  10  18  31  52  79 109 142 183 230 282 331
#     4  11  21  36  57  83 112 148 189 230 283 339
#     4  10  22  37  55  82 116 150 186 232 284 340
#     4  12  21  35  56  86 113 145 186 236 283 337
#     4  10  18  31  53  80 109 138 181 236 284 321
#     4  11  22  36  56  82 114 151 188 232 284 338
#     4  11  18  33  53  81 111 140 180 238 285 325
#     4   9  16  29  50  76 105 137 179 226 275 323
#
# _framework density 19.114668999999999
#
# number of rings (size 3 to 8) (size 9 to 14) (size 15 to 20)
#    0.000    1.500    5.000    3.000    0.000    0.500 
#    0.000    0.625    0.000    4.500    0.000    0.000 
#    0.000    0.000    0.000    0.000    0.000    0.000 
#
# Total GULP energy -178192.438664 kJ/mol
# GULP energy per Si atom -5568.513708 kJ/mol
# Density = 1.907116 g / cm^3
# Si number density = 19.114669 Si / 1000 Ang^3
#
#
#
# Elastic Constant Matrix: (Units=GPa)
#
#
# Indices 1 2 3 4 5 6 
#
# 1 125.3810 -9.3917 5.2830 0.0000 0.0000 0.0000
# 2 -9.3917 16.5897 -1.1858 0.0000 0.0000 0.0000
# 3 5.2830 -1.1858 45.2156 0.0000 0.0000 0.0000
# 4 0.0000 0.0000 0.0000 11.8592 0.0000 0.0000
# 5 0.0000 0.0000 0.0000 0.0000 31.1803 0.0000
# 6 0.0000 0.0000 0.0000 0.0000 0.0000 26.5196
#
#
#
# Elastic Compliance Matrix: (Units=1/GPa)
#
#
# Indices 1 2 3 4 5 6 
#
# 1 0.008362 0.004673 -0.000854 0.000000 0.000000 0.000000
# 2 0.004673 0.063003 0.001106 0.000000 0.000000 0.000000
# 3 -0.000854 0.001106 0.022245 0.000000 0.000000 0.000000
# 4 0.000000 0.000000 0.000000 0.084323 0.000000 0.000000
# 5 0.000000 0.000000 0.000000 0.000000 0.032071 0.000000
# 6 0.000000 0.000000 0.000000 0.000000 0.000000 0.037708
#
#
# Mechanical properties :
#
#
# Convention : Reuss Voigt Hill
#
# Bulk Modulus (GPa) = 9.66573 19.62194 14.64383
# Shear Modulus (GPa) = 18.35880 26.74387 22.55134
#
# Velocity S-wave (km/s) = 3.10248 3.74455 3.43854
# Velocity P-wave (km/s) = 4.23102 5.38361 4.84173
#
# Compressibility (1/GPa) = 0.10345828
#
# Stress axis : x y z
#
# Youngs Moduli (GPa) = 119.59297 15.87236 44.95367
#
# Poissons Ratio (x) = -0.07417 0.03841
# Poissons Ratio (y) = -0.55881 -0.04973
# Poissons Ratio (z) = 0.10219 -0.01756
#
# Static dielectric constant tensor:
#      x y z
#    x 1.725830 0.000000 0.000000 
#    y 0.000000 1.641660 0.000000 
#    z 0.000000 0.000000 1.730720 
# 
# From -- ./inp_files/21414.got.cif
#   From: 2010.05.17/outbox.cif.g08.bks.cpg/sg40_11_cif.got.tgz:21414.got - 2010.06.03 18:35:42.
