data_PCOD9362059
_publ_section_title
;
Structure prediction by ZEFSAII (Michael W. Deem and Ramdas Pophale) SiO2 
 PCOD9362059
Probable space group: A B M 2
;
_chemical_formula_sum "Si O2"
_cell_formula_units_Z 44
_cell_length_a 8.087967
_cell_length_b 7.508170
_cell_length_c 30.733574
_cell_angle_alpha 90.000000
_cell_angle_beta 90.000000
_cell_angle_gamma 90.000000
_cell_volume 1866.321827
_symmetry_space_group_name_H-M "A B M 2"
_symmetry_group_IT_number 39
_symmetry_cell_setting 'orthorhombic'
loop_
_space_group_symop_operation_xyz
x,y,z
-x,-y,z
-x,1/2+y,z
x,1/2-y,z
x,1/2+y,1/2+z
-x,1/2-y,1/2+z
-x,y,1/2+z
x,-y,1/2+z
loop_
_atom_site_type_symbol
_atom_site_label
_atom_site_fract_x
_atom_site_fract_y
_atom_site_fract_z
Si Si1 0.255689 0.750000 0.371650
Si Si2 0.691700 0.537864 0.303983
Si Si3 0.689882 0.538343 0.022286
Si Si4 0.804320 0.536849 0.115485
Si Si5 0.195851 0.962489 0.709612
Si Si6 0.188802 0.447838 0.431192
O O1 0.211394 0.591536 0.336089
O O2 0.297261 0.595147 0.408053
O O3 0.500000 0.500000 0.315123
O O4 0.725291 0.750000 0.307837
O O5 0.719846 0.477975 0.254072
O O6 0.500000 0.500000 0.012499
O O7 0.721593 0.750000 0.021934
O O8 0.727506 0.468032 0.070751
O O9 0.793610 0.456068 0.983169
O O10 0.779187 0.750000 0.115728
O O11 0.744729 0.466847 0.162574
O O12 0.000000 0.500000 0.113673
O O13 0.217309 0.750000 0.708437
O O14 0.000000 0.000000 0.712754
O O15 0.224452 0.250000 0.415611
O O16 0.000000 0.500000 0.420398
#
# Coordination Sequence:
#
# PCOD9362059 Si02
#       6
#     4   8   8   8   8   8
#     4  12  26  46  70 100 128 174 222 282 324 402
#     4  11  24  45  68  96 134 177 225 272 334 398
#     4  11  23  41  63  97 135 175 219 272 329 391
#     4   9  19  37  63  93 131 172 217 265 326 391
#     4   9  20  38  62  96 131 170 217 274 328 387
#     4  12  25  48  72  98 133 171 222 274 333 395
#
# _framework density 23.575783999999999
#
# number of rings (size 3 to 8) (size 9 to 14) (size 15 to 20)
#    0.000    1.455    2.727    1.636    1.273    5.091 
#    6.545    0.000    0.000    0.000    0.000    0.000 
#    0.000    0.000    0.000    0.000    0.000    0.000 
#
# Total GULP energy -122489.243325 kJ/mol
# GULP energy per Si atom -5567.692878 kJ/mol
# Density = 2.352212 g / cm^3
# Si number density = 23.575784 Si / 1000 Ang^3
#
#
#
# Elastic Constant Matrix: (Units=GPa)
#
#
# Indices 1 2 3 4 5 6 
#
# 1 35.9974 2.3046 7.5572 0.0000 0.0000 0.0000
# 2 2.3046 180.2575 55.0244 0.0000 0.0000 0.0000
# 3 7.5572 55.0244 169.1618 0.0000 0.0000 0.0000
# 4 0.0000 0.0000 0.0000 24.9721 0.0000 0.0000
# 5 0.0000 0.0000 0.0000 0.0000 44.4454 0.0000
# 6 0.0000 0.0000 0.0000 0.0000 0.0000 12.8656
#
#
#
# Elastic Compliance Matrix: (Units=1/GPa)
#
#
# Indices 1 2 3 4 5 6 
#
# 1 0.028043 0.000027 -0.001261 0.000000 0.000000 0.000000
# 2 0.000027 0.006159 -0.002005 0.000000 0.000000 0.000000
# 3 -0.001261 -0.002005 0.006620 0.000000 0.000000 0.000000
# 4 0.000000 0.000000 0.000000 0.040045 0.000000 0.000000
# 5 0.000000 0.000000 0.000000 0.000000 0.022500 0.000000
# 6 0.000000 0.000000 0.000000 0.000000 0.000000 0.077727
#
#
# Mechanical properties :
#
#
# Convention : Reuss Voigt Hill
#
# Bulk Modulus (GPa) = 29.11803 57.24324 43.18064
# Shear Modulus (GPa) = 25.12312 37.82532 31.47422
#
# Velocity S-wave (km/s) = 3.26794 4.00986 3.65776
# Velocity P-wave (km/s) = 5.15916 6.76549 6.01618
#
# Compressibility (1/GPa) = 0.03434298
#
# Stress axis : x y z
#
# Youngs Moduli (GPa) = 35.65961 162.35868 151.05937
#
# Poissons Ratio (x) = -0.00431 0.19055
# Poissons Ratio (y) = -0.00095 0.30282
# Poissons Ratio (z) = 0.04498 0.32547
#
# Static dielectric constant tensor:
#      x y z
#    x 1.839450 0.000000 0.000000 
#    y 0.000000 1.907780 0.000000 
#    z 0.000000 0.000000 1.956070 
# 
# From -- ./inp_files/17503.got.cif
#   From: 2010.05.17/outbox.cif.g08.bks.cpg/sg39_9_cif.got.tgz:17503.got - 2010.06.03 18:22:40.
