data_PCOD9362334
_publ_section_title
;
Structure prediction by ZEFSAII (Michael W. Deem and Ramdas Pophale) SiO2 
 PCOD9362334
Probable space group: A M A 2
;
_chemical_formula_sum "Si O2"
_cell_formula_units_Z 64
_cell_length_a 13.969365
_cell_length_b 16.257486
_cell_length_c 12.826746
_cell_angle_alpha 90.000000
_cell_angle_beta 90.000000
_cell_angle_gamma 90.000000
_cell_volume 2913.040673
_symmetry_space_group_name_H-M "A M A 2"
_symmetry_group_IT_number 40
_symmetry_cell_setting 'orthorhombic'
loop_
_space_group_symop_operation_xyz
x,y,z
-x,-y,z
1/2-x,y,z
1/2+x,-y,z
x,1/2+y,1/2+z
-x,1/2-y,1/2+z
1/2-x,1/2+y,1/2+z
1/2+x,1/2-y,1/2+z
loop_
_atom_site_type_symbol
_atom_site_label
_atom_site_fract_x
_atom_site_fract_y
_atom_site_fract_z
Si Si1 0.142401 0.844859 0.636490
Si Si2 0.132017 0.795024 0.860522
Si Si3 0.367184 0.795125 0.415390
Si Si4 0.133459 0.838473 0.085359
Si Si5 0.359224 0.110019 0.373686
Si Si6 0.104186 0.029665 0.591782
Si Si7 0.866154 0.817194 0.728514
Si Si8 0.867534 0.051139 0.269620
O O1 0.250000 0.810114 0.642533
O O2 0.098077 0.828778 0.749379
O O3 0.096988 0.803569 0.533897
O O4 0.150640 0.942561 0.618977
O O5 0.250000 0.798669 0.862593
O O6 0.098970 0.700589 0.869647
O O7 0.100803 0.839825 0.966276
O O8 0.250000 0.794675 0.419800
O O9 0.394177 0.718148 0.342235
O O10 0.392222 0.879550 0.355228
O O11 0.250000 0.838945 0.085223
O O12 0.107147 0.753990 0.145160
O O13 0.102336 0.913712 0.158110
O O14 0.250000 0.120936 0.337426
O O15 0.355527 0.076318 0.491455
O O16 0.402397 0.038572 0.302613
O O17 0.101403 0.094305 0.686460
O O18 0.000000 0.000000 0.560734
O O19 0.750000 0.821256 0.728226
O O20 0.750000 0.048155 0.270796
#
# Coordination Sequence:
#
# PCOD9362334 Si02
#       8
#     8   8   8   8   8   8   8   8
#     4  10  19  34  53  76 107 134 163 208 260 302
#     4   9  17  28  49  77 103 132 162 204 257 304
#     4   8  14  26  49  78 100 126 164 204 250 300
#     4   8  13  24  45  75 101 122 159 203 247 296
#     4  10  17  31  53  75  98 128 167 211 256 297
#     4  12  23  33  48  75 104 134 176 211 250 298
#     4   9  16  30  53  75  98 129 169 212 249 294
#     4   8  13  22  44  75 100 123 155 199 246 292
#
# _framework density 21.970171000000001
#
# number of rings (size 3 to 8) (size 9 to 14) (size 15 to 20)
#    0.000    2.750    2.500    2.625    0.000    0.000 
#    0.000    2.500    0.000    6.000    0.000    1.750 
#    0.000    0.000    0.000    0.000    0.000    0.000 
#
# Total GULP energy -178648.122941 kJ/mol
# GULP energy per Si atom -5582.753842 kJ/mol
# Density = 2.192017 g / cm^3
# Si number density = 21.970171 Si / 1000 Ang^3
#
#
#
# Elastic Constant Matrix: (Units=GPa)
#
#
# Indices 1 2 3 4 5 6 
#
# 1 51.2861 1.2051 5.4117 0.0000 0.0000 0.0000
# 2 1.2051 90.0205 75.8169 0.0000 0.0000 0.0000
# 3 5.4117 75.8169 207.4458 0.0000 0.0000 0.0000
# 4 0.0000 0.0000 0.0000 42.1979 0.0000 0.0000
# 5 0.0000 0.0000 0.0000 0.0000 13.6354 0.0000
# 6 0.0000 0.0000 0.0000 0.0000 0.0000 16.6333
#
#
#
# Elastic Compliance Matrix: (Units=1/GPa)
#
#
# Indices 1 2 3 4 5 6 
#
# 1 0.019556 0.000243 -0.000599 0.000000 0.000000 0.000000
# 2 0.000243 0.016052 -0.005873 0.000000 0.000000 0.000000
# 3 -0.000599 -0.005873 0.006983 0.000000 0.000000 0.000000
# 4 0.000000 0.000000 0.000000 0.023698 0.000000 0.000000
# 5 0.000000 0.000000 0.000000 0.000000 0.073339 0.000000
# 6 0.000000 0.000000 0.000000 0.000000 0.000000 0.060120
#
#
# Mechanical properties :
#
#
# Convention : Reuss Voigt Hill
#
# Bulk Modulus (GPa) = 33.18747 57.06886 45.12817
# Shear Modulus (GPa) = 22.49731 32.24791 27.37261
#
# Velocity S-wave (km/s) = 3.20346 3.83535 3.53356
# Velocity P-wave (km/s) = 5.36855 6.75612 6.10191
#
# Compressibility (1/GPa) = 0.03013185
#
# Stress axis : x y z
#
# Youngs Moduli (GPa) = 51.13534 62.29936 143.21434
#
# Poissons Ratio (x) = -0.01511 0.08576
# Poissons Ratio (y) = -0.01240 0.84107
# Poissons Ratio (z) = 0.03062 0.36587
#
# Static dielectric constant tensor:
#      x y z
#    x 1.878910 0.000000 0.000000 
#    y 0.000000 1.762940 0.000000 
#    z 0.000000 0.000000 1.801020 
# 
# From -- ./inp_files/13237.got.cif
#   From: 2010.05.17/outbox.cif.g08.bks.cpg/sg40_7_cif.got.tgz:13237.got - 2010.06.03 18:35:42.
