data_PCOD9362525
_publ_section_title
;
Structure prediction by ZEFSAII (Michael W. Deem and Ramdas Pophale) SiO2 
 PCOD9362525
Probable space group: A M A 2
;
_chemical_formula_sum "Si O2"
_cell_formula_units_Z 56
_cell_length_a 8.307412
_cell_length_b 19.549755
_cell_length_c 18.823972
_cell_angle_alpha 90.000000
_cell_angle_beta 90.000000
_cell_angle_gamma 90.000000
_cell_volume 3057.161184
_symmetry_space_group_name_H-M "A M A 2"
_symmetry_group_IT_number 40
_symmetry_cell_setting 'orthorhombic'
loop_
_space_group_symop_operation_xyz
x,y,z
-x,-y,z
1/2-x,y,z
1/2+x,-y,z
x,1/2+y,1/2+z
-x,1/2-y,1/2+z
1/2-x,1/2+y,1/2+z
1/2+x,1/2-y,1/2+z
loop_
_atom_site_type_symbol
_atom_site_label
_atom_site_fract_x
_atom_site_fract_y
_atom_site_fract_z
Si Si1 0.443504 0.704184 0.296140
Si Si2 0.436105 0.281546 0.653043
Si Si3 0.941723 0.422601 0.201900
Si Si4 0.063484 0.573218 0.658025
Si Si5 0.935164 0.660090 0.069176
Si Si6 0.056243 0.300310 0.915364
Si Si7 0.559483 0.069360 0.316402
O O1 0.250000 0.696682 0.304013
O O2 0.466014 0.762653 0.235683
O O3 0.503998 0.633558 0.260076
O O4 0.505685 0.734299 0.371030
O O5 0.250000 0.262741 0.639240
O O6 0.466147 0.360037 0.634872
O O7 0.551061 0.232286 0.609424
O O8 0.750000 0.422162 0.207196
O O9 0.000000 0.500000 0.212347
O O10 0.986526 0.393702 0.123695
O O11 0.250000 0.581150 0.640767
O O12 0.000000 0.500000 0.631800
O O13 0.038517 0.572788 0.743257
O O14 0.750000 0.638803 0.059780
O O15 0.008747 0.676876 0.992021
O O16 0.250000 0.289975 0.924634
O O17 0.034050 0.365022 0.864292
O O18 0.750000 0.065397 0.299025
O O19 0.500000 0.000000 0.353613
#
# Coordination Sequence:
#
# PCOD9362525 Si02
#       7
#     8   8   8   8   8   8   8
#     4   8  15  30  53  75  95 130 173 213 262 309
#     4  10  18  33  53  72 100 134 171 213 256 307
#     4  10  20  35  56  78 105 139 179 224 271 321
#     4  11  20  30  47  73 100 129 165 207 253 298
#     4  10  20  33  52  78 106 135 174 216 261 318
#     4   9  17  31  51  74 102 138 174 212 259 311
#     4  10  18  30  46  68 100 135 168 202 245 294
#
# _framework density 18.317647000000001
#
# number of rings (size 3 to 8) (size 9 to 14) (size 15 to 20)
#    0.000    2.286    1.429    4.714    0.000    0.571 
#    0.000    4.286    0.000    0.857    0.000    2.000 
#    0.000    0.000    0.000    0.000    0.000    0.000 
#
# Total GULP energy -155941.631650 kJ/mol
# GULP energy per Si atom -5569.343988 kJ/mol
# Density = 1.827595 g / cm^3
# Si number density = 18.317647 Si / 1000 Ang^3
#
#
#
# Elastic Constant Matrix: (Units=GPa)
#
#
# Indices 1 2 3 4 5 6 
#
# 1 31.6703 9.2544 4.4193 0.0000 0.0000 0.0000
# 2 9.2544 117.9006 20.8588 0.0000 0.0000 0.0000
# 3 4.4193 20.8588 49.2358 0.0000 0.0000 0.0000
# 4 0.0000 0.0000 0.0000 6.0948 0.0000 0.0000
# 5 0.0000 0.0000 0.0000 0.0000 12.6513 0.0000
# 6 0.0000 0.0000 0.0000 0.0000 0.0000 5.0564
#
#
#
# Elastic Compliance Matrix: (Units=1/GPa)
#
#
# Indices 1 2 3 4 5 6 
#
# 1 0.032495 -0.002199 -0.001985 0.000000 0.000000 0.000000
# 2 -0.002199 0.009318 -0.003750 0.000000 0.000000 0.000000
# 3 -0.001985 -0.003750 0.022077 0.000000 0.000000 0.000000
# 4 0.000000 0.000000 0.000000 0.164074 0.000000 0.000000
# 5 0.000000 0.000000 0.000000 0.000000 0.079043 0.000000
# 6 0.000000 0.000000 0.000000 0.000000 0.000000 0.197769
#
#
# Mechanical properties :
#
#
# Convention : Reuss Voigt Hill
#
# Bulk Modulus (GPa) = 20.82411 29.76353 25.29382
# Shear Modulus (GPa) = 9.31701 15.71211 12.51456
#
# Velocity S-wave (km/s) = 2.25774 2.93193 2.61664
# Velocity P-wave (km/s) = 4.26492 5.26739 4.79244
#
# Compressibility (1/GPa) = 0.04802126
#
# Stress axis : x y z
#
# Youngs Moduli (GPa) = 30.77392 107.32112 45.29535
#
# Poissons Ratio (x) = 0.23605 0.08991
# Poissons Ratio (y) = 0.06769 0.16986
# Poissons Ratio (z) = 0.06108 0.40246
#
# Static dielectric constant tensor:
#      x y z
#    x 1.640420 0.000000 0.000000 
#    y 0.000000 1.660060 0.000000 
#    z 0.000000 0.000000 1.649100 
# 
# From -- ./inp_files/19512.got.cif
#   From: 2010.05.17/outbox.cif.g08.bks.cpg/sg40_10_cif.got.tgz:19512.got - 2010.06.03 18:35:42.
