data_PCOD9362929
_publ_section_title
;
Structure prediction by ZEFSAII (Michael W. Deem and Ramdas Pophale) SiO2 
 PCOD9362929
Probable space group: A M A 2
;
_chemical_formula_sum "Si O2"
_cell_formula_units_Z 56
_cell_length_a 8.764566
_cell_length_b 13.946234
_cell_length_c 30.120324
_cell_angle_alpha 90.000000
_cell_angle_beta 90.000000
_cell_angle_gamma 90.000000
_cell_volume 3681.688176
_symmetry_space_group_name_H-M "A M A 2"
_symmetry_group_IT_number 40
_symmetry_cell_setting 'orthorhombic'
loop_
_space_group_symop_operation_xyz
x,y,z
-x,-y,z
1/2-x,y,z
1/2+x,-y,z
x,1/2+y,1/2+z
-x,1/2-y,1/2+z
1/2-x,1/2+y,1/2+z
1/2+x,1/2-y,1/2+z
loop_
_atom_site_type_symbol
_atom_site_label
_atom_site_fract_x
_atom_site_fract_y
_atom_site_fract_z
Si Si1 0.433057 0.607719 0.857390
Si Si2 0.067119 0.396873 0.129704
Si Si3 0.568745 0.107353 0.266441
Si Si4 0.432651 0.104398 0.088366
Si Si5 0.066470 0.709641 0.045074
Si Si6 0.566375 0.892980 0.455164
Si Si7 0.567630 0.294679 0.681127
O O1 0.500000 0.500000 0.858501
O O2 0.250000 0.604921 0.853145
O O3 0.503806 0.650149 0.812605
O O4 0.473475 0.647570 0.906188
O O5 0.250000 0.401518 0.125485
O O6 0.031043 0.313215 0.165178
O O7 0.000000 0.500000 0.141421
O O8 0.997817 0.361200 0.082965
O O9 0.750000 0.099290 0.269223
O O10 0.518468 0.169677 0.224440
O O11 0.500000 0.000000 0.261064
O O12 0.250000 0.104220 0.084233
O O13 0.502031 0.185782 0.056685
O O14 0.469507 0.138142 0.138762
O O15 0.500000 0.000000 0.079957
O O16 0.250000 0.710719 0.047548
O O17 0.018993 0.671524 0.996716
O O18 0.750000 0.901223 0.456294
O O19 0.500000 0.000000 0.459702
O O20 0.750000 0.300894 0.688610
#
# Coordination Sequence:
#
# PCOD9362929 Si02
#       7
#     8   8   8   8   8   8   8
#     4   9  16  28  43  61  88 118 148 181 220 264
#     4  10  20  33  48  67  92 121 153 187 224 265
#     4  11  20  29  44  66  91 119 150 183 222 266
#     4  10  20  33  48  67  91 120 153 188 226 266
#     4  10  19  31  47  68  93 121 154 187 223 266
#     4   9  18  29  44  66  91 121 152 183 220 263
#     4   9  19  33  47  65  89 118 151 183 219 264
#
# _framework density 15.210414
#
# number of rings (size 3 to 8) (size 9 to 14) (size 15 to 20)
#    0.000    2.286    0.000    5.571    0.000    7.429 
#    0.000    0.000    0.000    0.000    0.000    1.000 
#    0.000    4.571    0.000    0.000    0.000    0.000 
#
# Total GULP energy -156119.429955 kJ/mol
# GULP energy per Si atom -5575.693927 kJ/mol
# Density = 1.517579 g / cm^3
# Si number density = 15.210414 Si / 1000 Ang^3
#
#
#
# Elastic Constant Matrix: (Units=GPa)
#
#
# Indices 1 2 3 4 5 6 
#
# 1 66.6864 37.4403 60.4087 0.0000 0.0000 0.0000
# 2 37.4403 88.3515 60.0972 0.0000 0.0000 0.0000
# 3 60.4087 60.0972 150.7942 0.0000 0.0000 0.0000
# 4 0.0000 0.0000 0.0000 18.8308 0.0000 0.0000
# 5 0.0000 0.0000 0.0000 0.0000 24.3907 0.0000
# 6 0.0000 0.0000 0.0000 0.0000 0.0000 24.1700
#
#
#
# Elastic Compliance Matrix: (Units=1/GPa)
#
#
# Indices 1 2 3 4 5 6 
#
# 1 0.025181 -0.005226 -0.008005 0.000000 0.000000 0.000000
# 2 -0.005226 0.016612 -0.004527 0.000000 0.000000 0.000000
# 3 -0.008005 -0.004527 0.011643 0.000000 0.000000 0.000000
# 4 0.000000 0.000000 0.000000 0.053105 0.000000 0.000000
# 5 0.000000 0.000000 0.000000 0.000000 0.040999 0.000000
# 6 0.000000 0.000000 0.000000 0.000000 0.000000 0.041374
#
#
# Mechanical properties :
#
#
# Convention : Reuss Voigt Hill
#
# Bulk Modulus (GPa) = 55.80331 69.08051 62.44191
# Shear Modulus (GPa) = 21.70117 23.33734 22.51926
#
# Velocity S-wave (km/s) = 3.78131 3.92126 3.85192
# Velocity P-wave (km/s) = 7.47205 8.12508 7.80540
#
# Compressibility (1/GPa) = 0.01792008
#
# Stress axis : x y z
#
# Youngs Moduli (GPa) = 39.71280 60.19618 85.89163
#
# Poissons Ratio (x) = 0.31457 0.68755
# Poissons Ratio (y) = 0.20753 0.38885
# Poissons Ratio (z) = 0.31789 0.27252
#
# Static dielectric constant tensor:
#      x y z
#    x 1.506800 0.000000 0.000000 
#    y 0.000000 1.482170 0.000000 
#    z 0.000000 0.000000 1.527630 
# 
# From -- ./inp_files/26399.got.cif
#   From: 2010.05.17/outbox.cif.g08.bks.cpg/sg40_14_cif.got.tgz:26399.got - 2010.06.03 18:35:42.
