data_PCOD9362109
_publ_section_title
;
Structure prediction by ZEFSAII (Michael W. Deem and Ramdas Pophale) SiO2 
 PCOD9362109
Probable space group: A B M 2
;
_chemical_formula_sum "Si O2"
_cell_formula_units_Z 40
_cell_length_a 21.109467
_cell_length_b 9.575422
_cell_length_c 9.280654
_cell_angle_alpha 90.000000
_cell_angle_beta 90.000000
_cell_angle_gamma 90.000000
_cell_volume 1875.917662
_symmetry_space_group_name_H-M "A B M 2"
_symmetry_group_IT_number 39
_symmetry_cell_setting 'orthorhombic'
loop_
_space_group_symop_operation_xyz
x,y,z
-x,-y,z
-x,1/2+y,z
x,1/2-y,z
x,1/2+y,1/2+z
-x,1/2-y,1/2+z
-x,y,1/2+z
x,-y,1/2+z
loop_
_atom_site_type_symbol
_atom_site_label
_atom_site_fract_x
_atom_site_fract_y
_atom_site_fract_z
Si Si1 0.936612 0.750000 0.908540
Si Si2 0.644088 0.087098 0.657358
Si Si3 0.435791 0.912148 0.938654
Si Si4 0.154745 0.984229 0.531684
Si Si5 0.763178 0.580926 0.779739
Si Si6 0.926651 0.750000 0.556245
O O1 0.896458 0.625502 0.978012
O O2 0.935854 0.750000 0.732508
O O3 0.006705 0.750000 0.974060
O O4 0.660877 0.250000 0.623790
O O5 0.617510 0.997488 0.525376
O O6 0.700801 0.999111 0.729232
O O7 0.587611 0.092101 0.774298
O O8 0.442181 0.750000 0.988291
O O9 0.500000 0.000000 0.952193
O O10 0.179217 0.006380 0.693754
O O11 0.116523 0.123786 0.505995
O O12 0.218616 0.949989 0.443895
O O13 0.761563 0.750000 0.754250
#
# Coordination Sequence:
#
# PCOD9362109 Si02
#       6
#     4   8   8   8   8   4
#     4  12  28  48  70 106 134 178 227 282 344 414
#     4  11  26  43  69 106 136 184 237 285 348 404
#     4  11  24  44  69 102 144 185 232 286 342 407
#     4  12  24  47  69  98 138 176 226 283 347 408
#     4  12  26  46  67 100 138 178 232 286 341 414
#     4  12  28  48  70 104 138 172 231 280 342 416
#
# _framework density 21.322897999999999
#
# number of rings (size 3 to 8) (size 9 to 14) (size 15 to 20)
#    0.000    0.400    4.000    3.600    5.600    9.600 
#    0.000    0.000    0.000    0.000    0.000    0.000 
#    0.000    0.000    0.000    0.000    0.000    0.000 
#
# Total GULP energy -111643.433554 kJ/mol
# GULP energy per Si atom -5582.171678 kJ/mol
# Density = 2.127437 g / cm^3
# Si number density = 21.322898 Si / 1000 Ang^3
#
#
#
# Elastic Constant Matrix: (Units=GPa)
#
#
# Indices 1 2 3 4 5 6 
#
# 1 90.6838 34.8855 -1.8363 0.0000 0.0000 0.0000
# 2 34.8855 176.6621 47.0263 0.0000 0.0000 0.0000
# 3 -1.8363 47.0263 51.3002 0.0000 0.0000 0.0000
# 4 0.0000 0.0000 0.0000 28.9490 0.0000 0.0000
# 5 0.0000 0.0000 0.0000 0.0000 44.4256 0.0000
# 6 0.0000 0.0000 0.0000 0.0000 0.0000 46.6865
#
#
#
# Elastic Compliance Matrix: (Units=1/GPa)
#
#
# Indices 1 2 3 4 5 6 
#
# 1 0.012406 -0.003397 0.003558 0.000000 0.000000 0.000000
# 2 -0.003397 0.008418 -0.007838 0.000000 0.000000 0.000000
# 3 0.003558 -0.007838 0.026806 0.000000 0.000000 0.000000
# 4 0.000000 0.000000 0.000000 0.034543 0.000000 0.000000
# 5 0.000000 0.000000 0.000000 0.000000 0.022510 0.000000
# 6 0.000000 0.000000 0.000000 0.000000 0.000000 0.021419
#
#
# Mechanical properties :
#
#
# Convention : Reuss Voigt Hill
#
# Bulk Modulus (GPa) = 30.98325 53.19968 42.09146
# Shear Modulus (GPa) = 32.84837 39.91692 36.38265
#
# Velocity S-wave (km/s) = 3.92921 4.33138 4.13518
# Velocity P-wave (km/s) = 5.92848 7.07235 6.52553
#
# Compressibility (1/GPa) = 0.03227550
#
# Stress axis : x y z
#
# Youngs Moduli (GPa) = 80.60501 118.79624 37.30568
#
# Poissons Ratio (x) = 0.40355 -0.13274
# Poissons Ratio (y) = 0.27381 0.29241
# Poissons Ratio (z) = -0.28680 0.93113
#
# Static dielectric constant tensor:
#      x y z
#    x 1.786760 0.000000 0.000000 
#    y 0.000000 1.743020 0.000000 
#    z 0.000000 0.000000 1.761370 
# 
# From -- ./inp_files/4045.got.cif
#   From: 2010.05.17/outbox.cif.g08.bks.cpg/sg39_3_cif.got.tgz:4045.got - 2010.06.03 18:22:40.
