data_PCOD9362370
_publ_section_title
;
Structure prediction by ZEFSAII (Michael W. Deem and Ramdas Pophale) SiO2 
 PCOD9362370
Probable space group: A M A 2
;
_chemical_formula_sum "Si O2"
_cell_formula_units_Z 36
_cell_length_a 17.888210
_cell_length_b 12.863223
_cell_length_c 8.411383
_cell_angle_alpha 90.000000
_cell_angle_beta 90.000000
_cell_angle_gamma 90.000000
_cell_volume 1935.459517
_symmetry_space_group_name_H-M "A M A 2"
_symmetry_group_IT_number 40
_symmetry_cell_setting 'orthorhombic'
loop_
_space_group_symop_operation_xyz
x,y,z
-x,-y,z
1/2-x,y,z
1/2+x,-y,z
x,1/2+y,1/2+z
-x,1/2-y,1/2+z
1/2-x,1/2+y,1/2+z
1/2+x,1/2-y,1/2+z
loop_
_atom_site_type_symbol
_atom_site_label
_atom_site_fract_x
_atom_site_fract_y
_atom_site_fract_z
Si Si1 0.250000 0.036854 0.113580
Si Si2 0.619874 0.845960 0.276714
Si Si3 0.877282 0.140290 0.580235
Si Si4 0.750000 0.175243 0.322780
Si Si5 0.500000 0.000000 0.413093
Si Si6 0.250000 0.433100 0.292206
Si Si7 0.250000 0.717949 0.994537
O O1 0.323328 0.100321 0.155780
O O2 0.250000 0.934296 0.225674
O O3 0.250000 0.016044 0.928473
O O4 0.599758 0.735771 0.195768
O O5 0.551391 0.921487 0.311879
O O6 0.673229 0.834658 0.433221
O O7 0.823137 0.178806 0.435884
O O8 0.822496 0.067341 0.682963
O O9 0.945732 0.074079 0.514880
O O10 0.750000 0.258891 0.180841
O O11 0.250000 0.324060 0.389648
#
# Coordination Sequence:
#
# PCOD9362370 Si02
#       7
#     4   8   8   4   4   4   4
#     4  10  17  39  67  89 114 159 207 265 307 344
#     4  10  22  42  60  89 127 162 205 258 306 369
#     4  10  22  42  60  91 124 161 209 258 303 371
#     4  10  17  37  71  89 114 160 212 262 309 346
#     4  12  24  42  62  86 142 168 194 248 324 382
#     4   8  18  38  64  89 117 147 218 262 293 361
#     4   8  18  36  68  89 113 156 213 263 299 353
#
# _framework density 18.600235000000001
#
# number of rings (size 3 to 8) (size 9 to 14) (size 15 to 20)
#    0.000    2.222    2.222    2.000    0.000    1.778 
#   16.000    0.000    0.000    0.000    0.000    0.000 
#    0.000    0.000    0.000    0.000    0.000    0.000 
#
# Total GULP energy -100397.426680 kJ/mol
# GULP energy per Si atom -5577.634816 kJ/mol
# Density = 1.855790 g / cm^3
# Si number density = 18.600235 Si / 1000 Ang^3
#
#
#
# Elastic Constant Matrix: (Units=GPa)
#
#
# Indices 1 2 3 4 5 6 
#
# 1 149.7419 67.7501 64.1667 0.0000 0.0000 0.0000
# 2 67.7501 89.2560 47.9028 0.0000 0.0000 0.0000
# 3 64.1667 47.9028 124.3319 0.0000 0.0000 0.0000
# 4 0.0000 0.0000 0.0000 44.6533 0.0000 0.0000
# 5 0.0000 0.0000 0.0000 0.0000 11.1684 0.0000
# 6 0.0000 0.0000 0.0000 0.0000 0.0000 20.0699
#
#
#
# Elastic Compliance Matrix: (Units=1/GPa)
#
#
# Indices 1 2 3 4 5 6 
#
# 1 0.011053 -0.006717 -0.003116 0.000000 0.000000 0.000000
# 2 -0.006717 0.018207 -0.003548 0.000000 0.000000 0.000000
# 3 -0.003116 -0.003548 0.011018 0.000000 0.000000 0.000000
# 4 0.000000 0.000000 0.000000 0.022395 0.000000 0.000000
# 5 0.000000 0.000000 0.000000 0.000000 0.089538 0.000000
# 6 0.000000 0.000000 0.000000 0.000000 0.000000 0.049826
#
#
# Mechanical properties :
#
#
# Convention : Reuss Voigt Hill
#
# Bulk Modulus (GPa) = 73.99305 80.32986 77.16146
# Shear Modulus (GPa) = 21.43132 27.41235 24.42183
#
# Velocity S-wave (km/s) = 3.39810 3.84313 3.62744
# Velocity P-wave (km/s) = 7.43392 7.93563 7.68887
#
# Compressibility (1/GPa) = 0.01351478
#
# Stress axis : x y z
#
# Youngs Moduli (GPa) = 90.47631 54.92528 90.75888
#
# Poissons Ratio (x) = 0.36894 0.28282
# Poissons Ratio (y) = 0.60774 0.32201
# Poissons Ratio (z) = 0.28194 0.19488
#
# Static dielectric constant tensor:
#      x y z
#    x 1.598560 0.000000 0.000000 
#    y 0.000000 1.695960 0.000000 
#    z 0.000000 0.000000 1.636530 
# 
# From -- ./inp_files/6117.got.cif
#   From: 2010.05.17/outbox.cif.g08.bks.cpg/sg40_4_cif.got.tgz:6117.got - 2010.06.03 18:35:42.
