data_PCOD9362277
_publ_section_title
;
Structure prediction by ZEFSAII (Michael W. Deem and Ramdas Pophale) SiO2 
 PCOD9362277
Probable space group: A M A 2
;
_chemical_formula_sum "Si O2"
_cell_formula_units_Z 64
_cell_length_a 8.721430
_cell_length_b 13.989432
_cell_length_c 35.637048
_cell_angle_alpha 90.000000
_cell_angle_beta 90.000000
_cell_angle_gamma 90.000000
_cell_volume 4347.999676
_symmetry_space_group_name_H-M "A M A 2"
_symmetry_group_IT_number 40
_symmetry_cell_setting 'orthorhombic'
loop_
_space_group_symop_operation_xyz
x,y,z
-x,-y,z
1/2-x,y,z
1/2+x,-y,z
x,1/2+y,1/2+z
-x,1/2-y,1/2+z
1/2-x,1/2+y,1/2+z
1/2+x,1/2-y,1/2+z
loop_
_atom_site_type_symbol
_atom_site_label
_atom_site_fract_x
_atom_site_fract_y
_atom_site_fract_z
Si Si1 0.934254 0.702596 0.057040
Si Si2 0.566930 0.608256 0.824341
Si Si3 0.065150 0.214811 0.170241
Si Si4 0.567113 0.896338 0.630675
Si Si5 0.933643 0.392500 0.983831
Si Si6 0.066380 0.603241 0.595843
Si Si7 0.566623 0.392364 0.900432
Si Si8 0.065828 0.107245 0.246576
O O1 0.250000 0.304952 0.058267
O O2 0.002424 0.636674 0.090111
O O3 0.978096 0.811342 0.067680
O O4 0.996159 0.669298 0.017127
O O5 0.500000 0.500000 0.824412
O O6 0.750000 0.604999 0.824100
O O7 0.506874 0.653338 0.863240
O O8 0.502976 0.648571 0.785274
O O9 0.250000 0.226470 0.168065
O O10 0.020120 0.140381 0.137313
O O11 0.988387 0.315052 0.159665
O O12 0.026532 0.171263 0.210571
O O13 0.750000 0.899772 0.629238
O O14 0.500000 0.000000 0.639913
O O15 0.750000 0.397643 0.987526
O O16 0.968390 0.352876 0.941933
O O17 0.000000 0.500000 0.986625
O O18 0.250000 0.596742 0.595522
O O19 0.000000 0.500000 0.587362
O O20 0.500000 0.500000 0.901945
O O21 0.750000 0.396534 0.895800
O O22 0.750000 0.899263 0.249774
O O23 0.000000 0.000000 0.241296
#
# Coordination Sequence:
#
# PCOD9362277 Si02
#       8
#     8   8   8   8   8   8   8   8
#     4  10  20  33  46  63  88 114 144 179 214 254
#     4  10  17  25  38  56  81 112 146 177 209 252
#     4   9  19  33  46  64  88 113 144 179 215 254
#     4  11  21  33  49  65  85 113 144 179 217 256
#     4  10  19  29  43  63  86 114 146 180 216 255
#     4   9  18  31  46  63  84 111 141 176 214 251
#     4   9  16  26  39  56  80 109 142 175 210 252
#     4  10  18  28  43  62  88 118 147 181 216 252
#
# _framework density 14.719412
#
# number of rings (size 3 to 8) (size 9 to 14) (size 15 to 20)
#    0.000    2.250    0.000    6.750    0.000    5.000 
#    0.000    0.000    0.000    0.000    0.000    0.000 
#    0.000    1.000    0.000    7.000    0.000    5.375 
#
# Total GULP energy -178373.134925 kJ/mol
# GULP energy per Si atom -5574.160466 kJ/mol
# Density = 1.468591 g / cm^3
# Si number density = 14.719412 Si / 1000 Ang^3
#
#
#
# Elastic Constant Matrix: (Units=GPa)
#
#
# Indices 1 2 3 4 5 6 
#
# 1 77.0171 33.0617 60.1090 0.0000 0.0000 0.0000
# 2 33.0617 75.4643 54.2671 0.0000 0.0000 0.0000
# 3 60.1090 54.2671 154.9881 0.0000 0.0000 0.0000
# 4 0.0000 0.0000 0.0000 17.8441 0.0000 0.0000
# 5 0.0000 0.0000 0.0000 0.0000 23.0429 0.0000
# 6 0.0000 0.0000 0.0000 0.0000 0.0000 20.6269
#
#
#
# Elastic Compliance Matrix: (Units=1/GPa)
#
#
# Indices 1 2 3 4 5 6 
#
# 1 0.019551 -0.004160 -0.006126 0.000000 0.000000 0.000000
# 2 -0.004160 0.018596 -0.004898 0.000000 0.000000 0.000000
# 3 -0.006126 -0.004898 0.010543 0.000000 0.000000 0.000000
# 4 0.000000 0.000000 0.000000 0.056041 0.000000 0.000000
# 5 0.000000 0.000000 0.000000 0.000000 0.043397 0.000000
# 6 0.000000 0.000000 0.000000 0.000000 0.000000 0.048480
#
#
# Mechanical properties :
#
#
# Convention : Reuss Voigt Hill
#
# Bulk Modulus (GPa) = 54.57886 66.92723 60.75304
# Shear Modulus (GPa) = 21.45156 22.97155 22.21156
#
# Velocity S-wave (km/s) = 3.82169 3.95477 3.88880
# Velocity P-wave (km/s) = 7.52554 8.14991 7.84394
#
# Compressibility (1/GPa) = 0.01832211
#
# Stress axis : x y z
#
# Youngs Moduli (GPa) = 51.14823 53.77525 94.85246
#
# Poissons Ratio (x) = 0.22373 0.58104
# Poissons Ratio (y) = 0.21280 0.46455
# Poissons Ratio (z) = 0.31332 0.26337
#
# Static dielectric constant tensor:
#      x y z
#    x 1.491600 0.000000 0.000000 
#    y 0.000000 1.457360 0.000000 
#    z 0.000000 0.000000 1.525480 
# 
# From -- ./inp_files/26499.got.cif
#   From: 2010.05.17/outbox.cif.g08.bks.cpg/sg40_14_cif.got.tgz:26499.got - 2010.06.03 18:35:42.
