data_PCOD9362274
_publ_section_title
;
Structure prediction by ZEFSAII (Michael W. Deem and Ramdas Pophale) SiO2 
 PCOD9362274
Probable space group: A M A 2
;
_chemical_formula_sum "Si O2"
_cell_formula_units_Z 48
_cell_length_a 11.405686
_cell_length_b 25.650983
_cell_length_c 8.053802
_cell_angle_alpha 90.000000
_cell_angle_beta 90.000000
_cell_angle_gamma 90.000000
_cell_volume 2356.277154
_symmetry_space_group_name_H-M "A M A 2"
_symmetry_group_IT_number 40
_symmetry_cell_setting 'orthorhombic'
loop_
_space_group_symop_operation_xyz
x,y,z
-x,-y,z
1/2-x,y,z
1/2+x,-y,z
x,1/2+y,1/2+z
-x,1/2-y,1/2+z
1/2-x,1/2+y,1/2+z
1/2+x,1/2-y,1/2+z
loop_
_atom_site_type_symbol
_atom_site_label
_atom_site_fract_x
_atom_site_fract_y
_atom_site_fract_z
Si Si1 0.750000 0.477742 0.798420
Si Si2 0.387614 0.795450 0.765991
Si Si3 0.961376 0.199395 0.387958
Si Si4 0.049878 0.910112 0.766433
Si Si5 0.750000 0.658911 0.703420
Si Si6 0.250000 0.420663 0.003968
Si Si7 0.750000 0.555658 0.492545
Si Si8 0.881957 0.398653 0.989991
O O1 0.750000 0.509538 0.627797
O O2 0.750000 0.521657 0.937912
O O3 0.861719 0.441703 0.845043
O O4 0.250000 0.797167 0.809496
O O5 0.398948 0.790992 0.565533
O O6 0.453099 0.746768 0.845531
O O7 0.450364 0.849535 0.821503
O O8 0.867334 0.191963 0.238567
O O9 0.037613 0.147204 0.418971
O O10 0.139075 0.910466 0.613868
O O11 0.930492 0.921719 0.665438
O O12 0.124539 0.945563 0.894389
O O13 0.750000 0.615470 0.560281
O O14 0.750000 0.619694 0.858308
O O15 0.750000 0.378609 0.021805
#
# Coordination Sequence:
#
# PCOD9362274 Si02
#       8
#     4   8   8   8   4   4   4   8
#     4   9  22  38  68 102 121 166 231 275 334 393
#     4  11  21  38  61  96 127 175 218 261 327 401
#     4  11  22  39  66  91 133 174 215 275 325 396
#     4  10  19  39  68  92 131 170 215 273 328 393
#     4  11  20  40  60  94 122 169 226 266 326 397
#     4  10  16  38  67  83 119 167 221 260 317 406
#     4  10  22  38  69 103 126 158 230 297 315 380
#     4   9  20  41  64  97 131 176 220 260 332 421
#
# _framework density 20.371117000000002
#
# number of rings (size 3 to 8) (size 9 to 14) (size 15 to 20)
#    0.500    1.333    5.833    0.500    2.333    0.667 
#    6.000    0.000   14.667    0.000    4.333    0.000 
#    0.000    0.000    0.000    0.000    0.000    0.000 
#
# Total GULP energy -133603.393107 kJ/mol
# GULP energy per Si atom -5566.808046 kJ/mol
# Density = 2.032475 g / cm^3
# Si number density = 20.371117 Si / 1000 Ang^3
#
#
#
# Elastic Constant Matrix: (Units=GPa)
#
#
# Indices 1 2 3 4 5 6 
#
# 1 101.9748 31.5467 29.4854 0.0000 0.0000 0.0000
# 2 31.5467 100.3316 38.4535 0.0000 0.0000 0.0000
# 3 29.4854 38.4535 58.4496 0.0000 0.0000 0.0000
# 4 0.0000 0.0000 0.0000 35.2128 0.0000 0.0000
# 5 0.0000 0.0000 0.0000 0.0000 43.4334 0.0000
# 6 0.0000 0.0000 0.0000 0.0000 0.0000 -6.8955
#
#
#
# Elastic Compliance Matrix: (Units=1/GPa)
#
#
# Indices 1 2 3 4 5 6 
#
# 1 0.011746 -0.001902 -0.004674 0.000000 0.000000 0.000000
# 2 -0.001902 0.013635 -0.008011 0.000000 0.000000 0.000000
# 3 -0.004674 -0.008011 0.024737 0.000000 0.000000 0.000000
# 4 0.000000 0.000000 0.000000 0.028399 0.000000 0.000000
# 5 0.000000 0.000000 0.000000 0.000000 0.023024 0.000000
# 6 0.000000 0.000000 0.000000 0.000000 0.000000 -0.145022
#
#
# Mechanical properties :
#
#
# Convention : Reuss Voigt Hill
#
# Bulk Modulus (GPa) = 47.74588 51.08077 49.41333
# Shear Modulus (GPa) = -682.64556 25.10150 -328.77203
#
# Velocity S-wave (km/s) = -18.32572 3.51409 -12.71777
# Velocity P-wave (km/s) = 20.59823 6.44939 13.83280
#
# Compressibility (1/GPa) = 0.02094421
#
# Stress axis : x y z
#
# Youngs Moduli (GPa) = 85.13370 73.33900 40.42496
#
# Poissons Ratio (x) = 0.13948 0.18896
# Poissons Ratio (y) = 0.16191 0.32385
# Poissons Ratio (z) = 0.39794 0.58753
#
# Static dielectric constant tensor:
#      x y z
#    x 1.752360 0.000000 0.000000 
#    y 0.000000 1.756190 0.000000 
#    z 0.000000 0.000000 1.795720 
# 
# From -- ./inp_files/5614.got.cif
#   From: 2010.05.17/outbox.cif.g08.bks.cpg/sg40_3_cif.got.tgz:5614.got - 2010.06.03 18:35:42.
