data_PCOD9362666
_publ_section_title
;
Structure prediction by ZEFSAII (Michael W. Deem and Ramdas Pophale) SiO2 
 PCOD9362666
Probable space group: A M A 2
;
_chemical_formula_sum "Si O2"
_cell_formula_units_Z 48
_cell_length_a 17.451286
_cell_length_b 17.306856
_cell_length_c 7.035061
_cell_angle_alpha 90.000000
_cell_angle_beta 90.000000
_cell_angle_gamma 90.000000
_cell_volume 2124.777622
_symmetry_space_group_name_H-M "A M A 2"
_symmetry_group_IT_number 40
_symmetry_cell_setting 'orthorhombic'
loop_
_space_group_symop_operation_xyz
x,y,z
-x,-y,z
1/2-x,y,z
1/2+x,-y,z
x,1/2+y,1/2+z
-x,1/2-y,1/2+z
1/2-x,1/2+y,1/2+z
1/2+x,1/2-y,1/2+z
loop_
_atom_site_type_symbol
_atom_site_label
_atom_site_fract_x
_atom_site_fract_y
_atom_site_fract_z
Si Si1 0.920276 0.532338 0.560090
Si Si2 0.560903 0.237257 0.450632
Si Si3 0.165291 0.638227 0.004979
Si Si4 0.497036 0.919625 0.461080
Si Si5 0.337446 0.122738 0.963792
Si Si6 0.395494 0.798215 0.017162
O O1 0.949043 0.558632 0.770877
O O2 0.864460 0.459735 0.541709
O O3 0.883755 0.611287 0.479188
O O4 0.000000 0.500000 0.475003
O O5 0.545218 0.154569 0.548267
O O6 0.612548 0.304816 0.535404
O O7 0.593950 0.215732 0.244272
O O8 0.477485 0.274786 0.431340
O O9 0.250000 0.607754 0.950852
O O10 0.156636 0.623455 0.232906
O O11 0.162592 0.730226 0.964233
O O12 0.085515 0.604404 0.923506
O O13 0.500000 0.000000 0.571449
O O14 0.250000 0.136977 0.012591
#
# Coordination Sequence:
#
# PCOD9362666 Si02
#       6
#     8   8   8   8   8   8
#     4  10  18  32  55  83 118 151 197 240 283 354
#     4   9  17  33  54  79 109 148 192 239 277 350
#     4   9  19  36  56  81 114 153 195 246 305 350
#     4   9  19  35  56  84 112 153 202 238 285 355
#     4  10  20  34  55  85 119 154 192 247 308 350
#     4   9  17  31  55  79 108 145 193 235 283 350
#
# _framework density 22.590598
#
# number of rings (size 3 to 8) (size 9 to 14) (size 15 to 20)
#    0.000    2.667    1.667    0.000    0.000    1.333 
#    3.000    6.667    0.000    0.000    0.000    0.000 
#    0.000    0.000    0.000    0.000    0.000    0.000 
#
# Total GULP energy -133759.391868 kJ/mol
# GULP energy per Si atom -5573.307995 kJ/mol
# Density = 2.253918 g / cm^3
# Si number density = 22.590598 Si / 1000 Ang^3
#
#
#
# Elastic Constant Matrix: (Units=GPa)
#
#
# Indices 1 2 3 4 5 6 
#
# 1 129.9145 70.5066 4.2903 0.0000 0.0000 0.0000
# 2 70.5066 233.8175 23.4062 0.0000 0.0000 0.0000
# 3 4.2903 23.4062 94.4932 0.0000 0.0000 0.0000
# 4 0.0000 0.0000 0.0000 -2.0731 0.0000 0.0000
# 5 0.0000 0.0000 0.0000 0.0000 13.5607 0.0000
# 6 0.0000 0.0000 0.0000 0.0000 0.0000 37.3856
#
#
#
# Elastic Compliance Matrix: (Units=1/GPa)
#
#
# Indices 1 2 3 4 5 6 
#
# 1 0.009211 -0.002805 0.000277 0.000000 0.000000 0.000000
# 2 -0.002805 0.005240 -0.001171 0.000000 0.000000 0.000000
# 3 0.000277 -0.001171 0.010860 0.000000 0.000000 0.000000
# 4 0.000000 0.000000 0.000000 -0.482374 0.000000 0.000000
# 5 0.000000 0.000000 0.000000 0.000000 0.073742 0.000000
# 6 0.000000 0.000000 0.000000 0.000000 0.000000 0.026748
#
#
# Mechanical properties :
#
#
# Convention : Reuss Voigt Hill
#
# Bulk Modulus (GPa) = 55.82669 72.73683 64.28176
# Shear Modulus (GPa) = -14.56860 33.77613 9.60377
#
# Velocity S-wave (km/s) = -2.54224 3.87090 2.06409
# Velocity P-wave (km/s) = 4.01855 7.22816 5.84786
#
# Compressibility (1/GPa) = 0.01791258
#
# Stress axis : x y z
#
# Youngs Moduli (GPa) = 108.57046 190.84380 92.07967
#
# Poissons Ratio (x) = 0.53534 -0.02547
# Poissons Ratio (y) = 0.30455 0.10779
# Poissons Ratio (z) = -0.03004 0.22340
#
# Static dielectric constant tensor:
#      x y z
#    x 1.791200 0.000000 0.000000 
#    y 0.000000 1.900780 0.000000 
#    z 0.000000 0.000000 1.953380 
# 
# From -- ./inp_files/6425.got.cif
#   From: 2010.05.17/outbox.cif.g08.bks.cpg/sg40_4_cif.got.tgz:6425.got - 2010.06.03 18:35:42.
