data_PCOD9362424
_publ_section_title
;
Structure prediction by ZEFSAII (Michael W. Deem and Ramdas Pophale) SiO2 
 PCOD9362424
Probable space group: A M A 2
;
_chemical_formula_sum "Si O2"
_cell_formula_units_Z 56
_cell_length_a 8.729078
_cell_length_b 13.930148
_cell_length_c 30.142185
_cell_angle_alpha 90.000000
_cell_angle_beta 90.000000
_cell_angle_gamma 90.000000
_cell_volume 3665.209772
_symmetry_space_group_name_H-M "A M A 2"
_symmetry_group_IT_number 40
_symmetry_cell_setting 'orthorhombic'
loop_
_space_group_symop_operation_xyz
x,y,z
-x,-y,z
1/2-x,y,z
1/2+x,-y,z
x,1/2+y,1/2+z
-x,1/2-y,1/2+z
1/2-x,1/2+y,1/2+z
1/2+x,1/2-y,1/2+z
loop_
_atom_site_type_symbol
_atom_site_label
_atom_site_fract_x
_atom_site_fract_y
_atom_site_fract_z
Si Si1 0.933197 0.608529 0.752180
Si Si2 0.567111 0.602326 0.022713
Si Si3 0.434181 0.607760 0.843777
Si Si4 0.934359 0.299809 0.936948
Si Si5 0.565819 0.892240 0.160583
Si Si6 0.934359 0.799809 0.067412
Si Si7 0.432888 0.897674 0.981647
O O1 0.750000 0.606079 0.752180
O O2 0.000000 0.500000 0.752180
O O3 0.996343 0.650068 0.798305
O O4 0.996342 0.650068 0.706055
O O5 0.500000 0.500000 0.035933
O O6 0.750000 0.596823 0.022071
O O7 0.521061 0.691157 0.054415
O O8 0.508282 0.631334 0.973789
O O9 0.500000 0.500000 0.849361
O O10 0.250000 0.602227 0.839795
O O11 0.474909 0.668158 0.887445
O O12 0.750000 0.307140 0.941275
O O13 0.978941 0.191158 0.949945
O O14 0.750000 0.897773 0.164565
O O15 0.525093 0.831842 0.116915
O O16 0.500000 0.000000 0.154998
O O17 0.750000 0.807142 0.063084
O O18 0.008285 0.868666 0.030571
O O19 0.250000 0.903176 0.982288
O O20 0.500000 0.000000 0.968427
#
# Coordination Sequence:
#
# PCOD9362424 Si02
#       7
#     8   8   8   8   8   8   8
#     4  10  18  28  42  62  87 114 143 174 213 258
#     4  10  19  31  46  65  90 118 148 182 219 257
#     4  10  18  29  44  63  88 116 145 177 214 255
#     4   9  19  32  46  65  88 117 151 182 215 258
#     4  10  18  29  44  63  88 116 145 177 214 255
#     4   9  19  32  46  65  88 117 151 182 215 258
#     4  10  19  31  46  65  90 118 148 182 219 257
#
# _framework density 15.278797000000001
#
# number of rings (size 3 to 8) (size 9 to 14) (size 15 to 20)
#    0.000    2.286    0.000    5.571    0.000    5.714 
#    0.000    0.000    0.000    0.000    0.000    1.000 
#    0.000    0.000    0.000    0.000    0.000    0.000 
#
# Total GULP energy -156124.447449 kJ/mol
# GULP energy per Si atom -5575.873123 kJ/mol
# Density = 1.524402 g / cm^3
# Si number density = 15.278797 Si / 1000 Ang^3
#
#
#
# Elastic Constant Matrix: (Units=GPa)
#
#
# Indices 1 2 3 4 5 6 
#
# 1 52.0036 25.7919 48.0986 0.0000 0.0000 0.0000
# 2 25.7919 72.9126 47.7872 0.0000 0.0000 0.0000
# 3 48.0986 47.7872 147.5523 0.0000 0.0000 0.0000
# 4 0.0000 0.0000 0.0000 18.9975 0.0000 0.0000
# 5 0.0000 0.0000 0.0000 0.0000 24.1726 0.0000
# 6 0.0000 0.0000 0.0000 0.0000 0.0000 21.9820
#
#
#
# Elastic Compliance Matrix: (Units=1/GPa)
#
#
# Indices 1 2 3 4 5 6 
#
# 1 0.028979 -0.005154 -0.007777 0.000000 0.000000 0.000000
# 2 -0.005154 0.018327 -0.004256 0.000000 0.000000 0.000000
# 3 -0.007777 -0.004256 0.010691 0.000000 0.000000 0.000000
# 4 0.000000 0.000000 0.000000 0.052638 0.000000 0.000000
# 5 0.000000 0.000000 0.000000 0.000000 0.041369 0.000000
# 6 0.000000 0.000000 0.000000 0.000000 0.000000 0.045492
#
#
# Mechanical properties :
#
#
# Convention : Reuss Voigt Hill
#
# Bulk Modulus (GPa) = 42.33046 57.31375 49.82210
# Shear Modulus (GPa) = 20.85562 23.08314 21.96938
#
# Velocity S-wave (km/s) = 3.69860 3.89111 3.79608
# Velocity P-wave (km/s) = 6.78270 7.60139 7.20368
#
# Compressibility (1/GPa) = 0.02362365
#
# Stress axis : x y z
#
# Youngs Moduli (GPa) = 34.50811 54.56370 93.53897
#
# Poissons Ratio (x) = 0.28120 0.72748
# Poissons Ratio (y) = 0.17784 0.39807
# Poissons Ratio (z) = 0.26838 0.23220
#
# Static dielectric constant tensor:
#      x y z
#    x 1.516870 0.000000 0.000000 
#    y 0.000000 1.497580 0.000000 
#    z 0.000000 0.000000 1.526960 
# 
# From -- ./inp_files/26395.got.cif
#   From: 2010.05.17/outbox.cif.g08.bks.cpg/sg40_14_cif.got.tgz:26395.got - 2010.06.03 18:35:42.
