data_PCOD9362231
_publ_section_title
;
Structure prediction by ZEFSAII (Michael W. Deem and Ramdas Pophale) SiO2 
 PCOD9362231
Probable space group: A M A 2
;
_chemical_formula_sum "Si O2"
_cell_formula_units_Z 32
_cell_length_a 5.625381
_cell_length_b 28.200376
_cell_length_c 7.224500
_cell_angle_alpha 90.000000
_cell_angle_beta 90.000000
_cell_angle_gamma 90.000000
_cell_volume 1146.079215
_symmetry_space_group_name_H-M "A M A 2"
_symmetry_group_IT_number 40
_symmetry_cell_setting 'orthorhombic'
loop_
_space_group_symop_operation_xyz
x,y,z
-x,-y,z
1/2-x,y,z
1/2+x,-y,z
x,1/2+y,1/2+z
-x,1/2-y,1/2+z
1/2-x,1/2+y,1/2+z
1/2+x,1/2-y,1/2+z
loop_
_atom_site_type_symbol
_atom_site_label
_atom_site_fract_x
_atom_site_fract_y
_atom_site_fract_z
Si Si1 0.750000 0.242992 0.385240
Si Si2 0.750000 0.635689 0.466673
Si Si3 0.750000 0.239255 0.803097
Si Si4 0.250000 0.887166 0.407364
Si Si5 0.750000 0.013490 0.630708
Si Si6 0.750000 0.476292 0.725874
Si Si7 0.250000 0.632027 0.812286
Si Si8 0.750000 0.852182 0.900294
O O1 0.750000 0.224076 0.593070
O O2 0.487562 0.230613 0.323586
O O3 0.750000 0.298928 0.321834
O O4 0.750000 0.694056 0.444812
O O5 0.750000 0.615440 0.676338
O O6 0.501723 0.622306 0.369877
O O7 0.250000 0.935373 0.526992
O O8 0.512201 0.865796 0.434113
O O9 0.500000 0.000000 0.728399
O O10 0.750000 0.980535 0.448801
O O11 0.500000 0.500000 0.663706
O O12 0.750000 0.420196 0.710419
O O13 0.250000 0.660690 0.620584
#
# Coordination Sequence:
#
# PCOD9362231 Si02
#       8
#     4   4   4   4   4   4   4   4
#     4  10  19  33  50  71  94 121 155 194 231 279
#     4   8  16  25  37  54  75 103 137 174 209 256
#     4  10  19  33  50  71  94 121 155 194 231 279
#     4  10  14  20  29  41  63  91 125 167 194 237
#     4  10  14  18  24  38  57  85 124 160 188 229
#     4  10  14  18  24  38  57  85 124 160 188 229
#     4  10  14  20  29  41  63  91 125 167 194 237
#     4   8  16  25  37  54  75 103 137 174 209 256
#
# _framework density 27.921282000000001
#
# number of rings (size 3 to 8) (size 9 to 14) (size 15 to 20)
#    0.000    2.500    5.000    0.750    0.000    0.000 
#    0.000    0.000    0.000    0.000    0.000    0.000 
#    0.000    0.000    0.000    0.000    0.000    7.500 
#
# Total GULP energy -89206.871187 kJ/mol
# GULP energy per Si atom -5575.429449 kJ/mol
# Density = 2.785773 g / cm^3
# Si number density = 27.921282 Si / 1000 Ang^3
#
#
#
# Elastic Constant Matrix: (Units=GPa)
#
#
# Indices 1 2 3 4 5 6 
#
# 1 350.8412 33.7354 36.0104 0.0000 0.0000 0.0000
# 2 33.7354 100.1576 15.1599 0.0000 0.0000 0.0000
# 3 36.0104 15.1599 90.8451 0.0000 0.0000 0.0000
# 4 0.0000 0.0000 0.0000 4.9529 0.0000 0.0000
# 5 0.0000 0.0000 0.0000 0.0000 -46.7727 0.0000
# 6 0.0000 0.0000 0.0000 0.0000 0.0000-1114.2731
#
#
#
# Elastic Compliance Matrix: (Units=1/GPa)
#
#
# Indices 1 2 3 4 5 6 
#
# 1 0.003042 -0.000864 -0.001062 0.000000 0.000000 0.000000
# 2 -0.000864 0.010488 -0.001408 0.000000 0.000000 0.000000
# 3 -0.001062 -0.001408 0.011664 0.000000 0.000000 0.000000
# 4 0.000000 0.000000 0.000000 0.201901 0.000000 0.000000
# 5 0.000000 0.000000 0.000000 0.000000 -0.021380 0.000000
# 6 0.000000 0.000000 0.000000 0.000000 0.000000 -0.000897
#
#
# Mechanical properties :
#
#
# Convention : Reuss Voigt Hill
#
# Bulk Modulus (GPa) = 53.97491 79.07282 66.52387
# Shear Modulus (GPa) = 22.97150 -200.75602 -88.89226
#
# Velocity S-wave (km/s) = 2.87143 -8.48863 -5.64853
# Velocity P-wave (km/s) = 5.51058 8.22766 4.32018
#
# Compressibility (1/GPa) = 0.01852713
#
# Stress axis : x y z
#
# Youngs Moduli (GPa) = 328.69279 95.34375 85.73713
#
# Poissons Ratio (x) = 0.08238 0.09103
# Poissons Ratio (y) = 0.28400 0.12070
# Poissons Ratio (z) = 0.34900 0.13422
#
# Static dielectric constant tensor:
#      x y z
#    x 2.381190 0.000000 0.000000 
#    y 0.000000 2.207310 0.000000 
#    z 0.000000 0.000000 2.100860 
# 
# From -- ./inp_files/3685.got.cif
#   From: 2010.05.17/outbox.cif.g08.bks.cpg/sg40_2_cif.got.tgz:3685.got - 2010.06.03 18:35:42.
