data_PCOD9362470
_publ_section_title
;
Structure prediction by ZEFSAII (Michael W. Deem and Ramdas Pophale) SiO2 
 PCOD9362470
Probable space group: A M A 2
;
_chemical_formula_sum "Si O2"
_cell_formula_units_Z 64
_cell_length_a 8.879608
_cell_length_b 19.253100
_cell_length_c 22.116112
_cell_angle_alpha 90.000000
_cell_angle_beta 90.000000
_cell_angle_gamma 90.000000
_cell_volume 3780.970083
_symmetry_space_group_name_H-M "A M A 2"
_symmetry_group_IT_number 40
_symmetry_cell_setting 'orthorhombic'
loop_
_space_group_symop_operation_xyz
x,y,z
-x,-y,z
1/2-x,y,z
1/2+x,-y,z
x,1/2+y,1/2+z
-x,1/2-y,1/2+z
1/2-x,1/2+y,1/2+z
1/2+x,1/2-y,1/2+z
loop_
_atom_site_type_symbol
_atom_site_label
_atom_site_fract_x
_atom_site_fract_y
_atom_site_fract_z
Si Si1 0.431106 0.726473 0.541070
Si Si2 0.573872 0.066176 0.912205
Si Si3 0.930091 0.925737 0.714433
Si Si4 0.569886 0.928556 0.044295
Si Si5 0.429319 0.572848 0.956905
Si Si6 0.431849 0.133471 0.586104
Si Si7 0.928125 0.209562 0.410842
Si Si8 0.571678 0.829023 0.826071
O O1 0.250000 0.729462 0.545102
O O2 0.477231 0.649473 0.563688
O O3 0.503498 0.789163 0.578344
O O4 0.468824 0.742670 0.470001
O O5 0.750000 0.056784 0.923779
O O6 0.538112 0.130300 0.870551
O O7 0.500000 0.000000 0.879868
O O8 0.483081 0.072304 0.974517
O O9 0.750000 0.934926 0.713005
O O10 0.982550 0.903504 0.647501
O O11 0.959174 0.861780 0.760525
O O12 0.000000 0.000000 0.731802
O O13 0.750000 0.933473 0.047986
O O14 0.500000 0.000000 0.070722
O O15 0.500000 0.500000 0.938370
O O16 0.250000 0.568060 0.955779
O O17 0.483292 0.638148 0.917577
O O18 0.477532 0.591417 0.025909
O O19 0.250000 0.137445 0.586851
O O20 0.750000 0.195436 0.416957
O O21 0.950593 0.249877 0.347624
O O22 0.750000 0.843950 0.839441
#
# Coordination Sequence:
#
# PCOD9362470 Si02
#       8
#     8   8   8   8   8   8   8   8
#     4   9  17  30  48  68  93 125 161 199 246 293
#     4  11  20  28  41  61  89 125 162 196 233 274
#     4  10  21  35  51  71  98 133 170 206 239 280
#     4  10  18  29  43  65  94 124 159 194 237 289
#     4  10  19  31  49  73  99 125 156 196 243 292
#     4   9  19  33  49  71  97 126 165 205 242 285
#     4   9  17  31  48  67  94 125 157 196 242 291
#     4  10  19  33  49  66  94 129 164 200 240 283
#
# _framework density 16.926871999999999
#
# number of rings (size 3 to 8) (size 9 to 14) (size 15 to 20)
#    0.000    2.250    1.250    3.375    0.000    4.000 
#    0.000    0.000    0.000    0.000    0.000    0.875 
#    0.000    2.000    0.000    0.000    0.000    0.000 
#
# Total GULP energy -178209.938628 kJ/mol
# GULP energy per Si atom -5569.060582 kJ/mol
# Density = 1.688835 g / cm^3
# Si number density = 16.926872 Si / 1000 Ang^3
#
#
#
# Elastic Constant Matrix: (Units=GPa)
#
#
# Indices 1 2 3 4 5 6 
#
# 1 23.2767 36.6567 12.5453 0.0000 0.0000 0.0000
# 2 36.6567 125.9858 27.0627 0.0000 0.0000 0.0000
# 3 12.5453 27.0627 51.6595 0.0000 0.0000 0.0000
# 4 0.0000 0.0000 0.0000 20.2490 0.0000 0.0000
# 5 0.0000 0.0000 0.0000 0.0000 52.6322 0.0000
# 6 0.0000 0.0000 0.0000 0.0000 0.0000 30.9846
#
#
#
# Elastic Compliance Matrix: (Units=1/GPa)
#
#
# Indices 1 2 3 4 5 6 
#
# 1 0.082405 -0.022173 -0.008396 0.000000 0.000000 0.000000
# 2 -0.022173 0.014910 -0.002426 0.000000 0.000000 0.000000
# 3 -0.008396 -0.002426 0.022667 0.000000 0.000000 0.000000
# 4 0.000000 0.000000 0.000000 0.049385 0.000000 0.000000
# 5 0.000000 0.000000 0.000000 0.000000 0.019000 0.000000
# 6 0.000000 0.000000 0.000000 0.000000 0.000000 0.032274
#
#
# Mechanical properties :
#
#
# Convention : Reuss Voigt Hill
#
# Bulk Modulus (GPa) = 18.52128 39.27238 28.89683
# Shear Modulus (GPa) = 16.41343 29.08365 22.74854
#
# Velocity S-wave (km/s) = 3.11733 4.14961 3.66994
# Velocity P-wave (km/s) = 4.89108 6.79783 5.92171
#
# Compressibility (1/GPa) = 0.05399196
#
# Stress axis : x y z
#
# Youngs Moduli (GPa) = 12.13524 67.06928 44.11606
#
# Poissons Ratio (x) = 1.48711 0.37040
# Poissons Ratio (y) = 0.26907 0.10704
# Poissons Ratio (z) = 0.10189 0.16273
#
# Static dielectric constant tensor:
#      x y z
#    x 1.558280 0.000000 0.000000 
#    y 0.000000 1.679620 0.000000 
#    z 0.000000 0.000000 1.570630 
# 
# From -- ./inp_files/22544.got.cif
#   From: 2010.05.17/outbox.cif.g08.bks.cpg/sg40_12_cif.got.tgz:22544.got - 2010.06.03 18:35:42.
