data_PCOD9362222
_publ_section_title
;
Structure prediction by ZEFSAII (Michael W. Deem and Ramdas Pophale) SiO2 
 PCOD9362222
Probable space group: A B M 2
;
_chemical_formula_sum "Si O2"
_cell_formula_units_Z 32
_cell_length_a 24.000000
_cell_length_b 9.000000
_cell_length_c 15.000000
_cell_angle_alpha 90.000000
_cell_angle_beta 90.000000
_cell_angle_gamma 90.000000
_cell_volume 3240.000000
_symmetry_space_group_name_H-M "A B M 2"
_symmetry_group_IT_number 39
_symmetry_cell_setting 'orthorhombic'
loop_
_space_group_symop_operation_xyz
x,y,z
-x,-y,z
-x,1/2+y,z
x,1/2-y,z
x,1/2+y,1/2+z
-x,1/2-y,1/2+z
-x,y,1/2+z
x,-y,1/2+z
loop_
_atom_site_type_symbol
_atom_site_label
_atom_site_fract_x
_atom_site_fract_y
_atom_site_fract_z
Si Si1 0.849763 0.930646 0.607160
Si Si2 0.732311 0.571785 0.132218
Si Si3 0.558850 0.070888 0.739693
Si Si4 0.615639 0.071844 0.074656
Si Si5 0.628832 0.073682 0.393346
Si Si6 0.253458 0.574116 0.322190
Si Si7 0.939997 0.930433 0.974606
Si Si8 0.130319 0.427874 0.812129
O O1 0.847728 0.750000 0.600536
O O2 0.867083 0.973226 0.709012
O O3 0.788733 0.001377 0.592143
O O4 0.894661 0.002476 0.541966
O O5 0.729540 0.750000 0.119341
O O6 0.677167 0.491069 0.096748
O O7 0.735273 0.528375 0.236841
O O8 0.558630 0.250000 0.742742
O O9 0.500000 0.000000 0.766876
O O10 0.574091 0.009666 0.642212
O O11 0.605019 0.999615 0.804188
O O12 0.613408 0.250000 0.084184
O O13 0.603866 0.016849 0.975154
O O14 0.616403 0.250000 0.397400
O O15 0.696008 0.058117 0.390373
O O16 0.253443 0.750000 0.293969
O O17 0.191167 0.538229 0.354005
O O18 0.941263 0.750000 0.980159
O O19 0.918757 0.979549 0.876107
O O20 0.000000 0.000000 0.993131
O O21 0.125773 0.250000 0.810525
#
# Coordination Sequence:
#
# PCOD9362222 Si02
#       8
#     8   8   8   8   8   8   8   8
#     4  10  21  40  62  89 122 161 205 258 316 374
#     4  11  21  36  61  93 129 168 211 259 317 384
#     4  12  26  47  71  96 129 172 219 267 320 381
#     4  12  25  42  64  96 133 172 217 267 321 380
#     4  11  23  40  66  99 132 169 212 264 324 382
#     4   9  18  36  62  90 126 165 205 257 319 378
#     4  11  23  40  61  87 120 162 209 257 309 374
#     4   8  18  37  60  86 118 159 201 249 307 365
#
# _framework density 9.8765429999999999
#
# number of rings (size 3 to 8) (size 9 to 14) (size 15 to 20)
#    0.000    1.500    1.250    5.250    1.750    1.500 
#    0.000   10.000    0.000    0.000    0.000    0.000 
#    0.000    0.000    0.000    0.000    0.000    0.000 
#
# Total GULP energy -178746.006256 kJ/mol
# GULP energy per Si atom -5585.812696 kJ/mol
# Density = 0.985406 g / cm^3
# Si number density = 9.876543 Si / 1000 Ang^3
#
#
#
# Elastic Constant Matrix: (Units=GPa)
#
#
# Indices 1 2 3 4 5 6 
#
# 1 64.9088 17.4970 -7.7695 0.0000 0.0000 0.0000
# 2 17.4970 126.2221 4.2378 0.0000 0.0000 0.0000
# 3 -7.7695 4.2378 39.7839 0.0000 0.0000 0.0000
# 4 0.0000 0.0000 0.0000 28.0038 0.0000 0.0000
# 5 0.0000 0.0000 0.0000 0.0000 20.7123 0.0000
# 6 0.0000 0.0000 0.0000 0.0000 0.0000 30.3833
#
#
#
# Elastic Compliance Matrix: (Units=1/GPa)
#
#
# Indices 1 2 3 4 5 6 
#
# 1 0.016469 -0.002399 0.003472 0.000000 0.000000 0.000000
# 2 -0.002399 0.008301 -0.001353 0.000000 0.000000 0.000000
# 3 0.003472 -0.001353 0.025958 0.000000 0.000000 0.000000
# 4 0.000000 0.000000 0.000000 0.035709 0.000000 0.000000
# 5 0.000000 0.000000 0.000000 0.000000 0.048280 0.000000
# 6 0.000000 0.000000 0.000000 0.000000 0.000000 0.032913
#
#
# Mechanical properties :
#
#
# Convention : Reuss Voigt Hill
#
# Bulk Modulus (GPa) = 19.93375 28.76059 24.34717
# Shear Modulus (GPa) = 27.03980 30.28320 28.66150
#
# Velocity S-wave (km/s) = 3.70387 3.91971 3.81332
# Velocity P-wave (km/s) = 5.32962 5.92260 5.63392
#
# Compressibility (1/GPa) = 0.05016619
#
# Stress axis : x y z
#
# Youngs Moduli (GPa) = 60.72159 120.47357 38.52394
#
# Poissons Ratio (x) = 0.28907 -0.13375
# Poissons Ratio (y) = 0.14570 0.05211
# Poissons Ratio (z) = -0.21081 0.16297
#
# Static dielectric constant tensor:
#      x y z
#    x 1.702580 0.000000 0.000000 
#    y 0.000000 1.643350 0.000000 
#    z 0.000000 0.000000 1.736650 
# 
# From -- ./inp_files/10692.got.cif
#   From: 2010.05.17/outbox.ucp.g08.bks.cvg/sg39_6_cif.got.tgz:10692.got - 2010.06.11 10:41:16.
