data_PCOD9362422
_publ_section_title
;
Structure prediction by ZEFSAII (Michael W. Deem and Ramdas Pophale) SiO2 
 PCOD9362422
Probable space group: A M A 2
;
_chemical_formula_sum "Si O2"
_cell_formula_units_Z 64
_cell_length_a 8.853646
_cell_length_b 18.858628
_cell_length_c 27.074338
_cell_angle_alpha 90.000000
_cell_angle_beta 90.000000
_cell_angle_gamma 90.000000
_cell_volume 4520.537680
_symmetry_space_group_name_H-M "A M A 2"
_symmetry_group_IT_number 40
_symmetry_cell_setting 'orthorhombic'
loop_
_space_group_symop_operation_xyz
x,y,z
-x,-y,z
1/2-x,y,z
1/2+x,-y,z
x,1/2+y,1/2+z
-x,1/2-y,1/2+z
1/2-x,1/2+y,1/2+z
1/2+x,1/2-y,1/2+z
loop_
_atom_site_type_symbol
_atom_site_label
_atom_site_fract_x
_atom_site_fract_y
_atom_site_fract_z
Si Si1 0.932608 0.577746 0.570000
Si Si2 0.430369 0.163148 0.161753
Si Si3 0.931411 0.077813 0.561282
Si Si4 0.924825 0.294757 0.115135
Si Si5 0.069202 0.077565 0.260486
Si Si6 0.930865 0.661812 0.962281
Si Si7 0.432291 0.921797 0.365261
Si Si8 0.576189 0.709429 0.510922
O O1 0.750000 0.576417 0.571896
O O2 0.978760 0.631148 0.525618
O O3 0.000000 0.500000 0.564129
O O4 0.994131 0.612541 0.620552
O O5 0.250000 0.163555 0.153892
O O6 0.495038 0.241948 0.153377
O O7 0.461939 0.130451 0.215409
O O8 0.750000 0.075014 0.562555
O O9 0.978987 0.111434 0.508138
O O10 0.991589 0.132078 0.602803
O O11 0.000000 0.000000 0.566583
O O12 0.750000 0.306506 0.128013
O O13 0.928350 0.251222 0.063321
O O14 0.250000 0.070543 0.266154
O O15 0.996209 0.101331 0.312175
O O16 0.000000 0.000000 0.249241
O O17 0.750000 0.662445 0.962974
O O18 0.979303 0.628840 0.910280
O O19 0.987679 0.740865 0.973346
O O20 0.250000 0.925853 0.363535
O O21 0.500000 0.000000 0.374330
O O22 0.750000 0.704983 0.495185
#
# Coordination Sequence:
#
# PCOD9362422 Si02
#       8
#     8   8   8   8   8   8   8   8
#     4  10  19  29  42  62  85 111 142 172 206 246
#     4  10  19  30  44  61  82 110 142 174 209 248
#     4  10  18  28  42  61  86 113 142 174 208 246
#     4   9  17  29  43  60  82 108 139 172 207 247
#     4  10  20  31  43  60  82 109 141 175 210 245
#     4   9  18  29  42  60  81 109 142 173 207 246
#     4  10  19  30  43  60  82 108 140 175 209 243
#     4   8  16  28  41  58  80 106 136 169 203 243
#
# _framework density 14.157609000000001
#
# number of rings (size 3 to 8) (size 9 to 14) (size 15 to 20)
#    0.000    2.500    0.000    4.500    0.000    8.000 
#    0.000    0.000    0.000    0.000    0.000    0.000 
#    0.000    1.000    0.000    9.000    0.000    6.750 
#
# Total GULP energy -178322.335458 kJ/mol
# GULP energy per Si atom -5572.572983 kJ/mol
# Density = 1.412539 g / cm^3
# Si number density = 14.157609 Si / 1000 Ang^3
#
#
#
# Elastic Constant Matrix: (Units=GPa)
#
#
# Indices 1 2 3 4 5 6 
#
# 1 61.0217 47.5263 43.2482 0.0000 0.0000 0.0000
# 2 47.5263 123.1865 62.6650 0.0000 0.0000 0.0000
# 3 43.2482 62.6650 89.4703 0.0000 0.0000 0.0000
# 4 0.0000 0.0000 0.0000 25.8714 0.0000 0.0000
# 5 0.0000 0.0000 0.0000 0.0000 10.1192 0.0000
# 6 0.0000 0.0000 0.0000 0.0000 0.0000 26.7999
#
#
#
# Elastic Compliance Matrix: (Units=1/GPa)
#
#
# Indices 1 2 3 4 5 6 
#
# 1 0.027495 -0.005976 -0.009105 0.000000 0.000000 0.000000
# 2 -0.005976 0.013910 -0.006854 0.000000 0.000000 0.000000
# 3 -0.009105 -0.006854 0.020378 0.000000 0.000000 0.000000
# 4 0.000000 0.000000 0.000000 0.038653 0.000000 0.000000
# 5 0.000000 0.000000 0.000000 0.000000 0.098822 0.000000
# 6 0.000000 0.000000 0.000000 0.000000 0.000000 0.037314
#
#
# Mechanical properties :
#
#
# Convention : Reuss Voigt Hill
#
# Bulk Modulus (GPa) = 55.82293 64.50638 60.16466
# Shear Modulus (GPa) = 17.45733 20.57404 19.01569
#
# Velocity S-wave (km/s) = 3.51532 3.81624 3.66887
# Velocity P-wave (km/s) = 7.48277 8.06723 7.78049
#
# Compressibility (1/GPa) = 0.01791378
#
# Stress axis : x y z
#
# Youngs Moduli (GPa) = 36.37026 71.89113 49.07158
#
# Poissons Ratio (x) = 0.42963 0.44679
# Poissons Ratio (y) = 0.21735 0.33633
# Poissons Ratio (z) = 0.33115 0.49273
#
# Static dielectric constant tensor:
#      x y z
#    x 1.478920 0.000000 0.000000 
#    y 0.000000 1.461210 0.000000 
#    z 0.000000 0.000000 1.454760 
# 
# From -- ./inp_files/25530.got.cif
#   From: 2010.05.17/outbox.cif.g08.bks.cpg/sg40_13_cif.got.tgz:25530.got - 2010.06.03 18:35:42.
