data_PCOD9362551
_publ_section_title
;
Structure prediction by ZEFSAII (Michael W. Deem and Ramdas Pophale) SiO2 
 PCOD9362551
Probable space group: A M A 2
;
_chemical_formula_sum "Si O2"
_cell_formula_units_Z 60
_cell_length_a 8.614424
_cell_length_b 14.648244
_cell_length_c 24.878626
_cell_angle_alpha 90.000000
_cell_angle_beta 90.000000
_cell_angle_gamma 90.000000
_cell_volume 3139.338895
_symmetry_space_group_name_H-M "A M A 2"
_symmetry_group_IT_number 40
_symmetry_cell_setting 'orthorhombic'
loop_
_space_group_symop_operation_xyz
x,y,z
-x,-y,z
1/2-x,y,z
1/2+x,-y,z
x,1/2+y,1/2+z
-x,1/2-y,1/2+z
1/2-x,1/2+y,1/2+z
1/2+x,1/2-y,1/2+z
loop_
_atom_site_type_symbol
_atom_site_label
_atom_site_fract_x
_atom_site_fract_y
_atom_site_fract_z
Si Si1 0.065239 0.835105 0.260030
Si Si2 0.935814 0.706631 0.550577
Si Si3 0.567221 0.596879 0.038388
Si Si4 0.437296 0.400310 0.444312
Si Si5 0.582304 0.136729 0.414295
Si Si6 0.435222 0.602767 0.652213
Si Si7 0.069586 0.785184 0.847624
Si Si8 0.500000 0.000000 0.328001
O O1 0.250000 0.855730 0.264016
O O2 0.013100 0.835442 0.198631
O O3 0.026145 0.746166 0.295503
O O4 0.964306 0.917138 0.287364
O O5 0.750000 0.698176 0.554688
O O6 0.984118 0.670582 0.491270
O O7 0.984848 0.811534 0.558816
O O8 0.015688 0.643375 0.594926
O O9 0.500000 0.500000 0.057096
O O10 0.750000 0.601440 0.050052
O O11 0.548037 0.602142 0.973553
O O12 0.500000 0.500000 0.457412
O O13 0.250000 0.401298 0.443710
O O14 0.487186 0.368622 0.384599
O O15 0.750000 0.185837 0.415455
O O16 0.451210 0.201291 0.389763
O O17 0.598706 0.055269 0.371663
O O18 0.500000 0.500000 0.657868
O O19 0.250000 0.602071 0.657943
O O20 0.250000 0.796420 0.833585
#
# Coordination Sequence:
#
# PCOD9362551 Si02
#       8
#     8   8   8   8   8   8   8   4
#     4  11  23  38  57  85 119 158 197 241 296 358
#     4  11  23  42  62  87 121 160 204 256 306 360
#     4  11  22  37  57  86 120 159 202 246 299 361
#     4  10  22  37  58  87 120 161 204 249 300 355
#     4  10  20  31  48  76 113 154 191 230 283 345
#     4  12  25  42  64  90 119 159 203 252 303 362
#     4  10  20  35  54  81 116 153 193 241 294 352
#     4  10  18  30  50  80 118 152 192 232 280 348
#
# _framework density 19.112304000000002
#
# number of rings (size 3 to 8) (size 9 to 14) (size 15 to 20)
#    0.000    1.333    2.667    4.400    0.000    8.533 
#    0.000    0.000    0.000    0.800    0.000    3.733 
#    0.000    0.000    0.000    0.000    0.000    0.000 
#
# Total GULP energy -167224.123577 kJ/mol
# GULP energy per Si atom -5574.137453 kJ/mol
# Density = 1.906880 g / cm^3
# Si number density = 19.112304 Si / 1000 Ang^3
#
#
#
# Elastic Constant Matrix: (Units=GPa)
#
#
# Indices 1 2 3 4 5 6 
#
# 1 56.9004 21.1328 21.5349 0.0000 0.0000 0.0000
# 2 21.1328 78.6388 18.1705 0.0000 0.0000 0.0000
# 3 21.5349 18.1705 89.0003 0.0000 0.0000 0.0000
# 4 0.0000 0.0000 0.0000 27.5688 0.0000 0.0000
# 5 0.0000 0.0000 0.0000 0.0000 22.1969 0.0000
# 6 0.0000 0.0000 0.0000 0.0000 0.0000 23.3630
#
#
#
# Elastic Compliance Matrix: (Units=1/GPa)
#
#
# Indices 1 2 3 4 5 6 
#
# 1 0.020854 -0.004658 -0.004095 0.000000 0.000000 0.000000
# 2 -0.004658 0.014386 -0.001810 0.000000 0.000000 0.000000
# 3 -0.004095 -0.001810 0.012596 0.000000 0.000000 0.000000
# 4 0.000000 0.000000 0.000000 0.036273 0.000000 0.000000
# 5 0.000000 0.000000 0.000000 0.000000 0.045051 0.000000
# 6 0.000000 0.000000 0.000000 0.000000 0.000000 0.042803
#
#
# Mechanical properties :
#
#
# Convention : Reuss Voigt Hill
#
# Bulk Modulus (GPa) = 37.43803 38.46843 37.95323
# Shear Modulus (GPa) = 24.75321 25.53915 25.14618
#
# Velocity S-wave (km/s) = 3.60272 3.65947 3.63120
# Velocity P-wave (km/s) = 6.07759 6.16659 6.12225
#
# Compressibility (1/GPa) = 0.02671080
#
# Stress axis : x y z
#
# Youngs Moduli (GPa) = 47.95152 69.51021 79.38829
#
# Poissons Ratio (x) = 0.32378 0.32510
# Poissons Ratio (y) = 0.22336 0.14370
# Poissons Ratio (z) = 0.19636 0.12582
#
# Static dielectric constant tensor:
#      x y z
#    x 1.737510 0.000000 0.000000 
#    y 0.000000 1.671150 0.000000 
#    z 0.000000 0.000000 1.664930 
# 
# From -- ./inp_files/24194.got.cif
#   From: 2010.05.17/outbox.cif.g08.bks.cpg/sg40_13_cif.got.tgz:24194.got - 2010.06.03 18:35:42.
