data_PCOD9362702
_publ_section_title
;
Structure prediction by ZEFSAII (Michael W. Deem and Ramdas Pophale) SiO2 
 PCOD9362702
Probable space group: A M A 2
;
_chemical_formula_sum "Si O2"
_cell_formula_units_Z 56
_cell_length_a 8.682783
_cell_length_b 15.846509
_cell_length_c 20.541411
_cell_angle_alpha 90.000000
_cell_angle_beta 90.000000
_cell_angle_gamma 90.000000
_cell_volume 2826.329693
_symmetry_space_group_name_H-M "A M A 2"
_symmetry_group_IT_number 40
_symmetry_cell_setting 'orthorhombic'
loop_
_space_group_symop_operation_xyz
x,y,z
-x,-y,z
1/2-x,y,z
1/2+x,-y,z
x,1/2+y,1/2+z
-x,1/2-y,1/2+z
1/2-x,1/2+y,1/2+z
1/2+x,1/2-y,1/2+z
loop_
_atom_site_type_symbol
_atom_site_label
_atom_site_fract_x
_atom_site_fract_y
_atom_site_fract_z
Si Si1 0.072149 0.272251 0.740460
Si Si2 0.574667 0.120148 0.571498
Si Si3 0.928295 0.422800 0.204804
Si Si4 0.426842 0.086213 0.445039
Si Si5 0.937536 0.406336 0.471344
Si Si6 0.570513 0.817554 0.103559
Si Si7 0.434799 0.752105 0.382874
O O1 0.250000 0.299828 0.742347
O O2 0.068090 0.170666 0.733477
O O3 0.000468 0.280258 0.812215
O O4 0.002080 0.314806 0.675825
O O5 0.750000 0.100640 0.550735
O O6 0.538042 0.084919 0.642353
O O7 0.447457 0.085275 0.522807
O O8 0.559573 0.221350 0.577657
O O9 0.750000 0.439205 0.189298
O O10 0.000000 0.500000 0.245569
O O11 0.250000 0.094293 0.426299
O O12 0.523908 0.168379 0.426884
O O13 0.500000 0.000000 0.418611
O O14 0.750000 0.407259 0.471311
O O15 0.988990 0.375744 0.544151
O O16 0.986384 0.334561 0.418444
O O17 0.000000 0.500000 0.457839
O O18 0.750000 0.837935 0.111969
O O19 0.250000 0.743990 0.376098
#
# Coordination Sequence:
#
# PCOD9362702 Si02
#       7
#     8   8   8   8   8   8   8
#     4   9  20  36  58  81 109 152 195 243 297 353
#     4  10  18  33  55  79 110 148 183 227 284 337
#     4  10  19  31  47  77 112 146 187 230 280 340
#     4  12  24  37  57  85 114 147 187 235 291 354
#     4  10  21  38  61  90 122 161 204 252 304 358
#     4   9  18  35  58  83 114 152 192 240 293 346
#     4  10  21  42  62  83 120 159 198 246 306 361
#
# _framework density 19.813683000000001
#
# number of rings (size 3 to 8) (size 9 to 14) (size 15 to 20)
#    0.000    2.000    1.429    2.571    0.000    3.429 
#    0.000    0.714    0.000    1.714    0.000    0.000 
#    0.000    0.000    0.000    0.000    0.000    0.000 
#
# Total GULP energy -156001.943318 kJ/mol
# GULP energy per Si atom -5571.497976 kJ/mol
# Density = 1.976859 g / cm^3
# Si number density = 19.813683 Si / 1000 Ang^3
#
#
#
# Elastic Constant Matrix: (Units=GPa)
#
#
# Indices 1 2 3 4 5 6 
#
# 1 31.7232 7.8873 12.9551 0.0000 0.0000 0.0000
# 2 7.8873 71.6548 8.5566 0.0000 0.0000 0.0000
# 3 12.9551 8.5566 88.3135 0.0000 0.0000 0.0000
# 4 0.0000 0.0000 0.0000 3.2557 0.0000 0.0000
# 5 0.0000 0.0000 0.0000 0.0000 17.0138 0.0000
# 6 0.0000 0.0000 0.0000 0.0000 0.0000 22.7207
#
#
#
# Elastic Compliance Matrix: (Units=1/GPa)
#
#
# Indices 1 2 3 4 5 6 
#
# 1 0.034245 -0.003207 -0.004713 0.000000 0.000000 0.000000
# 2 -0.003207 0.014419 -0.000927 0.000000 0.000000 0.000000
# 3 -0.004713 -0.000927 0.012104 0.000000 0.000000 0.000000
# 4 0.000000 0.000000 0.000000 0.307151 0.000000 0.000000
# 5 0.000000 0.000000 0.000000 0.000000 0.058776 0.000000
# 6 0.000000 0.000000 0.000000 0.000000 0.000000 0.044013
#
#
# Mechanical properties :
#
#
# Convention : Reuss Voigt Hill
#
# Bulk Modulus (GPa) = 23.21472 27.83219 25.52346
# Shear Modulus (GPa) = 9.94512 19.41756 14.68134
#
# Velocity S-wave (km/s) = 2.24281 3.13390 2.72503
# Velocity P-wave (km/s) = 4.29522 5.21273 4.77606
#
# Compressibility (1/GPa) = 0.04307611
#
# Stress axis : x y z
#
# Youngs Moduli (GPa) = 29.20169 69.35090 82.61441
#
# Poissons Ratio (x) = 0.22239 0.38935
# Poissons Ratio (y) = 0.09364 0.07656
# Poissons Ratio (z) = 0.13762 0.06427
#
# Static dielectric constant tensor:
#      x y z
#    x 1.681200 0.000000 0.000000 
#    y 0.000000 1.753190 0.000000 
#    z 0.000000 0.000000 1.738270 
# 
# From -- ./inp_files/22156.got.cif
#   From: 2010.05.17/outbox.cif.g08.bks.cpg/sg40_12_cif.got.tgz:22156.got - 2010.06.03 18:35:42.
