data_PCOD9362752
_publ_section_title
;
Structure prediction by ZEFSAII (Michael W. Deem and Ramdas Pophale) SiO2 
 PCOD9362752
Probable space group: A M A 2
;
_chemical_formula_sum "Si O2"
_cell_formula_units_Z 64
_cell_length_a 7.925672
_cell_length_b 24.575174
_cell_length_c 15.997617
_cell_angle_alpha 90.000000
_cell_angle_beta 90.000000
_cell_angle_gamma 90.000000
_cell_volume 3115.932147
_symmetry_space_group_name_H-M "A M A 2"
_symmetry_group_IT_number 40
_symmetry_cell_setting 'orthorhombic'
loop_
_space_group_symop_operation_xyz
x,y,z
-x,-y,z
1/2-x,y,z
1/2+x,-y,z
x,1/2+y,1/2+z
-x,1/2-y,1/2+z
1/2-x,1/2+y,1/2+z
1/2+x,1/2-y,1/2+z
loop_
_atom_site_type_symbol
_atom_site_label
_atom_site_fract_x
_atom_site_fract_y
_atom_site_fract_z
Si Si1 0.046634 0.062896 0.118220
Si Si2 0.453081 0.635111 0.773657
Si Si3 0.955421 0.750942 0.020497
Si Si4 0.947241 0.562297 0.110945
Si Si5 0.043001 0.631059 0.458069
Si Si6 0.551843 0.371693 0.273187
Si Si7 0.046333 0.865639 0.458802
Si Si8 0.045536 0.753206 0.716102
O O1 0.250000 0.066922 0.118228
O O2 0.984752 0.096507 0.198945
O O3 0.987703 0.091688 0.032802
O O4 0.000000 0.000000 0.122050
O O5 0.250000 0.636440 0.768042
O O6 0.500683 0.616204 0.865916
O O7 0.512092 0.697141 0.758562
O O8 0.750000 0.751387 0.018139
O O9 0.002082 0.748649 0.118206
O O10 0.011449 0.807328 0.979347
O O11 0.014866 0.696091 0.975449
O O12 0.750000 0.561531 0.095543
O O13 0.000000 0.500000 0.117328
O O14 0.976672 0.595061 0.196299
O O15 0.022114 0.595433 0.032171
O O16 0.250000 0.631181 0.457181
O O17 0.985038 0.614675 0.365603
O O18 0.750000 0.383315 0.272404
O O19 0.524438 0.307572 0.257583
O O20 0.250000 0.863710 0.464195
O O21 0.250000 0.755988 0.719892
#
# Coordination Sequence:
#
# PCOD9362752 Si02
#       8
#     8   8   8   8   8   8   8   8
#     4  10  21  39  59  80 109 149 193 235 281 336
#     4  10  21  36  59  86 115 151 190 235 285 341
#     4   9  15  31  58  83 110 148 186 223 276 343
#     4  11  24  43  63  83 112 154 198 242 292 344
#     4   9  18  34  58  84 112 149 190 228 279 343
#     4  11  22  36  59  90 120 151 189 237 286 342
#     4  10  21  37  60  85 113 149 186 231 288 347
#     4  10  18  34  59  85 116 154 190 229 285 347
#
# _framework density 20.539598999999999
#
# number of rings (size 3 to 8) (size 9 to 14) (size 15 to 20)
#    0.000    2.000    2.500    1.500    0.000    4.000 
#    0.000    5.000    0.000    1.500    0.000    0.000 
#    0.000    0.000    0.000    0.000    0.000    0.000 
#
# Total GULP energy -178750.736441 kJ/mol
# GULP energy per Si atom -5585.960514 kJ/mol
# Density = 2.049285 g / cm^3
# Si number density = 20.539599 Si / 1000 Ang^3
#
#
#
# Elastic Constant Matrix: (Units=GPa)
#
#
# Indices 1 2 3 4 5 6 
#
# 1 13.4723 0.9018 -5.3177 0.0000 0.0000 0.0000
# 2 0.9018 151.7696 78.4921 0.0000 0.0000 0.0000
# 3 -5.3177 78.4921 172.2539 0.0000 0.0000 0.0000
# 4 0.0000 0.0000 0.0000 -0.0670 0.0000 0.0000
# 5 0.0000 0.0000 0.0000 0.0000 29.3518 0.0000
# 6 0.0000 0.0000 0.0000 0.0000 0.0000 27.3006
#
#
#
# Elastic Compliance Matrix: (Units=1/GPa)
#
#
# Indices 1 2 3 4 5 6 
#
# 1 0.075684 -0.002169 0.003325 0.000000 0.000000 0.000000
# 2 -0.002169 0.008683 -0.004023 0.000000 0.000000 0.000000
# 3 0.003325 -0.004023 0.007741 0.000000 0.000000 0.000000
# 4 0.000000 0.000000 0.000000-14.920417 0.000000 0.000000
# 5 0.000000 0.000000 0.000000 0.000000 0.034070 0.000000
# 6 0.000000 0.000000 0.000000 0.000000 0.000000 0.036629
#
#
# Mechanical properties :
#
#
# Convention : Reuss Voigt Hill
#
# Bulk Modulus (GPa) = 11.57773 53.96090 32.76932
# Shear Modulus (GPa) = -0.33960 28.87837 14.26938
#
# Velocity S-wave (km/s) = -0.40706 3.75371 2.63862
# Velocity P-wave (km/s) = 2.32983 6.71683 5.02712
#
# Compressibility (1/GPa) = 0.08637270
#
# Stress axis : x y z
#
# Youngs Moduli (GPa) = 13.21280 115.17186 129.17509
#
# Poissons Ratio (x) = 0.24985 -0.42951
# Poissons Ratio (y) = 0.02866 0.51973
# Poissons Ratio (z) = -0.04393 0.46339
#
# Static dielectric constant tensor:
#      x y z
#    x 1.744420 0.000000 0.000000 
#    y 0.000000 1.721780 0.000000 
#    z 0.000000 0.000000 1.731660 
# 
# From -- ./inp_files/15582.got.cif
#   From: 2010.05.17/outbox.cif.g08.bks.cpg/sg40_8_cif.got.tgz:15582.got - 2010.06.03 18:35:42.
