data_PCOD9362252
_publ_section_title
;
Structure prediction by ZEFSAII (Michael W. Deem and Ramdas Pophale) SiO2 
 PCOD9362252
Probable space group: A M A 2
;
_chemical_formula_sum "Si O2"
_cell_formula_units_Z 60
_cell_length_a 9.464509
_cell_length_b 14.765088
_cell_length_c 25.023955
_cell_angle_alpha 90.000000
_cell_angle_beta 90.000000
_cell_angle_gamma 90.000000
_cell_volume 3496.955281
_symmetry_space_group_name_H-M "A M A 2"
_symmetry_group_IT_number 40
_symmetry_cell_setting 'orthorhombic'
loop_
_space_group_symop_operation_xyz
x,y,z
-x,-y,z
1/2-x,y,z
1/2+x,-y,z
x,1/2+y,1/2+z
-x,1/2-y,1/2+z
1/2-x,1/2+y,1/2+z
1/2+x,1/2-y,1/2+z
loop_
_atom_site_type_symbol
_atom_site_label
_atom_site_fract_x
_atom_site_fract_y
_atom_site_fract_z
Si Si1 0.412998 0.913606 0.920960
Si Si2 0.080710 0.707143 0.925793
Si Si3 0.500000 0.500000 0.210564
Si Si4 0.080562 0.095251 0.534160
Si Si5 0.415140 0.173914 0.643560
Si Si6 0.921144 0.594861 0.835411
Si Si7 0.918859 0.224210 0.243807
Si Si8 0.901143 0.628036 0.297330
O O1 0.250000 0.924086 0.936913
O O2 0.458978 0.811965 0.936454
O O3 0.418666 0.911304 0.856165
O O4 0.500000 0.000000 0.940277
O O5 0.250000 0.706010 0.912656
O O6 0.988583 0.664457 0.878222
O O7 0.059937 0.647357 0.978647
O O8 0.431787 0.577690 0.174161
O O9 0.600544 0.551834 0.251911
O O10 0.250000 0.079785 0.540716
O O11 0.028188 0.156048 0.584264
O O12 0.000000 0.000000 0.534258
O O13 0.250000 0.194842 0.636902
O O14 0.474665 0.249704 0.684537
O O15 0.750000 0.588384 0.841733
O O16 0.953393 0.633052 0.775783
O O17 0.000000 0.500000 0.843714
O O18 0.750000 0.229255 0.241289
O O19 0.975350 0.304474 0.281463
O O20 0.750000 0.677588 0.296348
#
# Coordination Sequence:
#
# PCOD9362252 Si02
#       8
#     8   8   4   8   8   8   8   8
#     4  10  20  33  49  73 102 135 169 208 256 311
#     4  10  21  37  54  75 106 140 178 221 265 309
#     4  10  16  26  42  70 102 130 162 194 246 306
#     4  10  20  35  54  76 103 137 175 215 258 310
#     4   9  17  30  48  71 101 132 164 202 248 308
#     4  11  22  35  54  78 105 140 180 220 263 312
#     4   9  19  33  49  71 100 132 166 204 252 307
#     4  10  18  27  44  69  99 131 159 198 248 298
#
# _framework density 17.157782000000001
#
# number of rings (size 3 to 8) (size 9 to 14) (size 15 to 20)
#    0.000    2.133    2.667    1.200    0.000    3.733 
#    0.000    0.000    0.000    0.800    0.000    0.000 
#    0.000    0.000    0.000    0.000    0.000    0.000 
#
# Total GULP energy -167012.414955 kJ/mol
# GULP energy per Si atom -5567.080498 kJ/mol
# Density = 1.711873 g / cm^3
# Si number density = 17.157782 Si / 1000 Ang^3
#
#
#
# Elastic Constant Matrix: (Units=GPa)
#
#
# Indices 1 2 3 4 5 6 
#
# 1 33.2934 37.1643 24.1298 0.0000 0.0000 0.0000
# 2 37.1643 96.1014 34.8796 0.0000 0.0000 0.0000
# 3 24.1298 34.8796 90.0451 0.0000 0.0000 0.0000
# 4 0.0000 0.0000 0.0000 22.0567 0.0000 0.0000
# 5 0.0000 0.0000 0.0000 0.0000 -18.5652 0.0000
# 6 0.0000 0.0000 0.0000 0.0000 0.0000 21.7857
#
#
#
# Elastic Compliance Matrix: (Units=1/GPa)
#
#
# Indices 1 2 3 4 5 6 
#
# 1 0.057280 -0.019293 -0.007877 0.000000 0.000000 0.000000
# 2 -0.019293 0.018606 -0.002037 0.000000 0.000000 0.000000
# 3 -0.007877 -0.002037 0.014005 0.000000 0.000000 0.000000
# 4 0.000000 0.000000 0.000000 0.045338 0.000000 0.000000
# 5 0.000000 0.000000 0.000000 0.000000 -0.053864 0.000000
# 6 0.000000 0.000000 0.000000 0.000000 0.000000 0.045902
#
#
# Mechanical properties :
#
#
# Convention : Reuss Voigt Hill
#
# Bulk Modulus (GPa) = 31.76737 45.75417 38.76077
# Shear Modulus (GPa) = 25.48776 13.27318 19.38047
#
# Velocity S-wave (km/s) = 3.85839 2.78438 3.36452
# Velocity P-wave (km/s) = 6.19714 6.08782 6.14273
#
# Compressibility (1/GPa) = 0.03147885
#
# Stress axis : x y z
#
# Youngs Moduli (GPa) = 17.45798 53.74630 71.40116
#
# Poissons Ratio (x) = 1.03691 0.56239
# Poissons Ratio (y) = 0.33681 0.14546
# Poissons Ratio (z) = 0.13751 0.10949
#
# Static dielectric constant tensor:
#      x y z
#    x 1.599420 0.000000 0.000000 
#    y 0.000000 1.586690 0.000000 
#    z 0.000000 0.000000 1.599570 
# 
# From -- ./inp_files/25467.got.cif
#   From: 2010.05.17/outbox.cif.g08.bks.cpg/sg40_13_cif.got.tgz:25467.got - 2010.06.03 18:35:42.
