data_PCOD9362762
_publ_section_title
;
Structure prediction by ZEFSAII (Michael W. Deem and Ramdas Pophale) SiO2 
 PCOD9362762
Probable space group: A M A 2
;
_chemical_formula_sum "Si O2"
_cell_formula_units_Z 64
_cell_length_a 14.060076
_cell_length_b 19.554559
_cell_length_c 12.085400
_cell_angle_alpha 90.000000
_cell_angle_beta 90.000000
_cell_angle_gamma 90.000000
_cell_volume 3322.742783
_symmetry_space_group_name_H-M "A M A 2"
_symmetry_group_IT_number 40
_symmetry_cell_setting 'orthorhombic'
loop_
_space_group_symop_operation_xyz
x,y,z
-x,-y,z
1/2-x,y,z
1/2+x,-y,z
x,1/2+y,1/2+z
-x,1/2-y,1/2+z
1/2-x,1/2+y,1/2+z
1/2+x,1/2-y,1/2+z
loop_
_atom_site_type_symbol
_atom_site_label
_atom_site_fract_x
_atom_site_fract_y
_atom_site_fract_z
Si Si1 0.639964 0.419776 0.012470
Si Si2 0.635900 0.582814 0.396320
Si Si3 0.463732 0.677544 0.401402
Si Si4 0.635579 0.444303 0.264269
Si Si5 0.485887 0.170559 0.354328
Si Si6 0.854404 0.503345 0.602845
Si Si7 0.901411 0.037394 0.338932
Si Si8 0.133055 0.651404 0.630428
O O1 0.750000 0.399024 0.017410
O O2 0.605129 0.435903 0.136413
O O3 0.580383 0.359829 0.953134
O O4 0.635689 0.489634 0.938377
O O5 0.750000 0.596736 0.391207
O O6 0.571591 0.649521 0.385764
O O7 0.612853 0.519779 0.313208
O O8 0.601792 0.554082 0.515629
O O9 0.404835 0.618527 0.336548
O O10 0.469159 0.754829 0.359571
O O11 0.416786 0.684254 0.523511
O O12 0.750000 0.440007 0.267619
O O13 0.571569 0.115382 0.358179
O O14 0.418338 0.169385 0.245560
O O15 0.750000 0.491955 0.552747
O O16 0.846534 0.532568 0.724786
O O17 0.893257 0.428208 0.614097
O O18 0.000000 0.000000 0.311220
O O19 0.250000 0.658959 0.634611
#
# Coordination Sequence:
#
# PCOD9362762 Si02
#       8
#     8   8   8   8   8   8   8   8
#     4  10  21  40  64  85 116 162 210 259 309 366
#     4  10  22  38  61  93 121 154 204 261 310 365
#     4  12  25  39  64  89 129 166 206 251 317 379
#     4  10  22  41  63  88 119 164 216 262 310 368
#     4  11  25  38  59  91 127 159 206 249 313 379
#     4  10  18  34  62  90 112 142 196 252 305 352
#     4  10  19  34  59  87 115 147 197 251 298 355
#     4  11  22  41  67  92 123 164 211 258 315 379
#
# _framework density 19.261195000000001
#
# number of rings (size 3 to 8) (size 9 to 14) (size 15 to 20)
#    0.000    1.500    3.750    2.250    1.750    4.000 
#    0.000    2.500    0.000    0.000    0.000    0.000 
#    0.000    0.000    0.000    0.000    0.000    0.000 
#
# Total GULP energy -178198.723627 kJ/mol
# GULP energy per Si atom -5568.710113 kJ/mol
# Density = 1.921736 g / cm^3
# Si number density = 19.261195 Si / 1000 Ang^3
#
#
#
# Elastic Constant Matrix: (Units=GPa)
#
#
# Indices 1 2 3 4 5 6 
#
# 1 50.0917 -5.8622 0.8369 0.0000 0.0000 0.0000
# 2 -5.8622 77.9931 -9.5391 0.0000 0.0000 0.0000
# 3 0.8369 -9.5391 87.1319 0.0000 0.0000 0.0000
# 4 0.0000 0.0000 0.0000 14.9455 0.0000 0.0000
# 5 0.0000 0.0000 0.0000 0.0000 35.1451 0.0000
# 6 0.0000 0.0000 0.0000 0.0000 0.0000 23.9443
#
#
#
# Elastic Compliance Matrix: (Units=1/GPa)
#
#
# Indices 1 2 3 4 5 6 
#
# 1 0.020141 0.001510 -0.000028 0.000000 0.000000 0.000000
# 2 0.001510 0.013109 0.001421 0.000000 0.000000 0.000000
# 3 -0.000028 0.001421 0.011633 0.000000 0.000000 0.000000
# 4 0.000000 0.000000 0.000000 0.066910 0.000000 0.000000
# 5 0.000000 0.000000 0.000000 0.000000 0.028453 0.000000
# 6 0.000000 0.000000 0.000000 0.000000 0.000000 0.041764
#
#
# Mechanical properties :
#
#
# Convention : Reuss Voigt Hill
#
# Bulk Modulus (GPa) = 19.72850 20.67642 20.20246
# Shear Modulus (GPa) = 25.89340 30.12571 28.00955
#
# Velocity S-wave (km/s) = 3.67049 3.95911 3.81753
# Velocity P-wave (km/s) = 5.31302 5.62650 5.47200
#
# Compressibility (1/GPa) = 0.05068809
#
# Stress axis : x y z
#
# Youngs Moduli (GPa) = 49.65091 76.28387 85.96485
#
# Poissons Ratio (x) = -0.11522 0.00242
# Poissons Ratio (y) = -0.07499 -0.12213
# Poissons Ratio (z) = 0.00139 -0.10837
#
# Static dielectric constant tensor:
#      x y z
#    x 1.720470 0.000000 0.000000 
#    y 0.000000 1.649170 0.000000 
#    z 0.000000 0.000000 1.737630 
# 
# From -- ./inp_files/12456.got.cif
#   From: 2010.05.17/outbox.cif.g08.bks.cpg/sg40_7_cif.got.tgz:12456.got - 2010.06.03 18:35:42.
