data_PCOD9362397
_publ_section_title
;
Structure prediction by ZEFSAII (Michael W. Deem and Ramdas Pophale) SiO2 
 PCOD9362397
Probable space group: A M A 2
;
_chemical_formula_sum "Si O2"
_cell_formula_units_Z 56
_cell_length_a 7.868179
_cell_length_b 19.081300
_cell_length_c 21.899059
_cell_angle_alpha 90.000000
_cell_angle_beta 90.000000
_cell_angle_gamma 90.000000
_cell_volume 3287.817061
_symmetry_space_group_name_H-M "A M A 2"
_symmetry_group_IT_number 40
_symmetry_cell_setting 'orthorhombic'
loop_
_space_group_symop_operation_xyz
x,y,z
-x,-y,z
1/2-x,y,z
1/2+x,-y,z
x,1/2+y,1/2+z
-x,1/2-y,1/2+z
1/2-x,1/2+y,1/2+z
1/2+x,1/2-y,1/2+z
loop_
_atom_site_type_symbol
_atom_site_label
_atom_site_fract_x
_atom_site_fract_y
_atom_site_fract_z
Si Si1 0.445133 0.709001 0.360780
Si Si2 0.041218 0.347668 0.915681
Si Si3 0.453266 0.580368 0.289701
Si Si4 0.547758 0.580174 0.789612
Si Si5 0.452774 0.345365 0.163427
Si Si6 0.544700 0.581567 0.041226
Si Si7 0.548779 0.281782 0.737731
O O1 0.250000 0.697000 0.379552
O O2 0.518534 0.767184 0.406612
O O3 0.521924 0.634136 0.341521
O O4 0.451007 0.750819 0.296331
O O5 0.250000 0.346530 0.914960
O O6 0.986292 0.392787 0.856451
O O7 0.984821 0.382754 0.978462
O O8 0.500000 0.500000 0.299259
O O9 0.250000 0.586821 0.290162
O O10 0.511711 0.607319 0.223145
O O11 0.500000 0.500000 0.779652
O O12 0.750000 0.585639 0.789779
O O13 0.480544 0.635459 0.739705
O O14 0.250000 0.343015 0.155927
O O15 0.522578 0.379271 0.101709
O O16 0.507548 0.266345 0.181079
O O17 0.500000 0.500000 0.043041
O O18 0.750000 0.586403 0.041054
O O19 0.750000 0.269072 0.747284
#
# Coordination Sequence:
#
# PCOD9362397 Si02
#       7
#     8   8   8   8   8   8   8
#     4   8  15  28  43  59  79 107 140 172 208 251
#     4   8  15  28  44  60  82 110 141 172 202 239
#     4  10  18  27  42  62  85 110 137 171 212 251
#     4  10  18  28  43  64  87 111 138 171 210 250
#     4   9  18  30  43  60  84 113 144 172 201 240
#     4  10  19  30  43  61  85 113 142 171 199 235
#     4   9  16  27  42  60  82 108 138 173 209 246
#
# _framework density 17.032577
#
# number of rings (size 3 to 8) (size 9 to 14) (size 15 to 20)
#    0.000    2.857    0.000    3.000    0.000    2.857 
#    0.000    2.857    0.000    0.000    0.000    1.000 
#    0.000    2.286    0.000    0.000    0.000    1.143 
#
# Total GULP energy -155887.263290 kJ/mol
# GULP energy per Si atom -5567.402260 kJ/mol
# Density = 1.699381 g / cm^3
# Si number density = 17.032577 Si / 1000 Ang^3
#
#
#
# Elastic Constant Matrix: (Units=GPa)
#
#
# Indices 1 2 3 4 5 6 
#
# 1 23.1432 0.9398 7.4955 0.0000 0.0000 0.0000
# 2 0.9398 176.8473 78.9828 0.0000 0.0000 0.0000
# 3 7.4955 78.9828 88.9319 0.0000 0.0000 0.0000
# 4 0.0000 0.0000 0.0000 24.7340 0.0000 0.0000
# 5 0.0000 0.0000 0.0000 0.0000 9.5543 0.0000
# 6 0.0000 0.0000 0.0000 0.0000 0.0000 19.5133
#
#
#
# Elastic Compliance Matrix: (Units=1/GPa)
#
#
# Indices 1 2 3 4 5 6 
#
# 1 0.045035 0.002413 -0.005939 0.000000 0.000000 0.000000
# 2 0.002413 0.009501 -0.008642 0.000000 0.000000 0.000000
# 3 -0.005939 -0.008642 0.019420 0.000000 0.000000 0.000000
# 4 0.000000 0.000000 0.000000 0.040430 0.000000 0.000000
# 5 0.000000 0.000000 0.000000 0.000000 0.104664 0.000000
# 6 0.000000 0.000000 0.000000 0.000000 0.000000 0.051247
#
#
# Mechanical properties :
#
#
# Convention : Reuss Voigt Hill
#
# Bulk Modulus (GPa) = 20.15271 51.52874 35.84073
# Shear Modulus (GPa) = 16.06822 24.19394 20.13108
#
# Velocity S-wave (km/s) = 3.07478 3.77298 3.44163
# Velocity P-wave (km/s) = 4.94604 7.02134 6.07299
#
# Compressibility (1/GPa) = 0.04962112
#
# Stress axis : x y z
#
# Youngs Moduli (GPa) = 22.20507 105.24859 51.49315
#
# Poissons Ratio (x) = -0.25397 0.30581
# Poissons Ratio (y) = -0.05358 0.44499
# Poissons Ratio (z) = 0.13187 0.90953
#
# Static dielectric constant tensor:
#      x y z
#    x 1.627370 0.000000 0.000000 
#    y 0.000000 1.621140 0.000000 
#    z 0.000000 0.000000 1.569740 
# 
# From -- ./inp_files/22292.got.cif
#   From: 2010.05.17/outbox.cif.g08.bks.cpg/sg40_12_cif.got.tgz:22292.got - 2010.06.03 18:35:42.
