data_PCOD9362807
_publ_section_title
;
Structure prediction by ZEFSAII (Michael W. Deem and Ramdas Pophale) SiO2 
 PCOD9362807
Probable space group: A M A 2
;
_chemical_formula_sum "Si O2"
_cell_formula_units_Z 60
_cell_length_a 24.537066
_cell_length_b 11.701295
_cell_length_c 9.348757
_cell_angle_alpha 90.000000
_cell_angle_beta 90.000000
_cell_angle_gamma 90.000000
_cell_volume 2684.172551
_symmetry_space_group_name_H-M "A M A 2"
_symmetry_group_IT_number 40
_symmetry_cell_setting 'orthorhombic'
loop_
_space_group_symop_operation_xyz
x,y,z
-x,-y,z
1/2-x,y,z
1/2+x,-y,z
x,1/2+y,1/2+z
-x,1/2-y,1/2+z
1/2-x,1/2+y,1/2+z
1/2+x,1/2-y,1/2+z
loop_
_atom_site_type_symbol
_atom_site_label
_atom_site_fract_x
_atom_site_fract_y
_atom_site_fract_z
Si Si1 0.590375 0.218631 0.106530
Si Si2 0.852530 0.862893 0.817942
Si Si3 0.558104 0.037155 0.907872
Si Si4 0.614388 0.424042 0.881827
Si Si5 0.146838 0.208837 0.123401
Si Si6 0.000000 0.500000 0.911317
Si Si7 0.028458 0.303087 0.139249
Si Si8 0.188649 0.954087 0.601492
O O1 0.631021 0.247770 0.234465
O O2 0.527516 0.233426 0.155360
O O3 0.594610 0.098975 0.026196
O O4 0.602339 0.317341 0.988401
O O5 0.908893 0.934147 0.837500
O O6 0.817085 0.946664 0.720018
O O7 0.830071 0.834768 0.973522
O O8 0.543250 0.128220 0.783577
O O9 0.500000 0.000000 0.968068
O O10 0.650349 0.379602 0.751987
O O11 0.555228 0.467330 0.831221
O O12 0.645360 0.515903 0.978330
O O13 0.081846 0.230814 0.101536
O O14 0.172608 0.330704 0.162953
O O15 0.983430 0.604217 0.016120
O O16 0.250000 0.951855 0.546465
#
# Coordination Sequence:
#
# PCOD9362807 Si02
#       8
#     8   8   8   8   8   4   8   8
#     4  10  21  35  60  90 133 180 215 260 313 386
#     4  11  24  42  64  93 129 166 217 271 323 391
#     4  12  19  37  58  89 134 177 216 261 316 383
#     4  10  21  41  66  99 133 172 223 267 330 402
#     4  12  24  41  68  98 131 170 218 270 326 401
#     4  10  18  36  64  92 142 180 208 270 326 394
#     4  11  18  34  57  91 130 175 218 253 313 382
#     4  11  25  48  72  92 126 172 220 283 341 388
#
# _framework density 22.353256999999999
#
# number of rings (size 3 to 8) (size 9 to 14) (size 15 to 20)
#    0.000    1.067    6.000    1.600    0.000    2.133 
#    3.600    0.000    0.000    0.000    0.000    0.000 
#    0.000    0.000    0.000    0.000    0.000    0.000 
#
# Total GULP energy -167929.403328 kJ/mol
# GULP energy per Si atom -5597.646778 kJ/mol
# Density = 2.230238 g / cm^3
# Si number density = 22.353257 Si / 1000 Ang^3
#
#
#
# Elastic Constant Matrix: (Units=GPa)
#
#
# Indices 1 2 3 4 5 6 
#
# 1 67.0386 7.3138 1.5664 0.0000 0.0000 0.0000
# 2 7.3138 43.9353 32.9797 0.0000 0.0000 0.0000
# 3 1.5664 32.9797 88.4981 0.0000 0.0000 0.0000
# 4 0.0000 0.0000 0.0000 30.0924 0.0000 0.0000
# 5 0.0000 0.0000 0.0000 0.0000 4.3523 0.0000
# 6 0.0000 0.0000 0.0000 0.0000 0.0000 7.9053
#
#
#
# Elastic Compliance Matrix: (Units=1/GPa)
#
#
# Indices 1 2 3 4 5 6 
#
# 1 0.015249 -0.003243 0.000939 0.000000 0.000000 0.000000
# 2 -0.003243 0.032290 -0.011976 0.000000 0.000000 0.000000
# 3 0.000939 -0.011976 0.015746 0.000000 0.000000 0.000000
# 4 0.000000 0.000000 0.000000 0.033231 0.000000 0.000000
# 5 0.000000 0.000000 0.000000 0.000000 0.229763 0.000000
# 6 0.000000 0.000000 0.000000 0.000000 0.000000 0.126498
#
#
# Mechanical properties :
#
#
# Convention : Reuss Voigt Hill
#
# Bulk Modulus (GPa) = 28.79819 31.46575 30.13197
# Shear Modulus (GPa) = 10.14379 18.97748 14.56064
#
# Velocity S-wave (km/s) = 2.13256 2.91689 2.55500
# Velocity P-wave (km/s) = 4.35602 5.04494 4.71309
#
# Compressibility (1/GPa) = 0.03472440
#
# Stress axis : x y z
#
# Youngs Moduli (GPa) = 65.57954 30.96918 63.50823
#
# Poissons Ratio (x) = 0.10043 -0.05961
# Poissons Ratio (y) = 0.21267 0.76057
# Poissons Ratio (z) = -0.06156 0.37088
#
# Static dielectric constant tensor:
#      x y z
#    x 1.810560 0.000000 0.000000 
#    y 0.000000 1.838310 0.000000 
#    z 0.000000 0.000000 1.839410 
# 
# From -- ./inp_files/9158.got.cif
#   From: 2010.05.17/outbox.cif.g08.bks.cpg/sg40_5_cif.got.tgz:9158.got - 2010.06.03 18:35:42.
