data_PCOD9362510
_publ_section_title
;
Structure prediction by ZEFSAII (Michael W. Deem and Ramdas Pophale) SiO2 
 PCOD9362510
Probable space group: A M A 2
;
_chemical_formula_sum "Si O2"
_cell_formula_units_Z 64
_cell_length_a 8.653119
_cell_length_b 34.515450
_cell_length_c 12.104979
_cell_angle_alpha 90.000000
_cell_angle_beta 90.000000
_cell_angle_gamma 90.000000
_cell_volume 3615.349243
_symmetry_space_group_name_H-M "A M A 2"
_symmetry_group_IT_number 40
_symmetry_cell_setting 'orthorhombic'
loop_
_space_group_symop_operation_xyz
x,y,z
-x,-y,z
1/2-x,y,z
1/2+x,-y,z
x,1/2+y,1/2+z
-x,1/2-y,1/2+z
1/2-x,1/2+y,1/2+z
1/2+x,1/2-y,1/2+z
loop_
_atom_site_type_symbol
_atom_site_label
_atom_site_fract_x
_atom_site_fract_y
_atom_site_fract_z
Si Si1 0.934388 0.041174 0.648690
Si Si2 0.064033 0.458110 0.888659
Si Si3 0.070465 0.618934 0.202820
Si Si4 0.561057 0.125562 0.303338
Si Si5 0.434808 0.761158 0.678622
Si Si6 0.566075 0.172103 0.516603
Si Si7 0.070009 0.186930 0.869606
Si Si8 0.934279 0.180940 0.112817
O O1 0.750000 0.042214 0.656559
O O2 0.976816 0.046327 0.518685
O O3 0.009843 0.075877 0.715707
O O4 0.000000 0.000000 0.683998
O O5 0.250000 0.459770 0.881637
O O6 0.011434 0.418670 0.827660
O O7 0.000000 0.500000 0.851355
O O8 0.250000 0.619207 0.169256
O O9 0.055739 0.645276 0.310703
O O10 0.971276 0.639408 0.107235
O O11 0.750000 0.125245 0.307998
O O12 0.507445 0.155033 0.400641
O O13 0.515664 0.144222 0.186741
O O14 0.250000 0.756571 0.670598
O O15 0.489763 0.788050 0.574393
O O16 0.477404 0.783853 0.790434
O O17 0.517546 0.720101 0.675511
O O18 0.750000 0.176472 0.505478
O O19 0.250000 0.198549 0.868449
O O20 0.010074 0.184021 0.993110
O O21 0.750000 0.179451 0.101126
#
# Coordination Sequence:
#
# PCOD9362510 Si02
#       8
#     8   8   8   8   8   8   8   8
#     4  10  18  29  49  77 111 143 172 214 267 328
#     4   9  17  31  51  76 108 142 174 212 266 324
#     4  10  19  32  52  77 104 138 177 223 270 315
#     4   9  18  34  54  78 108 145 180 217 269 330
#     4  10  21  36  58  83 108 141 182 226 279 334
#     4   9  17  33  54  75 103 142 177 212 267 330
#     4  10  22  40  57  75 107 145 185 231 274 321
#     4  11  23  37  57  81 108 144 188 231 275 330
#
# _framework density 17.702300000000001
#
# number of rings (size 3 to 8) (size 9 to 14) (size 15 to 20)
#    0.000    2.250    1.250    1.875    1.750    2.500 
#    0.000    2.500    0.000    0.750    0.000    3.500 
#    0.000    0.000    0.000    0.000    0.000    0.000 
#
# Total GULP energy -178474.869355 kJ/mol
# GULP energy per Si atom -5577.339667 kJ/mol
# Density = 1.766201 g / cm^3
# Si number density = 17.702300 Si / 1000 Ang^3
#
#
#
# Elastic Constant Matrix: (Units=GPa)
#
#
# Indices 1 2 3 4 5 6 
#
# 1 4.7284 4.5079 4.9948 0.0000 0.0000 0.0000
# 2 4.5079 73.7564 11.3859 0.0000 0.0000 0.0000
# 3 4.9948 11.3859 62.7980 0.0000 0.0000 0.0000
# 4 0.0000 0.0000 0.0000 16.1558 0.0000 0.0000
# 5 0.0000 0.0000 0.0000 0.0000 12.5102 0.0000
# 6 0.0000 0.0000 0.0000 0.0000 0.0000 28.2256
#
#
#
# Elastic Compliance Matrix: (Units=1/GPa)
#
#
# Indices 1 2 3 4 5 6 
#
# 1 0.240956 -0.012107 -0.016970 0.000000 0.000000 0.000000
# 2 -0.012107 0.014557 -0.001676 0.000000 0.000000 0.000000
# 3 -0.016970 -0.001676 0.017578 0.000000 0.000000 0.000000
# 4 0.000000 0.000000 0.000000 0.061897 0.000000 0.000000
# 5 0.000000 0.000000 0.000000 0.000000 0.079935 0.000000
# 6 0.000000 0.000000 0.000000 0.000000 0.000000 0.035429
#
#
# Mechanical properties :
#
#
# Convention : Reuss Voigt Hill
#
# Bulk Modulus (GPa) = 4.72628 20.34002 12.53315
# Shear Modulus (GPa) = 8.58537 19.40461 13.99499
#
# Velocity S-wave (km/s) = 2.20463 3.31443 2.81477
# Velocity P-wave (km/s) = 3.02592 5.11490 4.20229
#
# Compressibility (1/GPa) = 0.21158310
#
# Stress axis : x y z
#
# Youngs Moduli (GPa) = 4.15014 68.69593 56.89002
#
# Poissons Ratio (x) = 0.83173 0.96543
# Poissons Ratio (y) = 0.05025 0.09537
# Poissons Ratio (z) = 0.07043 0.11516
#
# Static dielectric constant tensor:
#      x y z
#    x 1.600340 0.000000 0.000000 
#    y 0.000000 1.594550 0.000000 
#    z 0.000000 0.000000 1.591490 
# 
# From -- ./inp_files/10661.got.cif
#   From: 2010.05.17/outbox.cif.g08.bks.cpg/sg40_6_cif.got.tgz:10661.got - 2010.06.03 18:35:42.
