data_PCOD9362567
_publ_section_title
;
Structure prediction by ZEFSAII (Michael W. Deem and Ramdas Pophale) SiO2 
 PCOD9362567
Probable space group: A M A 2
;
_chemical_formula_sum "Si O2"
_cell_formula_units_Z 52
_cell_length_a 8.855309
_cell_length_b 11.246101
_cell_length_c 28.327875
_cell_angle_alpha 90.000000
_cell_angle_beta 90.000000
_cell_angle_gamma 90.000000
_cell_volume 2821.107900
_symmetry_space_group_name_H-M "A M A 2"
_symmetry_group_IT_number 40
_symmetry_cell_setting 'orthorhombic'
loop_
_space_group_symop_operation_xyz
x,y,z
-x,-y,z
1/2-x,y,z
1/2+x,-y,z
x,1/2+y,1/2+z
-x,1/2-y,1/2+z
1/2-x,1/2+y,1/2+z
1/2+x,1/2-y,1/2+z
loop_
_atom_site_type_symbol
_atom_site_label
_atom_site_fract_x
_atom_site_fract_y
_atom_site_fract_z
Si Si1 0.000000 0.000000 0.007260
Si Si2 0.920690 0.326583 0.589009
Si Si3 0.431986 0.122956 0.192348
Si Si4 0.423480 0.779808 0.942355
Si Si5 0.567694 0.631016 0.247095
Si Si6 0.568063 0.628285 0.023200
Si Si7 0.931217 0.870687 0.849947
O O1 0.912313 0.919522 0.045664
O O2 0.074248 0.904073 0.972201
O O3 0.750000 0.294335 0.602209
O O4 0.989901 0.369660 0.637876
O O5 0.992561 0.211101 0.565657
O O6 0.250000 0.109639 0.194201
O O7 0.467285 0.251750 0.215665
O O8 0.500000 0.000000 0.212988
O O9 0.250000 0.746468 0.934830
O O10 0.509289 0.791999 0.892969
O O11 0.509694 0.687116 0.975234
O O12 0.500000 0.500000 0.233070
O O13 0.750000 0.618570 0.249557
O O14 0.499366 0.658947 0.298799
O O15 0.500000 0.500000 0.028257
O O16 0.750000 0.628205 0.023670
O O17 0.750000 0.874417 0.848338
O O18 0.000000 0.000000 0.860823
#
# Coordination Sequence:
#
# PCOD9362567 Si02
#       7
#     4   8   8   8   8   8   8
#     4  10  18  30  54  82 120 146 182 222 280 334
#     4   9  18  33  53  79 112 148 185 230 279 337
#     4  10  21  38  60  87 119 155 195 246 300 354
#     4  11  21  33  55  84 115 149 187 231 286 344
#     4  10  21  38  60  85 116 152 197 249 302 358
#     4  10  21  37  54  76 112 153 195 237 283 342
#     4  11  21  35  57  84 114 147 189 241 296 351
#
# _framework density 18.432473999999999
#
# number of rings (size 3 to 8) (size 9 to 14) (size 15 to 20)
#    0.000    1.846    1.538    4.154    0.000    3.077 
#    0.000    1.538    0.000    1.846    0.000    0.000 
#    0.000    0.000    0.000    0.000    0.000    0.000 
#
# Total GULP energy -144783.495810 kJ/mol
# GULP energy per Si atom -5568.595993 kJ/mol
# Density = 1.839052 g / cm^3
# Si number density = 18.432474 Si / 1000 Ang^3
#
#
#
# Elastic Constant Matrix: (Units=GPa)
#
#
# Indices 1 2 3 4 5 6 
#
# 1 94.6906 40.3826 32.3820 0.0000 0.0000 0.0000
# 2 40.3826 138.1240 55.1576 0.0000 0.0000 0.0000
# 3 32.3820 55.1576 90.1506 0.0000 0.0000 0.0000
# 4 0.0000 0.0000 0.0000 20.2420 0.0000 0.0000
# 5 0.0000 0.0000 0.0000 0.0000 19.9068 0.0000
# 6 0.0000 0.0000 0.0000 0.0000 0.0000 34.3546
#
#
#
# Elastic Compliance Matrix: (Units=1/GPa)
#
#
# Indices 1 2 3 4 5 6 
#
# 1 0.012657 -0.002494 -0.003020 0.000000 0.000000 0.000000
# 2 -0.002494 0.010072 -0.005267 0.000000 0.000000 0.000000
# 3 -0.003020 -0.005267 0.015400 0.000000 0.000000 0.000000
# 4 0.000000 0.000000 0.000000 0.049402 0.000000 0.000000
# 5 0.000000 0.000000 0.000000 0.000000 0.050234 0.000000
# 6 0.000000 0.000000 0.000000 0.000000 0.000000 0.029108
#
#
# Mechanical properties :
#
#
# Convention : Reuss Voigt Hill
#
# Bulk Modulus (GPa) = 60.36212 64.31216 62.33714
# Shear Modulus (GPa) = 25.77864 27.90355 26.84109
#
# Velocity S-wave (km/s) = 3.74377 3.89501 3.82014
# Velocity P-wave (km/s) = 7.17681 7.42931 7.30415
#
# Compressibility (1/GPa) = 0.01656668
#
# Stress axis : x y z
#
# Youngs Moduli (GPa) = 79.00512 99.28221 64.93605
#
# Poissons Ratio (x) = 0.24766 0.19613
# Poissons Ratio (y) = 0.19707 0.34199
# Poissons Ratio (z) = 0.23862 0.52288
#
# Static dielectric constant tensor:
#      x y z
#    x 1.635440 0.000000 0.000000 
#    y 0.000000 1.620800 0.000000 
#    z 0.000000 0.000000 1.654800 
# 
# From -- ./inp_files/25320.got.cif
#   From: 2010.05.17/outbox.cif.g08.bks.cpg/sg40_13_cif.got.tgz:25320.got - 2010.06.03 18:35:42.
