data_PCOD9362517
_publ_section_title
;
Structure prediction by ZEFSAII (Michael W. Deem and Ramdas Pophale) SiO2 
 PCOD9362517
Probable space group: A M A 2
;
_chemical_formula_sum "Si O2"
_cell_formula_units_Z 64
_cell_length_a 8.065045
_cell_length_b 17.977116
_cell_length_c 21.299168
_cell_angle_alpha 90.000000
_cell_angle_beta 90.000000
_cell_angle_gamma 90.000000
_cell_volume 3088.086486
_symmetry_space_group_name_H-M "A M A 2"
_symmetry_group_IT_number 40
_symmetry_cell_setting 'orthorhombic'
loop_
_space_group_symop_operation_xyz
x,y,z
-x,-y,z
1/2-x,y,z
1/2+x,-y,z
x,1/2+y,1/2+z
-x,1/2-y,1/2+z
1/2-x,1/2+y,1/2+z
1/2+x,1/2-y,1/2+z
loop_
_atom_site_type_symbol
_atom_site_label
_atom_site_fract_x
_atom_site_fract_y
_atom_site_fract_z
Si Si1 0.442263 0.221258 0.325210
Si Si2 0.558563 0.387975 0.325791
Si Si3 0.046958 0.624393 0.190385
Si Si4 0.447396 0.420283 0.595696
Si Si5 0.049854 0.297738 0.692658
Si Si6 0.947405 0.920481 0.555160
Si Si7 0.550385 0.873714 0.960254
Si Si8 0.947582 0.202786 0.457134
O O1 0.250000 0.243236 0.323505
O O2 0.550254 0.297300 0.326068
O O3 0.487564 0.179239 0.261495
O O4 0.479227 0.179315 0.389800
O O5 0.750000 0.412585 0.325387
O O6 0.484897 0.407090 0.257468
O O7 0.484113 0.406829 0.394079
O O8 0.250000 0.621800 0.192731
O O9 0.999676 0.711539 0.184538
O O10 0.987885 0.586215 0.126721
O O11 0.500000 0.500000 0.622000
O O12 0.250000 0.416017 0.595296
O O13 0.511466 0.352002 0.637964
O O14 0.506058 0.414090 0.524085
O O15 0.250000 0.299103 0.692579
O O16 0.750000 0.917097 0.558132
O O17 0.005194 0.852167 0.512731
O O18 0.000000 0.000000 0.528500
O O19 0.750000 0.872630 0.954551
O O20 0.492586 0.787818 0.967433
O O21 0.750000 0.204617 0.451960
#
# Coordination Sequence:
#
# PCOD9362517 Si02
#       8
#     8   8   8   8   8   8   8   8
#     4  10  18  29  51  83 110 132 165 215 265 314
#     4   8  15  31  53  78 107 138 171 213 263 313
#     4   8  15  31  56  79 102 134 173 213 259 313
#     4  11  23  37  54  75 106 144 181 220 264 314
#     4   9  18  35  56  77 101 136 176 215 263 317
#     4  11  22  36  53  76 107 143 181 222 264 312
#     4   9  18  33  56  82 108 137 173 217 266 315
#     4  10  20  36  57  80 107 140 175 217 264 314
#
# _framework density 20.724806999999998
#
# number of rings (size 3 to 8) (size 9 to 14) (size 15 to 20)
#    0.000    2.500    0.000    4.500    0.000    4.500 
#    0.000    7.500    0.000    3.000    0.000    0.000 
#    0.000    0.000    0.000    0.000    0.000    0.000 
#
# Total GULP energy -178522.182206 kJ/mol
# GULP energy per Si atom -5578.818194 kJ/mol
# Density = 2.067764 g / cm^3
# Si number density = 20.724807 Si / 1000 Ang^3
#
#
#
# Elastic Constant Matrix: (Units=GPa)
#
#
# Indices 1 2 3 4 5 6 
#
# 1 32.5469 2.3977 2.0320 0.0000 0.0000 0.0000
# 2 2.3977 70.4482 35.4516 0.0000 0.0000 0.0000
# 3 2.0320 35.4516 120.5069 0.0000 0.0000 0.0000
# 4 0.0000 0.0000 0.0000 -10.3415 0.0000 0.0000
# 5 0.0000 0.0000 0.0000 0.0000 18.9976 0.0000
# 6 0.0000 0.0000 0.0000 0.0000 0.0000 12.4837
#
#
#
# Elastic Compliance Matrix: (Units=1/GPa)
#
#
# Indices 1 2 3 4 5 6 
#
# 1 0.030808 -0.000924 -0.000248 0.000000 0.000000 0.000000
# 2 -0.000924 0.016689 -0.004894 0.000000 0.000000 0.000000
# 3 -0.000248 -0.004894 0.009742 0.000000 0.000000 0.000000
# 4 0.000000 0.000000 0.000000 -0.096698 0.000000 0.000000
# 5 0.000000 0.000000 0.000000 0.000000 0.052638 0.000000
# 6 0.000000 0.000000 0.000000 0.000000 0.000000 0.080104
#
#
# Mechanical properties :
#
#
# Convention : Reuss Voigt Hill
#
# Bulk Modulus (GPa) = 22.16886 33.69607 27.93247
# Shear Modulus (GPa) = 41.51021 16.46934 28.98978
#
# Velocity S-wave (km/s) = 4.48026 2.82204 3.74411
# Velocity P-wave (km/s) = 6.12239 5.18774 5.67434
#
# Compressibility (1/GPa) = 0.04510831
#
# Stress axis : x y z
#
# Youngs Moduli (GPa) = 32.45862 59.91913 102.64555
#
# Poissons Ratio (x) = 0.05536 0.02542
# Poissons Ratio (y) = 0.02999 0.50236
# Poissons Ratio (z) = 0.00804 0.29325
#
# Static dielectric constant tensor:
#      x y z
#    x 1.732310 0.000000 0.000000 
#    y 0.000000 1.674930 0.000000 
#    z 0.000000 0.000000 1.789970 
# 
# From -- ./inp_files/22438.got.cif
#   From: 2010.05.17/outbox.cif.g08.bks.cpg/sg40_12_cif.got.tgz:22438.got - 2010.06.03 18:35:42.
