data_PCOD9362430
_publ_section_title
;
Structure prediction by ZEFSAII (Michael W. Deem and Ramdas Pophale) SiO2 
 PCOD9362430
Probable space group: A M A 2
;
_chemical_formula_sum "Si O2"
_cell_formula_units_Z 64
_cell_length_a 8.790001
_cell_length_b 26.560687
_cell_length_c 18.922301
_cell_angle_alpha 90.000000
_cell_angle_beta 90.000000
_cell_angle_gamma 90.000000
_cell_volume 4417.760574
_symmetry_space_group_name_H-M "A M A 2"
_symmetry_group_IT_number 40
_symmetry_cell_setting 'orthorhombic'
loop_
_space_group_symop_operation_xyz
x,y,z
-x,-y,z
1/2-x,y,z
1/2+x,-y,z
x,1/2+y,1/2+z
-x,1/2-y,1/2+z
1/2-x,1/2+y,1/2+z
1/2+x,1/2-y,1/2+z
loop_
_atom_site_type_symbol
_atom_site_label
_atom_site_fract_x
_atom_site_fract_y
_atom_site_fract_z
Si Si1 0.930769 0.353290 0.537240
Si Si2 0.434359 0.256933 0.617556
Si Si3 0.569805 0.643965 0.860238
Si Si4 0.575299 0.197098 0.907412
Si Si5 0.568529 0.945343 0.274045
Si Si6 0.425114 0.694943 0.987960
Si Si7 0.567832 0.055024 0.120349
Si Si8 0.432373 0.751615 0.281113
O O1 0.750000 0.357670 0.542877
O O2 0.989142 0.306843 0.585698
O O3 0.979550 0.339709 0.457302
O O4 0.011062 0.403344 0.565607
O O5 0.250000 0.263220 0.612548
O O6 0.474778 0.209847 0.566950
O O7 0.475286 0.249278 0.699061
O O8 0.750000 0.635479 0.853984
O O9 0.480041 0.596474 0.830279
O O10 0.525224 0.658255 0.940321
O O11 0.529842 0.693204 0.812905
O O12 0.750000 0.180522 0.903896
O O13 0.572289 0.250989 0.948055
O O14 0.508931 0.209877 0.830742
O O15 0.750000 0.948719 0.267340
O O16 0.496429 0.931126 0.198050
O O17 0.500000 0.000000 0.292208
O O18 0.250000 0.677417 0.988731
O O19 0.750000 0.052962 0.123006
O O20 0.500000 0.000000 0.103960
O O21 0.250000 0.746325 0.286670
#
# Coordination Sequence:
#
# PCOD9362430 Si02
#       8
#     8   8   8   8   8   8   8   8
#     4  11  20  30  45  64  86 115 149 180 215 257
#     4   9  17  29  44  63  89 118 147 180 217 256
#     4  10  18  28  43  62  85 115 148 180 216 255
#     4   9  17  29  43  60  84 113 144 179 215 252
#     4  11  21  33  47  64  86 112 144 180 217 255
#     4   8  15  27  41  58  82 113 146 179 215 254
#     4  11  21  34  48  64  87 113 144 180 217 253
#     4   9  17  28  43  63  87 115 145 178 214 254
#
# _framework density 14.486978000000001
#
# number of rings (size 3 to 8) (size 9 to 14) (size 15 to 20)
#    0.000    2.250    0.000    6.375    0.000    5.000 
#    0.000    0.000    0.000    0.000    0.000    0.000 
#    0.000    1.000    0.000    8.000    0.000    4.750 
#
# Total GULP energy -178438.682634 kJ/mol
# GULP energy per Si atom -5576.208832 kJ/mol
# Density = 1.445401 g / cm^3
# Si number density = 14.486978 Si / 1000 Ang^3
#
#
#
# Elastic Constant Matrix: (Units=GPa)
#
#
# Indices 1 2 3 4 5 6 
#
# 1 93.6963 39.0693 39.3643 0.0000 0.0000 0.0000
# 2 39.0693 54.4735 36.6577 0.0000 0.0000 0.0000
# 3 39.3643 36.6577 101.3346 0.0000 0.0000 0.0000
# 4 0.0000 0.0000 0.0000 21.5287 0.0000 0.0000
# 5 0.0000 0.0000 0.0000 0.0000 22.9262 0.0000
# 6 0.0000 0.0000 0.0000 0.0000 0.0000 20.9542
#
#
#
# Elastic Compliance Matrix: (Units=1/GPa)
#
#
# Indices 1 2 3 4 5 6 
#
# 1 0.015761 -0.009496 -0.002688 0.000000 0.000000 0.000000
# 2 -0.009496 0.029985 -0.007158 0.000000 0.000000 0.000000
# 3 -0.002688 -0.007158 0.013502 0.000000 0.000000 0.000000
# 4 0.000000 0.000000 0.000000 0.046450 0.000000 0.000000
# 5 0.000000 0.000000 0.000000 0.000000 0.043618 0.000000
# 6 0.000000 0.000000 0.000000 0.000000 0.000000 0.047723
#
#
# Mechanical properties :
#
#
# Convention : Reuss Voigt Hill
#
# Bulk Modulus (GPa) = 48.62625 53.29856 50.96240
# Shear Modulus (GPa) = 20.61190 22.04268 21.32729
#
# Velocity S-wave (km/s) = 3.77608 3.90494 3.84105
# Velocity P-wave (km/s) = 7.25604 7.56320 7.41121
#
# Compressibility (1/GPa) = 0.02056503
#
# Stress axis : x y z
#
# Youngs Moduli (GPa) = 63.44600 33.34967 74.06380
#
# Poissons Ratio (x) = 0.31668 0.19905
# Poissons Ratio (y) = 0.60247 0.53018
# Poissons Ratio (z) = 0.17052 0.23873
#
# Static dielectric constant tensor:
#      x y z
#    x 1.488330 0.000000 0.000000 
#    y 0.000000 1.455660 0.000000 
#    z 0.000000 0.000000 1.486330 
# 
# From -- ./inp_files/19784.got.cif
#   From: 2010.05.17/outbox.cif.g08.bks.cpg/sg40_10_cif.got.tgz:19784.got - 2010.06.03 18:35:42.
