data_PCOD9362103
_publ_section_title
;
Structure prediction by ZEFSAII (Michael W. Deem and Ramdas Pophale) SiO2 
 PCOD9362103
Probable space group: A B M 2
;
_chemical_formula_sum "Si O2"
_cell_formula_units_Z 16
_cell_length_a 6.594760
_cell_length_b 13.405900
_cell_length_c 8.070740
_cell_angle_alpha 90.000000
_cell_angle_beta 90.000000
_cell_angle_gamma 90.000000
_cell_volume 713.523576
_symmetry_space_group_name_H-M "A B M 2"
_symmetry_group_IT_number 39
_symmetry_cell_setting 'orthorhombic'
loop_
_space_group_symop_operation_xyz
x,y,z
-x,-y,z
-x,1/2+y,z
x,1/2-y,z
x,1/2+y,1/2+z
-x,1/2-y,1/2+z
-x,y,1/2+z
x,-y,1/2+z
loop_
_atom_site_type_symbol
_atom_site_label
_atom_site_fract_x
_atom_site_fract_y
_atom_site_fract_z
Si Si1 0.949716 0.868042 0.383310
Si Si2 0.734941 0.026120 0.192809
O O1 0.944614 0.750000 0.387731
O O2 0.817459 0.913794 0.533674
O O3 0.179174 0.907599 0.348009
O O4 0.840554 0.918938 0.224618
O O5 0.500000 0.000000 0.188450
#
# Coordination Sequence:
#
# PCOD9362103 Si02
#       2
#     8   8
#     4  11  24  43  70 102 137 182 234 285 344 416
#     4  11  24  45  70 102 143 182 230 291 348 412
#
# _framework density 22.423926999999999
#
# number of rings (size 3 to 8) (size 9 to 14) (size 15 to 20)
#    0.000    1.000    0.000    9.000    0.000    4.000 
#    0.000    5.000    0.000    0.000    0.000    0.000 
#    0.000    0.000    0.000    0.000    0.000    0.000 
#
# Total GULP energy -44560.072473 kJ/mol
# GULP energy per Si atom -5570.009059 kJ/mol
# Density = 2.237289 g / cm^3
# Si number density = 22.423927 Si / 1000 Ang^3
#
#
#
# Elastic Constant Matrix: (Units=GPa)
#
#
# Indices 1 2 3 4 5 6 
#
# 1 213.9679 103.0141 68.9699 0.0000 0.0000 0.0000
# 2 103.0141 260.7709 76.2444 0.0000 0.0000 0.0000
# 3 68.9699 76.2444 129.9040 0.0000 0.0000 0.0000
# 4 0.0000 0.0000 0.0000 32.2296 0.0000 0.0000
# 5 0.0000 0.0000 0.0000 0.0000 31.2779 0.0000
# 6 0.0000 0.0000 0.0000 0.0000 0.0000 10.4853
#
#
#
# Elastic Compliance Matrix: (Units=1/GPa)
#
#
# Indices 1 2 3 4 5 6 
#
# 1 0.006280 -0.001818 -0.002267 0.000000 0.000000 0.000000
# 2 -0.001818 0.005155 -0.002061 0.000000 0.000000 0.000000
# 3 -0.002267 -0.002061 0.010111 0.000000 0.000000 0.000000
# 4 0.000000 0.000000 0.000000 0.031027 0.000000 0.000000
# 5 0.000000 0.000000 0.000000 0.000000 0.031971 0.000000
# 6 0.000000 0.000000 0.000000 0.000000 0.000000 0.095371
#
#
# Mechanical properties :
#
#
# Convention : Reuss Voigt Hill
#
# Bulk Modulus (GPa) = 108.05110 122.34442 115.19776
# Shear Modulus (GPa) = 25.60264 38.55954 32.08109
#
# Velocity S-wave (km/s) = 3.38265 4.15127 3.78651
# Velocity P-wave (km/s) = 7.97162 8.81224 8.40245
#
# Compressibility (1/GPa) = 0.00925488
#
# Stress axis : x y z
#
# Youngs Moduli (GPa) = 159.24742 193.97143 98.90074
#
# Poissons Ratio (x) = 0.35260 0.22422
# Poissons Ratio (y) = 0.28948 0.20381
# Poissons Ratio (z) = 0.36103 0.39972
#
# Static dielectric constant tensor:
#      x y z
#    x 1.899310 0.000000 0.000000 
#    y 0.000000 1.791140 0.000000 
#    z 0.000000 0.000000 2.054050 
# 
# From -- ./inp_files/1571.got.cif
#   From: 2010.05.17/outbox.cif.g08.bks.cpg/sg39_1_cif.got.tgz:1571.got - 2010.06.03 18:22:40.
