data_PCOD9362314
_publ_section_title
;
Structure prediction by ZEFSAII (Michael W. Deem and Ramdas Pophale) SiO2 
 PCOD9362314
Probable space group: A M A 2
;
_chemical_formula_sum "Si O2"
_cell_formula_units_Z 40
_cell_length_a 8.493090
_cell_length_b 21.482384
_cell_length_c 13.096117
_cell_angle_alpha 90.000000
_cell_angle_beta 90.000000
_cell_angle_gamma 90.000000
_cell_volume 2389.410391
_symmetry_space_group_name_H-M "A M A 2"
_symmetry_group_IT_number 40
_symmetry_cell_setting 'orthorhombic'
loop_
_space_group_symop_operation_xyz
x,y,z
-x,-y,z
1/2-x,y,z
1/2+x,-y,z
x,1/2+y,1/2+z
-x,1/2-y,1/2+z
1/2-x,1/2+y,1/2+z
1/2+x,1/2-y,1/2+z
loop_
_atom_site_type_symbol
_atom_site_label
_atom_site_fract_x
_atom_site_fract_y
_atom_site_fract_z
Si Si1 0.438183 0.839561 0.947080
Si Si2 0.938070 0.930153 0.118140
Si Si3 0.558819 0.300084 0.009183
Si Si4 0.438706 0.696342 0.234335
Si Si5 0.058950 0.166562 0.289102
O O1 0.250000 0.841248 0.952745
O O2 0.489885 0.841046 0.829199
O O3 0.506959 0.893325 0.017565
O O4 0.491062 0.771690 0.989899
O O5 0.750000 0.931441 0.119592
O O6 0.991903 0.889289 0.215845
O O7 0.000000 0.000000 0.120942
O O8 0.750000 0.299523 0.011246
O O9 0.506678 0.322327 0.120579
O O10 0.512035 0.338148 0.908271
O O11 0.250000 0.692325 0.239622
O O12 0.489648 0.768239 0.249414
O O13 0.250000 0.171256 0.285147
#
# Coordination Sequence:
#
# PCOD9362314 Si02
#       5
#     8   8   8   8   8
#     4  10  19  33  49  71 103 135 170 209 254 300
#     4  11  22  35  53  74 101 136 175 213 253 302
#     4   8  15  28  48  72 101 131 158 202 254 299
#     4  10  17  28  49  76 103 131 163 203 256 307
#     4   9  18  32  48  71 101 133 168 207 253 302
#
# _framework density 16.740532000000002
#
# number of rings (size 3 to 8) (size 9 to 14) (size 15 to 20)
#    0.000    2.400    2.000    3.000    0.000    0.800 
#    0.000    1.000    0.000    1.200    0.000    2.800 
#    0.000    0.000    0.000    0.000    0.000    0.000 
#
# Total GULP energy -111482.345409 kJ/mol
# GULP energy per Si atom -5574.117270 kJ/mol
# Density = 1.670243 g / cm^3
# Si number density = 16.740532 Si / 1000 Ang^3
#
#
#
# Elastic Constant Matrix: (Units=GPa)
#
#
# Indices 1 2 3 4 5 6 
#
# 1 29.5830 22.5972 24.1123 0.0000 0.0000 0.0000
# 2 22.5972 94.1529 70.5488 0.0000 0.0000 0.0000
# 3 24.1123 70.5488 177.5598 0.0000 0.0000 0.0000
# 4 0.0000 0.0000 0.0000 17.7032 0.0000 0.0000
# 5 0.0000 0.0000 0.0000 0.0000 19.1929 0.0000
# 6 0.0000 0.0000 0.0000 0.0000 0.0000 19.9776
#
#
#
# Elastic Compliance Matrix: (Units=1/GPa)
#
#
# Indices 1 2 3 4 5 6 
#
# 1 0.042112 -0.008290 -0.002425 0.000000 0.000000 0.000000
# 2 -0.008290 0.016756 -0.005532 0.000000 0.000000 0.000000
# 3 -0.002425 -0.005532 0.008159 0.000000 0.000000 0.000000
# 4 0.000000 0.000000 0.000000 0.056487 0.000000 0.000000
# 5 0.000000 0.000000 0.000000 0.000000 0.052103 0.000000
# 6 0.000000 0.000000 0.000000 0.000000 0.000000 0.050056
#
#
# Mechanical properties :
#
#
# Convention : Reuss Voigt Hill
#
# Bulk Modulus (GPa) = 28.95743 59.53468 44.24606
# Shear Modulus (GPa) = 18.54073 23.64392 21.09232
#
# Velocity S-wave (km/s) = 3.33158 3.76224 3.55344
# Velocity P-wave (km/s) = 5.66873 7.38329 6.58208
#
# Compressibility (1/GPa) = 0.03453345
#
# Stress axis : x y z
#
# Youngs Moduli (GPa) = 23.74610 59.68170 122.56359
#
# Poissons Ratio (x) = 0.49477 0.29720
# Poissons Ratio (y) = 0.19686 0.67797
# Poissons Ratio (z) = 0.05758 0.33013
#
# Static dielectric constant tensor:
#      x y z
#    x 1.564600 0.000000 0.000000 
#    y 0.000000 1.523150 0.000000 
#    z 0.000000 0.000000 1.606750 
# 
# From -- ./inp_files/10013.got.cif
#   From: 2010.05.17/outbox.cif.g08.bks.cpg/sg40_6_cif.got.tgz:10013.got - 2010.06.03 18:35:42.
