data_PCOD9362316
_publ_section_title
;
Structure prediction by ZEFSAII (Michael W. Deem and Ramdas Pophale) SiO2 
 PCOD9362316
Probable space group: A M A 2
;
_chemical_formula_sum "Si O2"
_cell_formula_units_Z 64
_cell_length_a 15.292519
_cell_length_b 17.575467
_cell_length_c 11.237626
_cell_angle_alpha 90.000000
_cell_angle_beta 90.000000
_cell_angle_gamma 90.000000
_cell_volume 3020.372285
_symmetry_space_group_name_H-M "A M A 2"
_symmetry_group_IT_number 40
_symmetry_cell_setting 'orthorhombic'
loop_
_space_group_symop_operation_xyz
x,y,z
-x,-y,z
1/2-x,y,z
1/2+x,-y,z
x,1/2+y,1/2+z
-x,1/2-y,1/2+z
1/2-x,1/2+y,1/2+z
1/2+x,1/2-y,1/2+z
loop_
_atom_site_type_symbol
_atom_site_label
_atom_site_fract_x
_atom_site_fract_y
_atom_site_fract_z
Si Si1 0.154953 0.283605 0.228310
Si Si2 0.654999 0.635035 0.712284
Si Si3 0.148852 0.190084 0.693415
Si Si4 0.034334 0.121822 0.485812
Si Si5 0.008388 0.707960 0.389922
Si Si6 0.846074 0.618981 0.995867
Si Si7 0.151084 0.601465 0.766842
Si Si8 0.989260 0.421239 0.580118
O O1 0.250000 0.310046 0.274759
O O2 0.153256 0.192741 0.244537
O O3 0.072554 0.312215 0.302795
O O4 0.150310 0.311474 0.091580
O O5 0.750000 0.603311 0.675608
O O6 0.648766 0.720246 0.658652
O O7 0.656173 0.639486 0.855933
O O8 0.569709 0.590671 0.671120
O O9 0.250000 0.166442 0.702544
O O10 0.094381 0.140999 0.598963
O O11 0.096397 0.192711 0.816528
O O12 0.094128 0.085104 0.383927
O O13 0.006473 0.205202 0.431776
O O14 0.941697 0.081380 0.513310
O O15 0.010197 0.652678 0.500625
O O16 0.750000 0.581673 0.019408
O O17 0.250000 0.574161 0.780026
O O18 0.099346 0.571819 0.653955
O O19 0.000000 0.500000 0.510530
#
# Coordination Sequence:
#
# PCOD9362316 Si02
#       8
#     8   8   8   8   8   8   8   8
#     4   9  18  32  56  88 116 144 176 232 304 351
#     4  10  20  35  55  84 116 145 187 238 289 347
#     4  11  21  33  56  88 118 148 180 235 308 356
#     4  11  18  33  58  84 118 142 180 240 309 347
#     4  11  21  33  53  80 117 151 188 234 278 346
#     4  10  17  28  53  84 112 141 176 225 290 352
#     4  10  21  36  55  82 116 150 190 236 287 347
#     4  12  25  40  56  78 114 165 202 227 271 335
#
# _framework density 21.189440999999999
#
# number of rings (size 3 to 8) (size 9 to 14) (size 15 to 20)
#    0.000    1.500    5.000    1.875    0.000    2.000 
#    0.000    0.000    0.000    3.000    0.000    1.750 
#    0.000    0.000    0.000    0.000    0.000    0.000 
#
# Total GULP energy -178537.006987 kJ/mol
# GULP energy per Si atom -5579.281468 kJ/mol
# Density = 2.114121 g / cm^3
# Si number density = 21.189441 Si / 1000 Ang^3
#
#
#
# Elastic Constant Matrix: (Units=GPa)
#
#
# Indices 1 2 3 4 5 6 
#
# 1 203.5002 16.4792 40.1299 0.0000 0.0000 0.0000
# 2 16.4792 25.7012 5.6610 0.0000 0.0000 0.0000
# 3 40.1299 5.6610 62.2479 0.0000 0.0000 0.0000
# 4 0.0000 0.0000 0.0000 -2.3357 0.0000 0.0000
# 5 0.0000 0.0000 0.0000 0.0000 12.5166 0.0000
# 6 0.0000 0.0000 0.0000 0.0000 0.0000 -9.9493
#
#
#
# Elastic Compliance Matrix: (Units=1/GPa)
#
#
# Indices 1 2 3 4 5 6 
#
# 1 0.005845 -0.002977 -0.003497 0.000000 0.000000 0.000000
# 2 -0.002977 0.041221 -0.001829 0.000000 0.000000 0.000000
# 3 -0.003497 -0.001829 0.018486 0.000000 0.000000 0.000000
# 4 0.000000 0.000000 0.000000 -0.428135 0.000000 0.000000
# 5 0.000000 0.000000 0.000000 0.000000 0.079894 0.000000
# 6 0.000000 0.000000 0.000000 0.000000 0.000000 -0.100510
#
#
# Mechanical properties :
#
#
# Convention : Reuss Voigt Hill
#
# Bulk Modulus (GPa) = 20.43173 46.22105 33.32639
# Shear Modulus (GPa) = -14.27439 15.32494 0.52528
#
# Velocity S-wave (km/s) = -2.59830 2.69222 0.49843
# Velocity P-wave (km/s) = 0.81349 5.61468 4.01164
#
# Compressibility (1/GPa) = 0.04894349
#
# Stress axis : x y z
#
# Youngs Moduli (GPa) = 171.09397 24.25970 54.09568
#
# Poissons Ratio (x) = 0.07223 0.18918
# Poissons Ratio (y) = 0.50939 0.09896
# Poissons Ratio (z) = 0.59835 0.04438
#
# Static dielectric constant tensor:
#      x y z
#    x 1.825530 0.000000 0.000000 
#    y 0.000000 1.759550 0.000000 
#    z 0.000000 0.000000 1.729670 
# 
# From -- ./inp_files/12469.got.cif
#   From: 2010.05.17/outbox.cif.g08.bks.cpg/sg40_7_cif.got.tgz:12469.got - 2010.06.03 18:35:42.
