data_PCOD9362803
_publ_section_title
;
Structure prediction by ZEFSAII (Michael W. Deem and Ramdas Pophale) SiO2 
 PCOD9362803
Probable space group: A M A 2
;
_chemical_formula_sum "Si O2"
_cell_formula_units_Z 56
_cell_length_a 19.274727
_cell_length_b 15.764312
_cell_length_c 8.988127
_cell_angle_alpha 90.000000
_cell_angle_beta 90.000000
_cell_angle_gamma 90.000000
_cell_volume 2731.067647
_symmetry_space_group_name_H-M "A M A 2"
_symmetry_group_IT_number 40
_symmetry_cell_setting 'orthorhombic'
loop_
_space_group_symop_operation_xyz
x,y,z
-x,-y,z
1/2-x,y,z
1/2+x,-y,z
x,1/2+y,1/2+z
-x,1/2-y,1/2+z
1/2-x,1/2+y,1/2+z
1/2+x,1/2-y,1/2+z
loop_
_atom_site_type_symbol
_atom_site_label
_atom_site_fract_x
_atom_site_fract_y
_atom_site_fract_z
Si Si1 0.077924 0.850658 0.945500
Si Si2 0.830514 0.280792 0.080306
Si Si3 0.830848 0.659045 0.859877
Si Si4 0.331265 0.984626 0.117410
Si Si5 0.543085 0.412203 0.648237
Si Si6 0.921990 0.416193 0.996130
Si Si7 0.935962 0.111701 0.601350
O O1 0.071336 0.875249 0.775372
O O2 0.117546 0.762828 0.964539
O O3 0.133971 0.917422 0.008336
O O4 0.007117 0.854217 0.045880
O O5 0.750000 0.265208 0.047872
O O6 0.844237 0.233095 0.237651
O O7 0.850341 0.378461 0.058218
O O8 0.750000 0.664374 0.903570
O O9 0.839867 0.567621 0.774171
O O10 0.883137 0.663257 0.997170
O O11 0.250000 0.998685 0.095508
O O12 0.378611 0.067658 0.096239
O O13 0.500000 0.500000 0.638496
O O14 0.556846 0.400702 0.823858
O O15 0.926221 0.514408 0.045612
O O16 0.984006 0.367227 0.076797
#
# Coordination Sequence:
#
# PCOD9362803 Si02
#       7
#     8   8   8   8   8   8   8
#     4  10  22  36  64  87 122 168 209 259 309 381
#     4  10  23  43  62  88 124 167 208 256 321 383
#     4   9  18  37  63  86 120 166 210 251 309 379
#     4   9  17  32  56  86 117 160 207 252 307 367
#     4  10  18  36  62  88 120 160 207 256 310 366
#     4  11  22  37  61  93 126 155 208 267 311 370
#     4  11  22  37  62  98 122 157 214 261 310 375
#
# _framework density 20.504801
#
# number of rings (size 3 to 8) (size 9 to 14) (size 15 to 20)
#    0.000    2.000    2.857    3.000    6.000    4.571 
#    0.000    0.000    0.000    0.000    0.000    0.000 
#    0.000    0.000    0.000    0.000    0.000    0.000 
#
# Total GULP energy -155900.951631 kJ/mol
# GULP energy per Si atom -5567.891130 kJ/mol
# Density = 2.045813 g / cm^3
# Si number density = 20.504801 Si / 1000 Ang^3
#
#
#
# Elastic Constant Matrix: (Units=GPa)
#
#
# Indices 1 2 3 4 5 6 
#
# 1 113.2952 20.7203 41.0812 0.0000 0.0000 0.0000
# 2 20.7203 40.8755 14.8908 0.0000 0.0000 0.0000
# 3 41.0812 14.8908 96.5257 0.0000 0.0000 0.0000
# 4 0.0000 0.0000 0.0000 3.9477 0.0000 0.0000
# 5 0.0000 0.0000 0.0000 0.0000 0.7658 0.0000
# 6 0.0000 0.0000 0.0000 0.0000 0.0000 26.2660
#
#
#
# Elastic Compliance Matrix: (Units=1/GPa)
#
#
# Indices 1 2 3 4 5 6 
#
# 1 0.011056 -0.004122 -0.004070 0.000000 0.000000 0.000000
# 2 -0.004122 0.027458 -0.002482 0.000000 0.000000 0.000000
# 3 -0.004070 -0.002482 0.012475 0.000000 0.000000 0.000000
# 4 0.000000 0.000000 0.000000 0.253313 0.000000 0.000000
# 5 0.000000 0.000000 0.000000 0.000000 1.305817 0.000000
# 6 0.000000 0.000000 0.000000 0.000000 0.000000 0.038072
#
#
# Mechanical properties :
#
#
# Convention : Reuss Voigt Hill
#
# Bulk Modulus (GPa) = 33.73517 44.89790 39.31654
# Shear Modulus (GPa) = 2.97722 17.79617 10.38670
#
# Velocity S-wave (km/s) = 1.20628 2.94921 2.25311
# Velocity P-wave (km/s) = 4.29281 5.79146 5.09751
#
# Compressibility (1/GPa) = 0.02964265
#
# Stress axis : x y z
#
# Youngs Moduli (GPa) = 90.44884 36.41926 80.16192
#
# Poissons Ratio (x) = 0.15012 0.32622
# Poissons Ratio (y) = 0.37282 0.19893
# Poissons Ratio (z) = 0.36808 0.09038
#
# Static dielectric constant tensor:
#      x y z
#    x 1.735430 0.000000 0.000000 
#    y 0.000000 1.815540 0.000000 
#    z 0.000000 0.000000 1.774980 
# 
# From -- ./inp_files/8411.got.cif
#   From: 2010.05.17/outbox.cif.g08.bks.cpg/sg40_5_cif.got.tgz:8411.got - 2010.06.03 18:35:42.
