data_PCOD9362660
_publ_section_title
;
Structure prediction by ZEFSAII (Michael W. Deem and Ramdas Pophale) SiO2 
 PCOD9362660
Probable space group: A M A 2
;
_chemical_formula_sum "Si O2"
_cell_formula_units_Z 60
_cell_length_a 9.465276
_cell_length_b 15.990576
_cell_length_c 20.287697
_cell_angle_alpha 90.000000
_cell_angle_beta 90.000000
_cell_angle_gamma 90.000000
_cell_volume 3070.648746
_symmetry_space_group_name_H-M "A M A 2"
_symmetry_group_IT_number 40
_symmetry_cell_setting 'orthorhombic'
loop_
_space_group_symop_operation_xyz
x,y,z
-x,-y,z
1/2-x,y,z
1/2+x,-y,z
x,1/2+y,1/2+z
-x,1/2-y,1/2+z
1/2-x,1/2+y,1/2+z
1/2+x,1/2-y,1/2+z
loop_
_atom_site_type_symbol
_atom_site_label
_atom_site_fract_x
_atom_site_fract_y
_atom_site_fract_z
Si Si1 0.418129 0.241462 0.280780
Si Si2 0.912258 0.121768 0.875212
Si Si3 0.587712 0.580484 0.805845
Si Si4 0.404946 0.156462 0.685876
Si Si5 0.500000 0.500000 0.261376
Si Si6 0.079224 0.916982 0.020780
Si Si7 0.087557 0.222893 0.539211
Si Si8 0.585990 0.584185 0.965117
O O1 0.250000 0.230157 0.284702
O O2 0.471835 0.293133 0.344881
O O3 0.504278 0.157724 0.276977
O O4 0.464507 0.296688 0.219092
O O5 0.750000 0.138838 0.890638
O O6 0.972657 0.091266 0.944181
O O7 0.917014 0.057225 0.814353
O O8 0.500000 0.500000 0.786071
O O9 0.750000 0.576958 0.785114
O O10 0.583755 0.586262 0.885560
O O11 0.250000 0.189184 0.707869
O O12 0.413799 0.173893 0.608650
O O13 0.415824 0.062330 0.713623
O O14 0.250000 0.930596 0.024380
O O15 0.051916 0.822097 0.047753
O O16 0.000000 0.000000 0.048105
O O17 0.250000 0.221073 0.513891
O O18 0.987310 0.168141 0.492437
O O19 0.500000 0.500000 0.985328
O O20 0.750000 0.578417 0.986273
#
# Coordination Sequence:
#
# PCOD9362660 Si02
#       8
#     8   8   8   8   4   8   8   8
#     4  10  20  35  56  82 112 148 187 231 289 351
#     4   9  17  30  51  80 111 141 174 227 293 351
#     4  10  20  35  56  83 114 146 186 236 291 346
#     4  10  22  38  56  80 114 154 194 237 288 352
#     4  10  18  32  54  84 114 144 186 236 292 352
#     4  10  20  36  57  82 112 146 189 241 295 348
#     4  10  22  39  57  80 115 160 201 244 297 353
#     4  10  21  36  57  86 117 152 193 239 292 353
#
# _framework density 19.539843999999999
#
# number of rings (size 3 to 8) (size 9 to 14) (size 15 to 20)
#    0.000    2.133    0.667    2.400    0.933    4.267 
#    0.000    1.333    0.000    1.600    0.000    0.000 
#    0.000    0.000    0.000    0.000    0.000    0.000 
#
# Total GULP energy -167092.761553 kJ/mol
# GULP energy per Si atom -5569.758718 kJ/mol
# Density = 1.949537 g / cm^3
# Si number density = 19.539844 Si / 1000 Ang^3
#
#
#
# Elastic Constant Matrix: (Units=GPa)
#
#
# Indices 1 2 3 4 5 6 
#
# 1 97.9286 42.4147 5.8076 0.0000 0.0000 0.0000
# 2 42.4147 107.1588 7.1982 0.0000 0.0000 0.0000
# 3 5.8076 7.1982 30.0462 0.0000 0.0000 0.0000
# 4 0.0000 0.0000 0.0000 22.4408 0.0000 0.0000
# 5 0.0000 0.0000 0.0000 0.0000 27.2381 0.0000
# 6 0.0000 0.0000 0.0000 0.0000 0.0000 35.8839
#
#
#
# Elastic Compliance Matrix: (Units=1/GPa)
#
#
# Indices 1 2 3 4 5 6 
#
# 1 0.012369 -0.004813 -0.001238 0.000000 0.000000 0.000000
# 2 -0.004813 0.011357 -0.001791 0.000000 0.000000 0.000000
# 3 -0.001238 -0.001791 0.033950 0.000000 0.000000 0.000000
# 4 0.000000 0.000000 0.000000 0.044562 0.000000 0.000000
# 5 0.000000 0.000000 0.000000 0.000000 0.036713 0.000000
# 6 0.000000 0.000000 0.000000 0.000000 0.000000 0.027868
#
#
# Mechanical properties :
#
#
# Convention : Reuss Voigt Hill
#
# Bulk Modulus (GPa) = 23.81267 38.44162 31.12714
# Shear Modulus (GPa) = 25.44524 29.09342 27.26933
#
# Velocity S-wave (km/s) = 3.61255 3.86285 3.73979
# Velocity P-wave (km/s) = 5.44186 6.29378 5.88326
#
# Compressibility (1/GPa) = 0.04199445
#
# Stress axis : x y z
#
# Youngs Moduli (GPa) = 80.84430 88.04993 29.45478
#
# Poissons Ratio (x) = 0.42377 0.03646
# Poissons Ratio (y) = 0.38909 0.05274
# Poissons Ratio (z) = 0.10007 0.15766
#
# Static dielectric constant tensor:
#      x y z
#    x 1.673890 0.000000 0.000000 
#    y 0.000000 1.777750 0.000000 
#    z 0.000000 0.000000 1.714020 
# 
# From -- ./inp_files/24200.got.cif
#   From: 2010.05.17/outbox.cif.g08.bks.cpg/sg40_13_cif.got.tgz:24200.got - 2010.06.03 18:35:42.
