data_PCOD9362332
_publ_section_title
;
Structure prediction by ZEFSAII (Michael W. Deem and Ramdas Pophale) SiO2 
 PCOD9362332
Probable space group: A M A 2
;
_chemical_formula_sum "Si O2"
_cell_formula_units_Z 64
_cell_length_a 21.032172
_cell_length_b 9.546029
_cell_length_c 18.769916
_cell_angle_alpha 90.000000
_cell_angle_beta 90.000000
_cell_angle_gamma 90.000000
_cell_volume 3768.505932
_symmetry_space_group_name_H-M "A M A 2"
_symmetry_group_IT_number 40
_symmetry_cell_setting 'orthorhombic'
loop_
_space_group_symop_operation_xyz
x,y,z
-x,-y,z
1/2-x,y,z
1/2+x,-y,z
x,1/2+y,1/2+z
-x,1/2-y,1/2+z
1/2-x,1/2+y,1/2+z
1/2+x,1/2-y,1/2+z
loop_
_atom_site_type_symbol
_atom_site_label
_atom_site_fract_x
_atom_site_fract_y
_atom_site_fract_z
Si Si1 0.005627 0.170503 0.891700
Si Si2 0.371540 0.698405 0.305003
Si Si3 0.820175 0.999338 0.291962
Si Si4 0.955610 0.862413 0.511474
Si Si5 0.821565 0.602026 0.322653
Si Si6 0.970449 0.346785 0.178934
Si Si7 0.321929 0.672240 0.938100
Si Si8 0.576892 0.285764 0.760315
O O1 0.986316 0.233640 0.967489
O O2 0.961674 0.252719 0.833605
O O3 0.076405 0.210711 0.867690
O O4 0.000000 0.000000 0.885922
O O5 0.330819 0.836640 0.296789
O O6 0.331196 0.562040 0.323052
O O7 0.412028 0.675438 0.232547
O O8 0.750000 0.968832 0.260529
O O9 0.820527 0.932623 0.370843
O O10 0.882383 0.927404 0.257178
O O11 0.954947 0.840280 0.596075
O O12 0.882179 0.870160 0.485437
O O13 0.000000 0.000000 0.496742
O O14 0.750000 0.640463 0.304000
O O15 0.833792 0.677319 0.398953
O O16 0.869151 0.666789 0.264930
O O17 0.000000 0.500000 0.195135
O O18 0.025678 0.237003 0.199366
O O19 0.250000 0.673309 0.969546
#
# Coordination Sequence:
#
# PCOD9362332 Si02
#       8
#     8   8   8   8   8   8   8   8
#     4  11  19  32  55  81 106 136 176 228 270 322
#     4  11  19  33  52  81 111 134 174 235 275 305
#     4  10  20  32  53  82 110 135 180 224 266 325
#     4  11  21  35  55  81 109 149 185 222 273 335
#     4  10  17  30  58  81 102 136 177 216 270 323
#     4  10  21  35  54  77 112 138 181 232 267 322
#     4   9  18  35  55  81 110 142 178 222 271 332
#     4  10  17  35  54  76 105 141 174 222 273 310
#
# _framework density 16.982858
#
# number of rings (size 3 to 8) (size 9 to 14) (size 15 to 20)
#    0.000    1.750    5.000    3.000    0.000    1.500 
#    2.250    1.250    0.000    0.000    0.000    0.000 
#    0.000    0.000    0.000    0.000    0.000    0.000 
#
# Total GULP energy -178226.865680 kJ/mol
# GULP energy per Si atom -5569.589553 kJ/mol
# Density = 1.694420 g / cm^3
# Si number density = 16.982858 Si / 1000 Ang^3
#
#
#
# Elastic Constant Matrix: (Units=GPa)
#
#
# Indices 1 2 3 4 5 6 
#
# 1 103.3657 30.3189 33.1359 0.0000 0.0000 0.0000
# 2 30.3189 97.3921 20.3196 0.0000 0.0000 0.0000
# 3 33.1359 20.3196 65.1847 0.0000 0.0000 0.0000
# 4 0.0000 0.0000 0.0000 8.0543 0.0000 0.0000
# 5 0.0000 0.0000 0.0000 0.0000 18.4367 0.0000
# 6 0.0000 0.0000 0.0000 0.0000 0.0000 21.0833
#
#
#
# Elastic Compliance Matrix: (Units=1/GPa)
#
#
# Indices 1 2 3 4 5 6 
#
# 1 0.012175 -0.002673 -0.005356 0.000000 0.000000 0.000000
# 2 -0.002673 0.011569 -0.002248 0.000000 0.000000 0.000000
# 3 -0.005356 -0.002248 0.018764 0.000000 0.000000 0.000000
# 4 0.000000 0.000000 0.000000 0.124157 0.000000 0.000000
# 5 0.000000 0.000000 0.000000 0.000000 0.054240 0.000000
# 6 0.000000 0.000000 0.000000 0.000000 0.000000 0.047431
#
#
# Mechanical properties :
#
#
# Convention : Reuss Voigt Hill
#
# Bulk Modulus (GPa) = 45.54640 48.16570 46.85605
# Shear Modulus (GPa) = 16.88007 21.65940 19.26974
#
# Velocity S-wave (km/s) = 3.15611 3.57510 3.37212
# Velocity P-wave (km/s) = 6.33709 6.74276 6.54307
#
# Compressibility (1/GPa) = 0.02195563
#
# Stress axis : x y z
#
# Youngs Moduli (GPa) = 82.13314 86.43962 53.29259
#
# Poissons Ratio (x) = 0.23104 0.28544
# Poissons Ratio (y) = 0.21953 0.11978
# Poissons Ratio (z) = 0.43991 0.19428
#
# Static dielectric constant tensor:
#      x y z
#    x 1.657890 0.000000 0.000000 
#    y 0.000000 1.605360 0.000000 
#    z 0.000000 0.000000 1.548320 
# 
# From -- ./inp_files/21534.got.cif
#   From: 2010.05.17/outbox.cif.g08.bks.cpg/sg40_11_cif.got.tgz:21534.got - 2010.06.03 18:35:42.
