data_PCOD9362607
_publ_section_title
;
Structure prediction by ZEFSAII (Michael W. Deem and Ramdas Pophale) SiO2 
 PCOD9362607
Probable space group: A M A 2
;
_chemical_formula_sum "Si O2"
_cell_formula_units_Z 40
_cell_length_a 8.592395
_cell_length_b 9.241540
_cell_length_c 26.821638
_cell_angle_alpha 90.000000
_cell_angle_beta 90.000000
_cell_angle_gamma 90.000000
_cell_volume 2129.824792
_symmetry_space_group_name_H-M "A M A 2"
_symmetry_group_IT_number 40
_symmetry_cell_setting 'orthorhombic'
loop_
_space_group_symop_operation_xyz
x,y,z
-x,-y,z
1/2-x,y,z
1/2+x,-y,z
x,1/2+y,1/2+z
-x,1/2-y,1/2+z
1/2-x,1/2+y,1/2+z
1/2+x,1/2-y,1/2+z
loop_
_atom_site_type_symbol
_atom_site_label
_atom_site_fract_x
_atom_site_fract_y
_atom_site_fract_z
Si Si1 0.937465 0.837534 0.500000
Si Si2 0.062502 0.338079 0.401332
Si Si3 0.435998 0.664094 0.594547
Si Si4 0.435930 0.835189 0.198821
Si Si5 0.062778 0.163813 0.302906
O O1 0.750000 0.838229 0.502449
O O2 0.986271 0.751487 0.450154
O O3 0.004213 0.756683 0.548253
O O4 0.000000 0.000000 0.497811
O O5 0.250000 0.342429 0.401325
O O6 0.013973 0.256662 0.350753
O O7 0.000000 0.500000 0.403243
O O8 0.500000 0.500000 0.589501
O O9 0.250000 0.658967 0.595813
O O10 0.498837 0.726664 0.647118
O O11 0.250000 0.836631 0.198031
O O12 0.497362 0.772794 0.250970
O O13 0.500000 0.000000 0.199244
O O14 0.250000 0.158330 0.300106
O O15 0.000000 0.000000 0.308487
#
# Coordination Sequence:
#
# PCOD9362607 Si02
#       5
#     8   8   8   8   8
#     4  11  23  40  59  84 113 147 187 231 281 336
#     4  10  23  39  58  82 112 146 185 228 277 331
#     4  11  21  36  58  85 115 150 188 233 279 330
#     4  10  18  31  53  82 112 147 186 228 274 328
#     4  10  19  34  55  83 113 146 185 228 274 327
#
# _framework density 18.780888000000001
#
# number of rings (size 3 to 8) (size 9 to 14) (size 15 to 20)
#    0.000    1.600    0.000    8.400    0.000    4.800 
#    0.000    1.000    0.000    2.400    0.000    0.000 
#    0.000    0.000    0.000    0.000    0.000    0.000 
#
# Total GULP energy -111734.524202 kJ/mol
# GULP energy per Si atom -5586.726210 kJ/mol
# Density = 1.873814 g / cm^3
# Si number density = 18.780888 Si / 1000 Ang^3
#
#
#
# Elastic Constant Matrix: (Units=GPa)
#
#
# Indices 1 2 3 4 5 6 
#
# 1 120.8511 38.8164 73.5809 0.0000 0.0000 0.0000
# 2 38.8164 106.5928 96.3634 0.0000 0.0000 0.0000
# 3 73.5809 96.3634 240.3834 0.0000 0.0000 0.0000
# 4 0.0000 0.0000 0.0000 33.0762 0.0000 0.0000
# 5 0.0000 0.0000 0.0000 0.0000 31.0336 0.0000
# 6 0.0000 0.0000 0.0000 0.0000 0.0000 28.7909
#
#
#
# Elastic Compliance Matrix: (Units=1/GPa)
#
#
# Indices 1 2 3 4 5 6 
#
# 1 0.010304 -0.001413 -0.002588 0.000000 0.000000 0.000000
# 2 -0.001413 0.014908 -0.005544 0.000000 0.000000 0.000000
# 3 -0.002588 -0.005544 0.007174 0.000000 0.000000 0.000000
# 4 0.000000 0.000000 0.000000 0.030233 0.000000 0.000000
# 5 0.000000 0.000000 0.000000 0.000000 0.032223 0.000000
# 6 0.000000 0.000000 0.000000 0.000000 0.000000 0.034733
#
#
# Mechanical properties :
#
#
# Convention : Reuss Voigt Hill
#
# Bulk Modulus (GPa) = 75.20127 98.37206 86.78666
# Shear Modulus (GPa) = 32.65918 35.85124 34.25521
#
# Velocity S-wave (km/s) = 4.17461 4.37386 4.27539
# Velocity P-wave (km/s) = 7.96020 8.83176 8.40728
#
# Compressibility (1/GPa) = 0.01329765
#
# Stress axis : x y z
#
# Youngs Moduli (GPa) = 97.05008 67.07994 139.38560
#
# Poissons Ratio (x) = 0.09478 0.36067
# Poissons Ratio (y) = 0.13713 0.77269
# Poissons Ratio (z) = 0.25113 0.37186
#
# Static dielectric constant tensor:
#      x y z
#    x 1.631150 0.000000 0.000000 
#    y 0.000000 1.648780 0.000000 
#    z 0.000000 0.000000 1.682450 
# 
# From -- ./inp_files/23812.got.cif
#   From: 2010.05.17/outbox.cif.g08.bks.cpg/sg40_12_cif.got.tgz:23812.got - 2010.06.03 18:35:42.
