data_PCOD9362208
_publ_section_title
;
Structure prediction by ZEFSAII (Michael W. Deem and Ramdas Pophale) SiO2 
 PCOD9362208
Probable space group: A B M 2
;
_chemical_formula_sum "Si O2"
_cell_formula_units_Z 24
_cell_length_a 15.000000
_cell_length_b 18.000000
_cell_length_c 9.000000
_cell_angle_alpha 90.000000
_cell_angle_beta 90.000000
_cell_angle_gamma 90.000000
_cell_volume 2430.000000
_symmetry_space_group_name_H-M "A B M 2"
_symmetry_group_IT_number 39
_symmetry_cell_setting 'orthorhombic'
loop_
_space_group_symop_operation_xyz
x,y,z
-x,-y,z
-x,1/2+y,z
x,1/2-y,z
x,1/2+y,1/2+z
-x,1/2-y,1/2+z
-x,y,1/2+z
x,-y,1/2+z
loop_
_atom_site_type_symbol
_atom_site_label
_atom_site_fract_x
_atom_site_fract_y
_atom_site_fract_z
Si Si1 0.876740 0.340272 0.381330
Si Si2 0.295085 0.659227 0.549285
Si Si3 0.954275 0.340957 0.062030
Si Si4 0.602243 0.338351 0.968560
Si Si5 0.530357 0.913496 0.170393
Si Si6 0.793433 0.338594 0.864031
O O1 0.876601 0.250000 0.380947
O O2 0.774387 0.360367 0.418321
O O3 0.917552 0.364393 0.223137
O O4 0.946762 0.363192 0.510305
O O5 0.313192 0.750000 0.548365
O O6 0.386254 0.612192 0.564321
O O7 0.239395 0.641007 0.699803
O O8 0.954448 0.250000 0.064828
O O9 0.883804 0.367421 0.936899
O O10 0.589497 0.250000 0.940594
O O11 0.561073 0.386320 0.833199
O O12 0.708109 0.352335 0.969135
O O13 0.552799 0.364356 0.115798
O O14 0.500000 0.000000 0.164845
O O15 0.806270 0.250000 0.855199
#
# Coordination Sequence:
#
# PCOD9362208 Si02
#       6
#     8   8   8   8   8   8
#     4   9  16  24  40  66 101 140 178 220 271 324
#     4   9  17  31  48  69  99 141 185 227 272 326
#     4   9  15  24  39  67 103 138 174 220 272 323
#     4  10  20  36  56  78 105 144 187 232 280 333
#     4  11  22  36  54  79 110 143 183 233 286 336
#     4   8  15  27  44  65  94 130 173 220 269 318
#
# _framework density 9.8765429999999999
#
# number of rings (size 3 to 8) (size 9 to 14) (size 15 to 20)
#    0.000    2.667    0.000    4.000    0.000    5.333 
#    0.000    3.333    0.000    0.000    0.000    1.167 
#    0.000    8.000    0.000    0.667    0.000    0.167 
#
# Total GULP energy -133790.257256 kJ/mol
# GULP energy per Si atom -5574.594052 kJ/mol
# Density = 0.985406 g / cm^3
# Si number density = 9.876543 Si / 1000 Ang^3
#
#
#
# Elastic Constant Matrix: (Units=GPa)
#
#
# Indices 1 2 3 4 5 6 
#
# 1 70.3982 32.6627 -5.6124 0.0000 0.0000 0.0000
# 2 32.6627 54.6192 1.9615 0.0000 0.0000 0.0000
# 3 -5.6124 1.9615 17.0917 0.0000 0.0000 0.0000
# 4 0.0000 0.0000 0.0000 11.2801 0.0000 0.0000
# 5 0.0000 0.0000 0.0000 0.0000 39.7764 0.0000
# 6 0.0000 0.0000 0.0000 0.0000 0.0000 9.8116
#
#
#
# Elastic Compliance Matrix: (Units=1/GPa)
#
#
# Indices 1 2 3 4 5 6 
#
# 1 0.020764 -0.012714 0.008277 0.000000 0.000000 0.000000
# 2 -0.012714 0.026170 -0.007178 0.000000 0.000000 0.000000
# 3 0.008277 -0.007178 0.062050 0.000000 0.000000 0.000000
# 4 0.000000 0.000000 0.000000 0.088652 0.000000 0.000000
# 5 0.000000 0.000000 0.000000 0.000000 0.025141 0.000000
# 6 0.000000 0.000000 0.000000 0.000000 0.000000 0.101920
#
#
# Mechanical properties :
#
#
# Convention : Reuss Voigt Hill
#
# Bulk Modulus (GPa) = 11.66142 22.23699 16.94921
# Shear Modulus (GPa) = 13.27986 19.71343 16.49664
#
# Velocity S-wave (km/s) = 2.59567 3.16253 2.89302
# Velocity P-wave (km/s) = 3.86002 4.96159 4.44506
#
# Compressibility (1/GPa) = 0.08575284
#
# Stress axis : x y z
#
# Youngs Moduli (GPa) = 48.16071 38.21237 16.11609
#
# Poissons Ratio (x) = 0.48584 -0.13340
# Poissons Ratio (y) = 0.61232 0.11569
# Poissons Ratio (z) = -0.39864 0.27430
#
# Static dielectric constant tensor:
#      x y z
#    x 1.717490 0.000000 0.000000 
#    y 0.000000 1.664370 0.000000 
#    z 0.000000 0.000000 1.742050 
# 
# From -- ./inp_files/3217.got.cif
#   From: 2010.05.17/outbox.ucp.g08.bks.cvg/sg39_2_cif.got.tgz:3217.got - 2010.06.11 10:41:16.
