data_PCOD9362855
_publ_section_title
;
Structure prediction by ZEFSAII (Michael W. Deem and Ramdas Pophale) SiO2 
 PCOD9362855
Probable space group: A M A 2
;
_chemical_formula_sum "Si O2"
_cell_formula_units_Z 64
_cell_length_a 8.852095
_cell_length_b 19.126983
_cell_length_c 21.901385
_cell_angle_alpha 90.000000
_cell_angle_beta 90.000000
_cell_angle_gamma 90.000000
_cell_volume 3708.208265
_symmetry_space_group_name_H-M "A M A 2"
_symmetry_group_IT_number 40
_symmetry_cell_setting 'orthorhombic'
loop_
_space_group_symop_operation_xyz
x,y,z
-x,-y,z
1/2-x,y,z
1/2+x,-y,z
x,1/2+y,1/2+z
-x,1/2-y,1/2+z
1/2-x,1/2+y,1/2+z
1/2+x,1/2-y,1/2+z
loop_
_atom_site_type_symbol
_atom_site_label
_atom_site_fract_x
_atom_site_fract_y
_atom_site_fract_z
Si Si1 0.429809 0.926179 0.775470
Si Si2 0.567011 0.287425 0.225340
Si Si3 0.927904 0.177065 0.133209
Si Si4 0.930385 0.424167 0.534582
Si Si5 0.422459 0.072794 0.365867
Si Si6 0.930430 0.719538 0.854545
Si Si7 0.931166 0.371572 0.399752
Si Si8 0.575728 0.428521 0.718660
O O1 0.250000 0.928106 0.772877
O O2 0.495085 0.862791 0.735423
O O3 0.483719 0.909291 0.844585
O O4 0.500000 0.000000 0.757083
O O5 0.750000 0.291639 0.228040
O O6 0.525154 0.252152 0.160704
O O7 0.519972 0.241808 0.285531
O O8 0.250000 0.822157 0.120464
O O9 0.012007 0.137901 0.078482
O O10 0.966871 0.129440 0.191638
O O11 0.750000 0.429013 0.539238
O O12 0.970454 0.403582 0.465069
O O13 0.000000 0.500000 0.549631
O O14 0.250000 0.073326 0.386966
O O15 0.499426 0.147512 0.378786
O O16 0.423082 0.070941 0.291759
O O17 0.500000 0.000000 0.386052
O O18 0.750000 0.710124 0.852442
O O19 0.964345 0.788546 0.894653
O O20 0.750000 0.379245 0.389956
O O21 0.500000 0.500000 0.697378
O O22 0.750000 0.420718 0.697962
#
# Coordination Sequence:
#
# PCOD9362855 Si02
#       8
#     8   8   8   8   8   8   8   8
#     4  11  21  33  54  80 107 135 167 210 259 311
#     4   9  19  34  51  72 101 134 168 207 255 311
#     4  11  21  34  51  70  98 135 172 211 255 299
#     4  11  23  38  54  74 103 139 181 220 255 300
#     4  10  19  28  42  66  96 129 164 202 244 296
#     4   9  16  31  51  71  97 129 165 208 258 308
#     4   9  20  37  55  75 102 137 175 216 262 308
#     4  10  19  29  42  62  92 128 168 204 240 289
#
# _framework density 17.259008999999999
#
# number of rings (size 3 to 8) (size 9 to 14) (size 15 to 20)
#    0.000    2.000    1.250    4.125    0.000    6.000 
#    0.000    0.000    0.000    0.000    0.000    0.875 
#    0.000    6.000    0.000    0.000    0.000    0.125 
#
# Total GULP energy -178412.601450 kJ/mol
# GULP energy per Si atom -5575.393795 kJ/mol
# Density = 1.721973 g / cm^3
# Si number density = 17.259009 Si / 1000 Ang^3
#
#
#
# Elastic Constant Matrix: (Units=GPa)
#
#
# Indices 1 2 3 4 5 6 
#
# 1 41.6074 42.0152 22.1653 0.0000 0.0000 0.0000
# 2 42.0152 132.9421 33.5968 0.0000 0.0000 0.0000
# 3 22.1653 33.5968 59.6160 0.0000 0.0000 0.0000
# 4 0.0000 0.0000 0.0000 32.7092 0.0000 0.0000
# 5 0.0000 0.0000 0.0000 0.0000 60.2938 0.0000
# 6 0.0000 0.0000 0.0000 0.0000 0.0000 27.0203
#
#
#
# Elastic Compliance Matrix: (Units=1/GPa)
#
#
# Indices 1 2 3 4 5 6 
#
# 1 0.038879 -0.010068 -0.008781 0.000000 0.000000 0.000000
# 2 -0.010068 0.011379 -0.002669 0.000000 0.000000 0.000000
# 3 -0.008781 -0.002669 0.021543 0.000000 0.000000 0.000000
# 4 0.000000 0.000000 0.000000 0.030572 0.000000 0.000000
# 5 0.000000 0.000000 0.000000 0.000000 0.016585 0.000000
# 6 0.000000 0.000000 0.000000 0.000000 0.000000 0.037009
#
#
# Mechanical properties :
#
#
# Convention : Reuss Voigt Hill
#
# Bulk Modulus (GPa) = 34.76618 47.74667 41.25643
# Shear Modulus (GPa) = 23.97012 33.09721 28.53367
#
# Velocity S-wave (km/s) = 3.73077 4.38388 4.07044
# Velocity P-wave (km/s) = 6.22460 7.30407 6.78583
#
# Compressibility (1/GPa) = 0.02876358
#
# Stress axis : x y z
#
# Youngs Moduli (GPa) = 25.72072 87.88464 46.41857
#
# Poissons Ratio (x) = 0.88484 0.40762
# Poissons Ratio (y) = 0.25896 0.12389
# Poissons Ratio (z) = 0.22586 0.23457
#
# Static dielectric constant tensor:
#      x y z
#    x 1.582620 0.000000 0.000000 
#    y 0.000000 1.611940 0.000000 
#    z 0.000000 0.000000 1.587700 
# 
# From -- ./inp_files/22377.got.cif
#   From: 2010.05.17/outbox.cif.g08.bks.cpg/sg40_12_cif.got.tgz:22377.got - 2010.06.03 18:35:42.
