data_PCOD9362094
_publ_section_title
;
Structure prediction by ZEFSAII (Michael W. Deem and Ramdas Pophale) SiO2 
 PCOD9362094
Probable space group: A B M 2
;
_chemical_formula_sum "Si O2"
_cell_formula_units_Z 56
_cell_length_a 20.899538
_cell_length_b 9.185089
_cell_length_c 14.520224
_cell_angle_alpha 90.000000
_cell_angle_beta 90.000000
_cell_angle_gamma 90.000000
_cell_volume 2787.361973
_symmetry_space_group_name_H-M "A B M 2"
_symmetry_group_IT_number 39
_symmetry_cell_setting 'orthorhombic'
loop_
_space_group_symop_operation_xyz
x,y,z
-x,-y,z
-x,1/2+y,z
x,1/2-y,z
x,1/2+y,1/2+z
-x,1/2-y,1/2+z
-x,y,1/2+z
x,-y,1/2+z
loop_
_atom_site_type_symbol
_atom_site_label
_atom_site_fract_x
_atom_site_fract_y
_atom_site_fract_z
Si Si1 0.671634 0.921327 0.929960
Si Si2 0.431947 0.422435 0.780153
Si Si3 0.936571 0.916306 0.409807
Si Si4 0.333701 0.578262 0.648677
Si Si5 0.191271 0.424473 0.130463
Si Si6 0.935774 0.917962 0.635598
Si Si7 0.201991 0.074070 0.430366
O O1 0.688056 0.750000 0.918624
O O2 0.607127 0.950776 0.874288
O O3 0.730525 0.017621 0.892973
O O4 0.662207 0.946824 0.038707
O O5 0.500000 0.500000 0.778635
O O6 0.440397 0.250000 0.769968
O O7 0.385172 0.483551 0.701531
O O8 0.943059 0.750000 0.380302
O O9 0.935589 0.919598 0.522649
O O10 0.865248 0.967197 0.382335
O O11 0.000000 0.000000 0.380568
O O12 0.345031 0.750000 0.665364
O O13 0.259951 0.546358 0.676502
O O14 0.183456 0.250000 0.124675
O O15 0.127397 0.498102 0.168291
O O16 0.198424 0.494627 0.029192
O O17 0.935271 0.750000 0.663982
O O18 0.000000 0.000000 0.664061
O O19 0.202097 0.250000 0.439413
#
# Coordination Sequence:
#
# PCOD9362094 Si02
#       7
#     8   8   8   8   8   8   8
#     4   9  20  38  58  82 112 146 182 223 271 324
#     4  11  24  41  61  86 115 144 179 221 269 327
#     4   8  14  21  31  54  89 128 170 215 261 307
#     4   9  19  37  59  83 113 147 184 225 272 324
#     4   9  16  27  44  67  99 138 178 223 273 324
#     4   9  15  22  34  57  92 133 178 226 274 324
#     4   9  16  26  43  69  99 134 179 225 267 318
#
# _framework density 20.090679999999999
#
# number of rings (size 3 to 8) (size 9 to 14) (size 15 to 20)
#    0.000    2.857    0.000    3.429    0.000    8.571 
#    0.000    1.429    0.000    0.000    0.000    1.000 
#    0.000    4.571    0.000    0.857    0.000    0.000 
#
# Total GULP energy -156208.347346 kJ/mol
# GULP energy per Si atom -5578.869548 kJ/mol
# Density = 2.004495 g / cm^3
# Si number density = 20.090680 Si / 1000 Ang^3
#
#
#
# Elastic Constant Matrix: (Units=GPa)
#
#
# Indices 1 2 3 4 5 6 
#
# 1 226.1010 116.7975 40.9386 0.0000 0.0000 0.0000
# 2 116.7975 101.6138 35.2753 0.0000 0.0000 0.0000
# 3 40.9386 35.2753 60.0891 0.0000 0.0000 0.0000
# 4 0.0000 0.0000 0.0000 7.2150 0.0000 0.0000
# 5 0.0000 0.0000 0.0000 0.0000 31.2296 0.0000
# 6 0.0000 0.0000 0.0000 0.0000 0.0000 45.1025
#
#
#
# Elastic Compliance Matrix: (Units=1/GPa)
#
#
# Indices 1 2 3 4 5 6 
#
# 1 0.010888 -0.012483 -0.000089 0.000000 0.000000 0.000000
# 2 -0.012483 0.026673 -0.007154 0.000000 0.000000 0.000000
# 3 -0.000089 -0.007154 0.020902 0.000000 0.000000 0.000000
# 4 0.000000 0.000000 0.000000 0.138599 0.000000 0.000000
# 5 0.000000 0.000000 0.000000 0.000000 0.032021 0.000000
# 6 0.000000 0.000000 0.000000 0.000000 0.000000 0.022172
#
#
# Mechanical properties :
#
#
# Convention : Reuss Voigt Hill
#
# Bulk Modulus (GPa) = 52.60243 85.98074 69.29158
# Shear Modulus (GPa) = 16.83247 29.69559 23.26403
#
# Velocity S-wave (km/s) = 2.89766 3.84875 3.40656
# Velocity P-wave (km/s) = 6.11838 7.91453 7.07369
#
# Compressibility (1/GPa) = 0.01901053
#
# Stress axis : x y z
#
# Youngs Moduli (GPa) = 91.84772 37.49053 47.84155
#
# Poissons Ratio (x) = 0.46801 0.00427
# Poissons Ratio (y) = 1.14658 0.34224
# Poissons Ratio (z) = 0.00820 0.26819
#
# Static dielectric constant tensor:
#      x y z
#    x 1.716700 0.000000 0.000000 
#    y 0.000000 1.670410 0.000000 
#    z 0.000000 0.000000 1.800910 
# 
# From -- ./inp_files/10400.got.cif
#   From: 2010.05.17/outbox.cif.g08.bks.cpg/sg39_6_cif.got.tgz:10400.got - 2010.06.03 18:22:40.
