data_PCOD9362255
_publ_section_title
;
Structure prediction by ZEFSAII (Michael W. Deem and Ramdas Pophale) SiO2 
 PCOD9362255
Probable space group: A M A 2
;
_chemical_formula_sum "Si O2"
_cell_formula_units_Z 64
_cell_length_a 7.735995
_cell_length_b 24.181025
_cell_length_c 19.955827
_cell_angle_alpha 90.000000
_cell_angle_beta 90.000000
_cell_angle_gamma 90.000000
_cell_volume 3733.022579
_symmetry_space_group_name_H-M "A M A 2"
_symmetry_group_IT_number 40
_symmetry_cell_setting 'orthorhombic'
loop_
_space_group_symop_operation_xyz
x,y,z
-x,-y,z
1/2-x,y,z
1/2+x,-y,z
x,1/2+y,1/2+z
-x,1/2-y,1/2+z
1/2-x,1/2+y,1/2+z
1/2+x,1/2-y,1/2+z
loop_
_atom_site_type_symbol
_atom_site_label
_atom_site_fract_x
_atom_site_fract_y
_atom_site_fract_z
Si Si1 0.539667 0.162013 0.010110
Si Si2 0.546061 0.563355 0.142033
Si Si3 0.043042 0.754720 0.782514
Si Si4 0.957749 0.563987 0.419193
Si Si5 0.462205 0.382312 0.279300
Si Si6 0.542783 0.834895 0.554460
Si Si7 0.960452 0.772010 0.427217
Si Si8 0.957958 0.228075 0.135823
O O1 0.750000 0.159969 0.012277
O O2 0.480877 0.180971 0.083933
O O3 0.477968 0.104926 0.977757
O O4 0.496097 0.212568 0.960030
O O5 0.500000 0.500000 0.130267
O O6 0.750000 0.566072 0.148947
O O7 0.474230 0.586572 0.212649
O O8 0.498111 0.605276 0.082958
O O9 0.250000 0.758055 0.788475
O O10 0.980798 0.818368 0.778554
O O11 0.977298 0.726838 0.850917
O O12 0.004941 0.724173 0.713214
O O13 0.750000 0.568807 0.418279
O O14 0.018650 0.586980 0.347092
O O15 0.000000 0.500000 0.428325
O O16 0.250000 0.382278 0.279347
O O17 0.750000 0.830078 0.553099
O O18 0.479547 0.818010 0.480419
O O19 0.479296 0.787102 0.605761
O O20 0.750000 0.774734 0.425844
O O21 0.750000 0.228682 0.132265
#
# Coordination Sequence:
#
# PCOD9362255 Si02
#       8
#     8   8   8   8   8   8   8   8
#     4   8  14  27  45  62  84 118 152 180 216 265
#     4  11  21  32  45  64  90 124 157 187 220 259
#     4  10  16  27  47  69  90 118 150 180 218 266
#     4  10  18  30  46  63  86 120 157 188 215 252
#     4   9  17  28  43  63  90 121 153 181 211 254
#     4   9  17  30  46  66  88 114 149 190 227 264
#     4   8  14  26  47  67  85 113 151 185 218 266
#     4   9  17  28  44  66  90 115 146 184 226 268
#
# _framework density 17.144285
#
# number of rings (size 3 to 8) (size 9 to 14) (size 15 to 20)
#    0.000    2.750    2.500    2.250    0.000    0.000 
#    0.000    2.500    0.000    1.500    0.000    0.875 
#    0.000    4.000    0.000    0.000    0.000    0.000 
#
# Total GULP energy -178368.696159 kJ/mol
# GULP energy per Si atom -5574.021755 kJ/mol
# Density = 1.710526 g / cm^3
# Si number density = 17.144285 Si / 1000 Ang^3
#
#
#
# Elastic Constant Matrix: (Units=GPa)
#
#
# Indices 1 2 3 4 5 6 
#
# 1 22.6123 4.9924 7.6249 0.0000 0.0000 0.0000
# 2 4.9924 113.8336 93.3651 0.0000 0.0000 0.0000
# 3 7.6249 93.3651 179.9406 0.0000 0.0000 0.0000
# 4 0.0000 0.0000 0.0000 27.7926 0.0000 0.0000
# 5 0.0000 0.0000 0.0000 0.0000 15.6260 0.0000
# 6 0.0000 0.0000 0.0000 0.0000 0.0000 9.0420
#
#
#
# Elastic Compliance Matrix: (Units=1/GPa)
#
#
# Indices 1 2 3 4 5 6 
#
# 1 0.044898 -0.000711 -0.001533 0.000000 0.000000 0.000000
# 2 -0.000711 0.015304 -0.007911 0.000000 0.000000 0.000000
# 3 -0.001533 -0.007911 0.009727 0.000000 0.000000 0.000000
# 4 0.000000 0.000000 0.000000 0.035981 0.000000 0.000000
# 5 0.000000 0.000000 0.000000 0.000000 0.063996 0.000000
# 6 0.000000 0.000000 0.000000 0.000000 0.000000 0.110595
#
#
# Mechanical properties :
#
#
# Convention : Reuss Voigt Hill
#
# Bulk Modulus (GPa) = 20.15400 58.70570 39.42985
# Shear Modulus (GPa) = 15.75543 24.51907 20.13725
#
# Velocity S-wave (km/s) = 3.03477 3.78585 3.43093
# Velocity P-wave (km/s) = 4.90519 7.30936 6.22445
#
# Compressibility (1/GPa) = 0.04961794
#
# Stress axis : x y z
#
# Youngs Moduli (GPa) = 22.27282 65.34142 102.80706
#
# Poissons Ratio (x) = 0.04649 0.15764
# Poissons Ratio (y) = 0.01585 0.81328
# Poissons Ratio (z) = 0.03415 0.51690
#
# Static dielectric constant tensor:
#      x y z
#    x 1.633760 0.000000 0.000000 
#    y 0.000000 1.533580 0.000000 
#    z 0.000000 0.000000 1.609690 
# 
# From -- ./inp_files/20204.got.cif
#   From: 2010.05.17/outbox.cif.g08.bks.cpg/sg40_11_cif.got.tgz:20204.got - 2010.06.03 18:35:42.
