data_PCOD9362707
_publ_section_title
;
Structure prediction by ZEFSAII (Michael W. Deem and Ramdas Pophale) SiO2 
 PCOD9362707
Probable space group: A M A 2
;
_chemical_formula_sum "Si O2"
_cell_formula_units_Z 64
_cell_length_a 15.148000
_cell_length_b 9.984093
_cell_length_c 21.899983
_cell_angle_alpha 90.000000
_cell_angle_beta 90.000000
_cell_angle_gamma 90.000000
_cell_volume 3312.132422
_symmetry_space_group_name_H-M "A M A 2"
_symmetry_group_IT_number 40
_symmetry_cell_setting 'orthorhombic'
loop_
_space_group_symop_operation_xyz
x,y,z
-x,-y,z
1/2-x,y,z
1/2+x,-y,z
x,1/2+y,1/2+z
-x,1/2-y,1/2+z
1/2-x,1/2+y,1/2+z
1/2+x,1/2-y,1/2+z
loop_
_atom_site_type_symbol
_atom_site_label
_atom_site_fract_x
_atom_site_fract_y
_atom_site_fract_z
Si Si1 0.401010 0.976798 0.180370
Si Si2 0.646694 0.702152 0.407607
Si Si3 0.643454 0.814650 0.726596
Si Si4 0.150860 0.691307 0.585200
Si Si5 0.980084 0.342934 0.475190
Si Si6 0.145813 0.609465 0.366001
Si Si7 0.356324 0.402681 0.190436
Si Si8 0.356470 0.181693 0.282488
O O1 0.386307 0.821911 0.194880
O O2 0.500000 0.000000 0.160134
O O3 0.348775 0.057731 0.128007
O O4 0.386711 0.054120 0.244430
O O5 0.750000 0.716565 0.424720
O O6 0.576147 0.718635 0.461444
O O7 0.637868 0.551747 0.378074
O O8 0.622918 0.804179 0.353268
O O9 0.750000 0.808920 0.725096
O O10 0.620953 0.842699 0.797836
O O11 0.610303 0.946537 0.691236
O O12 0.250000 0.703740 0.559165
O O13 0.076858 0.693509 0.533815
O O14 0.132347 0.814432 0.630613
O O15 0.918075 0.324626 0.415741
O O16 0.000000 0.500000 0.481148
O O17 0.250000 0.640255 0.375070
O O18 0.250000 0.412892 0.199944
O O19 0.391191 0.311978 0.246085
O O20 0.250000 0.183774 0.278388
#
# Coordination Sequence:
#
# PCOD9362707 Si02
#       8
#     8   8   8   8   8   8   8   8
#     4  11  23  34  51  85 125 157 194 235 293 354
#     4   9  17  31  53  84 118 152 195 244 297 351
#     4  10  18  33  56  88 120 147 188 241 298 353
#     4  10  20  38  58  82 116 157 198 243 295 354
#     4  10  20  32  53  84 119 150 202 244 288 345
#     4   9  17  30  52  85 118 149 187 243 296 342
#     4   8  15  30  57  85 111 146 190 234 286 348
#     4   9  16  32  53  78 115 154 185 228 295 363
#
# _framework density 19.322899
#
# number of rings (size 3 to 8) (size 9 to 14) (size 15 to 20)
#    0.000    2.500    1.250    2.625    1.750    0.500 
#    0.000    2.500    0.000    0.000   19.500    0.000 
#    0.000    3.000    0.000    0.000    0.000    0.000 
#
# Total GULP energy -178382.888782 kJ/mol
# GULP energy per Si atom -5574.465274 kJ/mol
# Density = 1.927892 g / cm^3
# Si number density = 19.322899 Si / 1000 Ang^3
#
#
#
# Elastic Constant Matrix: (Units=GPa)
#
#
# Indices 1 2 3 4 5 6 
#
# 1 84.8024 24.2088 57.7282 0.0000 0.0000 0.0000
# 2 24.2088 106.5638 35.0978 0.0000 0.0000 0.0000
# 3 57.7282 35.0978 55.7977 0.0000 0.0000 0.0000
# 4 0.0000 0.0000 0.0000 8.2635 0.0000 0.0000
# 5 0.0000 0.0000 0.0000 0.0000 42.8190 0.0000
# 6 0.0000 0.0000 0.0000 0.0000 0.0000 12.6113
#
#
#
# Elastic Compliance Matrix: (Units=1/GPa)
#
#
# Indices 1 2 3 4 5 6 
#
# 1 0.042839 0.006137 -0.048182 0.000000 0.000000 0.000000
# 2 0.006137 0.012715 -0.014348 0.000000 0.000000 0.000000
# 3 -0.048182 -0.014348 0.076795 0.000000 0.000000 0.000000
# 4 0.000000 0.000000 0.000000 0.121015 0.000000 0.000000
# 5 0.000000 0.000000 0.000000 0.000000 0.023354 0.000000
# 6 0.000000 0.000000 0.000000 0.000000 0.000000 0.079294
#
#
# Mechanical properties :
#
#
# Convention : Reuss Voigt Hill
#
# Bulk Modulus (GPa) = 51.11006 53.47036 52.29021
# Shear Modulus (GPa) = 10.51926 21.41403 15.96664
#
# Velocity S-wave (km/s) = 2.33576 3.33261 2.87767
# Velocity P-wave (km/s) = 5.81225 6.52230 6.17749
#
# Compressibility (1/GPa) = 0.01956562
#
# Stress axis : x y z
#
# Youngs Moduli (GPa) = 23.34312 78.64505 13.02162
#
# Poissons Ratio (x) = -0.48264 0.62740
# Poissons Ratio (y) = -0.14326 0.18683
# Poissons Ratio (z) = 1.12471 1.12836
#
# Static dielectric constant tensor:
#      x y z
#    x 1.705630 0.000000 0.000000 
#    y 0.000000 1.704460 0.000000 
#    z 0.000000 0.000000 1.683900 
# 
# From -- ./inp_files/24824.got.cif
#   From: 2010.05.17/outbox.cif.g08.bks.cpg/sg40_13_cif.got.tgz:24824.got - 2010.06.03 18:35:42.
