data_PCOD9362935
_publ_section_title
;
Structure prediction by ZEFSAII (Michael W. Deem and Ramdas Pophale) SiO2 
 PCOD9362935
Probable space group: A M A 2
;
_chemical_formula_sum "Si O2"
_cell_formula_units_Z 48
_cell_length_a 8.255653
_cell_length_b 13.539706
_cell_length_c 18.341510
_cell_angle_alpha 90.000000
_cell_angle_beta 90.000000
_cell_angle_gamma 90.000000
_cell_volume 2050.197746
_symmetry_space_group_name_H-M "A M A 2"
_symmetry_group_IT_number 40
_symmetry_cell_setting 'orthorhombic'
loop_
_space_group_symop_operation_xyz
x,y,z
-x,-y,z
1/2-x,y,z
1/2+x,-y,z
x,1/2+y,1/2+z
-x,1/2-y,1/2+z
1/2-x,1/2+y,1/2+z
1/2+x,1/2-y,1/2+z
loop_
_atom_site_type_symbol
_atom_site_label
_atom_site_fract_x
_atom_site_fract_y
_atom_site_fract_z
Si Si1 0.066647 0.131415 0.748760
Si Si2 0.065788 0.105102 0.367252
Si Si3 0.556382 0.822338 0.059696
Si Si4 0.444187 0.677739 0.401506
Si Si5 0.554174 0.897609 0.591819
Si Si6 0.569739 0.135288 0.215486
O O1 0.250000 0.090131 0.751988
O O2 0.988555 0.125089 0.828577
O O3 0.983993 0.097371 0.674721
O O4 0.081339 0.247965 0.732055
O O5 0.250000 0.116248 0.390138
O O6 0.975959 0.204531 0.392751
O O7 0.049361 0.101362 0.279047
O O8 0.000000 0.000000 0.393112
O O9 0.750000 0.831356 0.063580
O O10 0.510770 0.705716 0.061503
O O11 0.483303 0.872997 0.131687
O O12 0.497367 0.858322 0.980317
O O13 0.250000 0.665572 0.399140
O O14 0.750000 0.891587 0.593541
O O15 0.500000 0.000000 0.555906
O O16 0.750000 0.093473 0.226111
#
# Coordination Sequence:
#
# PCOD9362935 Si02
#       6
#     8   8   8   8   8   8
#     4   7  13  28  48  66  86 119 158 195 236 277
#     4  11  21  33  51  74 100 130 166 205 248 297
#     4  10  19  31  50  75 100 128 164 201 240 292
#     4   9  18  33  51  72  99 129 161 200 245 291
#     4  10  19  31  48  69  96 128 161 200 244 290
#     4   9  17  32  51  70  96 128 164 203 242 287
#
# _framework density 23.412375999999998
#
# number of rings (size 3 to 8) (size 9 to 14) (size 15 to 20)
#    0.000    2.667    0.000    5.000    0.000    2.000 
#    0.000    0.833    0.000    1.000    0.000    2.333 
#    0.000    0.000    0.000    0.000    0.000    0.000 
#
# Total GULP energy -133858.336189 kJ/mol
# GULP energy per Si atom -5577.430675 kJ/mol
# Density = 2.335909 g / cm^3
# Si number density = 23.412376 Si / 1000 Ang^3
#
#
#
# Elastic Constant Matrix: (Units=GPa)
#
#
# Indices 1 2 3 4 5 6 
#
# 1 41.8988 -9.2526 5.3943 0.0000 0.0000 0.0000
# 2 -9.2526 43.5949 -10.6294 0.0000 0.0000 0.0000
# 3 5.3943 -10.6294 186.9789 0.0000 0.0000 0.0000
# 4 0.0000 0.0000 0.0000 -11.2918 0.0000 0.0000
# 5 0.0000 0.0000 0.0000 0.0000 13.4758 0.0000
# 6 0.0000 0.0000 0.0000 0.0000 0.0000 13.8808
#
#
#
# Elastic Compliance Matrix: (Units=1/GPa)
#
#
# Indices 1 2 3 4 5 6 
#
# 1 0.025074 0.005218 -0.000427 0.000000 0.000000 0.000000
# 2 0.005218 0.024347 0.001234 0.000000 0.000000 0.000000
# 3 -0.000427 0.001234 0.005431 0.000000 0.000000 0.000000
# 4 0.000000 0.000000 0.000000 -0.088560 0.000000 0.000000
# 5 0.000000 0.000000 0.000000 0.000000 0.074207 0.000000
# 6 0.000000 0.000000 0.000000 0.000000 0.000000 0.072042
#
#
# Mechanical properties :
#
#
# Convention : Reuss Voigt Hill
#
# Bulk Modulus (GPa) = 14.94760 27.05525 21.00143
# Shear Modulus (GPa) = 40.71932 22.34365 31.53148
#
# Velocity S-wave (km/s) = 4.17492 3.09261 3.67384
# Velocity P-wave (km/s) = 5.44411 4.93289 5.19479
#
# Compressibility (1/GPa) = 0.06690038
#
# Stress axis : x y z
#
# Youngs Moduli (GPa) = 39.88158 41.07347 184.14060
#
# Poissons Ratio (x) = -0.21431 0.07859
# Poissons Ratio (y) = -0.20809 -0.22714
# Poissons Ratio (z) = 0.01702 -0.05067
#
# Static dielectric constant tensor:
#      x y z
#    x 1.841490 0.000000 0.000000 
#    y 0.000000 1.934450 0.000000 
#    z 0.000000 0.000000 1.973980 
# 
# From -- ./inp_files/19188.got.cif
#   From: 2010.05.17/outbox.cif.g08.bks.cpg/sg40_10_cif.got.tgz:19188.got - 2010.06.03 18:35:42.
