data_PCOD9362952
_publ_section_title
;
Structure prediction by ZEFSAII (Michael W. Deem and Ramdas Pophale) SiO2 
 PCOD9362952
Probable space group: A M A 2
;
_chemical_formula_sum "Si O2"
_cell_formula_units_Z 64
_cell_length_a 9.532292
_cell_length_b 16.547113
_cell_length_c 22.374128
_cell_angle_alpha 90.000000
_cell_angle_beta 90.000000
_cell_angle_gamma 90.000000
_cell_volume 3529.114008
_symmetry_space_group_name_H-M "A M A 2"
_symmetry_group_IT_number 40
_symmetry_cell_setting 'orthorhombic'
loop_
_space_group_symop_operation_xyz
x,y,z
-x,-y,z
1/2-x,y,z
1/2+x,-y,z
x,1/2+y,1/2+z
-x,1/2-y,1/2+z
1/2-x,1/2+y,1/2+z
1/2+x,1/2-y,1/2+z
loop_
_atom_site_type_symbol
_atom_site_label
_atom_site_fract_x
_atom_site_fract_y
_atom_site_fract_z
Si Si1 0.588542 0.575140 0.225750
Si Si2 0.092496 0.876807 0.188476
Si Si3 0.916404 0.080044 0.324884
Si Si4 0.915774 0.582588 0.369336
Si Si5 0.586344 0.267547 0.525593
Si Si6 0.916580 0.248397 0.390789
Si Si7 0.083927 0.274933 0.154394
Si Si8 0.910373 0.074490 0.054568
O O1 0.500000 0.500000 0.205359
O O2 0.750000 0.565963 0.207557
O O3 0.584718 0.580436 0.297148
O O4 0.527765 0.654585 0.195627
O O5 0.250000 0.841579 0.191748
O O6 0.066403 0.915845 0.252738
O O7 0.090393 0.928007 0.127314
O O8 0.981640 0.807824 0.175998
O O9 0.750000 0.070642 0.337494
O O10 0.958208 0.168435 0.352376
O O11 0.000000 0.000000 0.346066
O O12 0.750000 0.582133 0.388183
O O13 0.000000 0.500000 0.388243
O O14 0.995582 0.667670 0.383571
O O15 0.750000 0.294392 0.530073
O O16 0.569611 0.227739 0.461169
O O17 0.557372 0.213599 0.583926
O O18 0.485406 0.344208 0.533033
O O19 0.750000 0.264404 0.378321
O O20 0.250000 0.270196 0.162820
O O21 0.750000 0.071714 0.034919
O O22 0.000000 0.000000 0.031963
#
# Coordination Sequence:
#
# PCOD9362952 Si02
#       8
#     8   8   8   8   8   8   8   8
#     4   9  18  31  48  73 101 127 158 198 247 301
#     4   9  18  31  49  75 103 129 159 199 249 302
#     4  10  21  36  54  77 105 137 173 214 259 306
#     4  10  20  34  54  80 108 137 169 208 256 310
#     4   9  19  35  52  69  94 130 168 205 246 292
#     4  10  21  37  55  75 102 138 178 217 256 299
#     4   9  17  31  51  73  97 127 163 202 246 297
#     4  10  19  31  49  74 102 129 159 197 243 297
#
# _framework density 18.134862999999999
#
# number of rings (size 3 to 8) (size 9 to 14) (size 15 to 20)
#    0.000    2.500    0.000    1.875    0.000    3.500 
#    0.000    0.625    0.000    0.000    0.000    0.000 
#    0.000    0.000    0.000    0.000    0.000    0.000 
#
# Total GULP energy -178198.955375 kJ/mol
# GULP energy per Si atom -5568.717355 kJ/mol
# Density = 1.809359 g / cm^3
# Si number density = 18.134863 Si / 1000 Ang^3
#
#
#
# Elastic Constant Matrix: (Units=GPa)
#
#
# Indices 1 2 3 4 5 6 
#
# 1 61.2976 47.8881 37.2532 0.0000 0.0000 0.0000
# 2 47.8881 84.1510 29.5022 0.0000 0.0000 0.0000
# 3 37.2532 29.5022 59.7965 0.0000 0.0000 0.0000
# 4 0.0000 0.0000 0.0000 4.1261 0.0000 0.0000
# 5 0.0000 0.0000 0.0000 0.0000 14.0649 0.0000
# 6 0.0000 0.0000 0.0000 0.0000 0.0000 32.2581
#
#
#
# Elastic Compliance Matrix: (Units=1/GPa)
#
#
# Indices 1 2 3 4 5 6 
#
# 1 0.039097 -0.016577 -0.016179 0.000000 0.000000 0.000000
# 2 -0.016577 0.021397 -0.000230 0.000000 0.000000 0.000000
# 3 -0.016179 -0.000230 0.026916 0.000000 0.000000 0.000000
# 4 0.000000 0.000000 0.000000 0.242358 0.000000 0.000000
# 5 0.000000 0.000000 0.000000 0.000000 0.071099 0.000000
# 6 0.000000 0.000000 0.000000 0.000000 0.000000 0.031000
#
#
# Mechanical properties :
#
#
# Convention : Reuss Voigt Hill
#
# Bulk Modulus (GPa) = 46.64204 48.28136 47.46170
# Shear Modulus (GPa) = 9.90131 16.12995 13.01563
#
# Velocity S-wave (km/s) = 2.33916 2.98559 2.68192
# Velocity P-wave (km/s) = 5.75073 6.21018 5.98487
#
# Compressibility (1/GPa) = 0.02143989
#
# Stress axis : x y z
#
# Youngs Moduli (GPa) = 25.57748 46.73465 37.15279
#
# Poissons Ratio (x) = 0.77472 0.60108
# Poissons Ratio (y) = 0.42400 0.00853
# Poissons Ratio (z) = 0.41381 0.01073
#
# Static dielectric constant tensor:
#      x y z
#    x 1.622070 0.000000 0.000000 
#    y 0.000000 1.612870 0.000000 
#    z 0.000000 0.000000 1.647760 
# 
# From -- ./inp_files/22447.got.cif
#   From: 2010.05.17/outbox.cif.g08.bks.cpg/sg40_12_cif.got.tgz:22447.got - 2010.06.03 18:35:42.
