data_PCOD9362543
_publ_section_title
;
Structure prediction by ZEFSAII (Michael W. Deem and Ramdas Pophale) SiO2 
 PCOD9362543
Probable space group: A M A 2
;
_chemical_formula_sum "Si O2"
_cell_formula_units_Z 56
_cell_length_a 8.088424
_cell_length_b 21.518073
_cell_length_c 14.359849
_cell_angle_alpha 90.000000
_cell_angle_beta 90.000000
_cell_angle_gamma 90.000000
_cell_volume 2499.292919
_symmetry_space_group_name_H-M "A M A 2"
_symmetry_group_IT_number 40
_symmetry_cell_setting 'orthorhombic'
loop_
_space_group_symop_operation_xyz
x,y,z
-x,-y,z
1/2-x,y,z
1/2+x,-y,z
x,1/2+y,1/2+z
-x,1/2-y,1/2+z
1/2-x,1/2+y,1/2+z
1/2+x,1/2-y,1/2+z
loop_
_atom_site_type_symbol
_atom_site_label
_atom_site_fract_x
_atom_site_fract_y
_atom_site_fract_z
Si Si1 0.948264 0.244669 0.465040
Si Si2 0.450252 0.897604 0.459298
Si Si3 0.938864 0.335316 0.620218
Si Si4 0.063036 0.838389 0.810411
Si Si5 0.449874 0.932384 0.663383
Si Si6 0.945437 0.932557 0.257770
Si Si7 0.937021 0.431854 0.452420
O O1 0.750000 0.244787 0.475676
O O2 0.005211 0.174281 0.458532
O O3 0.014774 0.280001 0.557814
O O4 0.983453 0.283366 0.370752
O O5 0.250000 0.899313 0.457009
O O6 0.505067 0.927606 0.556372
O O7 0.515015 0.929297 0.366556
O O8 0.750000 0.316158 0.645143
O O9 0.018530 0.370538 0.708051
O O10 0.930857 0.391125 0.545299
O O11 0.250000 0.819085 0.789705
O O12 0.988794 0.871147 0.718845
O O13 0.055520 0.896358 0.881592
O O14 0.250000 0.929324 0.666848
O O15 0.500000 0.000000 0.702187
O O16 0.750000 0.929174 0.243485
O O17 0.000000 0.000000 0.220898
O O18 0.750000 0.432461 0.413558
O O19 0.000000 0.500000 0.471241
#
# Coordination Sequence:
#
# PCOD9362543 Si02
#       7
#     8   8   8   8   8   8   8
#     4   9  19  38  60  82 112 148 182 220 274 334
#     4  10  22  40  59  80 110 148 188 229 274 325
#     4   8  17  33  54  79 107 142 180 220 270 328
#     4  10  20  34  54  81 110 141 181 227 273 325
#     4  10  22  38  57  81 110 146 185 228 276 326
#     4  11  22  37  58  84 113 145 185 230 276 325
#     4  10  18  30  49  75 108 144 180 220 272 329
#
# _framework density 22.406338999999999
#
# number of rings (size 3 to 8) (size 9 to 14) (size 15 to 20)
#    0.000    2.286    0.000    3.429    0.000    5.714 
#    0.000    9.286    0.000    0.000    0.000    0.000 
#    0.000    0.000    0.000    0.000    0.000    0.000 
#
# Total GULP energy -156219.298378 kJ/mol
# GULP energy per Si atom -5579.260656 kJ/mol
# Density = 2.235534 g / cm^3
# Si number density = 22.406339 Si / 1000 Ang^3
#
#
#
# Elastic Constant Matrix: (Units=GPa)
#
#
# Indices 1 2 3 4 5 6 
#
# 1 24.2157 5.6099 0.3075 0.0000 0.0000 0.0000
# 2 5.6099 117.3968 14.1637 0.0000 0.0000 0.0000
# 3 0.3075 14.1637 88.4000 0.0000 0.0000 0.0000
# 4 0.0000 0.0000 0.0000 32.1040 0.0000 0.0000
# 5 0.0000 0.0000 0.0000 0.0000 14.9522 0.0000
# 6 0.0000 0.0000 0.0000 0.0000 0.0000 18.6044
#
#
#
# Elastic Compliance Matrix: (Units=1/GPa)
#
#
# Indices 1 2 3 4 5 6 
#
# 1 0.041761 -0.002017 0.000178 0.000000 0.000000 0.000000
# 2 -0.002017 0.008783 -0.001400 0.000000 0.000000 0.000000
# 3 0.000178 -0.001400 0.011536 0.000000 0.000000 0.000000
# 4 0.000000 0.000000 0.000000 0.031149 0.000000 0.000000
# 5 0.000000 0.000000 0.000000 0.000000 0.066880 0.000000
# 6 0.000000 0.000000 0.000000 0.000000 0.000000 0.053751
#
#
# Mechanical properties :
#
#
# Convention : Reuss Voigt Hill
#
# Bulk Modulus (GPa) = 17.98526 30.01943 24.00234
# Shear Modulus (GPa) = 20.93174 27.12754 24.02964
#
# Velocity S-wave (km/s) = 3.05977 3.48330 3.27838
# Velocity P-wave (km/s) = 4.53069 5.44102 5.00659
#
# Compressibility (1/GPa) = 0.05560109
#
# Stress axis : x y z
#
# Youngs Moduli (GPa) = 23.94604 113.85047 86.68544
#
# Poissons Ratio (x) = 0.22964 -0.01542
# Poissons Ratio (y) = 0.04830 0.12139
# Poissons Ratio (z) = -0.00426 0.15942
#
# Static dielectric constant tensor:
#      x y z
#    x 1.813110 0.000000 0.000000 
#    y 0.000000 1.825710 0.000000 
#    z 0.000000 0.000000 1.871890 
# 
# From -- ./inp_files/15268.got.cif
#   From: 2010.05.17/outbox.cif.g08.bks.cpg/sg40_8_cif.got.tgz:15268.got - 2010.06.03 18:35:42.
