data_PCOD9362817
_publ_section_title
;
Structure prediction by ZEFSAII (Michael W. Deem and Ramdas Pophale) SiO2 
 PCOD9362817
Probable space group: A M A 2
;
_chemical_formula_sum "Si O2"
_cell_formula_units_Z 44
_cell_length_a 16.365854
_cell_length_b 12.774086
_cell_length_c 8.031139
_cell_angle_alpha 90.000000
_cell_angle_beta 90.000000
_cell_angle_gamma 90.000000
_cell_volume 1678.980494
_symmetry_space_group_name_H-M "A M A 2"
_symmetry_group_IT_number 40
_symmetry_cell_setting 'orthorhombic'
loop_
_space_group_symop_operation_xyz
x,y,z
-x,-y,z
1/2-x,y,z
1/2+x,-y,z
x,1/2+y,1/2+z
-x,1/2-y,1/2+z
1/2-x,1/2+y,1/2+z
1/2+x,1/2-y,1/2+z
loop_
_atom_site_type_symbol
_atom_site_label
_atom_site_fract_x
_atom_site_fract_y
_atom_site_fract_z
Si Si1 0.157293 0.407793 0.659810
Si Si2 0.750000 0.385578 0.191220
Si Si3 0.079309 0.246147 0.086225
Si Si4 0.003054 0.875299 0.349379
Si Si5 0.250000 0.080090 0.320863
Si Si6 0.911122 0.960340 0.853820
Si Si7 0.250000 0.246407 0.026315
O O1 0.250000 0.368282 0.626694
O O2 0.084586 0.342599 0.742283
O O3 0.175056 0.500161 0.794180
O O4 0.121895 0.457600 0.492230
O O5 0.835861 0.444925 0.227572
O O6 0.750000 0.299501 0.340362
O O7 0.750000 0.361921 0.995161
O O8 0.013280 0.330697 0.032904
O O9 0.076788 0.148479 0.956907
O O10 0.166368 0.302516 0.066840
O O11 0.067307 0.191702 0.262138
O O12 0.000000 0.000000 0.335828
O O13 0.250000 0.149887 0.155310
O O14 0.000000 0.000000 0.798188
#
# Coordination Sequence:
#
# PCOD9362817 Si02
#       7
#     8   4   8   8   4   8   4
#     4  10  18  39  73 101 139 208 240 299 400 433
#     4  10  20  36  65 116 146 185 275 313 365 480
#     4  11  23  44  73 107 145 196 257 300 384 460
#     4  12  24  47  73 107 152 199 250 314 387 451
#     4  10  18  37  71 108 145 200 247 320 380 438
#     4  11  18  41  72 100 151 206 241 316 392 445
#     4  10  20  45  70 102 151 205 240 313 393 448
#
# _framework density 26.206379999999999
#
# number of rings (size 3 to 8) (size 9 to 14) (size 15 to 20)
#    0.545    0.727    8.182    0.000    1.273    0.000 
#   16.364    1.818    2.000    0.000    0.000    0.000 
#    0.000    0.000    0.000    0.000    0.000    0.000 
#
# Total GULP energy -123003.931940 kJ/mol
# GULP energy per Si atom -5591.087815 kJ/mol
# Density = 2.614673 g / cm^3
# Si number density = 26.206380 Si / 1000 Ang^3
#
#
#
# Elastic Constant Matrix: (Units=GPa)
#
#
# Indices 1 2 3 4 5 6 
#
# 1 148.2780 38.0420 21.8827 0.0000 0.0000 0.0000
# 2 38.0420 62.5460 53.4360 0.0000 0.0000 0.0000
# 3 21.8827 53.4360 110.0999 0.0000 0.0000 0.0000
# 4 0.0000 0.0000 0.0000 44.1989 0.0000 0.0000
# 5 0.0000 0.0000 0.0000 0.0000 9.2276 0.0000
# 6 0.0000 0.0000 0.0000 0.0000 0.0000 19.9300
#
#
#
# Elastic Compliance Matrix: (Units=1/GPa)
#
#
# Indices 1 2 3 4 5 6 
#
# 1 0.008104 -0.006070 0.001335 0.000000 0.000000 0.000000
# 2 -0.006070 0.031860 -0.014257 0.000000 0.000000 0.000000
# 3 0.001335 -0.014257 0.015737 0.000000 0.000000 0.000000
# 4 0.000000 0.000000 0.000000 0.022625 0.000000 0.000000
# 5 0.000000 0.000000 0.000000 0.000000 0.108371 0.000000
# 6 0.000000 0.000000 0.000000 0.000000 0.000000 0.050176
#
#
# Mechanical properties :
#
#
# Convention : Reuss Voigt Hill
#
# Bulk Modulus (GPa) = 56.43852 60.84948 58.64400
# Shear Modulus (GPa) = 17.80868 28.50884 23.15876
#
# Velocity S-wave (km/s) = 2.60966 3.30185 2.97595
# Velocity P-wave (km/s) = 5.53745 6.14866 5.85104
#
# Compressibility (1/GPa) = 0.01771840
#
# Stress axis : x y z
#
# Youngs Moduli (GPa) = 123.39049 31.38699 63.54606
#
# Poissons Ratio (x) = 0.19052 -0.08485
# Poissons Ratio (y) = 0.74899 0.90596
# Poissons Ratio (z) = -0.16476 0.44747
#
# Static dielectric constant tensor:
#      x y z
#    x 2.170140 0.000000 0.000000 
#    y 0.000000 2.022030 0.000000 
#    z 0.000000 0.000000 1.995020 
# 
# From -- ./inp_files/7396.got.cif
#   From: 2010.05.17/outbox.cif.g08.bks.cpg/sg40_4_cif.got.tgz:7396.got - 2010.06.03 18:35:42.
