data_PCOD9362400
_publ_section_title
;
Structure prediction by ZEFSAII (Michael W. Deem and Ramdas Pophale) SiO2 
 PCOD9362400
Probable space group: A M A 2
;
_chemical_formula_sum "Si O2"
_cell_formula_units_Z 64
_cell_length_a 8.736454
_cell_length_b 27.058931
_cell_length_c 18.995699
_cell_angle_alpha 90.000000
_cell_angle_beta 90.000000
_cell_angle_gamma 90.000000
_cell_volume 4490.566261
_symmetry_space_group_name_H-M "A M A 2"
_symmetry_group_IT_number 40
_symmetry_cell_setting 'orthorhombic'
loop_
_space_group_symop_operation_xyz
x,y,z
-x,-y,z
1/2-x,y,z
1/2+x,-y,z
x,1/2+y,1/2+z
-x,1/2-y,1/2+z
1/2-x,1/2+y,1/2+z
1/2+x,1/2-y,1/2+z
loop_
_atom_site_type_symbol
_atom_site_label
_atom_site_fract_x
_atom_site_fract_y
_atom_site_fract_z
Si Si1 0.566847 0.446210 0.864620
Si Si2 0.563937 0.256004 0.707535
Si Si3 0.933149 0.946128 0.199399
Si Si4 0.573939 0.695746 0.081063
Si Si5 0.067629 0.850455 0.126537
Si Si6 0.426238 0.200116 0.995742
Si Si7 0.933441 0.755845 0.370555
Si Si8 0.564993 0.146971 0.444536
O O1 0.500000 0.500000 0.882076
O O2 0.750000 0.446307 0.871946
O O3 0.530732 0.436598 0.782055
O O4 0.494296 0.403597 0.911902
O O5 0.750000 0.258609 0.701332
O O6 0.507489 0.211759 0.656284
O O7 0.498399 0.307211 0.677134
O O8 0.525476 0.248664 0.788928
O O9 0.750000 0.946546 0.192041
O O10 0.004052 0.902553 0.153340
O O11 0.000000 0.000000 0.181758
O O12 0.750000 0.680898 0.093634
O O13 0.574009 0.747520 0.037911
O O14 0.508410 0.657097 0.024810
O O15 0.250000 0.849589 0.129511
O O16 0.011316 0.837274 0.047806
O O17 0.250000 0.185523 0.985998
O O18 0.505254 0.213002 0.921987
O O19 0.750000 0.758761 0.376372
O O20 0.004050 0.807412 0.397824
O O21 0.750000 0.148576 0.444634
#
# Coordination Sequence:
#
# PCOD9362400 Si02
#       8
#     8   8   8   8   8   8   8   8
#     4  10  20  32  45  61  83 110 142 180 217 253
#     4   9  17  29  43  60  86 117 145 175 212 252
#     4  10  20  33  46  61  83 111 142 177 216 253
#     4   7  13  26  41  56  76 107 141 169 202 245
#     4  11  20  29  44  64  85 112 147 180 211 253
#     4   9  17  30  44  58  82 113 142 175 215 254
#     4  10  18  27  42  64  87 112 145 180 211 250
#     4  10  18  28  43  60  82 114 147 176 211 254
#
# _framework density 14.2521
#
# number of rings (size 3 to 8) (size 9 to 14) (size 15 to 20)
#    0.000    2.500    0.000    5.250    0.000    5.500 
#    0.000    0.625    0.000    0.000    0.000    0.000 
#    0.000    1.000    0.000    5.000    0.000    3.750 
#
# Total GULP energy -178291.375681 kJ/mol
# GULP energy per Si atom -5571.605490 kJ/mol
# Density = 1.421966 g / cm^3
# Si number density = 14.252100 Si / 1000 Ang^3
#
#
#
# Elastic Constant Matrix: (Units=GPa)
#
#
# Indices 1 2 3 4 5 6 
#
# 1 56.8032 37.8361 44.8483 0.0000 0.0000 0.0000
# 2 37.8361 94.2407 69.6189 0.0000 0.0000 0.0000
# 3 44.8483 69.6189 127.6671 0.0000 0.0000 0.0000
# 4 0.0000 0.0000 0.0000 27.5815 0.0000 0.0000
# 5 0.0000 0.0000 0.0000 0.0000 17.9491 0.0000
# 6 0.0000 0.0000 0.0000 0.0000 0.0000 22.0907
#
#
#
# Elastic Compliance Matrix: (Units=1/GPa)
#
#
# Indices 1 2 3 4 5 6 
#
# 1 0.026408 -0.006278 -0.005853 0.000000 0.000000 0.000000
# 2 -0.006278 0.019262 -0.008298 0.000000 0.000000 0.000000
# 3 -0.005853 -0.008298 0.014414 0.000000 0.000000 0.000000
# 4 0.000000 0.000000 0.000000 0.036256 0.000000 0.000000
# 5 0.000000 0.000000 0.000000 0.000000 0.055713 0.000000
# 6 0.000000 0.000000 0.000000 0.000000 0.000000 0.045268
#
#
# Mechanical properties :
#
#
# Convention : Reuss Voigt Hill
#
# Bulk Modulus (GPa) = 52.01719 64.81307 58.41513
# Shear Modulus (GPa) = 20.44239 21.95142 21.19691
#
# Velocity S-wave (km/s) = 3.79138 3.92883 3.86071
# Velocity P-wave (km/s) = 7.46614 8.13362 7.80702
#
# Compressibility (1/GPa) = 0.01922441
#
# Stress axis : x y z
#
# Youngs Moduli (GPa) = 37.86738 51.91534 69.37571
#
# Poissons Ratio (x) = 0.32595 0.40607
# Poissons Ratio (y) = 0.23775 0.57571
# Poissons Ratio (z) = 0.22164 0.43081
#
# Static dielectric constant tensor:
#      x y z
#    x 1.482880 0.000000 0.000000 
#    y 0.000000 1.443620 0.000000 
#    z 0.000000 0.000000 1.487600 
# 
# From -- ./inp_files/19725.got.cif
#   From: 2010.05.17/outbox.cif.g08.bks.cpg/sg40_10_cif.got.tgz:19725.got - 2010.06.03 18:35:42.
