data_PCOD9362940
_publ_section_title
;
Structure prediction by ZEFSAII (Michael W. Deem and Ramdas Pophale) SiO2 
 PCOD9362940
Probable space group: A M A 2
;
_chemical_formula_sum "Si O2"
_cell_formula_units_Z 64
_cell_length_a 9.081071
_cell_length_b 31.031076
_cell_length_c 14.797627
_cell_angle_alpha 90.000000
_cell_angle_beta 90.000000
_cell_angle_gamma 90.000000
_cell_volume 4169.903284
_symmetry_space_group_name_H-M "A M A 2"
_symmetry_group_IT_number 40
_symmetry_cell_setting 'orthorhombic'
loop_
_space_group_symop_operation_xyz
x,y,z
-x,-y,z
1/2-x,y,z
1/2+x,-y,z
x,1/2+y,1/2+z
-x,1/2-y,1/2+z
1/2-x,1/2+y,1/2+z
1/2+x,1/2-y,1/2+z
loop_
_atom_site_type_symbol
_atom_site_label
_atom_site_fract_x
_atom_site_fract_y
_atom_site_fract_z
Si Si1 0.578092 0.371048 0.598590
Si Si2 0.074060 0.727028 0.917488
Si Si3 0.073808 0.454342 0.531915
Si Si4 0.920321 0.817056 0.915319
Si Si5 0.926143 0.203118 0.595952
Si Si6 0.926103 0.636007 0.249924
Si Si7 0.574494 0.544689 0.319910
Si Si8 0.929281 0.288283 0.710588
O O1 0.750000 0.380412 0.618883
O O2 0.487695 0.415013 0.591007
O O3 0.572274 0.348823 0.500200
O O4 0.523931 0.333461 0.666071
O O5 0.250000 0.724737 0.920929
O O6 0.026607 0.715234 0.815321
O O7 0.018221 0.775433 0.933757
O O8 0.004049 0.700610 0.999545
O O9 0.250000 0.457098 0.538642
O O10 0.035936 0.446126 0.425430
O O11 0.000000 0.500000 0.555669
O O12 0.750000 0.804191 0.903418
O O13 0.984093 0.839910 0.827464
O O14 0.750000 0.207244 0.582877
O O15 0.954075 0.161206 0.657298
O O16 0.974549 0.246027 0.652536
O O17 0.750000 0.640082 0.268814
O O18 0.964389 0.585687 0.258515
O O19 0.500000 0.500000 0.293472
O O20 0.750000 0.539215 0.316881
O O21 0.750000 0.287872 0.707638
#
# Coordination Sequence:
#
# PCOD9362940 Si02
#       8
#     8   8   8   8   8   8   8   8
#     4  10  19  32  48  68  95 131 167 198 240 288
#     4  11  21  34  50  69  97 132 169 206 244 287
#     4  10  19  31  48  71  99 127 159 196 238 288
#     4  11  20  29  47  72  99 130 167 204 241 283
#     4  10  19  34  51  69  97 131 165 203 247 289
#     4  10  19  33  50  69  98 135 168 199 244 290
#     4   9  18  30  46  69  96 128 160 194 238 289
#     4   9  18  33  50  67  94 132 164 197 246 291
#
# _framework density 15.348077999999999
#
# number of rings (size 3 to 8) (size 9 to 14) (size 15 to 20)
#    0.000    2.000    3.750    1.125    0.000    2.000 
#    0.000    1.250    0.000    0.000    0.000    0.875 
#    0.000    4.000    0.000    0.000    0.000    0.000 
#
# Total GULP energy -178411.962286 kJ/mol
# GULP energy per Si atom -5575.373821 kJ/mol
# Density = 1.531315 g / cm^3
# Si number density = 15.348078 Si / 1000 Ang^3
#
#
#
# Elastic Constant Matrix: (Units=GPa)
#
#
# Indices 1 2 3 4 5 6 
#
# 1 27.6289 27.9295 24.1108 0.0000 0.0000 0.0000
# 2 27.9295 95.5634 24.3718 0.0000 0.0000 0.0000
# 3 24.1108 24.3718 65.7241 0.0000 0.0000 0.0000
# 4 0.0000 0.0000 0.0000 21.0568 0.0000 0.0000
# 5 0.0000 0.0000 0.0000 0.0000 20.4821 0.0000
# 6 0.0000 0.0000 0.0000 0.0000 0.0000 24.5744
#
#
#
# Elastic Compliance Matrix: (Units=1/GPa)
#
#
# Indices 1 2 3 4 5 6 
#
# 1 0.068415 -0.015014 -0.019530 0.000000 0.000000 0.000000
# 2 -0.015014 0.014852 0.000000 0.000000 0.000000 0.000000
# 3 -0.019530 0.000000 0.022380 0.000000 0.000000 0.000000
# 4 0.000000 0.000000 0.000000 0.047491 0.000000 0.000000
# 5 0.000000 0.000000 0.000000 0.000000 0.048823 0.000000
# 6 0.000000 0.000000 0.000000 0.000000 0.000000 0.040693
#
#
# Mechanical properties :
#
#
# Convention : Reuss Voigt Hill
#
# Bulk Modulus (GPa) = 27.35336 37.97116 32.66226
# Shear Modulus (GPa) = 15.43556 20.72295 18.07925
#
# Velocity S-wave (km/s) = 3.17472 3.67849 3.43585
# Velocity P-wave (km/s) = 5.59456 6.54488 6.08829
#
# Compressibility (1/GPa) = 0.03655858
#
# Stress axis : x y z
#
# Youngs Moduli (GPa) = 14.61673 67.33010 44.68353
#
# Poissons Ratio (x) = 1.01090 0.87268
# Poissons Ratio (y) = 0.21946 -0.00002
# Poissons Ratio (z) = 0.28547 -0.00003
#
# Static dielectric constant tensor:
#      x y z
#    x 1.514960 0.000000 0.000000 
#    y 0.000000 1.517580 0.000000 
#    z 0.000000 0.000000 1.506220 
# 
# From -- ./inp_files/15857.got.cif
#   From: 2010.05.17/outbox.cif.g08.bks.cpg/sg40_8_cif.got.tgz:15857.got - 2010.06.03 18:35:42.
