data_PCOD9362352
_publ_section_title
;
Structure prediction by ZEFSAII (Michael W. Deem and Ramdas Pophale) SiO2 
 PCOD9362352
Probable space group: A M A 2
;
_chemical_formula_sum "Si O2"
_cell_formula_units_Z 48
_cell_length_a 19.173431
_cell_length_b 16.123060
_cell_length_c 7.895425
_cell_angle_alpha 90.000000
_cell_angle_beta 90.000000
_cell_angle_gamma 90.000000
_cell_volume 2440.747300
_symmetry_space_group_name_H-M "A M A 2"
_symmetry_group_IT_number 40
_symmetry_cell_setting 'orthorhombic'
loop_
_space_group_symop_operation_xyz
x,y,z
-x,-y,z
1/2-x,y,z
1/2+x,-y,z
x,1/2+y,1/2+z
-x,1/2-y,1/2+z
1/2-x,1/2+y,1/2+z
1/2+x,1/2-y,1/2+z
loop_
_atom_site_type_symbol
_atom_site_label
_atom_site_fract_x
_atom_site_fract_y
_atom_site_fract_z
Si Si1 0.826470 0.829788 0.569040
Si Si2 0.544307 0.425825 0.962357
Si Si3 0.422733 0.511486 0.579219
Si Si4 0.042666 0.762828 0.424817
Si Si5 0.329196 0.163952 0.973003
Si Si6 0.584529 0.178005 0.050270
O O1 0.750000 0.847673 0.500610
O O2 0.881097 0.902302 0.534581
O O3 0.822446 0.822826 0.771617
O O4 0.856386 0.743292 0.495095
O O5 0.500000 0.500000 0.039880
O O6 0.559900 0.451433 0.766677
O O7 0.496663 0.344883 0.985862
O O8 0.500000 0.500000 0.498497
O O9 0.367543 0.576083 0.503490
O O10 0.394306 0.417194 0.575673
O O11 0.111989 0.732487 0.522667
O O12 0.061157 0.786744 0.233301
O O13 0.984460 0.690836 0.436387
O O14 0.250000 0.168619 0.043491
#
# Coordination Sequence:
#
# PCOD9362352 Si02
#       6
#     8   8   8   8   8   8
#     4   9  21  38  53  76 110 147 183 219 272 334
#     4  10  19  34  58  83 109 138 184 231 271 323
#     4  11  19  35  56  87 112 133 184 234 269 324
#     4  10  17  34  53  79 108 141 177 223 267 320
#     4  10  21  35  53  77 111 147 181 220 273 329
#     4  10  19  33  58  79 108 140 178 224 269 325
#
# _framework density 19.666108999999999
#
# number of rings (size 3 to 8) (size 9 to 14) (size 15 to 20)
#    0.000    2.000    5.000    0.000    0.000    2.000 
#    3.000    0.833    0.000    0.000    0.000    0.000 
#    0.000    0.000    0.000    0.000    0.000    0.000 
#
# Total GULP energy -133630.774353 kJ/mol
# GULP energy per Si atom -5567.948931 kJ/mol
# Density = 1.962135 g / cm^3
# Si number density = 19.666109 Si / 1000 Ang^3
#
#
#
# Elastic Constant Matrix: (Units=GPa)
#
#
# Indices 1 2 3 4 5 6 
#
# 1 161.5462 47.3169 9.2340 0.0000 0.0000 0.0000
# 2 47.3169 111.1192 4.1105 0.0000 0.0000 0.0000
# 3 9.2340 4.1105 13.2143 0.0000 0.0000 0.0000
# 4 0.0000 0.0000 0.0000 7.8917 0.0000 0.0000
# 5 0.0000 0.0000 0.0000 0.0000 19.3104 0.0000
# 6 0.0000 0.0000 0.0000 0.0000 0.0000 15.6226
#
#
#
# Elastic Compliance Matrix: (Units=1/GPa)
#
#
# Indices 1 2 3 4 5 6 
#
# 1 0.007293 -0.002951 -0.004179 0.000000 0.000000 0.000000
# 2 -0.002951 0.010298 -0.001141 0.000000 0.000000 0.000000
# 3 -0.004179 -0.001141 0.078950 0.000000 0.000000 0.000000
# 4 0.000000 0.000000 0.000000 0.126716 0.000000 0.000000
# 5 0.000000 0.000000 0.000000 0.000000 0.051786 0.000000
# 6 0.000000 0.000000 0.000000 0.000000 0.000000 0.064010
#
#
# Mechanical properties :
#
#
# Convention : Reuss Voigt Hill
#
# Bulk Modulus (GPa) = 12.49998 45.24473 28.87236
# Shear Modulus (GPa) = 13.08005 23.57949 18.32977
#
# Velocity S-wave (km/s) = 2.58176 3.46640 3.05626
# Velocity P-wave (km/s) = 3.90605 6.25121 5.21224
#
# Compressibility (1/GPa) = 0.08000014
#
# Stress axis : x y z
#
# Youngs Moduli (GPa) = 137.11006 97.10429 12.66621
#
# Poissons Ratio (x) = 0.28657 0.05293
# Poissons Ratio (y) = 0.40463 0.01445
# Poissons Ratio (z) = 0.57292 0.11081
#
# Static dielectric constant tensor:
#      x y z
#    x 1.746230 0.000000 0.000000 
#    y 0.000000 1.717840 0.000000 
#    z 0.000000 0.000000 1.749220 
# 
# From -- ./inp_files/7448.got.cif
#   From: 2010.05.17/outbox.cif.g08.bks.cpg/sg40_4_cif.got.tgz:7448.got - 2010.06.03 18:35:42.
