data_PCOD9362698
_publ_section_title
;
Structure prediction by ZEFSAII (Michael W. Deem and Ramdas Pophale) SiO2 
 PCOD9362698
Probable space group: A M A 2
;
_chemical_formula_sum "Si O2"
_cell_formula_units_Z 48
_cell_length_a 8.091187
_cell_length_b 14.214860
_cell_length_c 19.471357
_cell_angle_alpha 90.000000
_cell_angle_beta 90.000000
_cell_angle_gamma 90.000000
_cell_volume 2239.499886
_symmetry_space_group_name_H-M "A M A 2"
_symmetry_group_IT_number 40
_symmetry_cell_setting 'orthorhombic'
loop_
_space_group_symop_operation_xyz
x,y,z
-x,-y,z
1/2-x,y,z
1/2+x,-y,z
x,1/2+y,1/2+z
-x,1/2-y,1/2+z
1/2-x,1/2+y,1/2+z
1/2+x,1/2-y,1/2+z
loop_
_atom_site_type_symbol
_atom_site_label
_atom_site_fract_x
_atom_site_fract_y
_atom_site_fract_z
Si Si1 0.559505 0.101058 0.214870
Si Si2 0.945199 0.602665 0.510231
Si Si3 0.052356 0.597718 0.869805
Si Si4 0.063480 0.252573 0.119777
Si Si5 0.450391 0.891617 0.728590
Si Si6 0.950869 0.691686 0.374233
O O1 0.750000 0.118482 0.195971
O O2 0.538710 0.098228 0.296434
O O3 0.442961 0.179478 0.183301
O O4 0.500000 0.000000 0.189472
O O5 0.750000 0.598487 0.504922
O O6 0.014166 0.623419 0.433999
O O7 0.000000 0.500000 0.534878
O O8 0.985075 0.690823 0.559372
O O9 0.250000 0.593993 0.859147
O O10 0.011165 0.701248 0.897515
O O11 0.000000 0.500000 0.905807
O O12 0.250000 0.274239 0.098645
O O13 0.987460 0.343817 0.157458
O O14 0.250000 0.884545 0.726948
O O15 0.508830 0.837267 0.797901
O O16 0.500000 0.000000 0.733556
O O17 0.750000 0.685990 0.371496
#
# Coordination Sequence:
#
# PCOD9362698 Si02
#       6
#     8   8   8   8   8   8
#     4  11  20  31  51  81 113 147 187 234 287 342
#     4  11  23  40  62  89 121 157 199 243 298 357
#     4  10  18  33  54  82 117 152 192 237 292 344
#     4  11  22  39  59  82 117 155 193 241 295 351
#     4  10  21  39  62  87 115 152 195 244 297 350
#     4   9  19  38  61  85 120 160 193 240 296 351
#
# _framework density 21.433357999999998
#
# number of rings (size 3 to 8) (size 9 to 14) (size 15 to 20)
#    0.000    1.667    1.667    5.000    0.000    1.333 
#    0.000    5.000    0.000    4.000    0.000    0.000 
#    0.000    0.000    0.000    0.000    0.000    0.000 
#
# Total GULP energy -133835.604044 kJ/mol
# GULP energy per Si atom -5576.483502 kJ/mol
# Density = 2.138457 g / cm^3
# Si number density = 21.433358 Si / 1000 Ang^3
#
#
#
# Elastic Constant Matrix: (Units=GPa)
#
#
# Indices 1 2 3 4 5 6 
#
# 1 49.0488 6.4201 10.9850 0.0000 0.0000 0.0000
# 2 6.4201 128.6318 33.7497 0.0000 0.0000 0.0000
# 3 10.9850 33.7497 80.6519 0.0000 0.0000 0.0000
# 4 0.0000 0.0000 0.0000 11.7926 0.0000 0.0000
# 5 0.0000 0.0000 0.0000 0.0000 20.3674 0.0000
# 6 0.0000 0.0000 0.0000 0.0000 0.0000 26.4895
#
#
#
# Elastic Compliance Matrix: (Units=1/GPa)
#
#
# Indices 1 2 3 4 5 6 
#
# 1 0.021042 -0.000335 -0.002726 0.000000 0.000000 0.000000
# 2 -0.000335 0.008738 -0.003611 0.000000 0.000000 0.000000
# 3 -0.002726 -0.003611 0.014281 0.000000 0.000000 0.000000
# 4 0.000000 0.000000 0.000000 0.084799 0.000000 0.000000
# 5 0.000000 0.000000 0.000000 0.000000 0.049098 0.000000
# 6 0.000000 0.000000 0.000000 0.000000 0.000000 0.037751
#
#
# Mechanical properties :
#
#
# Convention : Reuss Voigt Hill
#
# Bulk Modulus (GPa) = 32.55411 40.07133 36.31272
# Shear Modulus (GPa) = 20.89489 25.54173 23.21831
#
# Velocity S-wave (km/s) = 3.12569 3.45582 3.29489
# Velocity P-wave (km/s) = 5.31489 5.88727 5.60839
#
# Compressibility (1/GPa) = 0.03071809
#
# Stress axis : x y z
#
# Youngs Moduli (GPa) = 47.52355 114.43902 70.02171
#
# Poissons Ratio (x) = 0.03834 0.19086
# Poissons Ratio (y) = 0.01592 0.25285
# Poissons Ratio (z) = 0.12954 0.41324
#
# Static dielectric constant tensor:
#      x y z
#    x 1.758890 0.000000 0.000000 
#    y 0.000000 1.835550 0.000000 
#    z 0.000000 0.000000 1.794480 
# 
# From -- ./inp_files/19214.got.cif
#   From: 2010.05.17/outbox.cif.g08.bks.cpg/sg40_10_cif.got.tgz:19214.got - 2010.06.03 18:35:42.
