data_PCOD9362683
_publ_section_title
;
Structure prediction by ZEFSAII (Michael W. Deem and Ramdas Pophale) SiO2 
 PCOD9362683
Probable space group: A M A 2
;
_chemical_formula_sum "Si O2"
_cell_formula_units_Z 64
_cell_length_a 16.646546
_cell_length_b 12.526833
_cell_length_c 16.404643
_cell_angle_alpha 90.000000
_cell_angle_beta 90.000000
_cell_angle_gamma 90.000000
_cell_volume 3420.835627
_symmetry_space_group_name_H-M "A M A 2"
_symmetry_group_IT_number 40
_symmetry_cell_setting 'orthorhombic'
loop_
_space_group_symop_operation_xyz
x,y,z
-x,-y,z
1/2-x,y,z
1/2+x,-y,z
x,1/2+y,1/2+z
-x,1/2-y,1/2+z
1/2-x,1/2+y,1/2+z
1/2+x,1/2-y,1/2+z
loop_
_atom_site_type_symbol
_atom_site_label
_atom_site_fract_x
_atom_site_fract_y
_atom_site_fract_z
Si Si1 0.095470 0.382882 0.369590
Si Si2 0.603517 0.099265 0.676874
Si Si3 0.406589 0.621562 0.410366
Si Si4 0.655874 0.724006 0.772049
Si Si5 0.152664 0.952117 0.390299
Si Si6 0.082761 0.637174 0.133947
Si Si7 0.654609 0.325329 0.958673
Si Si8 0.842871 0.218141 0.526393
O O1 0.112028 0.383702 0.273011
O O2 0.118187 0.498305 0.406217
O O3 0.138211 0.285073 0.413486
O O4 0.999518 0.371910 0.383394
O O5 0.510942 0.117881 0.650888
O O6 0.650363 0.180612 0.619015
O O7 0.624372 0.976117 0.656588
O O8 0.357028 0.689890 0.344321
O O9 0.393031 0.680075 0.496423
O O10 0.750000 0.713963 0.754017
O O11 0.624723 0.613114 0.811083
O O12 0.611675 0.769900 0.693920
O O13 0.250000 0.950470 0.387059
O O14 0.129895 0.882032 0.469814
O O15 0.128465 0.073824 0.403090
O O16 0.105047 0.666106 0.042091
O O17 0.750000 0.336555 0.976338
O O18 0.750000 0.239983 0.506939
#
# Coordination Sequence:
#
# PCOD9362683 Si02
#       8
#     8   8   8   8   8   8   8   8
#     4  11  22  39  60  85 122 156 190 244 301 353
#     4  11  21  37  58  88 118 152 196 243 298 349
#     4  10  19  39  58  84 116 152 199 240 292 354
#     4  10  18  32  59  84 111 152 195 242 284 341
#     4   8  17  34  53  81 115 147 186 232 286 339
#     4  11  20  37  58  87 117 153 200 244 289 349
#     4  11  23  38  57  88 124 155 191 242 301 353
#     4  10  20  35  59  86 114 150 196 243 286 344
#
# _framework density 18.708879
#
# number of rings (size 3 to 8) (size 9 to 14) (size 15 to 20)
#    0.000    1.750    3.750    3.000    0.000    2.000 
#    0.000    1.250    0.000    3.000    0.000    0.000 
#    0.000    0.000    0.000    0.000    0.000    0.000 
#
# Total GULP energy -178597.333790 kJ/mol
# GULP energy per Si atom -5581.166681 kJ/mol
# Density = 1.866630 g / cm^3
# Si number density = 18.708879 Si / 1000 Ang^3
#
#
#
# Elastic Constant Matrix: (Units=GPa)
#
#
# Indices 1 2 3 4 5 6 
#
# 1 8.2658 1.9153 1.2219 0.0000 0.0000 0.0000
# 2 1.9153 117.2695 55.3402 0.0000 0.0000 0.0000
# 3 1.2219 55.3402 87.3397 0.0000 0.0000 0.0000
# 4 0.0000 0.0000 0.0000 31.2172 0.0000 0.0000
# 5 0.0000 0.0000 0.0000 0.0000 17.6837 0.0000
# 6 0.0000 0.0000 0.0000 0.0000 0.0000 18.1049
#
#
#
# Elastic Compliance Matrix: (Units=1/GPa)
#
#
# Indices 1 2 3 4 5 6 
#
# 1 0.121464 -0.001686 -0.000631 0.000000 0.000000 0.000000
# 2 -0.001686 0.012188 -0.007699 0.000000 0.000000 0.000000
# 3 -0.000631 -0.007699 0.016337 0.000000 0.000000 0.000000
# 4 0.000000 0.000000 0.000000 0.032034 0.000000 0.000000
# 5 0.000000 0.000000 0.000000 0.000000 0.056549 0.000000
# 6 0.000000 0.000000 0.000000 0.000000 0.000000 0.055234
#
#
# Mechanical properties :
#
#
# Convention : Reuss Voigt Hill
#
# Bulk Modulus (GPa) = 7.69486 36.64775 22.17130
# Shear Modulus (GPa) = 13.99946 23.69435 18.84690
#
# Velocity S-wave (km/s) = 2.73844 3.56262 3.17736
# Velocity P-wave (km/s) = 3.75774 6.04599 5.03361
#
# Compressibility (1/GPa) = 0.12995692
#
# Stress axis : x y z
#
# Youngs Moduli (GPa) = 8.23287 82.04707 61.21210
#
# Poissons Ratio (x) = 0.13833 0.03863
# Poissons Ratio (y) = 0.01388 0.47127
# Poissons Ratio (z) = 0.00520 0.63168
#
# Static dielectric constant tensor:
#      x y z
#    x 1.666030 0.000000 0.000000 
#    y 0.000000 1.650650 0.000000 
#    z 0.000000 0.000000 1.639650 
# 
# From -- ./inp_files/17848.got.cif
#   From: 2010.05.17/outbox.cif.g08.bks.cpg/sg40_9_cif.got.tgz:17848.got - 2010.06.03 18:35:42.
