data_PCOD9362115
_publ_section_title
;
Structure prediction by ZEFSAII (Michael W. Deem and Ramdas Pophale) SiO2 
 PCOD9362115
Probable space group: A B M 2
;
_chemical_formula_sum "Si O2"
_cell_formula_units_Z 40
_cell_length_a 7.367114
_cell_length_b 21.734174
_cell_length_c 9.725887
_cell_angle_alpha 90.000000
_cell_angle_beta 90.000000
_cell_angle_gamma 90.000000
_cell_volume 1557.290912
_symmetry_space_group_name_H-M "A B M 2"
_symmetry_group_IT_number 39
_symmetry_cell_setting 'orthorhombic'
loop_
_space_group_symop_operation_xyz
x,y,z
-x,-y,z
-x,1/2+y,z
x,1/2-y,z
x,1/2+y,1/2+z
-x,1/2-y,1/2+z
-x,y,1/2+z
x,-y,1/2+z
loop_
_atom_site_type_symbol
_atom_site_label
_atom_site_fract_x
_atom_site_fract_y
_atom_site_fract_z
Si Si1 0.149378 0.180571 0.595640
Si Si2 0.728646 0.837906 0.069157
Si Si3 0.204767 0.981059 0.516943
Si Si4 0.311644 0.434377 0.739898
Si Si5 0.573802 0.154472 0.856568
O O1 0.206971 0.250000 0.633979
O O2 0.198942 0.128330 0.707495
O O3 0.257270 0.159647 0.459082
O O4 0.935931 0.182648 0.564983
O O5 0.497995 0.912057 0.309064
O O6 0.634408 0.818336 0.211187
O O7 0.780632 0.977479 0.852677
O O8 0.252413 0.912206 0.564135
O O9 0.324738 0.030670 0.596576
O O10 0.000000 0.000000 0.554003
O O11 0.405266 0.319900 0.945547
#
# Coordination Sequence:
#
# PCOD9362115 Si02
#       5
#     8   8   8   8   8
#     4  12  29  52  82 119 168 226 287 343 414 500
#     4  11  27  50  80 119 164 221 274 347 431 501
#     4  11  24  44  81 119 167 208 272 345 421 512
#     4  11  26  50  80 120 162 220 266 346 424 489
#     4  11  27  53  78 119 163 209 285 341 417 499
#
# _framework density 25.685628999999999
#
# number of rings (size 3 to 8) (size 9 to 14) (size 15 to 20)
#    0.000    0.800    4.000    0.600    8.400    3.200 
#    3.600    0.000    0.000    0.000    0.000    0.000 
#    0.000    0.000    0.000    0.000    0.000    0.000 
#
# Total GULP energy -111997.412498 kJ/mol
# GULP energy per Si atom -5599.870625 kJ/mol
# Density = 2.562717 g / cm^3
# Si number density = 25.685629 Si / 1000 Ang^3
#
#
#
# Elastic Constant Matrix: (Units=GPa)
#
#
# Indices 1 2 3 4 5 6 
#
# 1 191.5654 49.7046 89.0701 0.0000 0.0000 0.0000
# 2 49.7046 166.2810 54.8546 0.0000 0.0000 0.0000
# 3 89.0701 54.8546 195.6101 0.0000 0.0000 0.0000
# 4 0.0000 0.0000 0.0000 -22.6282 0.0000 0.0000
# 5 0.0000 0.0000 0.0000 0.0000 37.2733 0.0000
# 6 0.0000 0.0000 0.0000 0.0000 0.0000 -41.3686
#
#
#
# Elastic Compliance Matrix: (Units=1/GPa)
#
#
# Indices 1 2 3 4 5 6 
#
# 1 0.006805 -0.001115 -0.002786 0.000000 0.000000 0.000000
# 2 -0.001115 0.006810 -0.001402 0.000000 0.000000 0.000000
# 3 -0.002786 -0.001402 0.006774 0.000000 0.000000 0.000000
# 4 0.000000 0.000000 0.000000 -0.044193 0.000000 0.000000
# 5 0.000000 0.000000 0.000000 0.000000 0.026829 0.000000
# 6 0.000000 0.000000 0.000000 0.000000 0.000000 -0.024173
#
#
# Mechanical properties :
#
#
# Convention : Reuss Voigt Hill
#
# Bulk Modulus (GPa) = 102.22062 104.52393 103.37228
# Shear Modulus (GPa) = -686.62353 18.64379 -333.98987
#
# Velocity S-wave (km/s) = -16.36760 2.69707 -11.41543
# Velocity P-wave (km/s) = 17.81333 7.10499 11.55063
#
# Compressibility (1/GPa) = 0.00978276
#
# Stress axis : x y z
#
# Youngs Moduli (GPa) = 146.95592 146.84931 147.62650
#
# Poissons Ratio (x) = 0.16375 0.41126
# Poissons Ratio (y) = 0.16386 0.20696
# Poissons Ratio (z) = 0.40939 0.20587
#
# Static dielectric constant tensor:
#      x y z
#    x 1.992940 0.000000 0.000000 
#    y 0.000000 2.034570 0.000000 
#    z 0.000000 0.000000 1.989140 
# 
# From -- ./inp_files/2107.got.cif
#   From: 2010.05.17/outbox.cif.g08.bks.cpg/sg39_2_cif.got.tgz:2107.got - 2010.06.03 18:22:40.
