data_PCOD9362949
_publ_section_title
;
Structure prediction by ZEFSAII (Michael W. Deem and Ramdas Pophale) SiO2 
 PCOD9362949
Probable space group: A M A 2
;
_chemical_formula_sum "Si O2"
_cell_formula_units_Z 64
_cell_length_a 8.611303
_cell_length_b 16.623472
_cell_length_c 23.058303
_cell_angle_alpha 90.000000
_cell_angle_beta 90.000000
_cell_angle_gamma 90.000000
_cell_volume 3300.790409
_symmetry_space_group_name_H-M "A M A 2"
_symmetry_group_IT_number 40
_symmetry_cell_setting 'orthorhombic'
loop_
_space_group_symop_operation_xyz
x,y,z
-x,-y,z
1/2-x,y,z
1/2+x,-y,z
x,1/2+y,1/2+z
-x,1/2-y,1/2+z
1/2-x,1/2+y,1/2+z
1/2+x,1/2-y,1/2+z
loop_
_atom_site_type_symbol
_atom_site_label
_atom_site_fract_x
_atom_site_fract_y
_atom_site_fract_z
Si Si1 0.427520 0.202314 0.714950
Si Si2 0.437818 0.265461 0.461564
Si Si3 0.437784 0.582856 0.118033
Si Si4 0.571248 0.612263 0.679175
Si Si5 0.431888 0.581497 0.801039
Si Si6 0.561929 0.587302 0.545592
Si Si7 0.063760 0.756643 0.834060
Si Si8 0.565245 0.587522 0.988105
O O1 0.250000 0.177125 0.725012
O O2 0.490455 0.150278 0.662510
O O3 0.426195 0.292712 0.690936
O O4 0.512299 0.198424 0.776176
O O5 0.250000 0.260620 0.466312
O O6 0.488148 0.333786 0.508213
O O7 0.482169 0.291662 0.396174
O O8 0.498963 0.173530 0.466423
O O9 0.500000 0.500000 0.143343
O O10 0.250000 0.584310 0.110834
O O11 0.516821 0.590663 0.055747
O O12 0.750000 0.582734 0.685402
O O13 0.467272 0.581936 0.732178
O O14 0.516965 0.596008 0.613714
O O15 0.500000 0.500000 0.826236
O O16 0.250000 0.580979 0.810738
O O17 0.497605 0.664715 0.826616
O O18 0.500000 0.500000 0.525123
O O19 0.750000 0.586110 0.543806
O O20 0.250000 0.752295 0.833666
O O21 0.500000 0.500000 0.966931
O O22 0.750000 0.586218 0.980806
#
# Coordination Sequence:
#
# PCOD9362949 Si02
#       8
#     8   8   8   8   8   8   8   8
#     4   9  18  33  54  77 104 136 172 214 264 318
#     4  10  21  40  59  77 107 148 188 230 277 325
#     4  10  19  33  53  79 109 140 173 216 269 327
#     4   9  17  31  51  76 102 132 165 204 257 314
#     4  10  19  31  48  74 103 132 163 202 251 307
#     4  10  21  36  56  79 107 141 180 225 272 321
#     4   9  20  36  54  74 100 136 179 221 263 311
#     4  11  22  36  57  86 116 147 181 224 274 333
#
# _framework density 19.389295000000001
#
# number of rings (size 3 to 8) (size 9 to 14) (size 15 to 20)
#    0.000    2.250    0.000    3.750    0.000    6.500 
#    0.000    4.375    0.000    3.000    0.000    0.000 
#    0.000    0.000    0.000    0.000    0.000    0.000 
#
# Total GULP energy -178351.139024 kJ/mol
# GULP energy per Si atom -5573.473095 kJ/mol
# Density = 1.934516 g / cm^3
# Si number density = 19.389295 Si / 1000 Ang^3
#
#
#
# Elastic Constant Matrix: (Units=GPa)
#
#
# Indices 1 2 3 4 5 6 
#
# 1 26.6453 13.4921 12.6231 0.0000 0.0000 0.0000
# 2 13.4921 63.6717 32.7690 0.0000 0.0000 0.0000
# 3 12.6231 32.7690 92.4392 0.0000 0.0000 0.0000
# 4 0.0000 0.0000 0.0000 4.2617 0.0000 0.0000
# 5 0.0000 0.0000 0.0000 0.0000 17.0531 0.0000
# 6 0.0000 0.0000 0.0000 0.0000 0.0000 45.2644
#
#
#
# Elastic Compliance Matrix: (Units=1/GPa)
#
#
# Indices 1 2 3 4 5 6 
#
# 1 0.042809 -0.007416 -0.003217 0.000000 0.000000 0.000000
# 2 -0.007416 0.020495 -0.006253 0.000000 0.000000 0.000000
# 3 -0.003217 -0.006253 0.013474 0.000000 0.000000 0.000000
# 4 0.000000 0.000000 0.000000 0.234649 0.000000 0.000000
# 5 0.000000 0.000000 0.000000 0.000000 0.058640 0.000000
# 6 0.000000 0.000000 0.000000 0.000000 0.000000 0.022092
#
#
# Mechanical properties :
#
#
# Convention : Reuss Voigt Hill
#
# Bulk Modulus (GPa) = 23.25196 33.39162 28.32179
# Shear Modulus (GPa) = 11.35678 21.57397 16.46538
#
# Velocity S-wave (km/s) = 2.42280 3.33930 2.91726
# Velocity P-wave (km/s) = 4.45475 5.66806 5.09763
#
# Compressibility (1/GPa) = 0.04300712
#
# Stress axis : x y z
#
# Youngs Moduli (GPa) = 23.35952 48.79261 74.21845
#
# Poissons Ratio (x) = 0.36183 0.23876
# Poissons Ratio (y) = 0.17323 0.46406
# Poissons Ratio (z) = 0.07515 0.30508
#
# Static dielectric constant tensor:
#      x y z
#    x 1.681590 0.000000 0.000000 
#    y 0.000000 1.719180 0.000000 
#    z 0.000000 0.000000 1.691560 
# 
# From -- ./inp_files/24235.got.cif
#   From: 2010.05.17/outbox.cif.g08.bks.cpg/sg40_13_cif.got.tgz:24235.got - 2010.06.03 18:35:42.
