data_PCOD9362105
_publ_section_title
;
Structure prediction by ZEFSAII (Michael W. Deem and Ramdas Pophale) SiO2 
 PCOD9362105
Probable space group: A B M 2
;
_chemical_formula_sum "Si O2"
_cell_formula_units_Z 32
_cell_length_a 6.736600
_cell_length_b 11.440424
_cell_length_c 14.655838
_cell_angle_alpha 90.000000
_cell_angle_beta 90.000000
_cell_angle_gamma 90.000000
_cell_volume 1129.518991
_symmetry_space_group_name_H-M "A B M 2"
_symmetry_group_IT_number 39
_symmetry_cell_setting 'orthorhombic'
loop_
_space_group_symop_operation_xyz
x,y,z
-x,-y,z
-x,1/2+y,z
x,1/2-y,z
x,1/2+y,1/2+z
-x,1/2-y,1/2+z
-x,y,1/2+z
x,-y,1/2+z
loop_
_atom_site_type_symbol
_atom_site_label
_atom_site_fract_x
_atom_site_fract_y
_atom_site_fract_z
Si Si1 0.750000 0.062105 0.123690
Si Si2 0.125854 0.250000 0.902144
Si Si3 0.500000 0.500000 0.783372
Si Si4 0.002722 0.750000 0.212901
Si Si5 0.000000 0.000000 0.964008
Si Si6 0.502722 0.250000 0.034479
Si Si7 0.625854 0.750000 0.345236
O O1 0.941738 0.141313 0.148961
O O2 0.558262 0.141313 0.098419
O O3 0.809361 0.002232 0.030023
O O4 0.690638 0.002232 0.217357
O O5 0.796458 0.250000 0.767344
O O6 0.018030 0.122799 0.911708
O O7 0.296458 0.250000 0.980036
O O8 0.518030 0.377201 0.835672
O O9 0.166685 0.750000 0.293569
O O10 0.666684 0.250000 0.953811
#
# Coordination Sequence:
#
# PCOD9362105 Si02
#       7
#     8   4   4   4   4   4   4
#     4  11  24  43  72 106 140 178 230 286 344 408
#     4  12  27  46  72 102 140 184 231 284 344 408
#     4  12  26  46  72 104 140 184 230 284 344 408
#     4  11  25  47  72 103 140 183 231 285 344 410
#     4  12  26  46  72 104 140 184 230 284 344 408
#     4  11  25  47  72 103 140 183 231 285 344 410
#     4  12  27  46  72 102 140 184 231 284 344 408
#
# _framework density 28.330642999999998
#
# number of rings (size 3 to 8) (size 9 to 14) (size 15 to 20)
#    0.000    0.500    0.000    9.000    0.000   13.000 
#    0.000    0.000    0.000    0.000    0.000    0.000 
#    0.000    0.000    0.000    0.000    0.000    0.000 
#
# Total GULP energy -89508.507053 kJ/mol
# GULP energy per Si atom -5594.281691 kJ/mol
# Density = 2.826616 g / cm^3
# Si number density = 28.330643 Si / 1000 Ang^3
#
#
#
# Elastic Constant Matrix: (Units=GPa)
#
#
# Indices 1 2 3 4 5 6 
#
# 1 70.3911 20.3679 -5.8616 0.0000 0.0000 0.0000
# 2 20.3679 182.7472 56.4820 0.0000 0.0000 0.0000
# 3 -5.8616 56.4820 98.7767 0.0000 0.0000 0.0000
# 4 0.0000 0.0000 0.0000 66.0083 0.0000 0.0000
# 5 0.0000 0.0000 0.0000 0.0000 53.7044 0.0000
# 6 0.0000 0.0000 0.0000 0.0000 0.0000 31.0768
#
#
#
# Elastic Compliance Matrix: (Units=1/GPa)
#
#
# Indices 1 2 3 4 5 6 
#
# 1 0.015082 -0.002378 0.002255 0.000000 0.000000 0.000000
# 2 -0.002378 0.007022 -0.004156 0.000000 0.000000 0.000000
# 3 0.002255 -0.004156 0.012634 0.000000 0.000000 0.000000
# 4 0.000000 0.000000 0.000000 0.015150 0.000000 0.000000
# 5 0.000000 0.000000 0.000000 0.000000 0.018620 0.000000
# 6 0.000000 0.000000 0.000000 0.000000 0.000000 0.032178
#
#
# Mechanical properties :
#
#
# Convention : Reuss Voigt Hill
#
# Bulk Modulus (GPa) = 38.19812 54.87686 46.53749
# Shear Modulus (GPa) = 42.38314 48.88634 45.63474
#
# Velocity S-wave (km/s) = 3.87203 4.15850 4.01782
# Velocity P-wave (km/s) = 5.78813 6.51688 6.16328
#
# Compressibility (1/GPa) = 0.02617930
#
# Stress axis : x y z
#
# Youngs Moduli (GPa) = 66.30367 142.41739 79.15024
#
# Poissons Ratio (x) = 0.33864 -0.17846
# Poissons Ratio (y) = 0.15766 0.32896
# Poissons Ratio (z) = -0.14949 0.59191
#
# Static dielectric constant tensor:
#      x y z
#    x 2.413490 0.000000 0.000000 
#    y 0.000000 2.197340 0.000000 
#    z 0.000000 0.000000 1.960690 
# 
# From -- ./inp_files/7883.got.cif
#   From: 2010.05.17/outbox.cif.g08.bks.cpg/sg39_4_cif.got.tgz:7883.got - 2010.06.03 18:22:40.
