data_PCOD9362361
_publ_section_title
;
Structure prediction by ZEFSAII (Michael W. Deem and Ramdas Pophale) SiO2 
 PCOD9362361
Probable space group: A M A 2
;
_chemical_formula_sum "Si O2"
_cell_formula_units_Z 48
_cell_length_a 17.494240
_cell_length_b 9.226043
_cell_length_c 15.444681
_cell_angle_alpha 90.000000
_cell_angle_beta 90.000000
_cell_angle_gamma 90.000000
_cell_volume 2492.811832
_symmetry_space_group_name_H-M "A M A 2"
_symmetry_group_IT_number 40
_symmetry_cell_setting 'orthorhombic'
loop_
_space_group_symop_operation_xyz
x,y,z
-x,-y,z
1/2-x,y,z
1/2+x,-y,z
x,1/2+y,1/2+z
-x,1/2-y,1/2+z
1/2-x,1/2+y,1/2+z
1/2+x,1/2-y,1/2+z
loop_
_atom_site_type_symbol
_atom_site_label
_atom_site_fract_x
_atom_site_fract_y
_atom_site_fract_z
Si Si1 0.837429 0.263100 0.295260
Si Si2 0.432313 0.203994 0.477670
Si Si3 0.575845 0.596753 0.649592
Si Si4 0.910923 0.021795 0.880313
Si Si5 0.109216 0.882682 0.470201
Si Si6 0.162102 0.619615 0.547984
O O1 0.750000 0.399246 0.523683
O O2 0.897425 0.192307 0.229764
O O3 0.860174 0.430488 0.313935
O O4 0.846757 0.174893 0.385481
O O5 0.432185 0.295707 0.566955
O O6 0.400604 0.309295 0.402241
O O7 0.520110 0.160763 0.458792
O O8 0.386794 0.053959 0.483527
O O9 0.500000 0.500000 0.661847
O O10 0.641151 0.477824 0.629284
O O11 0.891424 0.943745 0.971699
O O12 0.000000 0.000000 0.859814
O O13 0.141359 0.788559 0.550263
O O14 0.250000 0.246700 0.765212
#
# Coordination Sequence:
#
# PCOD9362361 Si02
#       6
#     8   8   8   8   8   8
#     4  11  24  40  60  90 128 166 205 259 329 376
#     4  10  19  36  61  92 114 153 209 262 294 365
#     4  11  22  40  61  89 121 162 210 256 313 380
#     4  10  17  35  59  86 115 155 207 245 294 369
#     4  10  19  36  61  90 121 150 207 256 308 362
#     4  10  18  35  60  85 119 160 201 248 306 368
#
# _framework density 19.255362999999999
#
# number of rings (size 3 to 8) (size 9 to 14) (size 15 to 20)
#    0.000    1.667    5.000    3.500    2.333    0.000 
#    3.000   11.667    0.000    0.000    0.000    0.000 
#    0.000    0.000    0.000    0.000    0.000    0.000 
#
# Total GULP energy -133763.042364 kJ/mol
# GULP energy per Si atom -5573.460099 kJ/mol
# Density = 1.921154 g / cm^3
# Si number density = 19.255363 Si / 1000 Ang^3
#
#
#
# Elastic Constant Matrix: (Units=GPa)
#
#
# Indices 1 2 3 4 5 6 
#
# 1 65.2242 29.3106 8.5402 0.0000 0.0000 0.0000
# 2 29.3106 161.9228 33.9835 0.0000 0.0000 0.0000
# 3 8.5402 33.9835 42.9366 0.0000 0.0000 0.0000
# 4 0.0000 0.0000 0.0000 21.3802 0.0000 0.0000
# 5 0.0000 0.0000 0.0000 0.0000 10.4662 0.0000
# 6 0.0000 0.0000 0.0000 0.0000 0.0000 20.4436
#
#
#
# Elastic Compliance Matrix: (Units=1/GPa)
#
#
# Indices 1 2 3 4 5 6 
#
# 1 0.016734 -0.002795 -0.001116 0.000000 0.000000 0.000000
# 2 -0.002795 0.007873 -0.005675 0.000000 0.000000 0.000000
# 3 -0.001116 -0.005675 0.028004 0.000000 0.000000 0.000000
# 4 0.000000 0.000000 0.000000 0.046772 0.000000 0.000000
# 5 0.000000 0.000000 0.000000 0.000000 0.095545 0.000000
# 6 0.000000 0.000000 0.000000 0.000000 0.000000 0.048915
#
#
# Mechanical properties :
#
#
# Convention : Reuss Voigt Hill
#
# Bulk Modulus (GPa) = 29.90627 45.97246 37.93937
# Shear Modulus (GPa) = 18.23740 23.67464 20.95602
#
# Velocity S-wave (km/s) = 3.08089 3.51024 3.30255
# Velocity P-wave (km/s) = 5.31234 6.35264 5.85564
#
# Compressibility (1/GPa) = 0.03343780
#
# Stress axis : x y z
#
# Youngs Moduli (GPa) = 59.75921 127.01995 35.70909
#
# Poissons Ratio (x) = 0.35499 0.03987
# Poissons Ratio (y) = 0.16701 0.20266
# Poissons Ratio (z) = 0.06671 0.72087
#
# Static dielectric constant tensor:
#      x y z
#    x 1.662540 0.000000 0.000000 
#    y 0.000000 1.714080 0.000000 
#    z 0.000000 0.000000 1.685510 
# 
# From -- ./inp_files/17630.got.cif
#   From: 2010.05.17/outbox.cif.g08.bks.cpg/sg40_9_cif.got.tgz:17630.got - 2010.06.03 18:35:42.
