data_PCOD9362783
_publ_section_title
;
Structure prediction by ZEFSAII (Michael W. Deem and Ramdas Pophale) SiO2 
 PCOD9362783
Probable space group: A M A 2
;
_chemical_formula_sum "Si O2"
_cell_formula_units_Z 64
_cell_length_a 16.211536
_cell_length_b 16.896832
_cell_length_c 12.192660
_cell_angle_alpha 90.000000
_cell_angle_beta 90.000000
_cell_angle_gamma 90.000000
_cell_volume 3339.857324
_symmetry_space_group_name_H-M "A M A 2"
_symmetry_group_IT_number 40
_symmetry_cell_setting 'orthorhombic'
loop_
_space_group_symop_operation_xyz
x,y,z
-x,-y,z
1/2-x,y,z
1/2+x,-y,z
x,1/2+y,1/2+z
-x,1/2-y,1/2+z
1/2-x,1/2+y,1/2+z
1/2+x,1/2-y,1/2+z
loop_
_atom_site_type_symbol
_atom_site_label
_atom_site_fract_x
_atom_site_fract_y
_atom_site_fract_z
Si Si1 0.155072 0.131232 0.086510
Si Si2 0.087101 0.805353 0.980932
Si Si3 0.849896 0.546313 0.603914
Si Si4 0.349630 0.901976 0.355079
Si Si5 0.350172 0.558876 0.973260
Si Si6 0.906202 0.275591 0.393002
Si Si7 0.650225 0.323487 0.156981
Si Si8 0.348653 0.697421 0.808208
O O1 0.250000 0.116520 0.118399
O O2 0.118614 0.182778 0.186216
O O3 0.119646 0.042966 0.082273
O O4 0.154638 0.179036 0.974714
O O5 0.128300 0.778333 0.867150
O O6 0.992109 0.791082 0.954063
O O7 0.107809 0.892218 0.022361
O O8 0.122918 0.746744 0.074635
O O9 0.750000 0.551907 0.588938
O O10 0.866766 0.570624 0.730214
O O11 0.250000 0.893558 0.363650
O O12 0.388813 0.817519 0.381404
O O13 0.377772 0.971994 0.436915
O O14 0.250000 0.557645 0.967251
O O15 0.378187 0.623868 0.883447
O O16 0.370216 0.595495 0.091773
O O17 0.895147 0.311956 0.272052
O O18 0.750000 0.318500 0.172158
O O19 0.250000 0.695285 0.809550
#
# Coordination Sequence:
#
# PCOD9362783 Si02
#       8
#     8   8   8   8   8   8   8   8
#     4  10  21  37  60  89 120 154 199 254 312 368
#     4  11  23  36  59  88 124 157 205 253 305 364
#     4  10  19  37  66  92 112 149 211 260 295 362
#     4  10  18  35  63  93 114 145 204 258 293 352
#     4   8  15  31  61  92 111 141 200 257 289 339
#     4  12  25  36  57  89 130 163 196 248 313 370
#     4  10  20  40  65  87 118 167 210 246 302 377
#     4   9  17  34  59  87 118 151 191 249 308 359
#
# _framework density 19.162495
#
# number of rings (size 3 to 8) (size 9 to 14) (size 15 to 20)
#    0.000    2.000    2.500    3.000    1.750    0.500 
#    0.000    3.750    2.750    3.000    0.000    0.000 
#    0.000    0.000    0.000    0.000    0.000    0.000 
#
# Total GULP energy -178457.219030 kJ/mol
# GULP energy per Si atom -5576.788095 kJ/mol
# Density = 1.911888 g / cm^3
# Si number density = 19.162495 Si / 1000 Ang^3
#
#
#
# Elastic Constant Matrix: (Units=GPa)
#
#
# Indices 1 2 3 4 5 6 
#
# 1 30.6757 7.5822 4.4721 0.0000 0.0000 0.0000
# 2 7.5822 88.1506 50.7189 0.0000 0.0000 0.0000
# 3 4.4721 50.7189 98.6662 0.0000 0.0000 0.0000
# 4 0.0000 0.0000 0.0000 34.5671 0.0000 0.0000
# 5 0.0000 0.0000 0.0000 0.0000 10.7715 0.0000
# 6 0.0000 0.0000 0.0000 0.0000 0.0000 -33.6671
#
#
#
# Elastic Compliance Matrix: (Units=1/GPa)
#
#
# Indices 1 2 3 4 5 6 
#
# 1 0.033307 -0.002835 -0.000053 0.000000 0.000000 0.000000
# 2 -0.002835 0.016350 -0.008276 0.000000 0.000000 0.000000
# 3 -0.000053 -0.008276 0.014392 0.000000 0.000000 0.000000
# 4 0.000000 0.000000 0.000000 0.028929 0.000000 0.000000
# 5 0.000000 0.000000 0.000000 0.000000 0.092838 0.000000
# 6 0.000000 0.000000 0.000000 0.000000 0.000000 -0.029703
#
#
# Mechanical properties :
#
#
# Convention : Reuss Voigt Hill
#
# Bulk Modulus (GPa) = 23.96790 38.11544 31.04167
# Shear Modulus (GPa) = 25.99462 12.64891 19.32177
#
# Velocity S-wave (km/s) = 3.68711 2.57200 3.17884
# Velocity P-wave (km/s) = 5.53726 5.36228 5.45048
#
# Compressibility (1/GPa) = 0.04172248
#
# Stress axis : x y z
#
# Youngs Moduli (GPa) = 30.02340 61.16278 69.48384
#
# Poissons Ratio (x) = 0.17338 0.00365
# Poissons Ratio (y) = 0.08511 0.57505
# Poissons Ratio (z) = 0.00158 0.50619
#
# Static dielectric constant tensor:
#      x y z
#    x 1.675980 0.000000 0.000000 
#    y 0.000000 1.678630 0.000000 
#    z 0.000000 0.000000 1.663430 
# 
# From -- ./inp_files/12452.got.cif
#   From: 2010.05.17/outbox.cif.g08.bks.cpg/sg40_7_cif.got.tgz:12452.got - 2010.06.03 18:35:42.
