data_PCOD9362876
_publ_section_title
;
Structure prediction by ZEFSAII (Michael W. Deem and Ramdas Pophale) SiO2 
 PCOD9362876
Probable space group: A M A 2
;
_chemical_formula_sum "Si O2"
_cell_formula_units_Z 64
_cell_length_a 7.354807
_cell_length_b 33.190075
_cell_length_c 12.396690
_cell_angle_alpha 90.000000
_cell_angle_beta 90.000000
_cell_angle_gamma 90.000000
_cell_volume 3026.113797
_symmetry_space_group_name_H-M "A M A 2"
_symmetry_group_IT_number 40
_symmetry_cell_setting 'orthorhombic'
loop_
_space_group_symop_operation_xyz
x,y,z
-x,-y,z
1/2-x,y,z
1/2+x,-y,z
x,1/2+y,1/2+z
-x,1/2-y,1/2+z
1/2-x,1/2+y,1/2+z
1/2+x,1/2-y,1/2+z
loop_
_atom_site_type_symbol
_atom_site_label
_atom_site_fract_x
_atom_site_fract_y
_atom_site_fract_z
Si Si1 0.972511 0.148032 0.851760
Si Si2 0.027652 0.376168 0.590882
Si Si3 0.028891 0.772080 0.723896
Si Si4 0.460313 0.815450 0.517871
Si Si5 0.967001 0.547422 0.719368
Si Si6 0.040984 0.819003 0.282189
Si Si7 0.540488 0.101248 0.649342
Si Si8 0.532830 0.547344 0.959962
O O1 0.750000 0.147891 0.848883
O O2 0.026098 0.192047 0.805802
O O3 0.034973 0.114300 0.765299
O O4 0.031571 0.137743 0.972382
O O5 0.250000 0.375463 0.586739
O O6 0.970141 0.420719 0.630027
O O7 0.966236 0.345221 0.683965
O O8 0.250000 0.771897 0.723113
O O9 0.964020 0.783715 0.603554
O O10 0.964240 0.728088 0.754725
O O11 0.250000 0.803112 0.499184
O O12 0.543648 0.822185 0.400930
O O13 0.458271 0.857190 0.582274
O O14 0.750000 0.551686 0.724230
O O15 0.035908 0.558571 0.840020
O O16 0.000000 0.500000 0.699150
O O17 0.250000 0.833385 0.292650
O O18 0.750000 0.088681 0.669210
O O19 0.458221 0.069653 0.565395
O O20 0.500000 0.500000 0.969963
O O21 0.750000 0.555458 0.958656
#
# Coordination Sequence:
#
# PCOD9362876 Si02
#       8
#     8   8   8   8   8   8   8   8
#     4   8  15  28  46  66  88 117 154 192 225 263
#     4   9  17  29  46  69  92 119 156 195 228 268
#     4   9  18  31  46  64  90 121 150 185 231 274
#     4   8  15  28  44  63  85 113 148 183 218 259
#     4   9  17  30  48  69  94 120 149 188 232 274
#     4  10  19  29  46  69  91 116 151 192 227 266
#     4   8  13  25  45  63  82 113 151 182 212 261
#     4   9  16  26  44  69  91 113 142 181 226 269
#
# _framework density 21.149238
#
# number of rings (size 3 to 8) (size 9 to 14) (size 15 to 20)
#    0.000    3.250    0.000    2.250    1.750    3.000 
#    0.000    1.250    0.000    6.000    0.000    0.000 
#    0.000    0.000    0.000    0.000    0.000    0.000 
#
# Total GULP energy -178379.715951 kJ/mol
# GULP energy per Si atom -5574.366123 kJ/mol
# Density = 2.110110 g / cm^3
# Si number density = 21.149238 Si / 1000 Ang^3
#
#
#
# Elastic Constant Matrix: (Units=GPa)
#
#
# Indices 1 2 3 4 5 6 
#
# 1 79.8421 -4.9680 7.4505 0.0000 0.0000 0.0000
# 2 -4.9680 73.5332 70.2450 0.0000 0.0000 0.0000
# 3 7.4505 70.2450 204.8666 0.0000 0.0000 0.0000
# 4 0.0000 0.0000 0.0000 48.8843 0.0000 0.0000
# 5 0.0000 0.0000 0.0000 0.0000 -13.9702 0.0000
# 6 0.0000 0.0000 0.0000 0.0000 0.0000 16.0647
#
#
#
# Elastic Compliance Matrix: (Units=1/GPa)
#
#
# Indices 1 2 3 4 5 6 
#
# 1 0.012751 0.001940 -0.001129 0.000000 0.000000 0.000000
# 2 0.001940 0.020519 -0.007106 0.000000 0.000000 0.000000
# 3 -0.001129 -0.007106 0.007359 0.000000 0.000000 0.000000
# 4 0.000000 0.000000 0.000000 0.020456 0.000000 0.000000
# 5 0.000000 0.000000 0.000000 0.000000 -0.071581 0.000000
# 6 0.000000 0.000000 0.000000 0.000000 0.000000 0.062248
#
#
# Mechanical properties :
#
#
# Convention : Reuss Voigt Hill
#
# Bulk Modulus (GPa) = 35.66573 55.96632 45.81602
# Shear Modulus (GPa) = 67.85343 29.23004 48.54174
#
# Velocity S-wave (km/s) = 5.67034 3.72167 4.79602
# Velocity P-wave (km/s) = 7.73116 6.70730 7.23736
#
# Compressibility (1/GPa) = 0.02803812
#
# Stress axis : x y z
#
# Youngs Moduli (GPa) = 78.42671 48.73626 135.89183
#
# Poissons Ratio (x) = -0.09454 0.15340
# Poissons Ratio (y) = -0.15213 0.96565
# Poissons Ratio (z) = 0.08853 0.34632
#
# Static dielectric constant tensor:
#      x y z
#    x 1.817090 0.000000 0.000000 
#    y 0.000000 1.724410 0.000000 
#    z 0.000000 0.000000 1.780400 
# 
# From -- ./inp_files/11554.got.cif
#   From: 2010.05.17/outbox.cif.g08.bks.cpg/sg40_6_cif.got.tgz:11554.got - 2010.06.03 18:35:42.
