data_PCOD9362987
_publ_section_title
;
Structure prediction by ZEFSAII (Michael W. Deem and Ramdas Pophale) SiO2 
 PCOD9362987
Probable space group: A M A 2
;
_chemical_formula_sum "Si O2"
_cell_formula_units_Z 64
_cell_length_a 8.545476
_cell_length_b 21.231758
_cell_length_c 20.254224
_cell_angle_alpha 90.000000
_cell_angle_beta 90.000000
_cell_angle_gamma 90.000000
_cell_volume 3674.834822
_symmetry_space_group_name_H-M "A M A 2"
_symmetry_group_IT_number 40
_symmetry_cell_setting 'orthorhombic'
loop_
_space_group_symop_operation_xyz
x,y,z
-x,-y,z
1/2-x,y,z
1/2+x,-y,z
x,1/2+y,1/2+z
-x,1/2-y,1/2+z
1/2-x,1/2+y,1/2+z
1/2+x,1/2-y,1/2+z
loop_
_atom_site_type_symbol
_atom_site_label
_atom_site_fract_x
_atom_site_fract_y
_atom_site_fract_z
Si Si1 0.939715 0.735415 0.143510
Si Si2 0.062272 0.686120 0.424131
Si Si3 0.564225 0.567671 0.505416
Si Si4 0.062526 0.616955 0.641825
Si Si5 0.938385 0.736810 0.290134
Si Si6 0.438659 0.932773 0.423440
Si Si7 0.562013 0.120480 0.284049
Si Si8 0.441088 0.811207 0.504802
O O1 0.750000 0.733953 0.142727
O O2 0.982642 0.809024 0.134967
O O3 0.988145 0.714650 0.216726
O O4 0.994687 0.696502 0.080319
O O5 0.250000 0.684558 0.424566
O O6 0.012123 0.748700 0.464599
O O7 0.000122 0.624401 0.460638
O O8 0.002102 0.695383 0.349860
O O9 0.500000 0.500000 0.483727
O O10 0.750000 0.567574 0.502952
O O11 0.509311 0.580156 0.580602
O O12 0.250000 0.612823 0.638620
O O13 0.005473 0.597153 0.714370
O O14 0.750000 0.738911 0.292595
O O15 0.002225 0.808183 0.295978
O O16 0.250000 0.932934 0.424751
O O17 0.487145 0.919555 0.347718
O O18 0.493437 0.874296 0.468132
O O19 0.500000 0.000000 0.445953
O O20 0.750000 0.121589 0.280498
O O21 0.250000 0.811870 0.504588
#
# Coordination Sequence:
#
# PCOD9362987 Si02
#       8
#     8   8   8   8   8   8   8   8
#     4   8  15  29  53  80 107 139 176 220 272 329
#     4  11  20  36  60  82 110 146 184 231 282 334
#     4  12  25  40  57  82 113 148 188 230 278 336
#     4  10  19  34  55  80 110 147 184 225 276 328
#     4  10  19  31  52  84 113 140 182 232 280 332
#     4  10  21  35  52  75 106 146 185 226 276 328
#     4  10  19  33  51  76 110 150 190 228 274 331
#     4   9  16  32  56  79 103 139 183 224 277 331
#
# _framework density 17.415749000000002
#
# number of rings (size 3 to 8) (size 9 to 14) (size 15 to 20)
#    0.000    2.000    2.500    3.375    0.000    1.500 
#    0.000    1.250    0.000    0.750    0.000    1.750 
#    0.000    0.000    0.000    0.000    0.000    0.000 
#
# Total GULP energy -178604.932462 kJ/mol
# GULP energy per Si atom -5581.404139 kJ/mol
# Density = 1.737611 g / cm^3
# Si number density = 17.415749 Si / 1000 Ang^3
#
#
#
# Elastic Constant Matrix: (Units=GPa)
#
#
# Indices 1 2 3 4 5 6 
#
# 1 48.8641 24.0227 23.6552 0.0000 0.0000 0.0000
# 2 24.0227 116.4330 70.6206 0.0000 0.0000 0.0000
# 3 23.6552 70.6206 127.5532 0.0000 0.0000 0.0000
# 4 0.0000 0.0000 0.0000 22.5052 0.0000 0.0000
# 5 0.0000 0.0000 0.0000 0.0000 24.7862 0.0000
# 6 0.0000 0.0000 0.0000 0.0000 0.0000 24.8005
#
#
#
# Elastic Compliance Matrix: (Units=1/GPa)
#
#
# Indices 1 2 3 4 5 6 
#
# 1 0.023292 -0.003291 -0.002498 0.000000 0.000000 0.000000
# 2 -0.003291 0.013396 -0.006806 0.000000 0.000000 0.000000
# 3 -0.002498 -0.006806 0.012071 0.000000 0.000000 0.000000
# 4 0.000000 0.000000 0.000000 0.044434 0.000000 0.000000
# 5 0.000000 0.000000 0.000000 0.000000 0.040345 0.000000
# 6 0.000000 0.000000 0.000000 0.000000 0.000000 0.040322
#
#
# Mechanical properties :
#
#
# Convention : Reuss Voigt Hill
#
# Bulk Modulus (GPa) = 42.42744 58.82746 50.62745
# Shear Modulus (GPa) = 24.16552 26.05517 25.11034
#
# Velocity S-wave (km/s) = 3.72905 3.87210 3.80125
# Velocity P-wave (km/s) = 6.55404 7.33775 6.95694
#
# Compressibility (1/GPa) = 0.02356965
#
# Stress axis : x y z
#
# Youngs Moduli (GPa) = 42.93351 74.64960 82.83982
#
# Poissons Ratio (x) = 0.24565 0.20690
# Poissons Ratio (y) = 0.14128 0.56385
# Poissons Ratio (z) = 0.10723 0.50810
#
# Static dielectric constant tensor:
#      x y z
#    x 1.591650 0.000000 0.000000 
#    y 0.000000 1.572850 0.000000 
#    z 0.000000 0.000000 1.606850 
# 
# From -- ./inp_files/22383.got.cif
#   From: 2010.05.17/outbox.cif.g08.bks.cpg/sg40_12_cif.got.tgz:22383.got - 2010.06.03 18:35:42.
