data_PCOD9362242
_publ_section_title
;
Structure prediction by ZEFSAII (Michael W. Deem and Ramdas Pophale) SiO2 
 PCOD9362242
Probable space group: A M A 2
;
_chemical_formula_sum "Si O2"
_cell_formula_units_Z 48
_cell_length_a 8.786095
_cell_length_b 33.702959
_cell_length_c 7.310391
_cell_angle_alpha 90.000000
_cell_angle_beta 90.000000
_cell_angle_gamma 90.000000
_cell_volume 2164.733973
_symmetry_space_group_name_H-M "A M A 2"
_symmetry_group_IT_number 40
_symmetry_cell_setting 'orthorhombic'
loop_
_space_group_symop_operation_xyz
x,y,z
-x,-y,z
1/2-x,y,z
1/2+x,-y,z
x,1/2+y,1/2+z
-x,1/2-y,1/2+z
1/2-x,1/2+y,1/2+z
1/2+x,1/2-y,1/2+z
loop_
_atom_site_type_symbol
_atom_site_label
_atom_site_fract_x
_atom_site_fract_y
_atom_site_fract_z
Si Si1 0.068636 0.619044 0.629170
Si Si2 0.066116 0.541263 0.172441
Si Si3 0.430793 0.460717 0.584574
Si Si4 0.077790 0.212787 0.737700
Si Si5 0.078143 0.203849 0.173418
Si Si6 0.068426 0.128055 0.688736
O O1 0.250000 0.614926 0.663542
O O2 0.013368 0.660261 0.718112
O O3 0.050160 0.623039 0.408751
O O4 0.980639 0.579593 0.682225
O O5 0.250000 0.539711 0.167119
O O6 0.017182 0.585652 0.106248
O O7 0.000000 0.500000 0.093548
O O8 0.009045 0.540836 0.383704
O O9 0.500000 0.500000 0.673872
O O10 0.250000 0.463577 0.566110
O O11 0.250000 0.217261 0.669311
O O12 0.007518 0.172641 0.648732
O O13 0.999746 0.255188 0.722741
O O14 0.084721 0.204294 0.953373
O O15 0.250000 0.204626 0.244222
O O16 0.250000 0.130442 0.653530
#
# Coordination Sequence:
#
# PCOD9362242 Si02
#       6
#     8   8   8   8   8   8
#     4   8  14  26  39  51  74 106 136 168 209 252
#     4   9  14  21  32  47  71 102 134 166 204 248
#     4  10  16  21  31  49  73 101 134 167 202 246
#     4   9  17  30  46  63  86 116 148 180 216 261
#     4   9  18  31  46  65  89 116 146 183 224 261
#     4   7  12  23  37  51  72 105 136 164 204 250
#
# _framework density 22.173624
#
# number of rings (size 3 to 8) (size 9 to 14) (size 15 to 20)
#    0.000    3.333    0.000    6.000    0.000    1.333 
#    0.000    7.500    0.000    0.000    0.000    0.000 
#    0.000    1.333    0.000    6.000    0.000    9.333 
#
# Total GULP energy -133626.556811 kJ/mol
# GULP energy per Si atom -5567.773200 kJ/mol
# Density = 2.212316 g / cm^3
# Si number density = 22.173624 Si / 1000 Ang^3
#
#
#
# Elastic Constant Matrix: (Units=GPa)
#
#
# Indices 1 2 3 4 5 6 
#
# 1 52.5669 62.6215 -4.3746 0.0000 0.0000 0.0000
# 2 62.6215 267.0567 -26.7538 0.0000 0.0000 0.0000
# 3 -4.3746 -26.7538 42.7722 0.0000 0.0000 0.0000
# 4 0.0000 0.0000 0.0000 3.3517 0.0000 0.0000
# 5 0.0000 0.0000 0.0000 0.0000 -0.2153 0.0000
# 6 0.0000 0.0000 0.0000 0.0000 0.0000 40.6291
#
#
#
# Elastic Compliance Matrix: (Units=1/GPa)
#
#
# Indices 1 2 3 4 5 6 
#
# 1 0.026460 -0.006330 -0.001253 0.000000 0.000000 0.000000
# 2 -0.006330 0.005509 0.002799 0.000000 0.000000 0.000000
# 3 -0.001253 0.002799 0.025002 0.000000 0.000000 0.000000
# 4 0.000000 0.000000 0.000000 0.298353 0.000000 0.000000
# 5 0.000000 0.000000 0.000000 0.000000 -4.644510 0.000000
# 6 0.000000 0.000000 0.000000 0.000000 0.000000 0.024613
#
#
# Mechanical properties :
#
#
# Convention : Reuss Voigt Hill
#
# Bulk Modulus (GPa) = 21.09627 47.26465 34.18046
# Shear Modulus (GPa) = -1.17947 30.81330 14.81691
#
# Velocity S-wave (km/s) = -0.73012 3.73183 2.58780
# Velocity P-wave (km/s) = 2.97052 6.31907 4.93734
#
# Compressibility (1/GPa) = 0.04740175
#
# Stress axis : x y z
#
# Youngs Moduli (GPa) = 37.79296 181.51429 39.99684
#
# Poissons Ratio (x) = 1.14900 0.05012
# Poissons Ratio (y) = 0.23923 -0.11193
# Poissons Ratio (z) = 0.04736 -0.50798
#
# Static dielectric constant tensor:
#      x y z
#    x 1.754990 0.000000 0.000000 
#    y 0.000000 1.951890 0.000000 
#    z 0.000000 0.000000 1.927340 
# 
# From -- ./inp_files/10453.got.cif
#   From: 2010.05.17/outbox.cif.g08.bks.cpg/sg40_6_cif.got.tgz:10453.got - 2010.06.03 18:35:42.
