data_PCOD9362471
_publ_section_title
;
Structure prediction by ZEFSAII (Michael W. Deem and Ramdas Pophale) SiO2 
 PCOD9362471
Probable space group: A M A 2
;
_chemical_formula_sum "Si O2"
_cell_formula_units_Z 64
_cell_length_a 8.683946
_cell_length_b 18.874117
_cell_length_c 27.163431
_cell_angle_alpha 90.000000
_cell_angle_beta 90.000000
_cell_angle_gamma 90.000000
_cell_volume 4452.135583
_symmetry_space_group_name_H-M "A M A 2"
_symmetry_group_IT_number 40
_symmetry_cell_setting 'orthorhombic'
loop_
_space_group_symop_operation_xyz
x,y,z
-x,-y,z
1/2-x,y,z
1/2+x,-y,z
x,1/2+y,1/2+z
-x,1/2-y,1/2+z
1/2-x,1/2+y,1/2+z
1/2+x,1/2-y,1/2+z
loop_
_atom_site_type_symbol
_atom_site_label
_atom_site_fract_x
_atom_site_fract_y
_atom_site_fract_z
Si Si1 0.064714 0.669174 0.666970
Si Si2 0.066438 0.421266 0.758725
Si Si3 0.933717 0.787762 0.724540
Si Si4 0.064783 0.576991 0.574900
Si Si5 0.434760 0.334148 0.373791
Si Si6 0.065165 0.077725 0.961792
Si Si7 0.566679 0.922085 0.781404
Si Si8 0.933254 0.299340 0.816297
O O1 0.250000 0.672041 0.670155
O O2 0.018391 0.635044 0.614991
O O3 0.003008 0.617754 0.710422
O O4 0.994948 0.746896 0.676892
O O5 0.250000 0.422614 0.754490
O O6 0.000000 0.500000 0.762060
O O7 0.016943 0.373217 0.805527
O O8 0.750000 0.776105 0.729256
O O9 0.964017 0.870294 0.734850
O O10 0.020844 0.747885 0.768931
O O11 0.250000 0.572779 0.575712
O O12 0.018144 0.591910 0.518506
O O13 0.000000 0.500000 0.588789
O O14 0.250000 0.338236 0.373912
O O15 0.501292 0.364625 0.424153
O O16 0.496740 0.383728 0.329516
O O17 0.477779 0.252558 0.361185
O O18 0.250000 0.075607 0.959066
O O19 0.000000 0.000000 0.948434
O O20 0.750000 0.925838 0.788194
O O21 0.500000 0.000000 0.775492
O O22 0.750000 0.310695 0.817172
#
# Coordination Sequence:
#
# PCOD9362471 Si02
#       8
#     8   8   8   8   8   8   8   8
#     4  10  18  29  44  61  82 109 141 172 206 244
#     4  11  20  29  42  61  85 111 140 170 203 242
#     4   9  17  28  41  59  81 106 136 168 203 243
#     4   9  19  31  43  60  81 108 140 174 207 240
#     4  10  19  30  44  61  82 109 140 171 206 245
#     4  10  19  31  44  59  82 109 140 175 208 241
#     4  10  19  29  42  60  83 110 140 171 203 242
#     4   9  17  29  43  59  80 106 136 169 203 241
#
# _framework density 14.375124
#
# number of rings (size 3 to 8) (size 9 to 14) (size 15 to 20)
#    0.000    2.250    0.000    5.625    0.000    5.500 
#    0.000    0.000    0.000    0.000    0.000    0.000 
#    0.000    1.000    0.000    6.500    0.000    5.250 
#
# Total GULP energy -178323.642469 kJ/mol
# GULP energy per Si atom -5572.613827 kJ/mol
# Density = 1.434241 g / cm^3
# Si number density = 14.375124 Si / 1000 Ang^3
#
#
#
# Elastic Constant Matrix: (Units=GPa)
#
#
# Indices 1 2 3 4 5 6 
#
# 1 50.7253 28.7742 18.3186 0.0000 0.0000 0.0000
# 2 28.7742 88.5943 36.3779 0.0000 0.0000 0.0000
# 3 18.3186 36.3779 62.6859 0.0000 0.0000 0.0000
# 4 0.0000 0.0000 0.0000 26.0233 0.0000 0.0000
# 5 0.0000 0.0000 0.0000 0.0000 13.9558 0.0000
# 6 0.0000 0.0000 0.0000 0.0000 0.0000 22.2866
#
#
#
# Elastic Compliance Matrix: (Units=1/GPa)
#
#
# Indices 1 2 3 4 5 6 
#
# 1 0.024695 -0.006639 -0.003364 0.000000 0.000000 0.000000
# 2 -0.006639 0.016604 -0.007695 0.000000 0.000000 0.000000
# 3 -0.003364 -0.007695 0.021401 0.000000 0.000000 0.000000
# 4 0.000000 0.000000 0.000000 0.038427 0.000000 0.000000
# 5 0.000000 0.000000 0.000000 0.000000 0.071655 0.000000
# 6 0.000000 0.000000 0.000000 0.000000 0.000000 0.044870
#
#
# Mechanical properties :
#
#
# Convention : Reuss Voigt Hill
#
# Bulk Modulus (GPa) = 36.62554 40.99409 38.80981
# Shear Modulus (GPa) = 19.07311 20.35545 19.71428
#
# Velocity S-wave (km/s) = 3.64650 3.76709 3.70728
# Velocity P-wave (km/s) = 6.57746 6.89206 6.73660
#
# Compressibility (1/GPa) = 0.02730335
#
# Stress axis : x y z
#
# Youngs Moduli (GPa) = 40.49401 60.22817 46.72656
#
# Poissons Ratio (x) = 0.39988 0.15717
# Poissons Ratio (y) = 0.26886 0.35957
# Poissons Ratio (z) = 0.13620 0.46346
#
# Static dielectric constant tensor:
#      x y z
#    x 1.484600 0.000000 0.000000 
#    y 0.000000 1.485230 0.000000 
#    z 0.000000 0.000000 1.478010 
# 
# From -- ./inp_files/25526.got.cif
#   From: 2010.05.17/outbox.cif.g08.bks.cpg/sg40_13_cif.got.tgz:25526.got - 2010.06.03 18:35:42.
