data_PCOD9362983
_publ_section_title
;
Structure prediction by ZEFSAII (Michael W. Deem and Ramdas Pophale) SiO2 
 PCOD9362983
Probable space group: A M A 2
;
_chemical_formula_sum "Si O2"
_cell_formula_units_Z 32
_cell_length_a 11.441356
_cell_length_b 9.669392
_cell_length_c 10.885668
_cell_angle_alpha 90.000000
_cell_angle_beta 90.000000
_cell_angle_gamma 90.000000
_cell_volume 1204.291859
_symmetry_space_group_name_H-M "A M A 2"
_symmetry_group_IT_number 40
_symmetry_cell_setting 'orthorhombic'
loop_
_space_group_symop_operation_xyz
x,y,z
-x,-y,z
1/2-x,y,z
1/2+x,-y,z
x,1/2+y,1/2+z
-x,1/2-y,1/2+z
1/2-x,1/2+y,1/2+z
1/2+x,1/2-y,1/2+z
loop_
_atom_site_type_symbol
_atom_site_label
_atom_site_fract_x
_atom_site_fract_y
_atom_site_fract_z
Si Si1 0.250000 0.946880 0.434940
Si Si2 0.500000 0.000000 0.805534
Si Si3 0.498350 0.796227 0.193623
Si Si4 0.750000 0.989462 0.804951
Si Si5 0.500000 0.500000 0.915889
Si Si6 0.750000 0.764259 0.127373
Si Si7 0.750000 0.185776 0.177061
O O1 0.372479 0.013749 0.476729
O O2 0.250000 0.795309 0.491419
O O3 0.250000 0.926259 0.288762
O O4 0.502084 0.133742 0.718559
O O5 0.374968 0.004197 0.872383
O O6 0.487801 0.868125 0.326676
O O7 0.625835 0.837212 0.145776
O O8 0.379393 0.828080 0.119854
O O9 0.750000 0.842926 0.732275
O O10 0.750000 0.127195 0.717047
#
# Coordination Sequence:
#
# PCOD9362983 Si02
#       7
#     4   4   8   4   4   4   4
#     4  10  21  33  50  81 115 138 167 226 282 309
#     4   8  14  25  44  71  92 118 168 214 240 283
#     4   9  17  31  52  76 101 138 180 214 256 322
#     4   8  14  25  44  67  88 122 167 202 237 299
#     4  10  20  35  54  79 110 144 178 216 268 327
#     4  10  19  31  52  79 103 132 179 228 264 303
#     4   8  16  31  48  69 100 136 169 204 259 317
#
# _framework density 26.571632000000001
#
# number of rings (size 3 to 8) (size 9 to 14) (size 15 to 20)
#    0.000    3.000    0.000    0.750    0.000    6.000 
#    0.000    0.000    0.000   19.500    0.000   45.500 
#    0.000    0.000    0.000    0.000    0.000    0.000 
#
# Total GULP energy -89239.491436 kJ/mol
# GULP energy per Si atom -5577.468215 kJ/mol
# Density = 2.651115 g / cm^3
# Si number density = 26.571632 Si / 1000 Ang^3
#
#
#
# Elastic Constant Matrix: (Units=GPa)
#
#
# Indices 1 2 3 4 5 6 
#
# 1 417.3693 18.5396 31.9125 0.0000 0.0000 0.0000
# 2 18.5396 106.2931 18.7604 0.0000 0.0000 0.0000
# 3 31.9125 18.7604 42.3750 0.0000 0.0000 0.0000
# 4 0.0000 0.0000 0.0000 27.9773 0.0000 0.0000
# 5 0.0000 0.0000 0.0000 0.0000 -3.6717 0.0000
# 6 0.0000 0.0000 0.0000 0.0000 0.0000 19.8384
#
#
#
# Elastic Compliance Matrix: (Units=1/GPa)
#
#
# Indices 1 2 3 4 5 6 
#
# 1 0.002544 -0.000115 -0.001865 0.000000 0.000000 0.000000
# 2 -0.000115 0.010211 -0.004434 0.000000 0.000000 0.000000
# 3 -0.001865 -0.004434 0.026966 0.000000 0.000000 0.000000
# 4 0.000000 0.000000 0.000000 0.035743 0.000000 0.000000
# 5 0.000000 0.000000 0.000000 0.000000 -0.272353 0.000000
# 6 0.000000 0.000000 0.000000 0.000000 0.000000 0.050407
#
#
# Mechanical properties :
#
#
# Convention : Reuss Voigt Hill
#
# Bulk Modulus (GPa) = 37.18392 78.27361 57.72877
# Shear Modulus (GPa) = -40.09958 41.95045 0.92543
#
# Velocity S-wave (km/s) = -3.88894 3.97768 0.59079
# Velocity P-wave (km/s) = 2.47810 7.11460 4.71575
#
# Compressibility (1/GPa) = 0.02689334
#
# Stress axis : x y z
#
# Youngs Moduli (GPa) = 393.13739 97.93793 37.08312
#
# Poissons Ratio (x) = 0.01121 0.06916
# Poissons Ratio (y) = 0.04502 0.16443
# Poissons Ratio (z) = 0.73317 0.43428
#
# Static dielectric constant tensor:
#      x y z
#    x 2.170770 0.000000 0.000000 
#    y 0.000000 2.058910 0.000000 
#    z 0.000000 0.000000 1.999260 
# 
# From -- ./inp_files/10920.got.cif
#   From: 2010.05.17/outbox.cif.g08.bks.cpg/sg40_6_cif.got.tgz:10920.got - 2010.06.03 18:35:42.
