data_PCOD9362193
_publ_section_title
;
Structure prediction by ZEFSAII (Michael W. Deem and Ramdas Pophale) SiO2 
 PCOD9362193
Probable space group: A B M 2
;
_chemical_formula_sum "Si O2"
_cell_formula_units_Z 24
_cell_length_a 15.000000
_cell_length_b 9.000000
_cell_length_c 18.000000
_cell_angle_alpha 90.000000
_cell_angle_beta 90.000000
_cell_angle_gamma 90.000000
_cell_volume 2430.000000
_symmetry_space_group_name_H-M "A B M 2"
_symmetry_group_IT_number 39
_symmetry_cell_setting 'orthorhombic'
loop_
_space_group_symop_operation_xyz
x,y,z
-x,-y,z
-x,1/2+y,z
x,1/2-y,z
x,1/2+y,1/2+z
-x,1/2-y,1/2+z
-x,y,1/2+z
x,-y,1/2+z
loop_
_atom_site_type_symbol
_atom_site_label
_atom_site_fract_x
_atom_site_fract_y
_atom_site_fract_z
Si Si1 0.596727 0.573913 0.938330
Si Si2 0.904685 0.072500 0.578345
Si Si3 0.407151 0.578066 0.192653
Si Si4 0.092911 0.574427 0.757206
Si Si5 0.288374 0.572039 0.814239
Si Si6 0.284381 0.579398 0.052560
O O1 0.500000 0.500000 0.924899
O O2 0.587057 0.750000 0.933170
O O3 0.674213 0.512458 0.885132
O O4 0.639013 0.520594 0.015271
O O5 0.903723 0.250000 0.562506
O O6 0.900558 0.053393 0.668032
O O7 0.814244 0.993219 0.548954
O O8 0.000000 0.000000 0.554382
O O9 0.500000 0.500000 0.167939
O O10 0.426298 0.750000 0.215901
O O11 0.363263 0.475303 0.255073
O O12 0.325678 0.588125 0.134613
O O13 0.085286 0.750000 0.771144
O O14 0.187513 0.524836 0.792111
O O15 0.000000 0.500000 0.782452
O O16 0.287984 0.750000 0.823180
O O17 0.281679 0.750000 0.023221
#
# Coordination Sequence:
#
# PCOD9362193 Si02
#       6
#     8   8   8   8   8   8
#     4  12  26  44  64  87 119 162 205 251 306 367
#     4  10  19  35  59  91 125 161 200 247 304 359
#     4  11  23  37  58  87 118 152 196 249 302 356
#     4   9  19  34  58  89 122 158 195 242 297 354
#     4  11  22  40  62  88 121 158 201 248 300 359
#     4  11  23  40  62  90 121 159 203 251 303 361
#
# _framework density 9.8765429999999999
#
# number of rings (size 3 to 8) (size 9 to 14) (size 15 to 20)
#    0.000    1.333    1.667    4.500    0.000    5.333 
#    0.000    0.833    0.000    2.000    0.000    0.000 
#    0.000    0.000    0.000    0.000    0.000    0.000 
#
# Total GULP energy -133840.268462 kJ/mol
# GULP energy per Si atom -5576.677853 kJ/mol
# Density = 0.985406 g / cm^3
# Si number density = 9.876543 Si / 1000 Ang^3
#
#
#
# Elastic Constant Matrix: (Units=GPa)
#
#
# Indices 1 2 3 4 5 6 
#
# 1 146.0883 48.5805 -9.1877 0.0000 0.0000 0.0000
# 2 48.5805 127.1052 8.1790 0.0000 0.0000 0.0000
# 3 -9.1877 8.1790 16.8534 0.0000 0.0000 0.0000
# 4 0.0000 0.0000 0.0000 21.3034 0.0000 0.0000
# 5 0.0000 0.0000 0.0000 0.0000 26.2756 0.0000
# 6 0.0000 0.0000 0.0000 0.0000 0.0000 34.4327
#
#
#
# Elastic Compliance Matrix: (Units=1/GPa)
#
#
# Indices 1 2 3 4 5 6 
#
# 1 0.008458 -0.003643 0.006379 0.000000 0.000000 0.000000
# 2 -0.003643 0.009690 -0.006689 0.000000 0.000000 0.000000
# 3 0.006379 -0.006689 0.066059 0.000000 0.000000 0.000000
# 4 0.000000 0.000000 0.000000 0.046941 0.000000 0.000000
# 5 0.000000 0.000000 0.000000 0.000000 0.038058 0.000000
# 6 0.000000 0.000000 0.000000 0.000000 0.000000 0.029042
#
#
# Mechanical properties :
#
#
# Convention : Reuss Voigt Hill
#
# Bulk Modulus (GPa) = 13.10598 42.79894 27.95246
# Shear Modulus (GPa) = 21.59008 32.56737 27.07872
#
# Velocity S-wave (km/s) = 3.30964 4.06485 3.70653
# Velocity P-wave (km/s) = 4.61023 6.61398 5.70083
#
# Compressibility (1/GPa) = 0.07630103
#
# Stress axis : x y z
#
# Youngs Moduli (GPa) = 118.23348 103.19565 15.13799
#
# Poissons Ratio (x) = 0.37595 -0.09656
# Poissons Ratio (y) = 0.43074 0.10126
# Poissons Ratio (z) = -0.75420 0.69026
#
# Static dielectric constant tensor:
#      x y z
#    x 1.647200 0.000000 0.000000 
#    y 0.000000 1.690010 0.000000 
#    z 0.000000 0.000000 1.853030 
# 
# From -- ./inp_files/12639.got.cif
#   From: 2010.05.17/outbox.ucp.g08.bks.cvg/sg39_7_cif.got.tgz:12639.got - 2010.06.11 10:41:16.
