data_PCOD9362658
_publ_section_title
;
Structure prediction by ZEFSAII (Michael W. Deem and Ramdas Pophale) SiO2 
 PCOD9362658
Probable space group: A M A 2
;
_chemical_formula_sum "Si O2"
_cell_formula_units_Z 64
_cell_length_a 15.724100
_cell_length_b 8.398485
_cell_length_c 24.374662
_cell_angle_alpha 90.000000
_cell_angle_beta 90.000000
_cell_angle_gamma 90.000000
_cell_volume 3218.884178
_symmetry_space_group_name_H-M "A M A 2"
_symmetry_group_IT_number 40
_symmetry_cell_setting 'orthorhombic'
loop_
_space_group_symop_operation_xyz
x,y,z
-x,-y,z
1/2-x,y,z
1/2+x,-y,z
x,1/2+y,1/2+z
-x,1/2-y,1/2+z
1/2-x,1/2+y,1/2+z
1/2+x,1/2-y,1/2+z
loop_
_atom_site_type_symbol
_atom_site_label
_atom_site_fract_x
_atom_site_fract_y
_atom_site_fract_z
Si Si1 0.006326 0.187863 0.751130
Si Si2 0.085676 0.401259 0.664989
Si Si3 0.151398 0.338478 0.960367
Si Si4 0.093494 0.418790 0.077661
Si Si5 0.154411 0.724797 0.684506
Si Si6 0.653332 0.779925 0.436511
Si Si7 0.511733 0.192124 0.372458
Si Si8 0.154818 0.262069 0.560143
O O1 0.912425 0.246815 0.733221
O O2 0.074827 0.258404 0.707974
O O3 0.028415 0.246655 0.811653
O O4 0.000000 0.000000 0.747790
O O5 0.155747 0.534616 0.675694
O O6 0.093022 0.338956 0.603701
O O7 0.000000 0.500000 0.671185
O O8 0.250000 0.283198 0.959956
O O9 0.153352 0.528388 0.946517
O O10 0.087997 0.268480 0.914655
O O11 0.109753 0.324329 0.020874
O O12 0.115848 0.313222 0.130561
O O13 0.153568 0.573372 0.072545
O O14 0.000000 0.500000 0.079728
O O15 0.250000 0.783295 0.694312
O O16 0.750000 0.735283 0.420688
O O17 0.577964 0.741272 0.395070
O O18 0.633189 0.711532 0.496803
O O19 0.500000 0.000000 0.370838
O O20 0.250000 0.322807 0.569359
#
# Coordination Sequence:
#
# PCOD9362658 Si02
#       8
#     8   8   8   8   8   8   8   8
#     4  11  24  42  59  78 109 150 198 245 294 357
#     4  10  21  37  56  79 110 145 185 232 291 352
#     4   9  17  31  53  85 117 149 190 237 286 347
#     4  11  19  32  57  87 122 159 194 233 285 347
#     4  11  22  37  58  87 117 150 192 244 300 357
#     4   8  16  30  53  82 111 143 184 227 277 343
#     4  10  19  35  57  79 107 146 192 241 290 339
#     4  10  18  32  54  83 113 144 182 225 271 332
#
# _framework density 19.882666
#
# number of rings (size 3 to 8) (size 9 to 14) (size 15 to 20)
#    0.000    2.000    0.000    7.875    0.000    0.500 
#    0.000    6.875    0.000    1.500    0.000    0.000 
#    0.000    0.000    0.000    0.000    0.000    0.000 
#
# Total GULP energy -178516.080430 kJ/mol
# GULP energy per Si atom -5578.627513 kJ/mol
# Density = 1.983741 g / cm^3
# Si number density = 19.882666 Si / 1000 Ang^3
#
#
#
# Elastic Constant Matrix: (Units=GPa)
#
#
# Indices 1 2 3 4 5 6 
#
# 1 104.6286 7.9531 32.6489 0.0000 0.0000 0.0000
# 2 7.9531 41.8339 11.9268 0.0000 0.0000 0.0000
# 3 32.6489 11.9268 72.3727 0.0000 0.0000 0.0000
# 4 0.0000 0.0000 0.0000 27.6631 0.0000 0.0000
# 5 0.0000 0.0000 0.0000 0.0000 14.6902 0.0000
# 6 0.0000 0.0000 0.0000 0.0000 0.0000 8.0922
#
#
#
# Elastic Compliance Matrix: (Units=1/GPa)
#
#
# Indices 1 2 3 4 5 6 
#
# 1 0.011144 -0.000719 -0.004909 0.000000 0.000000 0.000000
# 2 -0.000719 0.025129 -0.003817 0.000000 0.000000 0.000000
# 3 -0.004909 -0.003817 0.016661 0.000000 0.000000 0.000000
# 4 0.000000 0.000000 0.000000 0.036149 0.000000 0.000000
# 5 0.000000 0.000000 0.000000 0.000000 0.068073 0.000000
# 6 0.000000 0.000000 0.000000 0.000000 0.000000 0.123576
#
#
# Mechanical properties :
#
#
# Convention : Reuss Voigt Hill
#
# Bulk Modulus (GPa) = 29.37339 35.98810 32.68075
# Shear Modulus (GPa) = 16.07874 21.17617 18.62745
#
# Velocity S-wave (km/s) = 2.84682 3.26706 3.06415
# Velocity P-wave (km/s) = 5.06076 5.68956 5.38435
#
# Compressibility (1/GPa) = 0.03404442
#
# Stress axis : x y z
#
# Youngs Moduli (GPa) = 89.73390 39.79473 60.02098
#
# Poissons Ratio (x) = 0.02862 0.29463
# Poissons Ratio (y) = 0.06453 0.22909
# Poissons Ratio (z) = 0.44049 0.15189
#
# Static dielectric constant tensor:
#      x y z
#    x 1.736880 0.000000 0.000000 
#    y 0.000000 1.734710 0.000000 
#    z 0.000000 0.000000 1.679250 
# 
# From -- ./inp_files/23391.got.cif
#   From: 2010.05.17/outbox.cif.g08.bks.cpg/sg40_12_cif.got.tgz:23391.got - 2010.06.03 18:35:42.
