data_PCOD9362139
_publ_section_title
;
Structure prediction by ZEFSAII (Michael W. Deem and Ramdas Pophale) SiO2 
 PCOD9362139
Probable space group: A B M 2
;
_chemical_formula_sum "Si O2"
_cell_formula_units_Z 40
_cell_length_a 9.564157
_cell_length_b 13.923200
_cell_length_c 11.966795
_cell_angle_alpha 90.000000
_cell_angle_beta 90.000000
_cell_angle_gamma 90.000000
_cell_volume 1593.542349
_symmetry_space_group_name_H-M "A B M 2"
_symmetry_group_IT_number 39
_symmetry_cell_setting 'orthorhombic'
loop_
_space_group_symop_operation_xyz
x,y,z
-x,-y,z
-x,1/2+y,z
x,1/2-y,z
x,1/2+y,1/2+z
-x,1/2-y,1/2+z
-x,y,1/2+z
x,-y,1/2+z
loop_
_atom_site_type_symbol
_atom_site_label
_atom_site_fract_x
_atom_site_fract_y
_atom_site_fract_z
Si Si1 0.250004 0.352532 0.067830
Si Si2 0.749998 0.640757 0.399584
Si Si3 0.750002 0.559373 0.623821
Si Si4 0.505230 0.140821 0.748304
Si Si5 0.005237 0.859179 0.748306
O O1 0.250002 0.250000 0.002665
O O2 0.250000 0.466216 0.040242
O O3 0.386446 0.350180 0.145841
O O4 0.113569 0.350178 0.145848
O O5 0.750000 0.750000 0.355612
O O6 0.749996 0.641742 0.531693
O O7 0.602977 0.603875 0.349852
O O8 0.897020 0.603873 0.349855
O O9 0.618226 0.573838 0.704266
O O10 0.881783 0.573840 0.704259
O O11 0.453474 0.250000 0.773451
O O12 0.953479 0.750000 0.773452
#
# Coordination Sequence:
#
# PCOD9362139 Si02
#       5
#     8   8   8   8   8
#     4   9  20  39  59  85 129 169 198 259 324 353
#     4   9  20  39  62  94 136 167 194 254 326 373
#     4  12  20  36  69  95 117 168 222 249 300 382
#     4   9  19  38  62  91 127 160 200 258 314 371
#     4   9  19  38  62  91 127 160 200 258 314 371
#
# _framework density 25.101309000000001
#
# number of rings (size 3 to 8) (size 9 to 14) (size 15 to 20)
#    0.000    2.400    0.000    5.400    0.000    0.000 
#    0.000   20.000    0.000   21.600    0.000    2.800 
#    0.000    0.000    0.000    0.000    0.000    0.000 
#
# Total GULP energy -111447.894128 kJ/mol
# GULP energy per Si atom -5572.394706 kJ/mol
# Density = 2.504418 g / cm^3
# Si number density = 25.101309 Si / 1000 Ang^3
#
#
#
# Elastic Constant Matrix: (Units=GPa)
#
#
# Indices 1 2 3 4 5 6 
#
# 1 170.3382 30.1211 44.1014 0.0000 0.0000 0.0000
# 2 30.1211 135.5016 10.8827 0.0000 0.0000 0.0000
# 3 44.1014 10.8827 75.4808 0.0000 0.0000 0.0000
# 4 0.0000 0.0000 0.0000 13.3865 0.0000 0.0000
# 5 0.0000 0.0000 0.0000 0.0000 1.8625 0.0000
# 6 0.0000 0.0000 0.0000 0.0000 0.0000 40.5091
#
#
#
# Elastic Compliance Matrix: (Units=1/GPa)
#
#
# Indices 1 2 3 4 5 6 
#
# 1 0.007125 -0.001264 -0.003981 0.000000 0.000000 0.000000
# 2 -0.001264 0.007691 -0.000370 0.000000 0.000000 0.000000
# 3 -0.003981 -0.000370 0.015628 0.000000 0.000000 0.000000
# 4 0.000000 0.000000 0.000000 0.074702 0.000000 0.000000
# 5 0.000000 0.000000 0.000000 0.000000 0.536919 0.000000
# 6 0.000000 0.000000 0.000000 0.000000 0.000000 0.024686
#
#
# Mechanical properties :
#
#
# Convention : Reuss Voigt Hill
#
# Bulk Modulus (GPa) = 52.04755 61.28120 56.66438
# Shear Modulus (GPa) = 7.30584 30.89930 19.10257
#
# Velocity S-wave (km/s) = 1.70788 3.51234 2.76165
# Velocity P-wave (km/s) = 4.96681 6.39651 5.72645
#
# Compressibility (1/GPa) = 0.01921320
#
# Stress axis : x y z
#
# Youngs Moduli (GPa) = 140.35489 130.02678 63.98966
#
# Poissons Ratio (x) = 0.16437 0.25472
# Poissons Ratio (y) = 0.17742 0.02369
# Poissons Ratio (z) = 0.55869 0.04814
#
# Static dielectric constant tensor:
#      x y z
#    x 2.000450 0.000000 0.000000 
#    y 0.000000 2.201190 0.000000 
#    z 0.000000 0.000000 1.865480 
# 
# From -- ./inp_files/8093.got.cif
#   From: 2010.05.17/outbox.cif.g08.bks.cpg/sg39_5_cif.got.tgz:8093.got - 2010.06.03 18:22:40.
