data_PCOD9362536
_publ_section_title
;
Structure prediction by ZEFSAII (Michael W. Deem and Ramdas Pophale) SiO2 
 PCOD9362536
Probable space group: A M A 2
;
_chemical_formula_sum "Si O2"
_cell_formula_units_Z 64
_cell_length_a 8.630630
_cell_length_b 14.789546
_cell_length_c 28.499627
_cell_angle_alpha 90.000000
_cell_angle_beta 90.000000
_cell_angle_gamma 90.000000
_cell_volume 3637.780722
_symmetry_space_group_name_H-M "A M A 2"
_symmetry_group_IT_number 40
_symmetry_cell_setting 'orthorhombic'
loop_
_space_group_symop_operation_xyz
x,y,z
-x,-y,z
1/2-x,y,z
1/2+x,-y,z
x,1/2+y,1/2+z
-x,1/2-y,1/2+z
1/2-x,1/2+y,1/2+z
1/2+x,1/2-y,1/2+z
loop_
_atom_site_type_symbol
_atom_site_label
_atom_site_fract_x
_atom_site_fract_y
_atom_site_fract_z
Si Si1 0.432919 0.594179 0.230650
Si Si2 0.069556 0.855113 0.634690
Si Si3 0.565457 0.788485 0.260248
Si Si4 0.935491 0.100662 0.344955
Si Si5 0.067232 0.831231 0.166336
Si Si6 0.568282 0.593382 0.567913
Si Si7 0.935951 0.294116 0.040398
Si Si8 0.435295 0.899643 0.453955
O O1 0.500000 0.500000 0.249900
O O2 0.250000 0.598366 0.237366
O O3 0.472376 0.595542 0.174981
O O4 0.508823 0.685167 0.251910
O O5 0.250000 0.879407 0.637278
O O6 0.041111 0.751289 0.650058
O O7 0.006543 0.856665 0.581805
O O8 0.750000 0.792034 0.255516
O O9 0.511517 0.828489 0.309616
O O10 0.485490 0.848840 0.219171
O O11 0.750000 0.100594 0.339020
O O12 0.970354 0.121790 0.399520
O O13 0.000000 0.000000 0.335467
O O14 0.250000 0.803971 0.166370
O O15 0.049338 0.902121 0.124543
O O16 0.500000 0.500000 0.549663
O O17 0.750000 0.592194 0.558180
O O18 0.509870 0.690014 0.548362
O O19 0.750000 0.295617 0.045440
O O20 0.988163 0.331572 0.990554
O O21 0.250000 0.899472 0.459909
O O22 0.500000 0.000000 0.463200
#
# Coordination Sequence:
#
# PCOD9362536 Si02
#       8
#     8   8   8   8   8   8   8   8
#     4  11  21  35  53  76 108 144 181 220 262 309
#     4  10  18  30  48  72 100 133 174 214 254 301
#     4  11  21  34  54  80 107 140 179 216 261 313
#     4  10  21  38  58  81 107 134 168 213 265 319
#     4   9  17  31  47  68 100 136 173 213 256 298
#     4   9  19  32  49  73 103 140 177 213 253 299
#     4  10  20  35  53  76 106 139 175 216 263 313
#     4  10  21  37  58  82 105 132 167 211 264 318
#
# _framework density 17.593143999999999
#
# number of rings (size 3 to 8) (size 9 to 14) (size 15 to 20)
#    0.000    2.000    0.000    7.125    0.000    5.500 
#    0.000    3.750    0.000    0.750    0.000    1.750 
#    0.000    0.000    0.000    0.000    0.000    0.000 
#
# Total GULP energy -178441.482664 kJ/mol
# GULP energy per Si atom -5576.296333 kJ/mol
# Density = 1.755310 g / cm^3
# Si number density = 17.593144 Si / 1000 Ang^3
#
#
#
# Elastic Constant Matrix: (Units=GPa)
#
#
# Indices 1 2 3 4 5 6 
#
# 1 83.0127 31.0772 38.7796 0.0000 0.0000 0.0000
# 2 31.0772 83.7213 54.5142 0.0000 0.0000 0.0000
# 3 38.7796 54.5142 94.0750 0.0000 0.0000 0.0000
# 4 0.0000 0.0000 0.0000 17.4586 0.0000 0.0000
# 5 0.0000 0.0000 0.0000 0.0000 29.2942 0.0000
# 6 0.0000 0.0000 0.0000 0.0000 0.0000 24.3875
#
#
#
# Elastic Compliance Matrix: (Units=1/GPa)
#
#
# Indices 1 2 3 4 5 6 
#
# 1 0.015242 -0.002516 -0.004825 0.000000 0.000000 0.000000
# 2 -0.002516 0.019598 -0.010319 0.000000 0.000000 0.000000
# 3 -0.004825 -0.010319 0.018599 0.000000 0.000000 0.000000
# 4 0.000000 0.000000 0.000000 0.057278 0.000000 0.000000
# 5 0.000000 0.000000 0.000000 0.000000 0.034136 0.000000
# 6 0.000000 0.000000 0.000000 0.000000 0.000000 0.041005
#
#
# Mechanical properties :
#
#
# Convention : Reuss Voigt Hill
#
# Bulk Modulus (GPa) = 55.19478 56.61679 55.90578
# Shear Modulus (GPa) = 22.00532 23.32394 22.66463
#
# Velocity S-wave (km/s) = 3.54049 3.64502 3.59313
# Velocity P-wave (km/s) = 6.93934 7.06866 7.00430
#
# Compressibility (1/GPa) = 0.01811766
#
# Stress axis : x y z
#
# Youngs Moduli (GPa) = 65.60652 51.02688 53.76765
#
# Poissons Ratio (x) = 0.12839 0.25944
# Poissons Ratio (y) = 0.16507 0.55483
# Poissons Ratio (z) = 0.31657 0.52655
#
# Static dielectric constant tensor:
#      x y z
#    x 1.591280 0.000000 0.000000 
#    y 0.000000 1.620570 0.000000 
#    z 0.000000 0.000000 1.608130 
# 
# From -- ./inp_files/26464.got.cif
#   From: 2010.05.17/outbox.cif.g08.bks.cpg/sg40_14_cif.got.tgz:26464.got - 2010.06.03 18:35:42.
