data_PCOD9362926
_publ_section_title
;
Structure prediction by ZEFSAII (Michael W. Deem and Ramdas Pophale) SiO2 
 PCOD9362926
Probable space group: A M A 2
;
_chemical_formula_sum "Si O2"
_cell_formula_units_Z 64
_cell_length_a 8.285110
_cell_length_b 24.083674
_cell_length_c 19.879063
_cell_angle_alpha 90.000000
_cell_angle_beta 90.000000
_cell_angle_gamma 90.000000
_cell_volume 3966.586494
_symmetry_space_group_name_H-M "A M A 2"
_symmetry_group_IT_number 40
_symmetry_cell_setting 'orthorhombic'
loop_
_space_group_symop_operation_xyz
x,y,z
-x,-y,z
1/2-x,y,z
1/2+x,-y,z
x,1/2+y,1/2+z
-x,1/2-y,1/2+z
1/2-x,1/2+y,1/2+z
1/2+x,1/2-y,1/2+z
loop_
_atom_site_type_symbol
_atom_site_label
_atom_site_fract_x
_atom_site_fract_y
_atom_site_fract_z
Si Si1 0.442237 0.437206 0.464500
Si Si2 0.946822 0.664893 0.828721
Si Si3 0.055030 0.937468 0.241977
Si Si4 0.444594 0.659990 0.374077
Si Si5 0.053285 0.769904 0.456059
Si Si6 0.554883 0.118807 0.102936
Si Si7 0.442751 0.246210 0.103276
Si Si8 0.055509 0.725458 0.246271
O O1 0.500000 0.500000 0.457426
O O2 0.250000 0.437457 0.468401
O O3 0.493395 0.397337 0.403660
O O4 0.504791 0.409928 0.534323
O O5 0.750000 0.664357 0.829137
O O6 0.001277 0.606599 0.798222
O O7 1.000000 0.682968 0.903330
O O8 0.993989 0.715242 0.778778
O O9 0.250000 0.936533 0.241695
O O10 0.000274 0.914542 0.169109
O O11 0.000000 0.000000 0.253107
O O12 0.250000 0.658713 0.374289
O O13 0.493946 0.710498 0.423792
O O14 0.497453 0.678469 0.299395
O O15 0.250000 0.770916 0.456077
O O16 0.997768 0.772368 0.532874
O O17 0.750000 0.117893 0.102688
O O18 0.502972 0.182720 0.106635
O O19 0.250000 0.244884 0.101082
O O20 0.495416 0.277620 0.170528
O O21 0.250000 0.725342 0.245242
#
# Coordination Sequence:
#
# PCOD9362926 Si02
#       8
#     8   8   8   8   8   8   8   8
#     4  11  22  33  48  68  96 130 164 202 235 279
#     4   8  14  28  47  63  85 121 157 186 221 277
#     4  10  19  31  47  64  88 123 160 193 222 264
#     4   9  17  32  51  68  90 123 160 198 237 282
#     4   8  15  27  45  68  90 117 153 189 232 280
#     4  10  20  33  45  63  94 131 164 189 223 275
#     4  11  19  27  46  73  98 121 151 198 236 274
#     4   9  17  31  50  67  91 125 158 189 233 292
#
# _framework density 16.134779999999999
#
# number of rings (size 3 to 8) (size 9 to 14) (size 15 to 20)
#    0.000    2.500    2.500    2.625    0.000    1.500 
#    0.000    0.000    0.000    1.500    0.000    0.875 
#    0.000    4.000    0.000    0.000    0.000    0.000 
#
# Total GULP energy -178390.860349 kJ/mol
# GULP energy per Si atom -5574.714386 kJ/mol
# Density = 1.609806 g / cm^3
# Si number density = 16.134780 Si / 1000 Ang^3
#
#
#
# Elastic Constant Matrix: (Units=GPa)
#
#
# Indices 1 2 3 4 5 6 
#
# 1 8.3671 14.1191 16.7412 0.0000 0.0000 0.0000
# 2 14.1191 100.8211 78.4881 0.0000 0.0000 0.0000
# 3 16.7412 78.4881 159.2029 0.0000 0.0000 0.0000
# 4 0.0000 0.0000 0.0000 19.1680 0.0000 0.0000
# 5 0.0000 0.0000 0.0000 0.0000 26.0608 0.0000
# 6 0.0000 0.0000 0.0000 0.0000 0.0000 17.4057
#
#
#
# Elastic Compliance Matrix: (Units=1/GPa)
#
#
# Indices 1 2 3 4 5 6 
#
# 1 0.165210 -0.015598 -0.009683 0.000000 0.000000 0.000000
# 2 -0.015598 0.017569 -0.007021 0.000000 0.000000 0.000000
# 3 -0.009683 -0.007021 0.010761 0.000000 0.000000 0.000000
# 4 0.000000 0.000000 0.000000 0.052170 0.000000 0.000000
# 5 0.000000 0.000000 0.000000 0.000000 0.038372 0.000000
# 6 0.000000 0.000000 0.000000 0.000000 0.000000 0.057452
#
#
# Mechanical properties :
#
#
# Convention : Reuss Voigt Hill
#
# Bulk Modulus (GPa) = 7.75584 54.12089 30.93836
# Shear Modulus (GPa) = 11.13294 23.12975 17.13134
#
# Velocity S-wave (km/s) = 2.62963 3.79031 3.26201
# Velocity P-wave (km/s) = 3.74663 7.26437 5.77963
#
# Compressibility (1/GPa) = 0.12893512
#
# Stress axis : x y z
#
# Youngs Moduli (GPa) = 6.05291 56.91838 92.92716
#
# Poissons Ratio (x) = 0.88782 0.89981
# Poissons Ratio (y) = 0.09441 0.65248
# Poissons Ratio (z) = 0.05861 0.39965
#
# Static dielectric constant tensor:
#      x y z
#    x 1.560070 0.000000 0.000000 
#    y 0.000000 1.511150 0.000000 
#    z 0.000000 0.000000 1.567180 
# 
# From -- ./inp_files/19702.got.cif
#   From: 2010.05.17/outbox.cif.g08.bks.cpg/sg40_10_cif.got.tgz:19702.got - 2010.06.03 18:35:42.
