data_PCOD9362378
_publ_section_title
;
Structure prediction by ZEFSAII (Michael W. Deem and Ramdas Pophale) SiO2 
 PCOD9362378
Probable space group: A M A 2
;
_chemical_formula_sum "Si O2"
_cell_formula_units_Z 64
_cell_length_a 7.745959
_cell_length_b 19.394360
_cell_length_c 22.430754
_cell_angle_alpha 90.000000
_cell_angle_beta 90.000000
_cell_angle_gamma 90.000000
_cell_volume 3369.725459
_symmetry_space_group_name_H-M "A M A 2"
_symmetry_group_IT_number 40
_symmetry_cell_setting 'orthorhombic'
loop_
_space_group_symop_operation_xyz
x,y,z
-x,-y,z
1/2-x,y,z
1/2+x,-y,z
x,1/2+y,1/2+z
-x,1/2-y,1/2+z
1/2-x,1/2+y,1/2+z
1/2+x,1/2-y,1/2+z
loop_
_atom_site_type_symbol
_atom_site_label
_atom_site_fract_x
_atom_site_fract_y
_atom_site_fract_z
Si Si1 0.044620 0.370048 0.415260
Si Si2 0.543738 0.425094 0.099815
Si Si3 0.541487 0.578734 0.288260
Si Si4 0.456722 0.575185 0.961798
Si Si5 0.542342 0.774528 0.463876
Si Si6 0.040658 0.218645 0.093885
Si Si7 0.454920 0.075641 0.042554
Si Si8 0.945486 0.185174 0.691646
O O1 0.250000 0.363029 0.407091
O O2 0.977830 0.405224 0.355251
O O3 0.974419 0.293290 0.429855
O O4 0.017136 0.414386 0.474702
O O5 0.500000 0.500000 0.124910
O O6 0.750000 0.412393 0.102399
O O7 0.444353 0.369357 0.137656
O O8 0.486859 0.426087 0.031056
O O9 0.500000 0.500000 0.271524
O O10 0.750000 0.582996 0.286139
O O11 0.474797 0.639812 0.244881
O O12 0.500000 0.500000 0.935025
O O13 0.250000 0.578110 0.961217
O O14 0.520236 0.650664 0.940911
O O15 0.750000 0.774178 0.457990
O O16 0.506854 0.762290 0.534432
O O17 0.250000 0.219394 0.097270
O O18 0.979089 0.141091 0.080021
O O19 0.974489 0.249934 0.156392
O O20 0.250000 0.081738 0.041009
O O21 0.500000 0.000000 0.065139
O O22 0.750000 0.204039 0.709962
#
# Coordination Sequence:
#
# PCOD9362378 Si02
#       8
#     8   8   8   8   8   8   8   8
#     4   9  18  32  50  68  90 120 154 192 229 266
#     4  10  18  27  39  58  84 116 151 181 214 256
#     4  10  21  34  47  66  91 123 158 189 220 259
#     4   9  17  26  38  59  86 114 143 177 215 263
#     4   9  16  29  46  65  88 115 149 188 228 270
#     4   9  18  30  45  65  89 116 146 183 225 271
#     4  10  19  31  48  71  94 117 146 183 230 277
#     4  10  19  31  45  62  88 119 152 187 221 260
#
# _framework density 18.992645
#
# number of rings (size 3 to 8) (size 9 to 14) (size 15 to 20)
#    0.000    2.500    1.250    1.500    0.000    4.500 
#    0.000    0.000    0.000    0.000    0.000    0.875 
#    0.000    0.000    0.000    0.000    0.000    0.125 
#
# Total GULP energy -178228.030652 kJ/mol
# GULP energy per Si atom -5569.625958 kJ/mol
# Density = 1.894942 g / cm^3
# Si number density = 18.992645 Si / 1000 Ang^3
#
#
#
# Elastic Constant Matrix: (Units=GPa)
#
#
# Indices 1 2 3 4 5 6 
#
# 1 31.5555 -1.0255 3.2745 0.0000 0.0000 0.0000
# 2 -1.0255 145.1142 37.9402 0.0000 0.0000 0.0000
# 3 3.2745 37.9402 68.0306 0.0000 0.0000 0.0000
# 4 0.0000 0.0000 0.0000 27.7644 0.0000 0.0000
# 5 0.0000 0.0000 0.0000 0.0000 7.9396 0.0000
# 6 0.0000 0.0000 0.0000 0.0000 0.0000 13.6869
#
#
#
# Elastic Compliance Matrix: (Units=1/GPa)
#
#
# Indices 1 2 3 4 5 6 
#
# 1 0.031916 0.000734 -0.001946 0.000000 0.000000 0.000000
# 2 0.000734 0.008084 -0.004544 0.000000 0.000000 0.000000
# 3 -0.001946 -0.004544 0.017327 0.000000 0.000000 0.000000
# 4 0.000000 0.000000 0.000000 0.036017 0.000000 0.000000
# 5 0.000000 0.000000 0.000000 0.000000 0.125951 0.000000
# 6 0.000000 0.000000 0.000000 0.000000 0.000000 0.073063
#
#
# Mechanical properties :
#
#
# Convention : Reuss Voigt Hill
#
# Bulk Modulus (GPa) = 21.82613 36.11986 28.97299
# Shear Modulus (GPa) = 15.66707 23.51225 19.58966
#
# Velocity S-wave (km/s) = 2.87523 3.52229 3.21508
# Velocity P-wave (km/s) = 4.74757 5.96667 5.39169
#
# Compressibility (1/GPa) = 0.04581664
#
# Stress axis : x y z
#
# Youngs Moduli (GPa) = 31.33227 123.69615 57.71331
#
# Poissons Ratio (x) = -0.09082 0.11229
# Poissons Ratio (y) = -0.02301 0.26224
# Poissons Ratio (z) = 0.06096 0.56207
#
# Static dielectric constant tensor:
#      x y z
#    x 1.717640 0.000000 0.000000 
#    y 0.000000 1.735180 0.000000 
#    z 0.000000 0.000000 1.659050 
# 
# From -- ./inp_files/22510.got.cif
#   From: 2010.05.17/outbox.cif.g08.bks.cpg/sg40_12_cif.got.tgz:22510.got - 2010.06.03 18:35:42.
