data_PCOD9362071
_publ_section_title
;
Structure prediction by ZEFSAII (Michael W. Deem and Ramdas Pophale) SiO2 
 PCOD9362071
Probable space group: A B M 2
;
_chemical_formula_sum "Si O2"
_cell_formula_units_Z 48
_cell_length_a 12.203444
_cell_length_b 13.964577
_cell_length_c 13.457153
_cell_angle_alpha 90.000000
_cell_angle_beta 90.000000
_cell_angle_gamma 90.000000
_cell_volume 2293.313289
_symmetry_space_group_name_H-M "A B M 2"
_symmetry_group_IT_number 39
_symmetry_cell_setting 'orthorhombic'
loop_
_space_group_symop_operation_xyz
x,y,z
-x,-y,z
-x,1/2+y,z
x,1/2-y,z
x,1/2+y,1/2+z
-x,1/2-y,1/2+z
-x,y,1/2+z
x,-y,1/2+z
loop_
_atom_site_type_symbol
_atom_site_label
_atom_site_fract_x
_atom_site_fract_y
_atom_site_fract_z
Si Si1 0.050445 0.139065 0.592230
Si Si2 0.347698 0.455807 0.285412
Si Si3 0.117973 0.048950 0.794413
Si Si4 0.398402 0.571946 0.566184
Si Si5 0.151770 0.544330 0.512049
Si Si6 0.534292 0.145064 0.365658
O O1 0.060030 0.250000 0.567331
O O2 0.107906 0.116841 0.698252
O O3 0.922878 0.105036 0.588771
O O4 0.103661 0.063468 0.515436
O O5 0.218682 0.474479 0.283687
O O6 0.386470 0.407727 0.182550
O O7 0.399925 0.561726 0.306352
O O8 0.407439 0.389151 0.365819
O O9 0.138972 0.091901 0.903777
O O10 0.000000 0.000000 0.798827
O O11 0.500000 0.500000 0.558553
O O12 0.277885 0.534261 0.538977
O O13 0.423327 0.645626 0.478561
O O14 0.547563 0.250000 0.321355
#
# Coordination Sequence:
#
# PCOD9362071 Si02
#       6
#     8   8   8   8   8   8
#     4  11  24  42  67 101 131 174 231 275 331 409
#     4  11  23  43  70  92 138 176 222 280 337 395
#     4  12  21  43  71  91 131 183 219 273 345 402
#     4  12  21  43  69  93 131 183 219 273 340 400
#     4  11  23  43  68  95 140 175 220 282 350 395
#     4  11  24  42  67 100 131 175 227 272 336 408
#
# _framework density 20.930416999999998
#
# number of rings (size 3 to 8) (size 9 to 14) (size 15 to 20)
#    0.000    0.667   10.000    0.000    0.000    2.667 
#    0.000    5.833    0.000    0.000    0.000    0.000 
#    0.000    0.000    0.000    0.000    0.000    0.000 
#
# Total GULP energy -133723.656722 kJ/mol
# GULP energy per Si atom -5571.819030 kJ/mol
# Density = 2.088278 g / cm^3
# Si number density = 20.930417 Si / 1000 Ang^3
#
#
#
# Elastic Constant Matrix: (Units=GPa)
#
#
# Indices 1 2 3 4 5 6 
#
# 1 143.7481 25.6062 20.9286 0.0000 0.0000 0.0000
# 2 25.6062 83.1998 11.8828 0.0000 0.0000 0.0000
# 3 20.9286 11.8828 111.9703 0.0000 0.0000 0.0000
# 4 0.0000 0.0000 0.0000 14.9946 0.0000 0.0000
# 5 0.0000 0.0000 0.0000 0.0000 42.2985 0.0000
# 6 0.0000 0.0000 0.0000 0.0000 0.0000 2.5714
#
#
#
# Elastic Compliance Matrix: (Units=1/GPa)
#
#
# Indices 1 2 3 4 5 6 
#
# 1 0.007510 -0.002143 -0.001176 0.000000 0.000000 0.000000
# 2 -0.002143 0.012816 -0.000959 0.000000 0.000000 0.000000
# 3 -0.001176 -0.000959 0.009253 0.000000 0.000000 0.000000
# 4 0.000000 0.000000 0.000000 0.066691 0.000000 0.000000
# 5 0.000000 0.000000 0.000000 0.000000 0.023641 0.000000
# 6 0.000000 0.000000 0.000000 0.000000 0.000000 0.388886
#
#
# Mechanical properties :
#
#
# Convention : Reuss Voigt Hill
#
# Bulk Modulus (GPa) = 47.57299 50.63927 49.10613
# Shear Modulus (GPa) = 9.53541 30.67295 20.10418
#
# Velocity S-wave (km/s) = 2.13674 3.83230 3.10260
# Velocity P-wave (km/s) = 5.37271 6.62032 6.02888
#
# Compressibility (1/GPa) = 0.02102033
#
# Stress axis : x y z
#
# Youngs Moduli (GPa) = 133.16219 78.02798 108.07756
#
# Poissons Ratio (x) = 0.16723 0.12712
# Poissons Ratio (y) = 0.28540 0.10370
# Poissons Ratio (z) = 0.15662 0.07487
#
# Static dielectric constant tensor:
#      x y z
#    x 1.800590 0.000000 0.000000 
#    y 0.000000 1.713130 0.000000 
#    z 0.000000 0.000000 1.855120 
# 
# From -- ./inp_files/9202.got.cif
#   From: 2010.05.17/outbox.cif.g08.bks.cpg/sg39_5_cif.got.tgz:9202.got - 2010.06.03 18:22:40.
