data_PCOD9362697
_publ_section_title
;
Structure prediction by ZEFSAII (Michael W. Deem and Ramdas Pophale) SiO2 
 PCOD9362697
Probable space group: A M A 2
;
_chemical_formula_sum "Si O2"
_cell_formula_units_Z 64
_cell_length_a 8.619560
_cell_length_b 20.157748
_cell_length_c 21.187512
_cell_angle_alpha 90.000000
_cell_angle_beta 90.000000
_cell_angle_gamma 90.000000
_cell_volume 3681.349668
_symmetry_space_group_name_H-M "A M A 2"
_symmetry_group_IT_number 40
_symmetry_cell_setting 'orthorhombic'
loop_
_space_group_symop_operation_xyz
x,y,z
-x,-y,z
1/2-x,y,z
1/2+x,-y,z
x,1/2+y,1/2+z
-x,1/2-y,1/2+z
1/2-x,1/2+y,1/2+z
1/2+x,1/2-y,1/2+z
loop_
_atom_site_type_symbol
_atom_site_label
_atom_site_fract_x
_atom_site_fract_y
_atom_site_fract_z
Si Si1 0.562699 0.793103 0.187420
Si Si2 0.436268 0.207720 0.433077
Si Si3 0.938639 0.210653 0.810738
Si Si4 0.564902 0.571246 0.733180
Si Si5 0.435171 0.570488 0.118491
Si Si6 0.563931 0.571692 0.881441
Si Si7 0.563357 0.070149 0.761074
Si Si8 0.436046 0.793911 0.567081
O O1 0.750000 0.794952 0.188482
O O2 0.510179 0.751970 0.249220
O O3 0.500079 0.867201 0.194107
O O4 0.515124 0.754133 0.124438
O O5 0.250000 0.208670 0.435633
O O6 0.489565 0.253653 0.374689
O O7 0.492634 0.133086 0.418792
O O8 0.505336 0.230250 0.499513
O O9 0.750000 0.212040 0.810536
O O10 0.984370 0.134227 0.801389
O O11 0.500000 0.500000 0.712832
O O12 0.750000 0.570364 0.730197
O O13 0.520139 0.580225 0.807224
O O14 0.500000 0.500000 0.094707
O O15 0.250000 0.568350 0.119532
O O16 0.498872 0.578527 0.190008
O O17 0.494600 0.633300 0.079761
O O18 0.500000 0.500000 0.901710
O O19 0.750000 0.572459 0.886479
O O20 0.750000 0.067850 0.757355
O O21 0.500000 0.000000 0.785263
O O22 0.250000 0.798585 0.567770
#
# Coordination Sequence:
#
# PCOD9362697 Si02
#       8
#     8   8   8   8   8   8   8   8
#     4  10  19  36  59  80 107 145 182 225 274 322
#     4  11  22  37  56  79 108 144 184 226 271 323
#     4   9  18  34  57  80 107 143 181 222 272 321
#     4  10  20  33  54  84 114 142 179 227 272 323
#     4  11  21  34  53  79 110 146 185 224 266 319
#     4  10  20  34  52  78 110 146 182 220 265 319
#     4  10  18  33  54  82 112 143 179 222 274 321
#     4  11  23  39  56  78 111 147 182 224 275 327
#
# _framework density 17.384927999999999
#
# number of rings (size 3 to 8) (size 9 to 14) (size 15 to 20)
#    0.000    1.750    2.500    3.750    0.000    2.500 
#    0.000    5.000    0.000    0.750    0.000    3.500 
#    0.000    0.000    0.000    0.000    0.000    0.000 
#
# Total GULP energy -178720.800093 kJ/mol
# GULP energy per Si atom -5585.025003 kJ/mol
# Density = 1.734536 g / cm^3
# Si number density = 17.384928 Si / 1000 Ang^3
#
#
#
# Elastic Constant Matrix: (Units=GPa)
#
#
# Indices 1 2 3 4 5 6 
#
# 1 58.1789 30.3411 31.5623 0.0000 0.0000 0.0000
# 2 30.3411 132.4257 72.0450 0.0000 0.0000 0.0000
# 3 31.5623 72.0450 116.4143 0.0000 0.0000 0.0000
# 4 0.0000 0.0000 0.0000 23.7056 0.0000 0.0000
# 5 0.0000 0.0000 0.0000 0.0000 33.4603 0.0000
# 6 0.0000 0.0000 0.0000 0.0000 0.0000 21.9339
#
#
#
# Elastic Compliance Matrix: (Units=1/GPa)
#
#
# Indices 1 2 3 4 5 6 
#
# 1 0.020707 -0.002548 -0.004037 0.000000 0.000000 0.000000
# 2 -0.002548 0.011698 -0.006549 0.000000 0.000000 0.000000
# 3 -0.004037 -0.006549 0.013737 0.000000 0.000000 0.000000
# 4 0.000000 0.000000 0.000000 0.042184 0.000000 0.000000
# 5 0.000000 0.000000 0.000000 0.000000 0.029886 0.000000
# 6 0.000000 0.000000 0.000000 0.000000 0.000000 0.045592
#
#
# Mechanical properties :
#
#
# Convention : Reuss Voigt Hill
#
# Bulk Modulus (GPa) = 50.31501 63.87952 57.09727
# Shear Modulus (GPa) = 25.41973 27.35798 26.38886
#
# Velocity S-wave (km/s) = 3.82798 3.97124 3.90027
# Velocity P-wave (km/s) = 6.96725 7.60603 7.29363
#
# Compressibility (1/GPa) = 0.01987478
#
# Stress axis : x y z
#
# Youngs Moduli (GPa) = 48.29180 85.48522 72.79410
#
# Poissons Ratio (x) = 0.21781 0.29390
# Poissons Ratio (y) = 0.12305 0.47670
# Poissons Ratio (z) = 0.19497 0.55981
#
# Static dielectric constant tensor:
#      x y z
#    x 1.583200 0.000000 0.000000 
#    y 0.000000 1.583830 0.000000 
#    z 0.000000 0.000000 1.590670 
# 
# From -- ./inp_files/19614.got.cif
#   From: 2010.05.17/outbox.cif.g08.bks.cpg/sg40_10_cif.got.tgz:19614.got - 2010.06.03 18:35:42.
