data_PCOD9362910
_publ_section_title
;
Structure prediction by ZEFSAII (Michael W. Deem and Ramdas Pophale) SiO2 
 PCOD9362910
Probable space group: A M A 2
;
_chemical_formula_sum "Si O2"
_cell_formula_units_Z 28
_cell_length_a 5.636562
_cell_length_b 15.042983
_cell_length_c 13.655971
_cell_angle_alpha 90.000000
_cell_angle_beta 90.000000
_cell_angle_gamma 90.000000
_cell_volume 1157.899427
_symmetry_space_group_name_H-M "A M A 2"
_symmetry_group_IT_number 40
_symmetry_cell_setting 'orthorhombic'
loop_
_space_group_symop_operation_xyz
x,y,z
-x,-y,z
1/2-x,y,z
1/2+x,-y,z
x,1/2+y,1/2+z
-x,1/2-y,1/2+z
1/2-x,1/2+y,1/2+z
1/2+x,1/2-y,1/2+z
loop_
_atom_site_type_symbol
_atom_site_label
_atom_site_fract_x
_atom_site_fract_y
_atom_site_fract_z
Si Si1 0.250000 0.501738 0.614370
Si Si2 0.250000 0.694227 0.714470
Si Si3 0.750000 0.955452 0.782288
Si Si4 0.250000 0.045325 0.546805
Si Si5 0.750000 0.765869 0.446891
Si Si6 0.750000 0.688736 0.717130
Si Si7 0.750000 0.280367 0.407126
O O1 0.500000 0.500000 0.558172
O O2 0.250000 0.591017 0.680863
O O3 0.250000 0.412993 0.680755
O O4 0.250000 0.710733 0.830791
O O5 0.503757 0.731745 0.681934
O O6 0.750000 0.953461 0.664639
O O7 0.750000 0.859420 0.830121
O O8 0.500000 0.000000 0.811805
O O9 0.250000 0.143684 0.505229
O O10 0.500000 0.000000 0.515516
O O11 0.498951 0.716539 0.463819
O O12 0.750000 0.693700 0.835758
#
# Coordination Sequence:
#
# PCOD9362910 Si02
#       7
#     4   4   4   4   4   4   4
#     4   8  12  18  27  43  71 106 139 165 210 274
#     4   8  14  21  32  52  84 120 148 181 232 295
#     4  10  21  38  57  77 109 152 192 230 281 348
#     4  10  21  35  53  80 118 159 186 215 275 354
#     4  10  19  30  48  77 109 138 179 232 279 325
#     4   8  14  22  33  53  80 112 147 193 243 281
#     4  10  19  32  50  74 105 135 181 240 280 323
#
# _framework density 24.181719000000001
#
# number of rings (size 3 to 8) (size 9 to 14) (size 15 to 20)
#    0.000    2.857    0.000    1.714    0.000    5.714 
#    0.000    0.000    0.000    0.000    0.000    0.000 
#    0.000   57.143    0.000    0.000    0.000    0.000 
#
# Total GULP energy -78098.484034 kJ/mol
# GULP energy per Si atom -5578.463145 kJ/mol
# Density = 2.412668 g / cm^3
# Si number density = 24.181719 Si / 1000 Ang^3
#
#
#
# Elastic Constant Matrix: (Units=GPa)
#
#
# Indices 1 2 3 4 5 6 
#
# 1 337.8351 35.5153 8.3993 0.0000 0.0000 0.0000
# 2 35.5153 63.8399 3.1550 0.0000 0.0000 0.0000
# 3 8.3993 3.1550 65.6657 0.0000 0.0000 0.0000
# 4 0.0000 0.0000 0.0000 29.8095 0.0000 0.0000
# 5 0.0000 0.0000 0.0000 0.0000 -18.2890 0.0000
# 6 0.0000 0.0000 0.0000 0.0000 0.0000 -89.4918
#
#
#
# Elastic Compliance Matrix: (Units=1/GPa)
#
#
# Indices 1 2 3 4 5 6 
#
# 1 0.003151 -0.001737 -0.000320 0.000000 0.000000 0.000000
# 2 -0.001737 0.016659 -0.000578 0.000000 0.000000 0.000000
# 3 -0.000320 -0.000578 0.015297 0.000000 0.000000 0.000000
# 4 0.000000 0.000000 0.000000 0.033546 0.000000 0.000000
# 5 0.000000 0.000000 0.000000 0.000000 -0.054678 0.000000
# 6 0.000000 0.000000 0.000000 0.000000 0.000000 -0.011174
#
#
# Mechanical properties :
#
#
# Convention : Reuss Voigt Hill
#
# Bulk Modulus (GPa) = 33.51487 62.38667 47.95077
# Shear Modulus (GPa) = 277.52236 12.42381 144.97309
#
# Velocity S-wave (km/s) = 10.72448 2.26911 7.75124
# Velocity P-wave (km/s) = 12.93222 5.72016 9.99906
#
# Compressibility (1/GPa) = 0.02983751
#
# Stress axis : x y z
#
# Youngs Moduli (GPa) = 317.40338 60.02741 65.37099
#
# Poissons Ratio (x) = 0.10426 0.02089
# Poissons Ratio (y) = 0.55131 0.03780
# Poissons Ratio (z) = 0.10142 0.03471
#
# Static dielectric constant tensor:
#      x y z
#    x 2.011610 0.000000 0.000000 
#    y 0.000000 1.867880 0.000000 
#    z 0.000000 0.000000 1.876640 
# 
# From -- ./inp_files/14472.got.cif
#   From: 2010.05.17/outbox.cif.g08.bks.cpg/sg40_8_cif.got.tgz:14472.got - 2010.06.03 18:35:42.
