data_PCOD9362806
_publ_section_title
;
Structure prediction by ZEFSAII (Michael W. Deem and Ramdas Pophale) SiO2 
 PCOD9362806
Probable space group: A M A 2
;
_chemical_formula_sum "Si O2"
_cell_formula_units_Z 44
_cell_length_a 23.981087
_cell_length_b 11.355426
_cell_length_c 7.332896
_cell_angle_alpha 90.000000
_cell_angle_beta 90.000000
_cell_angle_gamma 90.000000
_cell_volume 1996.860939
_symmetry_space_group_name_H-M "A M A 2"
_symmetry_group_IT_number 40
_symmetry_cell_setting 'orthorhombic'
loop_
_space_group_symop_operation_xyz
x,y,z
-x,-y,z
1/2-x,y,z
1/2+x,-y,z
x,1/2+y,1/2+z
-x,1/2-y,1/2+z
1/2-x,1/2+y,1/2+z
1/2+x,1/2-y,1/2+z
loop_
_atom_site_type_symbol
_atom_site_label
_atom_site_fract_x
_atom_site_fract_y
_atom_site_fract_z
Si Si1 0.371449 0.513298 0.969810
Si Si2 0.750000 0.443856 0.969512
Si Si3 0.346557 0.949918 0.864612
Si Si4 0.076172 0.257829 0.396017
Si Si5 0.530327 0.123628 0.541132
Si Si6 0.250000 0.281727 0.214411
Si Si7 0.250000 0.611017 0.406054
O O1 0.307113 0.487366 0.931135
O O2 0.385346 0.642843 0.898478
O O3 0.374989 0.516349 0.193004
O O4 0.419656 0.422589 0.911049
O O5 0.750000 0.331554 0.841953
O O6 0.750000 0.399187 0.183311
O O7 0.390350 0.870635 0.975757
O O8 0.303755 0.857676 0.770588
O O9 0.306055 0.041116 0.965160
O O10 0.061627 0.305218 0.197135
O O11 0.017886 0.210801 0.474352
O O12 0.500000 0.000000 0.596205
O O13 0.250000 0.234682 0.007910
#
# Coordination Sequence:
#
# PCOD9362806 Si02
#       7
#     8   4   8   8   8   4   4
#     4   9  18  36  61  82 115 160 190 240 313 349
#     4  10  18  36  64  82 124 162 190 254 304 350
#     4   9  19  37  60  82 123 158 195 263 303 355
#     4  10  18  38  62  82 118 159 196 253 305 350
#     4   9  20  37  58  83 114 153 196 244 302 355
#     4  11  19  37  63  90 125 164 203 247 311 374
#     4   9  21  37  55  90 121 156 209 251 307 380
#
# _framework density 22.034586999999998
#
# number of rings (size 3 to 8) (size 9 to 14) (size 15 to 20)
#    0.000    2.545    1.818    0.545    0.000    0.000 
#    3.273   28.182    0.000    0.000    0.000    0.000 
#    0.000    0.000    0.000    0.000    0.000    0.000 
#
# Total GULP energy -122546.267935 kJ/mol
# GULP energy per Si atom -5570.284906 kJ/mol
# Density = 2.198443 g / cm^3
# Si number density = 22.034587 Si / 1000 Ang^3
#
#
#
# Elastic Constant Matrix: (Units=GPa)
#
#
# Indices 1 2 3 4 5 6 
#
# 1 145.3040 36.6865 21.2180 0.0000 0.0000 0.0000
# 2 36.6865 97.2244 36.5496 0.0000 0.0000 0.0000
# 3 21.2180 36.5496 43.3989 0.0000 0.0000 0.0000
# 4 0.0000 0.0000 0.0000 38.8882 0.0000 0.0000
# 5 0.0000 0.0000 0.0000 0.0000 9.2533 0.0000
# 6 0.0000 0.0000 0.0000 0.0000 0.0000 -17.2888
#
#
#
# Elastic Compliance Matrix: (Units=1/GPa)
#
#
# Indices 1 2 3 4 5 6 
#
# 1 0.007716 -0.002185 -0.001932 0.000000 0.000000 0.000000
# 2 -0.002185 0.015669 -0.012128 0.000000 0.000000 0.000000
# 3 -0.001932 -0.012128 0.034201 0.000000 0.000000 0.000000
# 4 0.000000 0.000000 0.000000 0.025715 0.000000 0.000000
# 5 0.000000 0.000000 0.000000 0.000000 0.108069 0.000000
# 6 0.000000 0.000000 0.000000 0.000000 0.000000 -0.057841
#
#
# Mechanical properties :
#
#
# Convention : Reuss Voigt Hill
#
# Bulk Modulus (GPa) = 39.84797 52.75949 46.30373
# Shear Modulus (GPa) = 28.67227 18.93543 23.80385
#
# Velocity S-wave (km/s) = 3.61118 2.93465 3.29035
# Velocity P-wave (km/s) = 5.95912 5.95641 5.95776
#
# Compressibility (1/GPa) = 0.02509538
#
# Stress axis : x y z
#
# Youngs Moduli (GPa) = 129.60125 63.81896 29.23928
#
# Poissons Ratio (x) = 0.13946 0.05649
# Poissons Ratio (y) = 0.28321 0.35461
# Poissons Ratio (z) = 0.25039 0.77400
#
# Static dielectric constant tensor:
#      x y z
#    x 1.914890 0.000000 0.000000 
#    y 0.000000 1.803380 0.000000 
#    z 0.000000 0.000000 1.841300 
# 
# From -- ./inp_files/8694.got.cif
#   From: 2010.05.17/outbox.cif.g08.bks.cpg/sg40_5_cif.got.tgz:8694.got - 2010.06.03 18:35:42.
