data_PCOD9362137
_publ_section_title
;
Structure prediction by ZEFSAII (Michael W. Deem and Ramdas Pophale) SiO2 
 PCOD9362137
Probable space group: A B M 2
;
_chemical_formula_sum "Si O2"
_cell_formula_units_Z 40
_cell_length_a 4.968639
_cell_length_b 27.637610
_cell_length_c 10.672569
_cell_angle_alpha 90.000000
_cell_angle_beta 90.000000
_cell_angle_gamma 90.000000
_cell_volume 1465.571123
_symmetry_space_group_name_H-M "A B M 2"
_symmetry_group_IT_number 39
_symmetry_cell_setting 'orthorhombic'
loop_
_space_group_symop_operation_xyz
x,y,z
-x,-y,z
-x,1/2+y,z
x,1/2-y,z
x,1/2+y,1/2+z
-x,1/2-y,1/2+z
-x,y,1/2+z
x,-y,1/2+z
loop_
_atom_site_type_symbol
_atom_site_label
_atom_site_fract_x
_atom_site_fract_y
_atom_site_fract_z
Si Si1 0.808794 0.833559 0.208620
Si Si2 0.116475 0.897298 0.394924
Si Si3 0.566466 0.750000 0.370329
Si Si4 0.177452 0.250000 0.634837
Si Si5 0.000000 0.000000 0.808287
Si Si6 0.500000 0.500000 0.138743
Si Si7 0.391555 0.607775 0.044463
O O1 0.001289 0.873555 0.270609
O O2 0.714951 0.797831 0.320398
O O3 0.551998 0.858842 0.143075
O O4 0.982896 0.796263 0.124809
O O5 0.914234 0.883311 0.506181
O O6 0.420872 0.884243 0.422620
O O7 0.098835 0.954887 0.386694
O O8 0.599665 0.750000 0.522354
O O9 0.304441 0.750000 0.276699
O O10 0.751727 0.015488 0.723200
O O11 0.415004 0.550211 0.073435
#
# Coordination Sequence:
#
# PCOD9362137 Si02
#       7
#     8   8   4   4   4   4   8
#     4  11  28  50  78 115 164 208 281 345 424 512
#     4  12  27  46  77 111 159 212 273 339 414 490
#     4  11  28  50  87 114 166 210 278 348 434 515
#     4  11  28  54  83 130 162 222 274 360 436 523
#     4  12  24  46  72 110 160 216 274 340 408 490
#     4  12  24  46  74 108 162 214 278 338 414 494
#     4  12  27  46  77 112 157 213 272 339 415 493
#
# _framework density 27.293116000000001
#
# number of rings (size 3 to 8) (size 9 to 14) (size 15 to 20)
#    0.000    0.400    2.000    4.800    8.400    3.200 
#    0.000    0.000    0.000    0.000    0.000    0.000 
#    0.000    0.000    0.000    0.000    0.000    0.000 
#
# Total GULP energy -112191.976934 kJ/mol
# GULP energy per Si atom -5609.598847 kJ/mol
# Density = 2.723100 g / cm^3
# Si number density = 27.293116 Si / 1000 Ang^3
#
#
#
# Elastic Constant Matrix: (Units=GPa)
#
#
# Indices 1 2 3 4 5 6 
#
# 1 92.6934 7.1078 15.6888 0.0000 0.0000 0.0000
# 2 7.1078 176.2184 38.9813 0.0000 0.0000 0.0000
# 3 15.6888 38.9813 110.9597 0.0000 0.0000 0.0000
# 4 0.0000 0.0000 0.0000 68.6380 0.0000 0.0000
# 5 0.0000 0.0000 0.0000 0.0000 45.6635 0.0000
# 6 0.0000 0.0000 0.0000 0.0000 0.0000 44.4874
#
#
#
# Elastic Compliance Matrix: (Units=1/GPa)
#
#
# Indices 1 2 3 4 5 6 
#
# 1 0.011055 -0.000109 -0.001525 0.000000 0.000000 0.000000
# 2 -0.000109 0.006154 -0.002147 0.000000 0.000000 0.000000
# 3 -0.001525 -0.002147 0.009982 0.000000 0.000000 0.000000
# 4 0.000000 0.000000 0.000000 0.014569 0.000000 0.000000
# 5 0.000000 0.000000 0.000000 0.000000 0.021899 0.000000
# 6 0.000000 0.000000 0.000000 0.000000 0.000000 0.022478
#
#
# Mechanical properties :
#
#
# Convention : Reuss Voigt Hill
#
# Bulk Modulus (GPa) = 50.94106 55.93636 53.43871
# Shear Modulus (GPa) = 49.87969 52.96402 51.42186
#
# Velocity S-wave (km/s) = 4.27963 4.40996 4.34528
# Velocity P-wave (km/s) = 6.56698 6.81686 6.69309
#
# Compressibility (1/GPa) = 0.01963053
#
# Stress axis : x y z
#
# Youngs Moduli (GPa) = 90.45947 162.49578 100.18016
#
# Poissons Ratio (x) = 0.01764 0.15277
# Poissons Ratio (y) = 0.00982 0.21505
# Poissons Ratio (z) = 0.13794 0.34882
#
# Static dielectric constant tensor:
#      x y z
#    x 2.038670 0.000000 0.000000 
#    y 0.000000 2.061370 0.000000 
#    z 0.000000 0.000000 2.225350 
# 
# From -- ./inp_files/4623.got.cif
#   From: 2010.05.17/outbox.cif.g08.bks.cpg/sg39_3_cif.got.tgz:4623.got - 2010.06.03 18:22:40.
