data_PCOD9362246
_publ_section_title
;
Structure prediction by ZEFSAII (Michael W. Deem and Ramdas Pophale) SiO2 
 PCOD9362246
Probable space group: A M A 2
;
_chemical_formula_sum "Si O2"
_cell_formula_units_Z 48
_cell_length_a 9.057952
_cell_length_b 31.772359
_cell_length_c 7.054239
_cell_angle_alpha 90.000000
_cell_angle_beta 90.000000
_cell_angle_gamma 90.000000
_cell_volume 2030.157097
_symmetry_space_group_name_H-M "A M A 2"
_symmetry_group_IT_number 40
_symmetry_cell_setting 'orthorhombic'
loop_
_space_group_symop_operation_xyz
x,y,z
-x,-y,z
1/2-x,y,z
1/2+x,-y,z
x,1/2+y,1/2+z
-x,1/2-y,1/2+z
1/2-x,1/2+y,1/2+z
1/2+x,1/2-y,1/2+z
loop_
_atom_site_type_symbol
_atom_site_label
_atom_site_fract_x
_atom_site_fract_y
_atom_site_fract_z
Si Si1 0.071787 0.457207 0.534360
Si Si2 0.413980 0.216651 0.910624
Si Si3 0.583965 0.620237 0.049893
Si Si4 0.923978 0.459771 0.118074
Si Si5 0.418221 0.862917 0.007822
Si Si6 0.584847 0.801356 0.465849
O O1 0.250000 0.461716 0.529414
O O2 0.042069 0.408616 0.596664
O O3 0.000000 0.500000 0.618719
O O4 0.001850 0.456812 0.323359
O O5 0.250000 0.229542 0.974627
O O6 0.476403 0.177349 0.030168
O O7 0.522924 0.256185 0.907097
O O8 0.403163 0.201666 0.694321
O O9 0.750000 0.606899 0.000760
O O10 0.467775 0.583237 0.018417
O O11 0.584868 0.629733 0.277273
O O12 0.531833 0.661327 0.938466
O O13 0.750000 0.465132 0.136178
O O14 0.000000 0.500000 0.025768
O O15 0.250000 0.852284 0.061444
O O16 0.750000 0.809906 0.394198
#
# Coordination Sequence:
#
# PCOD9362246 Si02
#       6
#     8   8   8   8   8   8
#     4   9  15  22  33  51  76 108 143 178 219 265
#     4  10  20  32  48  69  91 120 156 191 230 274
#     4   9  16  27  41  58  82 112 146 183 224 269
#     4  10  16  22  33  51  77 109 144 179 218 265
#     4   8  15  26  39  56  81 113 145 180 223 267
#     4  10  20  33  49  69  93 122 155 191 232 276
#
# _framework density 23.643488999999999
#
# number of rings (size 3 to 8) (size 9 to 14) (size 15 to 20)
#    0.000    2.667    0.000    5.500    0.000    6.667 
#    0.000    0.000    0.000    0.000    0.000    0.000 
#    0.000    1.333    0.000    7.000    0.000   10.000 
#
# Total GULP energy -134041.062130 kJ/mol
# GULP energy per Si atom -5585.044255 kJ/mol
# Density = 2.358968 g / cm^3
# Si number density = 23.643489 Si / 1000 Ang^3
#
#
#
# Elastic Constant Matrix: (Units=GPa)
#
#
# Indices 1 2 3 4 5 6 
#
# 1 126.3432 55.4440 -8.5820 0.0000 0.0000 0.0000
# 2 55.4440 126.5102 -27.8985 0.0000 0.0000 0.0000
# 3 -8.5820 -27.8985 62.9351 0.0000 0.0000 0.0000
# 4 0.0000 0.0000 0.0000 12.9044 0.0000 0.0000
# 5 0.0000 0.0000 0.0000 0.0000 30.4197 0.0000
# 6 0.0000 0.0000 0.0000 0.0000 0.0000 50.4847
#
#
#
# Elastic Compliance Matrix: (Units=1/GPa)
#
#
# Indices 1 2 3 4 5 6 
#
# 1 0.009822 -0.004444 -0.000630 0.000000 0.000000 0.000000
# 2 -0.004444 0.010771 0.004169 0.000000 0.000000 0.000000
# 3 -0.000630 0.004169 0.017651 0.000000 0.000000 0.000000
# 4 0.000000 0.000000 0.000000 0.077493 0.000000 0.000000
# 5 0.000000 0.000000 0.000000 0.000000 0.032873 0.000000
# 6 0.000000 0.000000 0.000000 0.000000 0.000000 0.019808
#
#
# Mechanical properties :
#
#
# Convention : Reuss Voigt Hill
#
# Bulk Modulus (GPa) = 27.44660 39.30171 33.37416
# Shear Modulus (GPa) = 27.41609 38.55009 32.98309
#
# Velocity S-wave (km/s) = 3.40893 4.04229 3.73905
# Velocity P-wave (km/s) = 5.20847 6.20045 5.72598
#
# Compressibility (1/GPa) = 0.03643438
#
# Stress axis : x y z
#
# Youngs Moduli (GPa) = 101.81056 92.83927 56.65264
#
# Poissons Ratio (x) = 0.41255 0.03572
# Poissons Ratio (y) = 0.45241 -0.23618
# Poissons Ratio (z) = 0.06419 -0.38703
#
# Static dielectric constant tensor:
#      x y z
#    x 1.767490 0.000000 0.000000 
#    y 0.000000 1.563390 0.000000 
#    z 0.000000 0.000000 2.007170 
# 
# From -- ./inp_files/10450.got.cif
#   From: 2010.05.17/outbox.cif.g08.bks.cpg/sg40_6_cif.got.tgz:10450.got - 2010.06.03 18:35:42.
