data_PCOD9362251
_publ_section_title
;
Structure prediction by ZEFSAII (Michael W. Deem and Ramdas Pophale) SiO2 
 PCOD9362251
Probable space group: A M A 2
;
_chemical_formula_sum "Si O2"
_cell_formula_units_Z 52
_cell_length_a 10.815943
_cell_length_b 26.614604
_cell_length_c 7.607887
_cell_angle_alpha 90.000000
_cell_angle_beta 90.000000
_cell_angle_gamma 90.000000
_cell_volume 2190.021871
_symmetry_space_group_name_H-M "A M A 2"
_symmetry_group_IT_number 40
_symmetry_cell_setting 'orthorhombic'
loop_
_space_group_symop_operation_xyz
x,y,z
-x,-y,z
1/2-x,y,z
1/2+x,-y,z
x,1/2+y,1/2+z
-x,1/2-y,1/2+z
1/2-x,1/2+y,1/2+z
1/2+x,1/2-y,1/2+z
loop_
_atom_site_type_symbol
_atom_site_label
_atom_site_fract_x
_atom_site_fract_y
_atom_site_fract_z
Si Si1 0.383305 0.478054 0.119800
Si Si2 0.750000 0.179364 0.737500
Si Si3 0.750000 0.279833 0.547062
Si Si4 0.250000 0.319156 0.829733
Si Si5 0.891456 0.965108 0.997650
Si Si6 0.495631 0.696377 0.690802
Si Si7 0.607402 0.301538 0.077816
Si Si8 0.482617 0.380195 0.306948
O O1 0.500000 0.500000 0.016603
O O2 0.250000 0.479866 0.032100
O O3 0.376739 0.511727 0.299044
O O4 0.415830 0.422879 0.188925
O O5 0.750000 0.160216 0.531397
O O6 0.627620 0.159924 0.834414
O O7 0.750000 0.239284 0.708658
O O8 0.622478 0.310460 0.561426
O O9 0.750000 0.240659 0.385226
O O10 0.371901 0.330731 0.717537
O O11 0.750000 0.963746 0.069435
O O12 0.955046 0.910979 0.965433
O O13 0.000000 0.000000 0.080332
O O14 0.441223 0.689076 0.883613
O O15 0.532005 0.754081 0.650587
O O16 0.750000 0.290336 0.068684
O O17 0.582498 0.350668 0.193111
#
# Coordination Sequence:
#
# PCOD9362251 Si02
#       8
#     8   4   4   4   8   8   8   8
#     4   8  14  22  37  55  79 111 141 173 216 264
#     4  10  16  28  42  62  80 120 150 192 220 274
#     4  10  20  33  47  66  89 112 159 202 227 279
#     4  10  20  33  47  66  89 112 159 202 227 279
#     4   8  15  24  36  55  81 109 141 175 214 264
#     4  12  20  34  48  66  88 118 156 196 236 276
#     4  12  23  31  49  69  90 122 161 196 235 273
#     4  10  16  26  41  59  84 112 150 183 222 267
#
# _framework density 23.744056
#
# number of rings (size 3 to 8) (size 9 to 14) (size 15 to 20)
#    0.462    1.846    6.923    0.462    1.077    0.615 
#    0.000    0.000    0.000    0.000    0.000    0.000 
#    0.000    0.000    0.000   22.154    0.000  256.000 
#
# Total GULP energy -144968.068606 kJ/mol
# GULP energy per Si atom -5575.694946 kJ/mol
# Density = 2.369001 g / cm^3
# Si number density = 23.744056 Si / 1000 Ang^3
#
#
#
# Elastic Constant Matrix: (Units=GPa)
#
#
# Indices 1 2 3 4 5 6 
#
# 1 234.5802 19.7270 25.4319 0.0000 0.0000 0.0000
# 2 19.7270 67.8866 7.4257 0.0000 0.0000 0.0000
# 3 25.4319 7.4257 71.8302 0.0000 0.0000 0.0000
# 4 0.0000 0.0000 0.0000 -4.0919 0.0000 0.0000
# 5 0.0000 0.0000 0.0000 0.0000 117.1689 0.0000
# 6 0.0000 0.0000 0.0000 0.0000 0.0000 22.5474
#
#
#
# Elastic Compliance Matrix: (Units=1/GPa)
#
#
# Indices 1 2 3 4 5 6 
#
# 1 0.004520 -0.001152 -0.001481 0.000000 0.000000 0.000000
# 2 -0.001152 0.015192 -0.001163 0.000000 0.000000 0.000000
# 3 -0.001481 -0.001163 0.014566 0.000000 0.000000 0.000000
# 4 0.000000 0.000000 0.000000 -0.244384 0.000000 0.000000
# 5 0.000000 0.000000 0.000000 0.000000 0.008535 0.000000
# 6 0.000000 0.000000 0.000000 0.000000 0.000000 0.044351
#
#
# Mechanical properties :
#
#
# Convention : Reuss Voigt Hill
#
# Bulk Modulus (GPa) = 37.47073 53.27401 45.37237
# Shear Modulus (GPa) = -35.52845 48.57238 6.52196
#
# Velocity S-wave (km/s) = -3.87241 4.52781 1.65914
# Velocity P-wave (km/s) = 2.04420 7.05834 4.77711
#
# Compressibility (1/GPa) = 0.02668749
#
# Stress axis : x y z
#
# Youngs Moduli (GPa) = 221.22036 65.82295 68.65089
#
# Poissons Ratio (x) = 0.07580 0.10170
# Poissons Ratio (y) = 0.25474 0.07983
# Poissons Ratio (z) = 0.32772 0.07654
#
# Static dielectric constant tensor:
#      x y z
#    x 1.972640 0.000000 0.000000 
#    y 0.000000 1.888960 0.000000 
#    z 0.000000 0.000000 1.921990 
# 
# From -- ./inp_files/5570.got.cif
#   From: 2010.05.17/outbox.cif.g08.bks.cpg/sg40_3_cif.got.tgz:5570.got - 2010.06.03 18:35:42.
