data_PCOD9362024
_publ_section_title
;
Structure prediction by ZEFSAII (Michael W. Deem and Ramdas Pophale) SiO2 
 PCOD9362024
Probable space group: A B M 2
;
_chemical_formula_sum "Si O2"
_cell_formula_units_Z 64
_cell_length_a 8.199394
_cell_length_b 32.932819
_cell_length_c 9.341303
_cell_angle_alpha 90.000000
_cell_angle_beta 90.000000
_cell_angle_gamma 90.000000
_cell_volume 2522.424188
_symmetry_space_group_name_H-M "A B M 2"
_symmetry_group_IT_number 39
_symmetry_cell_setting 'orthorhombic'
loop_
_space_group_symop_operation_xyz
x,y,z
-x,-y,z
-x,1/2+y,z
x,1/2-y,z
x,1/2+y,1/2+z
-x,1/2-y,1/2+z
-x,y,1/2+z
x,-y,1/2+z
loop_
_atom_site_type_symbol
_atom_site_label
_atom_site_fract_x
_atom_site_fract_y
_atom_site_fract_z
Si Si1 0.506856 0.453229 0.963370
Si Si2 0.501055 0.203206 0.463585
Si Si3 0.702217 0.672144 0.711481
Si Si4 0.993144 0.546770 0.533578
Si Si5 0.198610 0.421921 0.282838
Si Si6 0.797783 0.327856 0.785465
Si Si7 0.998945 0.296794 0.533362
Si Si8 0.698610 0.921921 0.714110
O O1 0.500000 0.500000 0.007370
O O2 0.660296 0.448079 0.855895
O O3 0.357080 0.438442 0.866844
O O4 0.548670 0.426368 0.101352
O O5 0.522372 0.250000 0.503962
O O6 0.450712 0.177448 0.602201
O O7 0.647922 0.187604 0.365789
O O8 0.344022 0.198221 0.358699
O O9 0.844022 0.698221 0.638247
O O10 0.748766 0.625006 0.716328
O O11 0.951330 0.573632 0.395596
O O12 0.839704 0.551921 0.641054
O O13 0.000000 0.500000 0.489577
O O14 0.142920 0.561558 0.630105
O O15 0.248766 0.374994 0.280619
O O16 0.852078 0.312396 0.631157
O O17 0.950712 0.322552 0.894745
O O18 0.977627 0.250000 0.492985
#
# Coordination Sequence:
#
# PCOD9362024 Si02
#       8
#     8   8   8   8   8   8   8   8
#     4  11  23  40  62  89 120 156 199 248 298 355
#     4  11  22  39  60  87 119 157 200 249 299 353
#     4  11  22  40  62  87 120 159 199 247 299 356
#     4  11  23  40  62  89 120 156 199 248 298 355
#     4  11  23  41  61  89 121 158 200 246 299 358
#     4  11  22  40  62  87 120 159 199 247 299 356
#     4  11  22  39  60  87 119 157 200 249 299 353
#     4  11  23  41  61  89 121 158 200 246 299 358
#
# _framework density 25.372416999999999
#
# number of rings (size 3 to 8) (size 9 to 14) (size 15 to 20)
#    0.000    1.000    0.000   10.500    0.000    4.000 
#    0.000    7.500    0.000    0.000    0.000    0.000 
#    0.000    0.000    0.000    0.000    0.000    0.000 
#
# Total GULP energy -179530.721042 kJ/mol
# GULP energy per Si atom -5610.335033 kJ/mol
# Density = 2.531467 g / cm^3
# Si number density = 25.372417 Si / 1000 Ang^3
#
#
#
# Elastic Constant Matrix: (Units=GPa)
#
#
# Indices 1 2 3 4 5 6 
#
# 1 45.3291 0.9035 27.9685 0.0000 0.0000 0.0000
# 2 0.9035 133.6353 -8.3997 0.0000 0.0000 0.0000
# 3 27.9685 -8.3997 129.1984 0.0000 0.0000 0.0000
# 4 0.0000 0.0000 0.0000 823.1756 0.0000 0.0000
# 5 0.0000 0.0000 0.0000 0.0000 62.3998 0.0000
# 6 0.0000 0.0000 0.0000 0.0000 0.0000 22.4448
#
#
#
# Elastic Compliance Matrix: (Units=1/GPa)
#
#
# Indices 1 2 3 4 5 6 
#
# 1 0.025498 -0.000521 -0.005554 0.000000 0.000000 0.000000
# 2 -0.000521 0.007524 0.000602 0.000000 0.000000 0.000000
# 3 -0.005554 0.000602 0.008981 0.000000 0.000000 0.000000
# 4 0.000000 0.000000 0.000000 0.001215 0.000000 0.000000
# 5 0.000000 0.000000 0.000000 0.000000 0.016026 0.000000
# 6 0.000000 0.000000 0.000000 0.000000 0.000000 0.044554
#
#
# Mechanical properties :
#
#
# Convention : Reuss Voigt Hill
#
# Bulk Modulus (GPa) = 32.19808 38.78970 35.49389
# Shear Modulus (GPa) = 39.96913 200.78340 120.37627
#
# Velocity S-wave (km/s) = 3.97331 8.90541 6.89541
# Velocity P-wave (km/s) = 5.81097 11.00287 8.79859
#
# Compressibility (1/GPa) = 0.03105775
#
# Stress axis : x y z
#
# Youngs Moduli (GPa) = 39.21889 132.90061 111.34115
#
# Poissons Ratio (x) = 0.06930 0.61835
# Poissons Ratio (y) = 0.02045 -0.06704
# Poissons Ratio (z) = 0.21781 -0.08002
#
# Static dielectric constant tensor:
#      x y z
#    x 2.155680 0.000000 0.000000 
#    y 0.000000 1.820770 0.000000 
#    z 0.000000 0.000000 1.978240 
# 
# From -- ./inp_files/5417.got.cif
#   From: 2010.05.17/outbox.cif.g08.bks.cpg/sg39_3_cif.got.tgz:5417.got - 2010.06.03 18:22:40.
