data_PCOD9362531
_publ_section_title
;
Structure prediction by ZEFSAII (Michael W. Deem and Ramdas Pophale) SiO2 
 PCOD9362531
Probable space group: A M A 2
;
_chemical_formula_sum "Si O2"
_cell_formula_units_Z 64
_cell_length_a 7.372923
_cell_length_b 38.283757
_cell_length_c 9.699891
_cell_angle_alpha 90.000000
_cell_angle_beta 90.000000
_cell_angle_gamma 90.000000
_cell_volume 2737.922201
_symmetry_space_group_name_H-M "A M A 2"
_symmetry_group_IT_number 40
_symmetry_cell_setting 'orthorhombic'
loop_
_space_group_symop_operation_xyz
x,y,z
-x,-y,z
1/2-x,y,z
1/2+x,-y,z
x,1/2+y,1/2+z
-x,1/2-y,1/2+z
1/2-x,1/2+y,1/2+z
1/2+x,1/2-y,1/2+z
loop_
_atom_site_type_symbol
_atom_site_label
_atom_site_fract_x
_atom_site_fract_y
_atom_site_fract_z
Si Si1 0.028251 0.064431 0.600080
Si Si2 0.033397 0.539714 0.391686
Si Si3 0.965261 0.962301 0.319658
Si Si4 0.961260 0.294243 0.246316
Si Si5 0.970872 0.333940 0.742097
Si Si6 0.969439 0.269967 0.550785
Si Si7 0.971846 0.354915 0.052384
Si Si8 0.528550 0.904985 0.110777
O O1 0.250000 0.064588 0.602503
O O2 0.964521 0.046699 0.739163
O O3 0.975492 0.104831 0.577119
O O4 0.964673 0.041178 0.473076
O O5 0.250000 0.542979 0.392378
O O6 0.966395 0.572269 0.481909
O O7 0.000000 0.500000 0.437528
O O8 0.750000 0.958434 0.322791
O O9 0.031793 0.929355 0.236182
O O10 0.000000 0.000000 0.257396
O O11 0.750000 0.301213 0.275186
O O12 0.032660 0.279287 0.393911
O O13 0.034500 0.329836 0.177202
O O14 0.973463 0.266266 0.121641
O O15 0.750000 0.333540 0.746229
O O16 0.027456 0.299045 0.662964
O O17 0.028812 0.366028 0.644402
O O18 0.028619 0.340806 0.900483
O O19 0.750000 0.269306 0.546606
O O20 0.750000 0.354199 0.051237
O O21 0.750000 0.903756 0.106341
#
# Coordination Sequence:
#
# PCOD9362531 Si02
#       8
#     8   8   8   8   8   8   8   8
#     4   9  17  29  47  72  98 126 164 209 252 293
#     4  10  20  32  48  70  97 128 162 206 255 302
#     4  10  18  30  48  70  95 126 164 204 249 298
#     4  10  21  35  55  83 111 141 176 214 259 312
#     4   9  16  29  50  76 103 130 167 216 259 295
#     4  10  21  35  55  83 111 141 176 214 259 312
#     4   9  16  29  50  76 103 130 167 216 259 295
#     4   9  17  29  47  72  98 126 164 209 252 293
#
# _framework density 23.375389999999999
#
# number of rings (size 3 to 8) (size 9 to 14) (size 15 to 20)
#    0.000    2.500    1.250    1.500    1.750    1.500 
#    0.000    0.000    0.000    3.000    0.000    0.000 
#    0.000    0.000    0.000    0.000    0.000    0.000 
#
# Total GULP energy -178622.736341 kJ/mol
# GULP energy per Si atom -5581.960511 kJ/mol
# Density = 2.332219 g / cm^3
# Si number density = 23.375390 Si / 1000 Ang^3
#
#
#
# Elastic Constant Matrix: (Units=GPa)
#
#
# Indices 1 2 3 4 5 6 
#
# 1 82.1008 -12.0807 -2.2001 0.0000 0.0000 0.0000
# 2 -12.0807 95.8369 -5.0961 0.0000 0.0000 0.0000
# 3 -2.2001 -5.0961 94.2045 0.0000 0.0000 0.0000
# 4 0.0000 0.0000 0.0000 55.5058 0.0000 0.0000
# 5 0.0000 0.0000 0.0000 0.0000 -7.3148 0.0000
# 6 0.0000 0.0000 0.0000 0.0000 0.0000 8.6577
#
#
#
# Elastic Compliance Matrix: (Units=1/GPa)
#
#
# Indices 1 2 3 4 5 6 
#
# 1 0.012424 0.001586 0.000376 0.000000 0.000000 0.000000
# 2 0.001586 0.010667 0.000614 0.000000 0.000000 0.000000
# 3 0.000376 0.000614 0.010657 0.000000 0.000000 0.000000
# 4 0.000000 0.000000 0.000000 0.018016 0.000000 0.000000
# 5 0.000000 0.000000 0.000000 0.000000 -0.136708 0.000000
# 6 0.000000 0.000000 0.000000 0.000000 0.000000 0.115504
#
#
# Mechanical properties :
#
#
# Convention : Reuss Voigt Hill
#
# Bulk Modulus (GPa) = 25.70699 25.93205 25.81952
# Shear Modulus (GPa) = 130.29811 30.80436 80.55123
#
# Velocity S-wave (km/s) = 7.47413 3.63411 5.87662
# Velocity P-wave (km/s) = 9.24688 5.35974 7.55750
#
# Compressibility (1/GPa) = 0.03889993
#
# Stress axis : x y z
#
# Youngs Moduli (GPa) = 80.49197 93.74728 93.83328
#
# Poissons Ratio (x) = -0.14869 -0.03528
# Poissons Ratio (y) = -0.12766 -0.05762
# Poissons Ratio (z) = -0.03026 -0.05757
#
# Static dielectric constant tensor:
#      x y z
#    x 1.915850 0.000000 0.000000 
#    y 0.000000 1.617990 0.000000 
#    z 0.000000 0.000000 1.901870 
# 
# From -- ./inp_files/5712.got.cif
#   From: 2010.05.17/outbox.cif.g08.bks.cpg/sg40_3_cif.got.tgz:5712.got - 2010.06.03 18:35:42.
