data_PCOD9362529
_publ_section_title
;
Structure prediction by ZEFSAII (Michael W. Deem and Ramdas Pophale) SiO2 
 PCOD9362529
Probable space group: A M A 2
;
_chemical_formula_sum "Si O2"
_cell_formula_units_Z 48
_cell_length_a 11.522687
_cell_length_b 21.735870
_cell_length_c 7.604450
_cell_angle_alpha 90.000000
_cell_angle_beta 90.000000
_cell_angle_gamma 90.000000
_cell_volume 1904.577290
_symmetry_space_group_name_H-M "A M A 2"
_symmetry_group_IT_number 40
_symmetry_cell_setting 'orthorhombic'
loop_
_space_group_symop_operation_xyz
x,y,z
-x,-y,z
1/2-x,y,z
1/2+x,-y,z
x,1/2+y,1/2+z
-x,1/2-y,1/2+z
1/2-x,1/2+y,1/2+z
1/2+x,1/2-y,1/2+z
loop_
_atom_site_type_symbol
_atom_site_label
_atom_site_fract_x
_atom_site_fract_y
_atom_site_fract_z
Si Si1 0.490919 0.270732 0.285650
Si Si2 0.750000 0.949718 0.619803
Si Si3 0.250000 0.125529 0.986481
Si Si4 0.250000 0.757070 0.620123
Si Si5 0.507867 0.930109 0.024115
Si Si6 0.119312 0.323062 0.624766
Si Si7 0.250000 0.907729 0.565158
Si Si8 0.990098 0.898396 0.610832
O O1 0.367069 0.245012 0.227763
O O2 0.466500 0.299514 0.473653
O O3 0.583305 0.216269 0.291589
O O4 0.528887 0.325690 0.154174
O O5 0.873550 0.929527 0.534896
O O6 0.750000 0.023207 0.656779
O O7 0.750000 0.907988 0.796634
O O8 0.250000 0.199825 0.980480
O O9 0.368483 0.100306 0.071038
O O10 0.250000 0.832915 0.609668
O O11 0.405150 0.894333 0.120740
O O12 0.500000 0.000000 0.072585
O O13 0.491725 0.924384 0.811329
O O14 0.250000 0.310327 0.578248
O O15 0.387950 0.909113 0.511435
#
# Coordination Sequence:
#
# PCOD9362529 Si02
#       8
#     8   4   4   4   8   8   4   8
#     4  10  21  39  58  85 124 166 208 260 317 389
#     4  10  18  30  47  81 111 149 194 261 310 369
#     4  10  18  32  50  75 121 157 204 242 325 394
#     4  10  18  36  53  78 119 171 200 241 318 404
#     4  10  20  31  53  84 119 158 200 260 324 383
#     4  11  23  39  61  90 131 164 214 262 324 386
#     4  10  18  30  50  70 113 159 196 240 317 391
#     4   9  19  30  49  77 115 150 191 243 316 373
#
# _framework density 25.202444
#
# number of rings (size 3 to 8) (size 9 to 14) (size 15 to 20)
#    0.000    2.000    2.500    2.500    5.833    0.000 
#    3.000    0.000    0.000    0.000    0.000    9.333 
#    0.000    0.000    0.000    0.000    0.000    0.000 
#
# Total GULP energy -133821.383960 kJ/mol
# GULP energy per Si atom -5575.890998 kJ/mol
# Density = 2.514508 g / cm^3
# Si number density = 25.202444 Si / 1000 Ang^3
#
#
#
# Elastic Constant Matrix: (Units=GPa)
#
#
# Indices 1 2 3 4 5 6 
#
# 1 168.5665 27.5483 14.0891 0.0000 0.0000 0.0000
# 2 27.5483 158.8981 33.3488 0.0000 0.0000 0.0000
# 3 14.0891 33.3488 57.9080 0.0000 0.0000 0.0000
# 4 0.0000 0.0000 0.0000 16.6268 0.0000 0.0000
# 5 0.0000 0.0000 0.0000 0.0000 8.4004 0.0000
# 6 0.0000 0.0000 0.0000 0.0000 0.0000 41.2273
#
#
#
# Elastic Compliance Matrix: (Units=1/GPa)
#
#
# Indices 1 2 3 4 5 6 
#
# 1 0.006156 -0.000856 -0.001005 0.000000 0.000000 0.000000
# 2 -0.000856 0.007278 -0.003983 0.000000 0.000000 0.000000
# 3 -0.001005 -0.003983 0.019807 0.000000 0.000000 0.000000
# 4 0.000000 0.000000 0.000000 0.060144 0.000000 0.000000
# 5 0.000000 0.000000 0.000000 0.000000 0.119042 0.000000
# 6 0.000000 0.000000 0.000000 0.000000 0.000000 0.024256
#
#
# Mechanical properties :
#
#
# Convention : Reuss Voigt Hill
#
# Bulk Modulus (GPa) = 46.39697 59.48277 52.93987
# Shear Modulus (GPa) = 19.56530 33.94333 26.75431
#
# Velocity S-wave (km/s) = 2.78928 3.67390 3.26172
# Velocity P-wave (km/s) = 5.36872 6.45367 5.93604
#
# Compressibility (1/GPa) = 0.02155313
#
# Stress axis : x y z
#
# Youngs Moduli (GPa) = 162.43479 137.40555 50.48752
#
# Poissons Ratio (x) = 0.11769 0.05072
# Poissons Ratio (y) = 0.13912 0.20108
# Poissons Ratio (z) = 0.16318 0.54726
#
# Static dielectric constant tensor:
#      x y z
#    x 1.990170 0.000000 0.000000 
#    y 0.000000 2.064180 0.000000 
#    z 0.000000 0.000000 2.073120 
# 
# From -- ./inp_files/11302.got.cif
#   From: 2010.05.17/outbox.cif.g08.bks.cpg/sg40_6_cif.got.tgz:11302.got - 2010.06.03 18:35:42.
