data_PCOD9362304
_publ_section_title
;
Structure prediction by ZEFSAII (Michael W. Deem and Ramdas Pophale) SiO2 
 PCOD9362304
Probable space group: A M A 2
;
_chemical_formula_sum "Si O2"
_cell_formula_units_Z 64
_cell_length_a 18.480013
_cell_length_b 21.545804
_cell_length_c 7.692208
_cell_angle_alpha 90.000000
_cell_angle_beta 90.000000
_cell_angle_gamma 90.000000
_cell_volume 3062.781367
_symmetry_space_group_name_H-M "A M A 2"
_symmetry_group_IT_number 40
_symmetry_cell_setting 'orthorhombic'
loop_
_space_group_symop_operation_xyz
x,y,z
-x,-y,z
1/2-x,y,z
1/2+x,-y,z
x,1/2+y,1/2+z
-x,1/2-y,1/2+z
1/2-x,1/2+y,1/2+z
1/2+x,1/2-y,1/2+z
loop_
_atom_site_type_symbol
_atom_site_label
_atom_site_fract_x
_atom_site_fract_y
_atom_site_fract_z
Si Si1 0.083373 0.745433 0.513370
Si Si2 0.836944 0.999314 0.608368
Si Si3 0.586310 0.998643 0.981659
Si Si4 0.916518 0.245110 0.102461
Si Si5 0.669429 0.133415 0.597698
Si Si6 0.331742 0.879533 0.013279
Si Si7 0.667263 0.364446 0.076708
Si Si8 0.833385 0.375065 0.502491
O O1 0.089161 0.746114 0.307064
O O2 0.113181 0.811700 0.573512
O O3 0.132261 0.688029 0.575404
O O4 0.999983 0.736031 0.557983
O O5 0.750000 0.997794 0.654967
O O6 0.848680 0.065866 0.517610
O O7 0.850889 0.934043 0.512917
O O8 0.886932 0.999080 0.779863
O O9 0.621910 0.060176 0.063225
O O10 0.500000 0.000000 0.992132
O O11 0.620027 0.934973 0.053090
O O12 0.870122 0.184731 0.058163
O O13 0.884472 0.308491 0.021634
O O14 0.750000 0.152945 0.538348
O O15 0.673055 0.120514 0.803561
O O16 0.250000 0.882723 0.082816
O O17 0.750000 0.349256 0.029565
O O18 0.665278 0.370364 0.289415
O O19 0.750000 0.382400 0.553342
#
# Coordination Sequence:
#
# PCOD9362304 Si02
#       8
#     8   8   8   8   8   8   8   8
#     4  11  22  35  53  77 107 139 176 221 270 317
#     4   8  15  29  49  74 103 135 175 217 254 299
#     4  10  17  27  48  78 108 134 166 214 264 307
#     4  11  22  35  52  76 105 139 175 221 273 319
#     4   9  18  33  54  79 106 136 171 214 261 313
#     4  10  20  35  55  79 107 139 175 215 264 320
#     4   8  15  29  50  75  99 128 172 219 255 298
#     4   9  17  31  51  74  99 132 176 217 251 297
#
# _framework density 20.896039999999999
#
# number of rings (size 3 to 8) (size 9 to 14) (size 15 to 20)
#    0.000    2.500    0.000    4.875    0.000    6.500 
#    0.000    0.000    0.000    6.000    0.000    3.500 
#    0.000    0.000    0.000    0.000    0.000    0.000 
#
# Total GULP energy -178559.996166 kJ/mol
# GULP energy per Si atom -5579.999880 kJ/mol
# Density = 2.084848 g / cm^3
# Si number density = 20.896040 Si / 1000 Ang^3
#
#
#
# Elastic Constant Matrix: (Units=GPa)
#
#
# Indices 1 2 3 4 5 6 
#
# 1 159.0499 105.2789 -0.0817 0.0000 0.0000 0.0000
# 2 105.2789 186.4655 1.5120 0.0000 0.0000 0.0000
# 3 -0.0817 1.5120 24.9084 0.0000 0.0000 0.0000
# 4 0.0000 0.0000 0.0000 22.9966 0.0000 0.0000
# 5 0.0000 0.0000 0.0000 0.0000 14.5846 0.0000
# 6 0.0000 0.0000 0.0000 0.0000 0.0000 27.3486
#
#
#
# Elastic Compliance Matrix: (Units=1/GPa)
#
#
# Indices 1 2 3 4 5 6 
#
# 1 0.010043 -0.005673 0.000377 0.000000 0.000000 0.000000
# 2 -0.005673 0.008570 -0.000539 0.000000 0.000000 0.000000
# 3 0.000377 -0.000539 0.040181 0.000000 0.000000 0.000000
# 4 0.000000 0.000000 0.000000 0.043485 0.000000 0.000000
# 5 0.000000 0.000000 0.000000 0.000000 0.068565 0.000000
# 6 0.000000 0.000000 0.000000 0.000000 0.000000 0.036565
#
#
# Mechanical properties :
#
#
# Convention : Reuss Voigt Hill
#
# Bulk Modulus (GPa) = 21.22029 64.87137 43.04583
# Shear Modulus (GPa) = 21.29589 30.56693 25.93141
#
# Velocity S-wave (km/s) = 3.19585 3.82882 3.52657
# Velocity P-wave (km/s) = 4.87803 7.11749 6.10139
#
# Compressibility (1/GPa) = 0.04712471
#
# Stress axis : x y z
#
# Youngs Moduli (GPa) = 99.57403 116.68042 24.88734
#
# Poissons Ratio (x) = 0.66196 -0.00939
# Poissons Ratio (y) = 0.56491 0.01341
# Poissons Ratio (z) = -0.03757 0.06287
#
# Static dielectric constant tensor:
#      x y z
#    x 1.692360 0.000000 0.000000 
#    y 0.000000 1.782110 0.000000 
#    z 0.000000 0.000000 1.804920 
# 
# From -- ./inp_files/7766.got.cif
#   From: 2010.05.17/outbox.cif.g08.bks.cpg/sg40_4_cif.got.tgz:7766.got - 2010.06.03 18:35:42.
