data_PCOD9362507
_publ_section_title
;
Structure prediction by ZEFSAII (Michael W. Deem and Ramdas Pophale) SiO2 
 PCOD9362507
Probable space group: A M A 2
;
_chemical_formula_sum "Si O2"
_cell_formula_units_Z 64
_cell_length_a 9.704344
_cell_length_b 25.419954
_cell_length_c 14.025469
_cell_angle_alpha 90.000000
_cell_angle_beta 90.000000
_cell_angle_gamma 90.000000
_cell_volume 3459.858487
_symmetry_space_group_name_H-M "A M A 2"
_symmetry_group_IT_number 40
_symmetry_cell_setting 'orthorhombic'
loop_
_space_group_symop_operation_xyz
x,y,z
-x,-y,z
1/2-x,y,z
1/2+x,-y,z
x,1/2+y,1/2+z
-x,1/2-y,1/2+z
1/2-x,1/2+y,1/2+z
1/2+x,1/2-y,1/2+z
loop_
_atom_site_type_symbol
_atom_site_label
_atom_site_fract_x
_atom_site_fract_y
_atom_site_fract_z
Si Si1 0.101093 0.825453 0.204780
Si Si2 0.909222 0.750886 0.988832
Si Si3 0.098322 0.094559 0.134904
Si Si4 0.904237 0.734631 0.216028
Si Si5 0.085010 0.841208 0.884207
Si Si6 0.098611 0.865176 0.411414
Si Si7 0.092848 0.050759 0.350786
Si Si8 0.415005 0.552370 0.429952
O O1 0.250000 0.811229 0.166323
O O2 0.115087 0.861770 0.297306
O O3 0.012440 0.859191 0.131788
O O4 0.021369 0.775323 0.243664
O O5 0.750000 0.766476 0.965859
O O6 0.934505 0.693245 0.945346
O O7 0.013541 0.794692 0.947726
O O8 0.914534 0.738209 0.101759
O O9 0.250000 0.119464 0.126078
O O10 0.092674 0.067691 0.238556
O O11 0.081334 0.056347 0.045798
O O12 0.750000 0.753586 0.242197
O O13 0.923342 0.681078 0.275029
O O14 0.250000 0.847926 0.905819
O O15 0.996774 0.894885 0.896275
O O16 0.250000 0.880303 0.451203
O O17 0.974330 0.905537 0.419594
O O18 0.250000 0.040564 0.376436
O O19 0.000000 0.000000 0.358891
O O20 0.500000 0.500000 0.400809
O O21 0.250000 0.551793 0.404152
#
# Coordination Sequence:
#
# PCOD9362507 Si02
#       8
#     8   8   8   8   8   8   8   8
#     4  10  18  29  49  77 107 141 178 220 264 316
#     4  10  20  37  58  81 111 149 188 228 280 337
#     4   9  19  33  50  75 108 145 181 220 272 332
#     4  10  21  35  54  78 110 147 182 223 274 330
#     4  11  23  38  57  85 117 149 188 235 285 340
#     4   9  18  32  50  72 102 138 176 217 263 315
#     4  10  19  31  49  73 104 140 179 221 269 326
#     4  11  23  39  58  79 108 147 189 234 284 338
#
# _framework density 18.497865999999998
#
# number of rings (size 3 to 8) (size 9 to 14) (size 15 to 20)
#    0.000    2.000    1.250    2.625    0.000    6.500 
#    0.000    0.000    0.000    0.750    0.000    0.000 
#    0.000    0.000    0.000    0.000    0.000    0.000 
#
# Total GULP energy -178147.727609 kJ/mol
# GULP energy per Si atom -5567.116488 kJ/mol
# Density = 1.845576 g / cm^3
# Si number density = 18.497866 Si / 1000 Ang^3
#
#
#
# Elastic Constant Matrix: (Units=GPa)
#
#
# Indices 1 2 3 4 5 6 
#
# 1 179.6414 99.6493 26.9684 0.0000 0.0000 0.0000
# 2 99.6493 98.6417 24.8933 0.0000 0.0000 0.0000
# 3 26.9684 24.8933 33.2991 0.0000 0.0000 0.0000
# 4 0.0000 0.0000 0.0000 22.5165 0.0000 0.0000
# 5 0.0000 0.0000 0.0000 0.0000 27.6189 0.0000
# 6 0.0000 0.0000 0.0000 0.0000 0.0000 34.2930
#
#
#
# Elastic Compliance Matrix: (Units=1/GPa)
#
#
# Indices 1 2 3 4 5 6 
#
# 1 0.012682 -0.012596 -0.000855 0.000000 0.000000 0.000000
# 2 -0.012596 0.025005 -0.008492 0.000000 0.000000 0.000000
# 3 -0.000855 -0.008492 0.037071 0.000000 0.000000 0.000000
# 4 0.000000 0.000000 0.000000 0.044412 0.000000 0.000000
# 5 0.000000 0.000000 0.000000 0.000000 0.036207 0.000000
# 6 0.000000 0.000000 0.000000 0.000000 0.000000 0.029160
#
#
# Mechanical properties :
#
#
# Convention : Reuss Voigt Hill
#
# Bulk Modulus (GPa) = 32.39009 68.28934 50.33972
# Shear Modulus (GPa) = 20.94554 27.55710 24.25132
#
# Velocity S-wave (km/s) = 3.36865 3.86391 3.62475
# Velocity P-wave (km/s) = 5.71652 7.54347 6.69263
#
# Compressibility (1/GPa) = 0.03087364
#
# Stress axis : x y z
#
# Youngs Moduli (GPa) = 78.85158 39.99159 26.97501
#
# Poissons Ratio (x) = 0.50373 0.02306
# Poissons Ratio (y) = 0.99321 0.22907
# Poissons Ratio (z) = 0.06740 0.33960
#
# Static dielectric constant tensor:
#      x y z
#    x 1.701680 0.000000 0.000000 
#    y 0.000000 1.643030 0.000000 
#    z 0.000000 0.000000 1.686120 
# 
# From -- ./inp_files/15624.got.cif
#   From: 2010.05.17/outbox.cif.g08.bks.cpg/sg40_8_cif.got.tgz:15624.got - 2010.06.03 18:35:42.
