data_PCOD9362101
_publ_section_title
;
Structure prediction by ZEFSAII (Michael W. Deem and Ramdas Pophale) SiO2 
 PCOD9362101
Probable space group: A B M 2
;
_chemical_formula_sum "Si O2"
_cell_formula_units_Z 40
_cell_length_a 9.399417
_cell_length_b 20.114392
_cell_length_c 9.765955
_cell_angle_alpha 90.000000
_cell_angle_beta 90.000000
_cell_angle_gamma 90.000000
_cell_volume 1846.386201
_symmetry_space_group_name_H-M "A B M 2"
_symmetry_group_IT_number 39
_symmetry_cell_setting 'orthorhombic'
loop_
_space_group_symop_operation_xyz
x,y,z
-x,-y,z
-x,1/2+y,z
x,1/2-y,z
x,1/2+y,1/2+z
-x,1/2-y,1/2+z
-x,y,1/2+z
x,-y,1/2+z
loop_
_atom_site_type_symbol
_atom_site_label
_atom_site_fract_x
_atom_site_fract_y
_atom_site_fract_z
Si Si1 0.824764 0.460128 0.466880
Si Si2 0.312150 0.174613 0.319562
Si Si3 0.232590 0.101985 0.560026
Si Si4 0.963690 0.595909 0.229969
Si Si5 0.566134 0.427635 0.307482
O O1 0.880502 0.452168 0.622404
O O2 0.679680 0.420462 0.432410
O O3 0.208323 0.460949 0.457038
O O4 0.942070 0.434221 0.356304
O O5 0.336437 0.250000 0.278278
O O6 0.299467 0.163631 0.482384
O O7 0.157464 0.148475 0.269883
O O8 0.443444 0.126313 0.286397
O O9 0.337629 0.073770 0.673116
O O10 0.087235 0.123655 0.631398
O O11 0.500000 0.500000 0.324682
#
# Coordination Sequence:
#
# PCOD9362101 Si02
#       5
#     8   8   8   8   8
#     4  11  24  42  75 111 139 176 236 305 359 412
#     4  12  28  47  68 102 147 194 238 287 357 431
#     4  11  25  42  73 103 142 182 235 301 358 417
#     4  11  25  44  71 107 142 183 235 295 354 420
#     4  11  25  44  71 108 140 184 239 298 354 420
#
# _framework density 21.663941000000001
#
# number of rings (size 3 to 8) (size 9 to 14) (size 15 to 20)
#    0.000    0.800    4.000    1.800   11.200    1.600 
#    0.000    3.000    0.000    0.000    0.000    0.000 
#    0.000    0.000    0.000    0.000    0.000    0.000 
#
# Total GULP energy -111608.510446 kJ/mol
# GULP energy per Si atom -5580.425522 kJ/mol
# Density = 2.161463 g / cm^3
# Si number density = 21.663941 Si / 1000 Ang^3
#
#
#
# Elastic Constant Matrix: (Units=GPa)
#
#
# Indices 1 2 3 4 5 6 
#
# 1 180.3056 64.5211 41.4287 0.0000 0.0000 0.0000
# 2 64.5211 113.5435 21.5492 0.0000 0.0000 0.0000
# 3 41.4287 21.5492 78.7456 0.0000 0.0000 0.0000
# 4 0.0000 0.0000 0.0000 12.5138 0.0000 0.0000
# 5 0.0000 0.0000 0.0000 0.0000 35.1416 0.0000
# 6 0.0000 0.0000 0.0000 0.0000 0.0000 25.3488
#
#
#
# Elastic Compliance Matrix: (Units=1/GPa)
#
#
# Indices 1 2 3 4 5 6 
#
# 1 0.007562 -0.003736 -0.002956 0.000000 0.000000 0.000000
# 2 -0.003736 0.011136 -0.001082 0.000000 0.000000 0.000000
# 3 -0.002956 -0.001082 0.014550 0.000000 0.000000 0.000000
# 4 0.000000 0.000000 0.000000 0.079912 0.000000 0.000000
# 5 0.000000 0.000000 0.000000 0.000000 0.028456 0.000000
# 6 0.000000 0.000000 0.000000 0.000000 0.000000 0.039450
#
#
# Mechanical properties :
#
#
# Convention : Reuss Voigt Hill
#
# Bulk Modulus (GPa) = 56.49655 69.73253 63.11454
# Shear Modulus (GPa) = 24.68960 30.94055 27.81507
#
# Velocity S-wave (km/s) = 3.37955 3.78326 3.58709
# Velocity P-wave (km/s) = 6.43146 7.16535 6.80830
#
# Compressibility (1/GPa) = 0.01770019
#
# Stress axis : x y z
#
# Youngs Moduli (GPa) = 132.23350 89.80194 68.72670
#
# Poissons Ratio (x) = 0.33552 0.20317
# Poissons Ratio (y) = 0.49406 0.07434
# Poissons Ratio (z) = 0.39091 0.09713
#
# Static dielectric constant tensor:
#      x y z
#    x 1.844000 0.000000 0.000000 
#    y 0.000000 1.766900 0.000000 
#    z 0.000000 0.000000 1.869690 
# 
# From -- ./inp_files/5057.got.cif
#   From: 2010.05.17/outbox.cif.g08.bks.cpg/sg39_3_cif.got.tgz:5057.got - 2010.06.03 18:22:40.
