data_PCOD9362046
_publ_section_title
;
Structure prediction by ZEFSAII (Michael W. Deem and Ramdas Pophale) SiO2 
 PCOD9362046
Probable space group: A B M 2
;
_chemical_formula_sum "Si O2"
_cell_formula_units_Z 32
_cell_length_a 10.177720
_cell_length_b 12.023492
_cell_length_c 12.028002
_cell_angle_alpha 90.000000
_cell_angle_beta 90.000000
_cell_angle_gamma 90.000000
_cell_volume 1471.887473
_symmetry_space_group_name_H-M "A B M 2"
_symmetry_group_IT_number 39
_symmetry_cell_setting 'orthorhombic'
loop_
_space_group_symop_operation_xyz
x,y,z
-x,-y,z
-x,1/2+y,z
x,1/2-y,z
x,1/2+y,1/2+z
-x,1/2-y,1/2+z
-x,y,1/2+z
x,-y,1/2+z
loop_
_atom_site_type_symbol
_atom_site_label
_atom_site_fract_x
_atom_site_fract_y
_atom_site_fract_z
Si Si1 0.532362 0.250000 0.386281
Si Si2 0.027763 0.750000 0.893484
Si Si3 0.223958 0.750000 0.550278
Si Si4 0.301039 0.128244 0.734301
Si Si5 0.289190 0.250000 0.525889
Si Si6 0.880397 0.569197 0.217314
O O1 0.634487 0.250000 0.489926
O O2 0.570672 0.354482 0.308315
O O3 0.383782 0.250000 0.421581
O O4 0.057170 0.855385 0.813999
O O5 0.139756 0.750000 0.988958
O O6 0.891048 0.750000 0.958317
O O7 0.196583 0.855424 0.629341
O O8 0.230035 0.250000 0.752310
O O9 0.323405 0.142656 0.602695
O O10 0.218554 0.022625 0.764600
O O11 0.000000 0.500000 0.162681
#
# Coordination Sequence:
#
# PCOD9362046 Si02
#       6
#     4   4   4   8   4   8
#     4   9  20  41  64  88 124 157 202 251 308 366
#     4  11  24  39  62  92 122 161 206 255 308 368
#     4  11  24  39  62  92 122 161 206 255 308 368
#     4   8  21  39  61  85 127 152 206 249 310 355
#     4   9  20  41  64  88 124 157 202 251 308 366
#     4  11  23  38  61  90 125 160 205 255 309 366
#
# _framework density 21.740793
#
# number of rings (size 3 to 8) (size 9 to 14) (size 15 to 20)
#    1.500    0.500    0.000    3.000    3.500   11.000 
#    0.000    7.500    0.000    0.000    0.000    0.000 
#    0.000    0.000    0.000    0.000    0.000    0.000 
#
# Total GULP energy -89194.570841 kJ/mol
# GULP energy per Si atom -5574.660678 kJ/mol
# Density = 2.169131 g / cm^3
# Si number density = 21.740793 Si / 1000 Ang^3
#
#
#
# Elastic Constant Matrix: (Units=GPa)
#
#
# Indices 1 2 3 4 5 6 
#
# 1 33.0201 -4.0317 -13.2193 0.0000 0.0000 0.0000
# 2 -4.0317 92.8815 0.0012 0.0000 0.0000 0.0000
# 3 -13.2193 0.0012 50.8944 0.0000 0.0000 0.0000
# 4 0.0000 0.0000 0.0000 -3.1869 0.0000 0.0000
# 5 0.0000 0.0000 0.0000 0.0000 23.1315 0.0000
# 6 0.0000 0.0000 0.0000 0.0000 0.0000 14.9183
#
#
#
# Elastic Compliance Matrix: (Units=1/GPa)
#
#
# Indices 1 2 3 4 5 6 
#
# 1 0.034000 0.001476 0.008831 0.000000 0.000000 0.000000
# 2 0.001476 0.010830 0.000383 0.000000 0.000000 0.000000
# 3 0.008831 0.000383 0.021942 0.000000 0.000000 0.000000
# 4 0.000000 0.000000 0.000000 -0.313785 0.000000 0.000000
# 5 0.000000 0.000000 0.000000 0.000000 0.043231 0.000000
# 6 0.000000 0.000000 0.000000 0.000000 0.000000 0.067032
#
#
# Mechanical properties :
#
#
# Convention : Reuss Voigt Hill
#
# Bulk Modulus (GPa) = 11.34390 15.81071 13.57731
# Shear Modulus (GPa) = -38.83639 19.90898 -9.46371
#
# Velocity S-wave (km/s) = -4.23109 3.02941 -2.08864
# Velocity P-wave (km/s) = 4.31745 4.41866 0.66489
#
# Compressibility (1/GPa) = 0.08815309
#
# Stress axis : x y z
#
# Youngs Moduli (GPa) = 29.41152 92.33223 45.57397
#
# Poissons Ratio (x) = -0.13626 -0.40247
# Poissons Ratio (y) = -0.04340 -0.01746
# Poissons Ratio (z) = -0.25974 -0.03537
#
# Static dielectric constant tensor:
#      x y z
#    x 1.798230 0.000000 0.000000 
#    y 0.000000 1.832870 0.000000 
#    z 0.000000 0.000000 1.867480 
# 
# From -- ./inp_files/4828.got.cif
#   From: 2010.05.17/outbox.cif.g08.bks.cpg/sg39_3_cif.got.tgz:4828.got - 2010.06.03 18:22:40.
