data_PCOD9362645
_publ_section_title
;
Structure prediction by ZEFSAII (Michael W. Deem and Ramdas Pophale) SiO2 
 PCOD9362645
Probable space group: A M A 2
;
_chemical_formula_sum "Si O2"
_cell_formula_units_Z 64
_cell_length_a 16.416870
_cell_length_b 8.691123
_cell_length_c 24.077656
_cell_angle_alpha 90.000000
_cell_angle_beta 90.000000
_cell_angle_gamma 90.000000
_cell_volume 3435.424913
_symmetry_space_group_name_H-M "A M A 2"
_symmetry_group_IT_number 40
_symmetry_cell_setting 'orthorhombic'
loop_
_space_group_symop_operation_xyz
x,y,z
-x,-y,z
1/2-x,y,z
1/2+x,-y,z
x,1/2+y,1/2+z
-x,1/2-y,1/2+z
1/2-x,1/2+y,1/2+z
1/2+x,1/2-y,1/2+z
loop_
_atom_site_type_symbol
_atom_site_label
_atom_site_fract_x
_atom_site_fract_y
_atom_site_fract_z
Si Si1 0.000757 0.183959 0.756540
Si Si2 0.082399 0.403417 0.670678
Si Si3 0.079532 0.389126 0.971046
Si Si4 0.088729 0.420350 0.095147
Si Si5 0.156042 0.714174 0.696088
Si Si6 0.657034 0.809553 0.441881
Si Si7 0.499414 0.317216 0.383683
Si Si8 0.156900 0.244302 0.568356
O O1 0.909340 0.242490 0.743313
O O2 0.020664 0.222328 0.820229
O O3 0.063410 0.267975 0.714678
O O4 0.000000 0.000000 0.748872
O O5 0.148989 0.530413 0.687269
O O6 0.101454 0.336679 0.610531
O O7 0.000000 0.500000 0.668551
O O8 0.148882 0.506239 0.950618
O O9 0.000000 0.500000 0.971227
O O10 0.061530 0.256941 0.927444
O O11 0.087534 0.338360 0.034880
O O12 0.120214 0.307034 0.142651
O O13 0.147480 0.566138 0.085950
O O14 0.000000 0.500000 0.106325
O O15 0.250000 0.757310 0.705793
O O16 0.750000 0.769295 0.428247
O O17 0.589759 0.748851 0.399413
O O18 0.635696 0.743915 0.503410
O O19 0.500000 0.500000 0.388829
O O20 0.250000 0.293124 0.575167
#
# Coordination Sequence:
#
# PCOD9362645 Si02
#       8
#     8   8   8   8   8   8   8   8
#     4  10  22  40  58  74  99 141 187 221 257 311
#     4  10  21  35  54  78 107 137 173 219 265 312
#     4   8  17  33  55  79 104 138 178 214 254 311
#     4  10  18  32  53  79 109 143 180 211 250 311
#     4  11  22  34  52  83 112 137 171 218 271 315
#     4   9  19  34  55  81 109 140 175 212 259 314
#     4  10  21  37  57  79 103 136 179 224 265 309
#     4  10  19  33  53  79 109 142 174 209 256 315
#
# _framework density 18.629428000000001
#
# number of rings (size 3 to 8) (size 9 to 14) (size 15 to 20)
#    0.000    2.250    0.000    4.125    0.000    7.000 
#    0.000    1.250    0.000    3.000    0.000    0.000 
#    0.000    0.000    0.000    0.000    0.000    0.000 
#
# Total GULP energy -178464.658981 kJ/mol
# GULP energy per Si atom -5577.020593 kJ/mol
# Density = 1.858703 g / cm^3
# Si number density = 18.629428 Si / 1000 Ang^3
#
#
#
# Elastic Constant Matrix: (Units=GPa)
#
#
# Indices 1 2 3 4 5 6 
#
# 1 53.3611 1.8829 1.5180 0.0000 0.0000 0.0000
# 2 1.8829 42.7387 20.3355 0.0000 0.0000 0.0000
# 3 1.5180 20.3355 66.7219 0.0000 0.0000 0.0000
# 4 0.0000 0.0000 0.0000 28.7522 0.0000 0.0000
# 5 0.0000 0.0000 0.0000 0.0000 13.5823 0.0000
# 6 0.0000 0.0000 0.0000 0.0000 0.0000 13.6195
#
#
#
# Elastic Compliance Matrix: (Units=1/GPa)
#
#
# Indices 1 2 3 4 5 6 
#
# 1 0.018772 -0.000730 -0.000205 0.000000 0.000000 0.000000
# 2 -0.000730 0.027395 -0.008333 0.000000 0.000000 0.000000
# 3 -0.000205 -0.008333 0.017532 0.000000 0.000000 0.000000
# 4 0.000000 0.000000 0.000000 0.034780 0.000000 0.000000
# 5 0.000000 0.000000 0.000000 0.000000 0.073625 0.000000
# 6 0.000000 0.000000 0.000000 0.000000 0.000000 0.073424
#
#
# Mechanical properties :
#
#
# Convention : Reuss Voigt Hill
#
# Bulk Modulus (GPa) = 22.14133 23.36605 22.75369
# Shear Modulus (GPa) = 17.91358 20.46312 19.18835
#
# Velocity S-wave (km/s) = 3.10429 3.31785 3.21285
# Velocity P-wave (km/s) = 4.97592 5.21989 5.09937
#
# Compressibility (1/GPa) = 0.04516441
#
# Stress axis : x y z
#
# Youngs Moduli (GPa) = 53.27133 36.50296 57.03874
#
# Poissons Ratio (x) = 0.02663 0.01168
# Poissons Ratio (y) = 0.03887 0.47530
# Poissons Ratio (z) = 0.01091 0.30417
#
# Static dielectric constant tensor:
#      x y z
#    x 1.673940 0.000000 0.000000 
#    y 0.000000 1.657810 0.000000 
#    z 0.000000 0.000000 1.647300 
# 
# From -- ./inp_files/23392.got.cif
#   From: 2010.05.17/outbox.cif.g08.bks.cpg/sg40_12_cif.got.tgz:23392.got - 2010.06.03 18:35:42.
