data_PCOD9362321
_publ_section_title
;
Structure prediction by ZEFSAII (Michael W. Deem and Ramdas Pophale) SiO2 
 PCOD9362321
Probable space group: A M A 2
;
_chemical_formula_sum "Si O2"
_cell_formula_units_Z 40
_cell_length_a 8.507466
_cell_length_b 21.448442
_cell_length_c 13.125213
_cell_angle_alpha 90.000000
_cell_angle_beta 90.000000
_cell_angle_gamma 90.000000
_cell_volume 2394.982437
_symmetry_space_group_name_H-M "A M A 2"
_symmetry_group_IT_number 40
_symmetry_cell_setting 'orthorhombic'
loop_
_space_group_symop_operation_xyz
x,y,z
-x,-y,z
1/2-x,y,z
1/2+x,-y,z
x,1/2+y,1/2+z
-x,1/2-y,1/2+z
1/2-x,1/2+y,1/2+z
1/2+x,1/2-y,1/2+z
loop_
_atom_site_type_symbol
_atom_site_label
_atom_site_fract_x
_atom_site_fract_y
_atom_site_fract_z
Si Si1 0.938755 0.700035 0.634240
Si Si2 0.438994 0.837455 0.577571
Si Si3 0.439637 0.162213 0.924154
Si Si4 0.059206 0.801862 0.359130
Si Si5 0.938391 0.429973 0.246958
O O1 0.750000 0.702308 0.632471
O O2 0.992132 0.678387 0.746539
O O3 0.002158 0.770249 0.617438
O O4 0.997435 0.659756 0.538935
O O5 0.250000 0.838007 0.581292
O O6 0.490288 0.840307 0.458822
O O7 0.504573 0.891383 0.648908
O O8 0.250000 0.162070 0.927891
O O9 0.487979 0.229839 0.879129
O O10 0.492066 0.108360 0.847289
O O11 0.250000 0.802515 0.358748
O O12 0.750000 0.430254 0.247247
O O13 0.000000 0.500000 0.246804
#
# Coordination Sequence:
#
# PCOD9362321 Si02
#       5
#     8   8   8   8   8
#     4  10  17  29  50  76 104 133 165 207 256 301
#     4  10  19  32  49  73 103 136 171 205 253 304
#     4   9  18  33  48  69 103 135 165 206 256 303
#     4   8  15  29  48  71 103 133 157 202 255 298
#     4  11  22  37  54  73 102 136 173 215 255 300
#
# _framework density 16.701585000000001
#
# number of rings (size 3 to 8) (size 9 to 14) (size 15 to 20)
#    0.000    2.400    2.000    3.000    0.000    1.600 
#    0.000    3.000    0.000    1.200    0.000    2.800 
#    0.000    0.000    0.000    0.000    0.000    0.000 
#
# Total GULP energy -111477.654372 kJ/mol
# GULP energy per Si atom -5573.882719 kJ/mol
# Density = 1.666357 g / cm^3
# Si number density = 16.701585 Si / 1000 Ang^3
#
#
#
# Elastic Constant Matrix: (Units=GPa)
#
#
# Indices 1 2 3 4 5 6 
#
# 1 34.9684 24.4886 32.3607 0.0000 0.0000 0.0000
# 2 24.4886 95.2772 78.2084 0.0000 0.0000 0.0000
# 3 32.3607 78.2084 204.3498 0.0000 0.0000 0.0000
# 4 0.0000 0.0000 0.0000 17.1970 0.0000 0.0000
# 5 0.0000 0.0000 0.0000 0.0000 26.2079 0.0000
# 6 0.0000 0.0000 0.0000 0.0000 0.0000 109.4315
#
#
#
# Elastic Compliance Matrix: (Units=1/GPa)
#
#
# Indices 1 2 3 4 5 6 
#
# 1 0.036229 -0.006711 -0.003169 0.000000 0.000000 0.000000
# 2 -0.006711 0.016546 -0.005270 0.000000 0.000000 0.000000
# 3 -0.003169 -0.005270 0.007412 0.000000 0.000000 0.000000
# 4 0.000000 0.000000 0.000000 0.058150 0.000000 0.000000
# 5 0.000000 0.000000 0.000000 0.000000 0.038156 0.000000
# 6 0.000000 0.000000 0.000000 0.000000 0.000000 0.009138
#
#
# Mechanical properties :
#
#
# Convention : Reuss Voigt Hill
#
# Bulk Modulus (GPa) = 33.45708 67.19009 50.32359
# Shear Modulus (GPa) = 24.28432 43.86979 34.07706
#
# Velocity S-wave (km/s) = 3.81729 5.13068 4.52192
# Velocity P-wave (km/s) = 6.28528 8.68422 7.58025
#
# Compressibility (1/GPa) = 0.02988904
#
# Stress axis : x y z
#
# Youngs Moduli (GPa) = 27.60187 60.43658 134.91111
#
# Poissons Ratio (x) = 0.40557 0.42753
# Poissons Ratio (y) = 0.18523 0.71096
# Poissons Ratio (z) = 0.08747 0.31849
#
# Static dielectric constant tensor:
#      x y z
#    x 1.569980 0.000000 0.000000 
#    y 0.000000 1.519800 0.000000 
#    z 0.000000 0.000000 1.605160 
# 
# From -- ./inp_files/10009.got.cif
#   From: 2010.05.17/outbox.cif.g08.bks.cpg/sg40_6_cif.got.tgz:10009.got - 2010.06.03 18:35:42.
