data_PCOD9362792
_publ_section_title
;
Structure prediction by ZEFSAII (Michael W. Deem and Ramdas Pophale) SiO2 
 PCOD9362792
Probable space group: A M A 2
;
_chemical_formula_sum "Si O2"
_cell_formula_units_Z 52
_cell_length_a 20.942109
_cell_length_b 11.145641
_cell_length_c 9.270482
_cell_angle_alpha 90.000000
_cell_angle_beta 90.000000
_cell_angle_gamma 90.000000
_cell_volume 2163.853135
_symmetry_space_group_name_H-M "A M A 2"
_symmetry_group_IT_number 40
_symmetry_cell_setting 'orthorhombic'
loop_
_space_group_symop_operation_xyz
x,y,z
-x,-y,z
1/2-x,y,z
1/2+x,-y,z
x,1/2+y,1/2+z
-x,1/2-y,1/2+z
1/2-x,1/2+y,1/2+z
1/2+x,1/2-y,1/2+z
loop_
_atom_site_type_symbol
_atom_site_label
_atom_site_fract_x
_atom_site_fract_y
_atom_site_fract_z
Si Si1 0.250000 0.647591 0.421981
Si Si2 0.608586 0.883901 0.847772
Si Si3 0.449343 0.587049 0.066594
Si Si4 0.885439 0.137395 0.161703
Si Si5 0.520901 0.837546 0.125426
Si Si6 0.250000 0.170646 0.259872
Si Si7 0.250000 0.917431 0.291619
Si Si8 0.119920 0.730821 0.871759
O O1 0.316660 0.590339 0.369564
O O2 0.250000 0.638937 0.593027
O O3 0.250000 0.790345 0.376761
O O4 0.572462 0.959290 0.723828
O O5 0.610176 0.753289 0.768009
O O6 0.566976 0.878712 0.993800
O O7 0.500000 0.500000 0.998540
O O8 0.486601 0.713627 0.072894
O O9 0.387077 0.611908 0.972277
O O10 0.817907 0.080857 0.205647
O O11 0.957319 0.086429 0.171587
O O12 0.881091 0.165340 0.990829
O O13 0.564156 0.792234 0.257584
O O14 0.185983 0.240520 0.291623
O O15 0.250000 0.050311 0.358310
#
# Coordination Sequence:
#
# PCOD9362792 Si02
#       8
#     4   8   8   8   8   4   4   8
#     4  10  20  40  60  82 122 160 202 250 316 370
#     4   9  18  36  60  79 111 161 191 234 306 366
#     4  10  21  36  57  89 119 148 198 252 301 363
#     4   9  18  36  59  81 113 159 192 233 310 366
#     4  10  18  36  60  83 112 158 191 237 305 361
#     4  12  23  39  61  93 120 156 215 259 299 373
#     4  10  23  39  61  85 118 162 203 255 305 373
#     4  10  21  37  60  85 121 157 196 249 303 363
#
# _framework density 24.031206999999998
#
# number of rings (size 3 to 8) (size 9 to 14) (size 15 to 20)
#    0.000    2.462    1.538    4.154    0.000    5.538 
#    5.538    0.769    0.000    2.769    0.000    0.000 
#    0.000    0.000    0.000    0.000    0.000    0.000 
#
# Total GULP energy -144923.475868 kJ/mol
# GULP energy per Si atom -5573.979841 kJ/mol
# Density = 2.397651 g / cm^3
# Si number density = 24.031207 Si / 1000 Ang^3
#
#
#
# Elastic Constant Matrix: (Units=GPa)
#
#
# Indices 1 2 3 4 5 6 
#
# 1 217.1983 18.0767 45.9154 0.0000 0.0000 0.0000
# 2 18.0767 22.1872 7.6250 0.0000 0.0000 0.0000
# 3 45.9154 7.6250 98.0610 0.0000 0.0000 0.0000
# 4 0.0000 0.0000 0.0000 11.2329 0.0000 0.0000
# 5 0.0000 0.0000 0.0000 0.0000 46.6265 0.0000
# 6 0.0000 0.0000 0.0000 0.0000 0.0000 13.1597
#
#
#
# Elastic Compliance Matrix: (Units=1/GPa)
#
#
# Indices 1 2 3 4 5 6 
#
# 1 0.005378 -0.003613 -0.002237 0.000000 0.000000 0.000000
# 2 -0.003613 0.048735 -0.002098 0.000000 0.000000 0.000000
# 3 -0.002237 -0.002098 0.011408 0.000000 0.000000 0.000000
# 4 0.000000 0.000000 0.000000 0.089024 0.000000 0.000000
# 5 0.000000 0.000000 0.000000 0.000000 0.021447 0.000000
# 6 0.000000 0.000000 0.000000 0.000000 0.000000 0.075989
#
#
# Mechanical properties :
#
#
# Convention : Reuss Voigt Hill
#
# Bulk Modulus (GPa) = 20.15072 53.40898 36.77985
# Shear Modulus (GPa) = 17.57968 31.92580 24.75274
#
# Velocity S-wave (km/s) = 2.70763 3.64883 3.21288
# Velocity P-wave (km/s) = 4.26362 6.32654 5.39460
#
# Compressibility (1/GPa) = 0.04962602
#
# Stress axis : x y z
#
# Youngs Moduli (GPa) = 185.95421 20.51895 87.65510
#
# Poissons Ratio (x) = 0.07413 0.19609
# Poissons Ratio (y) = 0.67177 0.18390
# Poissons Ratio (z) = 0.41600 0.04305
#
# Static dielectric constant tensor:
#      x y z
#    x 1.951230 0.000000 0.000000 
#    y 0.000000 2.037730 0.000000 
#    z 0.000000 0.000000 1.949110 
# 
# From -- ./inp_files/8266.got.cif
#   From: 2010.05.17/outbox.cif.g08.bks.cpg/sg40_5_cif.got.tgz:8266.got - 2010.06.03 18:35:42.
