data_PCOD9362202
_publ_section_title
;
Structure prediction by ZEFSAII (Michael W. Deem and Ramdas Pophale) SiO2 
 PCOD9362202
Probable space group: A B M 2
;
_chemical_formula_sum "Si O2"
_cell_formula_units_Z 30
_cell_length_a 15.000000
_cell_length_b 9.000000
_cell_length_c 24.000000
_cell_angle_alpha 90.000000
_cell_angle_beta 90.000000
_cell_angle_gamma 90.000000
_cell_volume 3240.000000
_symmetry_space_group_name_H-M "A B M 2"
_symmetry_group_IT_number 39
_symmetry_cell_setting 'orthorhombic'
loop_
_space_group_symop_operation_xyz
x,y,z
-x,-y,z
-x,1/2+y,z
x,1/2-y,z
x,1/2+y,1/2+z
-x,1/2-y,1/2+z
-x,y,1/2+z
x,-y,1/2+z
loop_
_atom_site_type_symbol
_atom_site_label
_atom_site_fract_x
_atom_site_fract_y
_atom_site_fract_z
Si Si1 0.910844 0.072536 0.171140
Si Si2 0.405835 0.071814 0.039429
Si Si3 0.274294 0.583354 0.360106
Si Si4 0.149706 0.590205 0.467505
Si Si5 0.135336 0.580186 0.788333
Si Si6 0.587805 0.421886 0.919190
Si Si7 0.000000 0.000000 0.883503
Si Si8 0.225664 0.075239 0.570811
O O1 0.921581 0.250000 0.180524
O O2 0.831800 0.050903 0.126622
O O3 0.897037 0.988281 0.229954
O O4 0.000000 0.000000 0.146095
O O5 0.411805 0.250000 0.038825
O O6 0.500000 0.000000 0.058687
O O7 0.317781 0.016356 0.071125
O O8 0.392492 0.008667 0.976682
O O9 0.310214 0.750000 0.350982
O O10 0.224100 0.586031 0.419576
O O11 0.208372 0.533859 0.311802
O O12 0.342413 0.451876 0.370933
O O13 0.152086 0.750000 0.496498
O O14 0.169120 0.471389 0.515539
O O15 0.063394 0.581134 0.427921
O O16 0.165345 0.750000 0.779972
O O17 0.063113 0.583924 0.839047
O O18 0.500000 0.500000 0.897798
O O19 0.577131 0.250000 0.932376
O O20 0.246537 0.250000 0.566266
#
# Coordination Sequence:
#
# PCOD9362202 Si02
#       8
#     8   8   8   8   8   8   4   8
#     4  11  25  43  62  85 115 155 201 249 297 347
#     4  11  21  36  59  86 117 154 194 239 292 354
#     4  10  20  35  55  83 117 151 188 237 289 341
#     4  10  21  35  54  80 114 152 190 231 287 347
#     4  11  22  38  62  85 111 151 200 246 290 342
#     4  11  20  32  53  82 119 156 193 233 284 347
#     4  10  22  36  56  84 116 150 194 242 286 346
#     4  11  24  40  58  85 120 156 196 245 296 352
#
# _framework density 9.2592590000000001
#
# number of rings (size 3 to 8) (size 9 to 14) (size 15 to 20)
#    0.000    1.333    2.000    5.200    0.933    5.867 
#    0.000    0.000    0.000    0.800    0.000    1.867 
#    0.000    0.000    0.000    0.000    0.000    0.000 
#
# Total GULP energy -167128.519710 kJ/mol
# GULP energy per Si atom -5570.950657 kJ/mol
# Density = 0.923818 g / cm^3
# Si number density = 9.259259 Si / 1000 Ang^3
#
#
#
# Elastic Constant Matrix: (Units=GPa)
#
#
# Indices 1 2 3 4 5 6 
#
# 1 86.4592 46.1105 30.9214 0.0000 0.0000 0.0000
# 2 46.1105 146.9379 36.2496 0.0000 0.0000 0.0000
# 3 30.9214 36.2496 63.8045 0.0000 0.0000 0.0000
# 4 0.0000 0.0000 0.0000 18.7950 0.0000 0.0000
# 5 0.0000 0.0000 0.0000 0.0000 19.7644 0.0000
# 6 0.0000 0.0000 0.0000 0.0000 0.0000 -4.9612
#
#
#
# Elastic Compliance Matrix: (Units=1/GPa)
#
#
# Indices 1 2 3 4 5 6 
#
# 1 0.015379 -0.003474 -0.005479 0.000000 0.000000 0.000000
# 2 -0.003474 0.008700 -0.003259 0.000000 0.000000 0.000000
# 3 -0.005479 -0.003259 0.020180 0.000000 0.000000 0.000000
# 4 0.000000 0.000000 0.000000 0.053206 0.000000 0.000000
# 5 0.000000 0.000000 0.000000 0.000000 0.050596 0.000000
# 6 0.000000 0.000000 0.000000 0.000000 0.000000 -0.201566
#
#
# Mechanical properties :
#
#
# Convention : Reuss Voigt Hill
#
# Bulk Modulus (GPa) = 50.41949 58.19607 54.30778
# Shear Modulus (GPa) = -222.51573 18.98097 -101.76738
#
# Velocity S-wave (km/s) = -10.97358 3.20499 -7.42116
# Velocity P-wave (km/s) = 11.54441 6.72236 6.63639
#
# Compressibility (1/GPa) = 0.01983360
#
# Stress axis : x y z
#
# Youngs Moduli (GPa) = 65.02546 114.94459 49.55472
#
# Poissons Ratio (x) = 0.39935 0.27151
# Poissons Ratio (y) = 0.22592 0.16150
# Poissons Ratio (z) = 0.35628 0.37460
#
# Static dielectric constant tensor:
#      x y z
#    x 1.740030 0.000000 0.000000 
#    y 0.000000 1.650000 0.000000 
#    z 0.000000 0.000000 1.583900 
# 
# From -- ./inp_files/16101.got.cif
#   From: 2010.05.17/outbox.ucp.g08.bks.cvg/sg39_9_cif.got.tgz:16101.got - 2010.06.11 10:41:16.
