data_PCOD9362228
_publ_section_title
;
Structure prediction by ZEFSAII (Michael W. Deem and Ramdas Pophale) SiO2 
 PCOD9362228
Probable space group: A B M 2
;
_chemical_formula_sum "Si O2"
_cell_formula_units_Z 30
_cell_length_a 18.000000
_cell_length_b 9.000000
_cell_length_c 18.000000
_cell_angle_alpha 90.000000
_cell_angle_beta 90.000000
_cell_angle_gamma 90.000000
_cell_volume 2916.000000
_symmetry_space_group_name_H-M "A B M 2"
_symmetry_group_IT_number 39
_symmetry_cell_setting 'orthorhombic'
loop_
_space_group_symop_operation_xyz
x,y,z
-x,-y,z
-x,1/2+y,z
x,1/2-y,z
x,1/2+y,1/2+z
-x,1/2-y,1/2+z
-x,y,1/2+z
x,-y,1/2+z
loop_
_atom_site_type_symbol
_atom_site_label
_atom_site_fract_x
_atom_site_fract_y
_atom_site_fract_z
Si Si1 0.575437 0.919042 0.928150
Si Si2 0.879933 0.082518 0.867992
Si Si3 0.135049 0.085854 0.641602
Si Si4 0.575466 0.079762 0.606589
Si Si5 0.000000 0.000000 0.746690
Si Si6 0.301547 0.576595 0.195547
Si Si7 0.293939 0.074471 0.346767
Si Si8 0.924933 0.578953 0.013980
O O1 0.575872 0.750000 0.900684
O O2 0.500000 0.000000 0.901445
O O3 0.652274 0.996923 0.905541
O O4 0.571943 0.917392 0.017394
O O5 0.879061 0.250000 0.897949
O O6 0.794721 0.042076 0.849414
O O7 0.941089 0.079570 0.802198
O O8 0.904993 0.973573 0.932338
O O9 0.136122 0.250000 0.607388
O O10 0.212724 0.064720 0.683581
O O11 0.061382 0.077102 0.693254
O O12 0.133236 0.967017 0.576211
O O13 0.578963 0.250000 0.633101
O O14 0.500000 0.000000 0.633692
O O15 0.648422 0.990039 0.630480
O O16 0.318148 0.750000 0.205224
O O17 0.321534 0.484003 0.267948
O O18 0.301581 0.250000 0.353798
O O19 0.938112 0.750000 0.014177
O O20 0.000000 0.500000 0.037251
#
# Coordination Sequence:
#
# PCOD9362228 Si02
#       8
#     8   8   8   8   4   8   8   8
#     4  10  22  42  68  98 130 169 214 263 320 385
#     4  11  25  43  65  95 129 169 216 268 324 381
#     4  11  25  43  65  95 129 169 216 268 324 381
#     4  10  22  42  68  98 130 169 214 263 320 385
#     4  12  22  42  72  94 128 174 218 268 326 378
#     4  11  24  42  64  95 132 169 213 266 321 383
#     4  11  24  42  64  95 132 169 213 266 321 383
#     4  12  26  42  64  90 123 164 215 268 322 384
#
# _framework density 10.288066000000001
#
# number of rings (size 3 to 8) (size 9 to 14) (size 15 to 20)
#    0.000    1.067    2.667    3.200    1.867    5.333 
#    0.000    2.667    0.000    0.000    0.000    0.000 
#    0.000    0.000    0.000    0.000    0.000    0.000 
#
# Total GULP energy -167364.794194 kJ/mol
# GULP energy per Si atom -5578.826473 kJ/mol
# Density = 1.026465 g / cm^3
# Si number density = 10.288066 Si / 1000 Ang^3
#
#
#
# Elastic Constant Matrix: (Units=GPa)
#
#
# Indices 1 2 3 4 5 6 
#
# 1 122.4675 61.7089 12.5063 0.0000 0.0000 0.0000
# 2 61.7089 103.2501 45.4674 0.0000 0.0000 0.0000
# 3 12.5063 45.4674 47.3443 0.0000 0.0000 0.0000
# 4 0.0000 0.0000 0.0000 46.8198 0.0000 0.0000
# 5 0.0000 0.0000 0.0000 0.0000 21.0073 0.0000
# 6 0.0000 0.0000 0.0000 0.0000 0.0000 27.8315
#
#
#
# Elastic Compliance Matrix: (Units=1/GPa)
#
#
# Indices 1 2 3 4 5 6 
#
# 1 0.012868 -0.010733 0.006908 0.000000 0.000000 0.000000
# 2 -0.010733 0.025735 -0.021879 0.000000 0.000000 0.000000
# 3 0.006908 -0.021879 0.040309 0.000000 0.000000 0.000000
# 4 0.000000 0.000000 0.000000 0.021358 0.000000 0.000000
# 5 0.000000 0.000000 0.000000 0.000000 0.047603 0.000000
# 6 0.000000 0.000000 0.000000 0.000000 0.000000 0.035931
#
#
# Mechanical properties :
#
#
# Convention : Reuss Voigt Hill
#
# Bulk Modulus (GPa) = 36.35872 56.93635 46.64753
# Shear Modulus (GPa) = 20.46000 29.35700 24.90850
#
# Velocity S-wave (km/s) = 3.15676 3.78133 3.48307
# Velocity P-wave (km/s) = 5.56737 6.84074 6.23664
#
# Compressibility (1/GPa) = 0.02750372
#
# Stress axis : x y z
#
# Youngs Moduli (GPa) = 77.71173 38.85799 24.80839
#
# Poissons Ratio (x) = 0.41706 -0.17138
# Poissons Ratio (y) = 0.83407 0.54279
# Poissons Ratio (z) = -0.53685 0.85019
#
# Static dielectric constant tensor:
#      x y z
#    x 1.714160 0.000000 0.000000 
#    y 0.000000 1.723070 0.000000 
#    z 0.000000 0.000000 1.754560 
# 
# From -- ./inp_files/12939.got.cif
#   From: 2010.05.17/outbox.ucp.g08.bks.cvg/sg39_7_cif.got.tgz:12939.got - 2010.06.11 10:41:16.
