data_PCOD9362858
_publ_section_title
;
Structure prediction by ZEFSAII (Michael W. Deem and Ramdas Pophale) SiO2 
 PCOD9362858
Probable space group: A M A 2
;
_chemical_formula_sum "Si O2"
_cell_formula_units_Z 64
_cell_length_a 18.994305
_cell_length_b 29.047301
_cell_length_c 5.347419
_cell_angle_alpha 90.000000
_cell_angle_beta 90.000000
_cell_angle_gamma 90.000000
_cell_volume 2950.349103
_symmetry_space_group_name_H-M "A M A 2"
_symmetry_group_IT_number 40
_symmetry_cell_setting 'orthorhombic'
loop_
_space_group_symop_operation_xyz
x,y,z
-x,-y,z
1/2-x,y,z
1/2+x,-y,z
x,1/2+y,1/2+z
-x,1/2-y,1/2+z
1/2-x,1/2+y,1/2+z
1/2+x,1/2-y,1/2+z
loop_
_atom_site_type_symbol
_atom_site_label
_atom_site_fract_x
_atom_site_fract_y
_atom_site_fract_z
Si Si1 0.414627 0.614355 0.563120
Si Si2 0.058668 0.382462 0.315184
Si Si3 0.418245 0.324122 0.817603
Si Si4 0.578153 0.976211 0.380128
Si Si5 0.934874 0.792736 0.370202
Si Si6 0.674186 0.738370 0.107326
Si Si7 0.416371 0.485905 0.381334
Si Si8 0.325978 0.171703 0.771057
O O1 0.477105 0.606078 0.368407
O O2 0.421011 0.575616 0.774959
O O3 0.429767 0.663972 0.682954
O O4 0.343293 0.624109 0.412561
O O5 0.067296 0.359791 0.044739
O O6 0.093619 0.432471 0.322828
O O7 0.081486 0.349866 0.549980
O O8 0.347367 0.298492 0.898821
O O9 0.481150 0.286185 0.856953
O O10 0.500000 0.000000 0.404841
O O11 0.610871 0.983845 0.651043
O O12 0.614373 0.003270 0.152466
O O13 0.890103 0.747774 0.296697
O O14 0.893039 0.813229 0.606793
O O15 0.750000 0.727407 0.224477
O O16 0.680272 0.787233 0.969837
O O17 0.500000 0.500000 0.406749
O O18 0.250000 0.169375 0.634700
#
# Coordination Sequence:
#
# PCOD9362858 Si02
#       8
#     8   8   8   8   8   8   8   8
#     4  10  20  34  52  86 124 159 197 254 309 373
#     4  11  21  38  55  93 128 155 201 260 318 371
#     4  11  25  37  64  89 126 162 207 262 326 369
#     4  10  19  28  52  83 120 157 189 234 304 367
#     4  10  22  34  61  85 124 158 205 264 315 373
#     4  10  24  43  60  87 122 166 218 261 319 388
#     4  10  19  30  53  81 125 153 190 236 310 369
#     4  10  21  38  59  82 118 166 206 257 315 383
#
# _framework density 21.692347000000002
#
# number of rings (size 3 to 8) (size 9 to 14) (size 15 to 20)
#    0.000    1.750    3.750    1.125   10.500    0.500 
#    0.000    0.000    0.000    0.000    0.000    5.250 
#    0.000    0.000    0.000    0.000    0.000    0.000 
#
# Total GULP energy -178319.917321 kJ/mol
# GULP energy per Si atom -5572.497416 kJ/mol
# Density = 2.164297 g / cm^3
# Si number density = 21.692347 Si / 1000 Ang^3
#
#
#
# Elastic Constant Matrix: (Units=GPa)
#
#
# Indices 1 2 3 4 5 6 
#
# 1 40.7882 15.6005 -4.3810 0.0000 0.0000 0.0000
# 2 15.6005 80.2155 5.4103 0.0000 0.0000 0.0000
# 3 -4.3810 5.4103 75.5547 0.0000 0.0000 0.0000
# 4 0.0000 0.0000 0.0000 19.9667 0.0000 0.0000
# 5 0.0000 0.0000 0.0000 0.0000 7.5561 0.0000
# 6 0.0000 0.0000 0.0000 0.0000 0.0000 -12.2468
#
#
#
# Elastic Compliance Matrix: (Units=1/GPa)
#
#
# Indices 1 2 3 4 5 6 
#
# 1 0.026765 -0.005336 0.001934 0.000000 0.000000 0.000000
# 2 -0.005336 0.013591 -0.001283 0.000000 0.000000 0.000000
# 3 0.001934 -0.001283 0.013439 0.000000 0.000000 0.000000
# 4 0.000000 0.000000 0.000000 0.050083 0.000000 0.000000
# 5 0.000000 0.000000 0.000000 0.000000 0.132343 0.000000
# 6 0.000000 0.000000 0.000000 0.000000 0.000000 -0.081654
#
#
# Mechanical properties :
#
#
# Convention : Reuss Voigt Hill
#
# Bulk Modulus (GPa) = 22.50893 25.53533 24.02213
# Shear Modulus (GPa) = 27.97268 15.05044 21.51156
#
# Velocity S-wave (km/s) = 3.59488 2.63689 3.15249
# Velocity P-wave (km/s) = 5.25641 4.59000 4.93447
#
# Compressibility (1/GPa) = 0.04442681
#
# Stress axis : x y z
#
# Youngs Moduli (GPa) = 37.36157 73.57999 74.40786
#
# Poissons Ratio (x) = 0.39261 -0.14391
# Poissons Ratio (y) = 0.19936 0.09543
# Poissons Ratio (z) = -0.07226 0.09437
#
# Static dielectric constant tensor:
#      x y z
#    x 1.933980 0.000000 0.000000 
#    y 0.000000 1.860420 0.000000 
#    z 0.000000 0.000000 1.872830 
# 
# From -- ./inp_files/2037.got.cif
#   From: 2010.05.17/outbox.cif.g08.bks.cpg/sg40_2_cif.got.tgz:2037.got - 2010.06.03 18:35:42.
