data_PCOD9362279
_publ_section_title
;
Structure prediction by ZEFSAII (Michael W. Deem and Ramdas Pophale) SiO2 
 PCOD9362279
Probable space group: A M A 2
;
_chemical_formula_sum "Si O2"
_cell_formula_units_Z 40
_cell_length_a 8.613884
_cell_length_b 7.831108
_cell_length_c 28.060757
_cell_angle_alpha 90.000000
_cell_angle_beta 90.000000
_cell_angle_gamma 90.000000
_cell_volume 1892.873605
_symmetry_space_group_name_H-M "A M A 2"
_symmetry_group_IT_number 40
_symmetry_cell_setting 'orthorhombic'
loop_
_space_group_symop_operation_xyz
x,y,z
-x,-y,z
1/2-x,y,z
1/2+x,-y,z
x,1/2+y,1/2+z
-x,1/2-y,1/2+z
1/2-x,1/2+y,1/2+z
1/2+x,1/2-y,1/2+z
loop_
_atom_site_type_symbol
_atom_site_label
_atom_site_fract_x
_atom_site_fract_y
_atom_site_fract_z
Si Si1 0.063647 0.804937 0.763070
Si Si2 0.435658 0.190409 0.963466
Si Si3 0.936140 0.190724 0.568369
Si Si4 0.565152 0.304315 0.165400
Si Si5 0.435866 0.804926 0.866865
O O1 0.250000 0.809982 0.758861
O O2 0.022498 0.728509 0.815000
O O3 0.993395 0.725199 0.715106
O O4 0.000000 0.000000 0.764480
O O5 0.250000 0.194161 0.961645
O O6 0.498887 0.277925 0.915265
O O7 0.500000 0.000000 0.960712
O O8 0.485653 0.249551 0.015911
O O9 0.750000 0.195449 0.571016
O O10 0.003427 0.276915 0.616181
O O11 0.000000 0.000000 0.570561
O O12 0.500000 0.500000 0.166257
O O13 0.750000 0.310665 0.164556
O O14 0.250000 0.812129 0.870314
O O15 0.500000 0.000000 0.865348
#
# Coordination Sequence:
#
# PCOD9362279 Si02
#       5
#     8   8   8   8   8
#     4   9  15  23  36  57  85 115 145 180 223 270
#     4  10  20  32  48  69  94 123 155 190 229 271
#     4  10  20  33  48  68  93 123 156 191 229 271
#     4  10  17  25  40  61  86 117 148 184 227 270
#     4   9  16  25  40  61  87 118 149 183 225 268
#
# _framework density 21.131893000000002
#
# number of rings (size 3 to 8) (size 9 to 14) (size 15 to 20)
#    0.000    2.400    0.000    7.800    0.000    5.600 
#    0.000    0.000    0.000    0.000    0.000    1.400 
#    0.000    9.600    0.000    0.000    0.000    0.000 
#
# Total GULP energy -111431.378518 kJ/mol
# GULP energy per Si atom -5571.568926 kJ/mol
# Density = 2.108380 g / cm^3
# Si number density = 21.131893 Si / 1000 Ang^3
#
#
#
# Elastic Constant Matrix: (Units=GPa)
#
#
# Indices 1 2 3 4 5 6 
#
# 1 89.0489 -0.1831 77.2236 0.0000 0.0000 0.0000
# 2 -0.1831 17.7044 21.1235 0.0000 0.0000 0.0000
# 3 77.2236 21.1235 302.9932 0.0000 0.0000 0.0000
# 4 0.0000 0.0000 0.0000 13.1554 0.0000 0.0000
# 5 0.0000 0.0000 0.0000 0.0000 41.3206 0.0000
# 6 0.0000 0.0000 0.0000 0.0000 0.0000 -1.4168
#
#
#
# Elastic Compliance Matrix: (Units=1/GPa)
#
#
# Indices 1 2 3 4 5 6 
#
# 1 0.014824 0.005084 -0.004133 0.000000 0.000000 0.000000
# 2 0.005084 0.063351 -0.005712 0.000000 0.000000 0.000000
# 3 -0.004133 -0.005712 0.004752 0.000000 0.000000 0.000000
# 4 0.000000 0.000000 0.000000 0.076014 0.000000 0.000000
# 5 0.000000 0.000000 0.000000 0.000000 0.024201 0.000000
# 6 0.000000 0.000000 0.000000 0.000000 0.000000 -0.705835
#
#
# Mechanical properties :
#
#
# Convention : Reuss Voigt Hill
#
# Bulk Modulus (GPa) = 13.62296 67.34161 40.48228
# Shear Modulus (GPa) = -10.23119 31.38401 10.57641
#
# Velocity S-wave (km/s) = -2.20275 3.85794 2.23960
# Velocity P-wave (km/s) = 0.09398 7.19593 5.08786
#
# Compressibility (1/GPa) = 0.07340550
#
# Stress axis : x y z
#
# Youngs Moduli (GPa) = 67.45778 15.78497 210.44077
#
# Poissons Ratio (x) = -0.08025 0.86968
# Poissons Ratio (y) = -0.34296 1.20212
# Poissons Ratio (z) = 0.27878 0.09017
#
# Static dielectric constant tensor:
#      x y z
#    x 1.703390 0.000000 0.000000 
#    y 0.000000 1.795790 0.000000 
#    z 0.000000 0.000000 1.938220 
# 
# From -- ./inp_files/21936.got.cif
#   From: 2010.05.17/outbox.cif.g08.bks.cpg/sg40_11_cif.got.tgz:21936.got - 2010.06.03 18:35:42.
