data_PCOD9362452
_publ_section_title
;
Structure prediction by ZEFSAII (Michael W. Deem and Ramdas Pophale) SiO2 
 PCOD9362452
Probable space group: A M A 2
;
_chemical_formula_sum "Si O2"
_cell_formula_units_Z 48
_cell_length_a 7.764076
_cell_length_b 18.363769
_cell_length_c 13.592648
_cell_angle_alpha 90.000000
_cell_angle_beta 90.000000
_cell_angle_gamma 90.000000
_cell_volume 1938.008464
_symmetry_space_group_name_H-M "A M A 2"
_symmetry_group_IT_number 40
_symmetry_cell_setting 'orthorhombic'
loop_
_space_group_symop_operation_xyz
x,y,z
-x,-y,z
1/2-x,y,z
1/2+x,-y,z
x,1/2+y,1/2+z
-x,1/2-y,1/2+z
1/2-x,1/2+y,1/2+z
1/2+x,1/2-y,1/2+z
loop_
_atom_site_type_symbol
_atom_site_label
_atom_site_fract_x
_atom_site_fract_y
_atom_site_fract_z
Si Si1 0.946004 0.895713 0.236210
Si Si2 0.446239 0.236454 0.710310
Si Si3 0.053720 0.768470 0.977410
Si Si4 0.543191 0.920404 0.665532
Si Si5 0.551348 0.079328 0.015005
Si Si6 0.963003 0.388004 0.944303
O O1 0.750000 0.920876 0.227188
O O2 0.020321 0.921604 0.340681
O O3 0.949582 0.807362 0.242462
O O4 0.032710 0.916964 0.133761
O O5 0.250000 0.239300 0.749340
O O6 0.432520 0.250623 0.593277
O O7 0.518172 0.154036 0.719083
O O8 0.250000 0.770755 0.937937
O O9 0.967160 0.847547 0.970428
O O10 0.970175 0.695061 0.940025
O O11 0.750000 0.913208 0.663771
O O12 0.482998 0.918500 0.550598
O O13 0.500000 0.000000 0.707124
O O14 0.750000 0.087592 0.993281
O O15 0.500000 0.000000 0.980008
O O16 0.750000 0.388191 0.943868
#
# Coordination Sequence:
#
# PCOD9362452 Si02
#       6
#     8   8   8   8   8   8
#     4  10  18  28  46  70  93 116 146 182 218 264
#     4   8  15  29  46  62  85 118 151 183 219 258
#     4   7  12  26  46  62  79 111 150 181 213 255
#     4   9  17  30  47  66  90 119 150 183 220 261
#     4  10  19  31  47  66  91 120 149 182 220 262
#     4   8  15  28  45  66  90 116 145 179 222 266
#
# _framework density 24.767693000000001
#
# number of rings (size 3 to 8) (size 9 to 14) (size 15 to 20)
#    0.000    3.333    0.000    4.000    0.000    1.333 
#    0.000    3.333    0.000   11.000    0.000    4.667 
#    0.000    0.000    0.000    0.000    0.000    0.000 
#
# Total GULP energy -133744.657675 kJ/mol
# GULP energy per Si atom -5572.694070 kJ/mol
# Density = 2.471132 g / cm^3
# Si number density = 24.767693 Si / 1000 Ang^3
#
#
#
# Elastic Constant Matrix: (Units=GPa)
#
#
# Indices 1 2 3 4 5 6 
#
# 1 39.0889 3.4595 -4.2493 0.0000 0.0000 0.0000
# 2 3.4595 210.4622 -3.5590 0.0000 0.0000 0.0000
# 3 -4.2493 -3.5590 49.7330 0.0000 0.0000 0.0000
# 4 0.0000 0.0000 0.0000 -13.9692 0.0000 0.0000
# 5 0.0000 0.0000 0.0000 0.0000 -58.7224 0.0000
# 6 0.0000 0.0000 0.0000 0.0000 0.0000 25.6712
#
#
#
# Elastic Compliance Matrix: (Units=1/GPa)
#
#
# Indices 1 2 3 4 5 6 
#
# 1 0.025854 -0.000388 0.002181 0.000000 0.000000 0.000000
# 2 -0.000388 0.004763 0.000308 0.000000 0.000000 0.000000
# 3 0.002181 0.000308 0.020316 0.000000 0.000000 0.000000
# 4 0.000000 0.000000 0.000000 -0.071586 0.000000 0.000000
# 5 0.000000 0.000000 0.000000 0.000000 -0.017029 0.000000
# 6 0.000000 0.000000 0.000000 0.000000 0.000000 0.038954
#
#
# Mechanical properties :
#
#
# Convention : Reuss Voigt Hill
#
# Bulk Modulus (GPa) = 18.13738 32.28737 25.21238
# Shear Modulus (GPa) = 323.65600 10.83811 167.24705
#
# Velocity S-wave (km/s) = 11.44379 2.09414 8.22635
# Velocity P-wave (km/s) = 13.48899 4.34875 10.02158
#
# Compressibility (1/GPa) = 0.05513475
#
# Stress axis : x y z
#
# Youngs Moduli (GPa) = 38.67844 209.95042 49.22287
#
# Poissons Ratio (x) = 0.08148 -0.10737
# Poissons Ratio (y) = 0.01501 -0.01515
# Poissons Ratio (z) = -0.08437 -0.06460
#
# Static dielectric constant tensor:
#      x y z
#    x 2.007190 0.000000 0.000000 
#    y 0.000000 2.071710 0.000000 
#    z 0.000000 0.000000 1.999700 
# 
# From -- ./inp_files/15156.got.cif
#   From: 2010.05.17/outbox.cif.g08.bks.cpg/sg40_8_cif.got.tgz:15156.got - 2010.06.03 18:35:42.
