data_PCOD9362744
_publ_section_title
;
Structure prediction by ZEFSAII (Michael W. Deem and Ramdas Pophale) SiO2 
 PCOD9362744
Probable space group: A M A 2
;
_chemical_formula_sum "Si O2"
_cell_formula_units_Z 52
_cell_length_a 14.749595
_cell_length_b 17.045226
_cell_length_c 11.276209
_cell_angle_alpha 90.000000
_cell_angle_beta 90.000000
_cell_angle_gamma 90.000000
_cell_volume 2834.953736
_symmetry_space_group_name_H-M "A M A 2"
_symmetry_group_IT_number 40
_symmetry_cell_setting 'orthorhombic'
loop_
_space_group_symop_operation_xyz
x,y,z
-x,-y,z
1/2-x,y,z
1/2+x,-y,z
x,1/2+y,1/2+z
-x,1/2-y,1/2+z
1/2-x,1/2+y,1/2+z
1/2+x,1/2-y,1/2+z
loop_
_atom_site_type_symbol
_atom_site_label
_atom_site_fract_x
_atom_site_fract_y
_atom_site_fract_z
Si Si1 0.000000 0.000000 0.460150
Si Si2 0.146372 0.547719 0.779085
Si Si3 0.994793 0.162041 0.858251
Si Si4 0.848805 0.291711 0.916953
Si Si5 0.083057 0.115283 0.631930
Si Si6 0.850423 0.027024 0.796098
Si Si7 0.146032 0.587670 0.516683
O O1 0.914791 0.999378 0.371656
O O2 0.991826 0.924294 0.545172
O O3 0.250000 0.520123 0.785131
O O4 0.143865 0.637950 0.822550
O O5 0.117816 0.550820 0.642285
O O6 0.929810 0.231616 0.897919
O O7 0.929676 0.089431 0.818777
O O8 0.049148 0.172496 0.735466
O O9 0.068022 0.142691 0.960859
O O10 0.750000 0.253325 0.904916
O O11 0.855083 0.335729 0.043005
O O12 0.127056 0.039457 0.697271
O O13 0.750000 0.060353 0.770920
O O14 0.846749 0.979763 0.918769
O O15 0.250000 0.620644 0.530215
#
# Coordination Sequence:
#
# PCOD9362744 Si02
#       7
#     4   8   8   8   8   8   8
#     4  10  18  34  58  80 108 140 194 228 268 324
#     4   9  20  36  56  80 109 147 182 219 278 339
#     4  11  21  34  59  84 112 144 190 233 282 328
#     4  10  22  37  55  80 112 148 183 225 283 342
#     4  10  19  37  54  83 111 151 189 231 277 336
#     4  10  19  34  59  87 113 143 184 237 281 327
#     4   9  19  35  55  81 109 142 182 227 278 335
#
# _framework density 18.342451000000001
#
# number of rings (size 3 to 8) (size 9 to 14) (size 15 to 20)
#    0.000    2.154    1.538    2.308    4.308    1.231 
#    0.000    0.000    0.000    3.692    0.000    0.000 
#    0.000    0.000    0.000    0.000    0.000    0.000 
#
# Total GULP energy -144781.510822 kJ/mol
# GULP energy per Si atom -5568.519647 kJ/mol
# Density = 1.830070 g / cm^3
# Si number density = 18.342451 Si / 1000 Ang^3
#
#
#
# Elastic Constant Matrix: (Units=GPa)
#
#
# Indices 1 2 3 4 5 6 
#
# 1 77.9120 15.0124 27.7817 0.0000 0.0000 0.0000
# 2 15.0124 29.6320 14.5615 0.0000 0.0000 0.0000
# 3 27.7817 14.5615 118.7777 0.0000 0.0000 0.0000
# 4 0.0000 0.0000 0.0000 13.0073 0.0000 0.0000
# 5 0.0000 0.0000 0.0000 0.0000 7.9493 0.0000
# 6 0.0000 0.0000 0.0000 0.0000 0.0000 28.0824
#
#
#
# Elastic Compliance Matrix: (Units=1/GPa)
#
#
# Indices 1 2 3 4 5 6 
#
# 1 0.015020 -0.006260 -0.002746 0.000000 0.000000 0.000000
# 2 -0.006260 0.038520 -0.003258 0.000000 0.000000 0.000000
# 3 -0.002746 -0.003258 0.009461 0.000000 0.000000 0.000000
# 4 0.000000 0.000000 0.000000 0.076880 0.000000 0.000000
# 5 0.000000 0.000000 0.000000 0.000000 0.125798 0.000000
# 6 0.000000 0.000000 0.000000 0.000000 0.000000 0.035609
#
#
# Mechanical properties :
#
#
# Convention : Reuss Voigt Hill
#
# Bulk Modulus (GPa) = 25.99243 37.89253 31.94248
# Shear Modulus (GPa) = 14.76490 21.07220 17.91855
#
# Velocity S-wave (km/s) = 2.84026 3.39310 3.12891
# Velocity P-wave (km/s) = 4.99575 6.00451 5.52320
#
# Compressibility (1/GPa) = 0.03847275
#
# Stress axis : x y z
#
# Youngs Moduli (GPa) = 66.57637 25.96045 105.70016
#
# Poissons Ratio (x) = 0.16252 0.29022
# Poissons Ratio (y) = 0.41680 0.34438
# Poissons Ratio (z) = 0.18280 0.08458
#
# Static dielectric constant tensor:
#      x y z
#    x 1.702990 0.000000 0.000000 
#    y 0.000000 1.611240 0.000000 
#    z 0.000000 0.000000 1.629020 
# 
# From -- ./inp_files/12317.got.cif
#   From: 2010.05.17/outbox.cif.g08.bks.cpg/sg40_7_cif.got.tgz:12317.got - 2010.06.03 18:35:42.
