data_PCOD9362906
_publ_section_title
;
Structure prediction by ZEFSAII (Michael W. Deem and Ramdas Pophale) SiO2 
 PCOD9362906
Probable space group: A M A 2
;
_chemical_formula_sum "Si O2"
_cell_formula_units_Z 48
_cell_length_a 15.220562
_cell_length_b 6.932371
_cell_length_c 19.082689
_cell_angle_alpha 90.000000
_cell_angle_beta 90.000000
_cell_angle_gamma 90.000000
_cell_volume 2013.501965
_symmetry_space_group_name_H-M "A M A 2"
_symmetry_group_IT_number 40
_symmetry_cell_setting 'orthorhombic'
loop_
_space_group_symop_operation_xyz
x,y,z
-x,-y,z
1/2-x,y,z
1/2+x,-y,z
x,1/2+y,1/2+z
-x,1/2-y,1/2+z
1/2-x,1/2+y,1/2+z
1/2+x,1/2-y,1/2+z
loop_
_atom_site_type_symbol
_atom_site_label
_atom_site_fract_x
_atom_site_fract_y
_atom_site_fract_z
Si Si1 0.598989 0.422506 0.206250
Si Si2 0.150351 0.173203 0.156505
Si Si3 0.480017 0.231974 0.426335
Si Si4 0.655080 0.805501 0.860013
Si Si5 0.347955 0.633430 0.814856
Si Si6 0.520289 0.766588 0.581224
O O1 0.500000 0.500000 0.221481
O O2 0.651769 0.595475 0.170542
O O3 0.640252 0.369943 0.279981
O O4 0.586092 0.257025 0.147485
O O5 0.250000 0.108152 0.139287
O O6 0.123191 0.103468 0.234658
O O7 0.070547 0.158223 0.101353
O O8 0.571154 0.337933 0.408727
O O9 0.413258 0.257080 0.361909
O O10 0.447411 0.282009 0.503907
O O11 0.500000 0.000000 0.426989
O O12 0.750000 0.871219 0.886963
O O13 0.657858 0.573334 0.851351
O O14 0.250000 0.716821 0.811791
O O15 0.500000 0.000000 0.578524
#
# Coordination Sequence:
#
# PCOD9362906 Si02
#       6
#     8   8   8   8   8   8
#     4   9  17  30  46  67  92 121 156 192 233 279
#     4   9  16  28  47  67  88 117 154 193 231 276
#     4   9  16  29  46  66  95 122 150 193 236 276
#     4  10  19  30  48  73  97 122 155 195 238 282
#     4   9  18  31  49  71  92 122 161 198 237 278
#     4   8  16  28  43  66  92 118 150 189 233 275
#
# _framework density 23.839061999999998
#
# number of rings (size 3 to 8) (size 9 to 14) (size 15 to 20)
#    0.000    3.333    0.000    2.500    0.000    0.667 
#    0.000    9.167    0.000    6.000    0.000    4.667 
#    0.000    0.000    0.000    0.000    0.000    0.000 
#
# Total GULP energy -133987.105591 kJ/mol
# GULP energy per Si atom -5582.796066 kJ/mol
# Density = 2.378480 g / cm^3
# Si number density = 23.839062 Si / 1000 Ang^3
#
#
#
# Elastic Constant Matrix: (Units=GPa)
#
#
# Indices 1 2 3 4 5 6 
#
# 1 107.4138 -9.4737 50.1024 0.0000 0.0000 0.0000
# 2 -9.4737 55.8596 5.0926 0.0000 0.0000 0.0000
# 3 50.1024 5.0926 125.0800 0.0000 0.0000 0.0000
# 4 0.0000 0.0000 0.0000 29.1334 0.0000 0.0000
# 5 0.0000 0.0000 0.0000 0.0000 6.6053 0.0000
# 6 0.0000 0.0000 0.0000 0.0000 0.0000 15.1878
#
#
#
# Elastic Compliance Matrix: (Units=1/GPa)
#
#
# Indices 1 2 3 4 5 6 
#
# 1 0.011770 0.002435 -0.004814 0.000000 0.000000 0.000000
# 2 0.002435 0.018473 -0.001727 0.000000 0.000000 0.000000
# 3 -0.004814 -0.001727 0.009993 0.000000 0.000000 0.000000
# 4 0.000000 0.000000 0.000000 0.034325 0.000000 0.000000
# 5 0.000000 0.000000 0.000000 0.000000 0.151394 0.000000
# 6 0.000000 0.000000 0.000000 0.000000 0.000000 0.065843
#
#
# Mechanical properties :
#
#
# Convention : Reuss Voigt Hill
#
# Bulk Modulus (GPa) = 31.22713 42.19955 36.71334
# Shear Modulus (GPa) = 16.09352 26.36076 21.22714
#
# Velocity S-wave (km/s) = 2.60107 3.32893 2.98725
# Velocity P-wave (km/s) = 4.70620 5.70228 5.22802
#
# Compressibility (1/GPa) = 0.03202343
#
# Stress axis : x y z
#
# Youngs Moduli (GPa) = 84.96264 54.13449 100.06592
#
# Poissons Ratio (x) = -0.13182 0.48169
# Poissons Ratio (y) = -0.20689 0.17286
# Poissons Ratio (z) = 0.40899 0.09352
#
# Static dielectric constant tensor:
#      x y z
#    x 1.926480 0.000000 0.000000 
#    y 0.000000 2.056680 0.000000 
#    z 0.000000 0.000000 1.861730 
# 
# From -- ./inp_files/20634.got.cif
#   From: 2010.05.17/outbox.cif.g08.bks.cpg/sg40_11_cif.got.tgz:20634.got - 2010.06.03 18:35:42.
