data_PCOD9362671
_publ_section_title
;
Structure prediction by ZEFSAII (Michael W. Deem and Ramdas Pophale) SiO2 
 PCOD9362671
Probable space group: A M A 2
;
_chemical_formula_sum "Si O2"
_cell_formula_units_Z 64
_cell_length_a 14.990988
_cell_length_b 16.979445
_cell_length_c 12.356589
_cell_angle_alpha 90.000000
_cell_angle_beta 90.000000
_cell_angle_gamma 90.000000
_cell_volume 3145.229560
_symmetry_space_group_name_H-M "A M A 2"
_symmetry_group_IT_number 40
_symmetry_cell_setting 'orthorhombic'
loop_
_space_group_symop_operation_xyz
x,y,z
-x,-y,z
1/2-x,y,z
1/2+x,-y,z
x,1/2+y,1/2+z
-x,1/2-y,1/2+z
1/2-x,1/2+y,1/2+z
1/2+x,1/2-y,1/2+z
loop_
_atom_site_type_symbol
_atom_site_label
_atom_site_fract_x
_atom_site_fract_y
_atom_site_fract_z
Si Si1 0.096919 0.823655 0.612600
Si Si2 0.146048 0.726928 0.817608
Si Si3 0.356853 0.756701 0.387723
Si Si4 0.351612 0.795743 0.033293
Si Si5 0.354464 0.053995 0.324176
Si Si6 0.107862 0.000517 0.566899
Si Si7 0.893910 0.846124 0.688173
Si Si8 0.640476 0.103788 0.222563
O O1 0.142735 0.776732 0.709376
O O2 0.100216 0.771219 0.504406
O O3 0.996997 0.837801 0.654826
O O4 0.136443 0.910568 0.588343
O O5 0.250000 0.713879 0.847749
O O6 0.105040 0.640109 0.805961
O O7 0.104987 0.772927 0.919637
O O8 0.250000 0.756474 0.403515
O O9 0.379882 0.682361 0.311101
O O10 0.381341 0.832738 0.314955
O O11 0.250000 0.821864 0.010982
O O12 0.348182 0.718007 0.109036
O O13 0.393774 0.862439 0.108843
O O14 0.250000 0.058055 0.294035
O O15 0.360603 0.030995 0.450224
O O16 0.392460 0.981678 0.256095
O O17 0.134916 0.065663 0.656093
O O18 0.000000 0.000000 0.562504
O O19 0.750000 0.103328 0.218640
#
# Coordination Sequence:
#
# PCOD9362671 Si02
#       8
#     8   8   8   8   8   8   8   8
#     4  11  23  36  57  83 120 147 186 239 296 342
#     4  10  21  35  54  81 114 148 181 230 289 342
#     4  10  20  36  57  84 116 152 193 237 288 350
#     4   9  17  33  55  79 108 140 186 229 271 335
#     4  10  18  32  56  81 109 142 183 234 283 330
#     4  10  21  36  53  82 112 147 189 239 282 337
#     4  10  21  35  58  81 112 151 195 232 283 345
#     4   8  15  29  52  80 104 136 179 226 272 324
#
# _framework density 20.348277
#
# number of rings (size 3 to 8) (size 9 to 14) (size 15 to 20)
#    0.000    2.250    2.500    1.500    1.750    1.000 
#    0.000    1.250    0.000    1.500    0.000    0.000 
#    0.000    0.000    0.000    0.000    0.000    0.000 
#
# Total GULP energy -178535.033569 kJ/mol
# GULP energy per Si atom -5579.219799 kJ/mol
# Density = 2.030196 g / cm^3
# Si number density = 20.348277 Si / 1000 Ang^3
#
#
#
# Elastic Constant Matrix: (Units=GPa)
#
#
# Indices 1 2 3 4 5 6 
#
# 1 38.8748 -5.8204 -14.9745 0.0000 0.0000 0.0000
# 2 -5.8204 119.2025 65.9704 0.0000 0.0000 0.0000
# 3 -14.9745 65.9704 115.0366 0.0000 0.0000 0.0000
# 4 0.0000 0.0000 0.0000 36.3894 0.0000 0.0000
# 5 0.0000 0.0000 0.0000 0.0000 13.8026 0.0000
# 6 0.0000 0.0000 0.0000 0.0000 0.0000 -18.3059
#
#
#
# Elastic Compliance Matrix: (Units=1/GPa)
#
#
# Indices 1 2 3 4 5 6 
#
# 1 0.027151 -0.000923 0.004064 0.000000 0.000000 0.000000
# 2 -0.000923 0.012321 -0.007186 0.000000 0.000000 0.000000
# 3 0.004064 -0.007186 0.013343 0.000000 0.000000 0.000000
# 4 0.000000 0.000000 0.000000 0.027481 0.000000 0.000000
# 5 0.000000 0.000000 0.000000 0.000000 0.072450 0.000000
# 6 0.000000 0.000000 0.000000 0.000000 0.000000 -0.054627
#
#
# Mechanical properties :
#
#
# Convention : Reuss Voigt Hill
#
# Bulk Modulus (GPa) = 22.35959 40.38498 31.37229
# Shear Modulus (GPa) = 41.28260 21.57312 31.42786
#
# Velocity S-wave (km/s) = 4.50911 3.25959 3.93427
# Velocity P-wave (km/s) = 6.17428 5.83580 6.00742
#
# Compressibility (1/GPa) = 0.04472353
#
# Stress axis : x y z
#
# Youngs Moduli (GPa) = 36.83142 81.16281 74.94680
#
# Poissons Ratio (x) = 0.07494 -0.30456
# Poissons Ratio (y) = 0.03401 0.53856
# Poissons Ratio (z) = -0.14967 0.58323
#
# Static dielectric constant tensor:
#      x y z
#    x 1.798170 0.000000 0.000000 
#    y 0.000000 1.751960 0.000000 
#    z 0.000000 0.000000 1.702460 
# 
# From -- ./inp_files/13236.got.cif
#   From: 2010.05.17/outbox.cif.g08.bks.cpg/sg40_7_cif.got.tgz:13236.got - 2010.06.03 18:35:42.
