data_PCOD9362044
_publ_section_title
;
Structure prediction by ZEFSAII (Michael W. Deem and Ramdas Pophale) SiO2 
 PCOD9362044
Probable space group: A B M 2
;
_chemical_formula_sum "Si O2"
_cell_formula_units_Z 56
_cell_length_a 14.177833
_cell_length_b 15.920473
_cell_length_c 11.310656
_cell_angle_alpha 90.000000
_cell_angle_beta 90.000000
_cell_angle_gamma 90.000000
_cell_volume 2553.016473
_symmetry_space_group_name_H-M "A B M 2"
_symmetry_group_IT_number 39
_symmetry_cell_setting 'orthorhombic'
loop_
_space_group_symop_operation_xyz
x,y,z
-x,-y,z
-x,1/2+y,z
x,1/2-y,z
x,1/2+y,1/2+z
-x,1/2-y,1/2+z
-x,y,1/2+z
x,-y,1/2+z
loop_
_atom_site_type_symbol
_atom_site_label
_atom_site_fract_x
_atom_site_fract_y
_atom_site_fract_z
Si Si1 0.248741 0.534146 0.144100
Si Si2 0.239601 0.153144 0.248444
Si Si3 0.344216 0.845373 0.332391
Si Si4 0.550746 0.342421 0.723847
Si Si5 0.038550 0.155894 0.348659
Si Si6 0.408804 0.536831 0.517311
Si Si7 0.958552 0.589028 0.601800
O O1 0.231358 0.434880 0.174963
O O2 0.287982 0.588405 0.253047
O O3 0.153549 0.578474 0.105500
O O4 0.332756 0.533304 0.048995
O O5 0.228584 0.250000 0.196527
O O6 0.348728 0.151353 0.291011
O O7 0.152163 0.146492 0.337859
O O8 0.307766 0.750000 0.327805
O O9 0.454085 0.843584 0.294544
O O10 0.350495 0.887921 0.458949
O O11 0.552542 0.250000 0.663103
O O12 0.549693 0.419156 0.633762
O O13 0.011637 0.250000 0.318599
O O14 0.012323 0.142344 0.486132
O O15 0.994567 0.107160 0.235709
O O16 0.500000 0.500000 0.450230
O O17 0.000000 0.500000 0.568654
#
# Coordination Sequence:
#
# PCOD9362044 Si02
#       7
#     8   8   8   8   8   8   8
#     4  11  25  44  69 100 140 181 229 291 352 416
#     4   9  20  40  68  99 135 181 233 286 345 416
#     4  11  25  42  65  98 139 181 228 282 344 412
#     4   9  19  40  62  93 135 176 227 283 337 400
#     4  11  25  47  74 105 139 184 238 295 357 427
#     4  11  23  37  65  96 131 185 232 280 335 408
#     4  12  26  46  73 105 141 182 230 295 364 428
#
# _framework density 21.934837000000002
#
# number of rings (size 3 to 8) (size 9 to 14) (size 15 to 20)
#    0.000    1.429    2.857    1.286    6.000    1.714 
#    0.000    0.000    0.000    0.000    0.000    0.000 
#    0.000    0.000    0.000    0.000    0.000    0.000 
#
# Total GULP energy -155900.151513 kJ/mol
# GULP energy per Si atom -5567.862554 kJ/mol
# Density = 2.188491 g / cm^3
# Si number density = 21.934837 Si / 1000 Ang^3
#
#
#
# Elastic Constant Matrix: (Units=GPa)
#
#
# Indices 1 2 3 4 5 6 
#
# 1 67.4171 13.0956 13.5242 0.0000 0.0000 0.0000
# 2 13.0956 106.2525 31.1604 0.0000 0.0000 0.0000
# 3 13.5242 31.1604 60.8953 0.0000 0.0000 0.0000
# 4 0.0000 0.0000 0.0000 47.0615 0.0000 0.0000
# 5 0.0000 0.0000 0.0000 0.0000 -53.2640 0.0000
# 6 0.0000 0.0000 0.0000 0.0000 0.0000 19.4813
#
#
#
# Elastic Compliance Matrix: (Units=1/GPa)
#
#
# Indices 1 2 3 4 5 6 
#
# 1 0.015627 -0.001069 -0.002924 0.000000 0.000000 0.000000
# 2 -0.001069 0.011146 -0.005466 0.000000 0.000000 0.000000
# 3 -0.002924 -0.005466 0.019868 0.000000 0.000000 0.000000
# 4 0.000000 0.000000 0.000000 0.021249 0.000000 0.000000
# 5 0.000000 0.000000 0.000000 0.000000 -0.018774 0.000000
# 6 0.000000 0.000000 0.000000 0.000000 0.000000 0.051331
#
#
# Mechanical properties :
#
#
# Convention : Reuss Voigt Hill
#
# Bulk Modulus (GPa) = 36.06961 38.90280 37.48620
# Shear Modulus (GPa) = 38.87846 14.44141 26.65994
#
# Velocity S-wave (km/s) = 4.21462 2.56867 3.49006
# Velocity P-wave (km/s) = 6.33748 5.15476 5.77647
#
# Compressibility (1/GPa) = 0.02772417
#
# Stress axis : x y z
#
# Youngs Moduli (GPa) = 63.99128 89.71564 50.33193
#
# Poissons Ratio (x) = 0.09587 0.14716
# Poissons Ratio (y) = 0.06838 0.27513
# Poissons Ratio (z) = 0.18710 0.49041
#
# Static dielectric constant tensor:
#      x y z
#    x 1.949500 0.000000 0.000000 
#    y 0.000000 1.815060 0.000000 
#    z 0.000000 0.000000 1.817370 
# 
# From -- ./inp_files/6490.got.cif
#   From: 2010.05.17/outbox.cif.g08.bks.cpg/sg39_4_cif.got.tgz:6490.got - 2010.06.03 18:22:40.
