data_PCOD9362722
_publ_section_title
;
Structure prediction by ZEFSAII (Michael W. Deem and Ramdas Pophale) SiO2 
 PCOD9362722
Probable space group: A M A 2
;
_chemical_formula_sum "Si O2"
_cell_formula_units_Z 56
_cell_length_a 14.186669
_cell_length_b 12.142604
_cell_length_c 15.706299
_cell_angle_alpha 90.000000
_cell_angle_beta 90.000000
_cell_angle_gamma 90.000000
_cell_volume 2705.615814
_symmetry_space_group_name_H-M "A M A 2"
_symmetry_group_IT_number 40
_symmetry_cell_setting 'orthorhombic'
loop_
_space_group_symop_operation_xyz
x,y,z
-x,-y,z
1/2-x,y,z
1/2+x,-y,z
x,1/2+y,1/2+z
-x,1/2-y,1/2+z
1/2-x,1/2+y,1/2+z
1/2+x,1/2-y,1/2+z
loop_
_atom_site_type_symbol
_atom_site_label
_atom_site_fract_x
_atom_site_fract_y
_atom_site_fract_z
Si Si1 0.446844 0.290232 0.224300
Si Si2 0.135307 0.047105 0.228936
Si Si3 0.863915 0.204052 0.547408
Si Si4 0.358629 0.388853 0.879052
Si Si5 0.853104 0.828757 0.767700
Si Si6 0.135903 0.039873 0.039675
Si Si7 0.140303 0.939011 0.865618
O O1 0.413804 0.164968 0.235327
O O2 0.392619 0.333315 0.141275
O O3 0.557531 0.306306 0.209364
O O4 0.419553 0.354878 0.309888
O O5 0.250000 0.061434 0.230834
O O6 0.113280 0.999292 0.134938
O O7 0.105165 0.969639 0.306272
O O8 0.750000 0.205309 0.542414
O O9 0.902377 0.127234 0.471865
O O10 0.894680 0.331852 0.534783
O O11 0.250000 0.423993 0.891952
O O12 0.356889 0.267273 0.838232
O O13 0.750000 0.821976 0.725876
O O14 0.861024 0.945091 0.815183
O O15 0.250000 0.042665 0.032140
O O16 0.104949 0.964968 0.960858
O O17 0.250000 0.902107 0.868655
#
# Coordination Sequence:
#
# PCOD9362722 Si02
#       7
#     8   8   8   8   8   8   8
#     4  11  21  33  57  90 119 146 193 249 292 332
#     4   9  18  33  58  91 122 151 188 235 289 342
#     4   9  16  32  59  89 115 154 201 231 271 349
#     4   9  17  34  61  84 114 158 196 230 277 345
#     4  10  21  37  58  81 111 156 201 235 283 344
#     4   8  14  28  54  86 115 149 190 228 274 343
#     4  10  18  33  59  87 117 148 187 239 290 343
#
# _framework density 20.697690999999999
#
# number of rings (size 3 to 8) (size 9 to 14) (size 15 to 20)
#    0.000    2.571    1.429    2.571    0.000    0.571 
#    0.000    1.429   12.571    0.000    0.000    1.000 
#    0.000    0.000    0.000    0.000    0.000    0.000 
#
# Total GULP energy -156248.802507 kJ/mol
# GULP energy per Si atom -5580.314375 kJ/mol
# Density = 2.065058 g / cm^3
# Si number density = 20.697691 Si / 1000 Ang^3
#
#
#
# Elastic Constant Matrix: (Units=GPa)
#
#
# Indices 1 2 3 4 5 6 
#
# 1 72.4825 9.0072 23.6832 0.0000 0.0000 0.0000
# 2 9.0072 51.1070 54.0896 0.0000 0.0000 0.0000
# 3 23.6832 54.0896 159.5068 0.0000 0.0000 0.0000
# 4 0.0000 0.0000 0.0000 18.9255 0.0000 0.0000
# 5 0.0000 0.0000 0.0000 0.0000 -17.6313 0.0000
# 6 0.0000 0.0000 0.0000 0.0000 0.0000 8.3156
#
#
#
# Elastic Compliance Matrix: (Units=1/GPa)
#
#
# Indices 1 2 3 4 5 6 
#
# 1 0.014506 -0.000432 -0.002007 0.000000 0.000000 0.000000
# 2 -0.000432 0.030533 -0.010290 0.000000 0.000000 0.000000
# 3 -0.002007 -0.010290 0.010057 0.000000 0.000000 0.000000
# 4 0.000000 0.000000 0.000000 0.052839 0.000000 0.000000
# 5 0.000000 0.000000 0.000000 0.000000 -0.056717 0.000000
# 6 0.000000 0.000000 0.000000 0.000000 0.000000 0.120256
#
#
# Mechanical properties :
#
#
# Convention : Reuss Voigt Hill
#
# Bulk Modulus (GPa) = 33.74103 50.73957 42.24030
# Shear Modulus (GPa) = 24.17665 15.00972 19.59319
#
# Velocity S-wave (km/s) = 3.42143 2.69585 3.08008
# Velocity P-wave (km/s) = 5.65203 5.85303 5.75341
#
# Compressibility (1/GPa) = 0.02963751
#
# Stress axis : x y z
#
# Youngs Moduli (GPa) = 68.93698 32.75108 99.43616
#
# Poissons Ratio (x) = 0.01415 0.19960
# Poissons Ratio (y) = 0.02979 1.02318
# Poissons Ratio (z) = 0.13838 0.33700
#
# Static dielectric constant tensor:
#      x y z
#    x 1.799280 0.000000 0.000000 
#    y 0.000000 1.725710 0.000000 
#    z 0.000000 0.000000 1.758310 
# 
# From -- ./inp_files/17058.got.cif
#   From: 2010.05.17/outbox.cif.g08.bks.cpg/sg40_9_cif.got.tgz:17058.got - 2010.06.03 18:35:42.
