data_PCOD9362172
_publ_section_title
;
Structure prediction by ZEFSAII (Michael W. Deem and Ramdas Pophale) SiO2 
 PCOD9362172
Probable space group: A B M 2
;
_chemical_formula_sum "Si O2"
_cell_formula_units_Z 28
_cell_length_a 21.000000
_cell_length_b 9.000000
_cell_length_c 15.000000
_cell_angle_alpha 90.000000
_cell_angle_beta 90.000000
_cell_angle_gamma 90.000000
_cell_volume 2835.000000
_symmetry_space_group_name_H-M "A B M 2"
_symmetry_group_IT_number 39
_symmetry_cell_setting 'orthorhombic'
loop_
_space_group_symop_operation_xyz
x,y,z
-x,-y,z
-x,1/2+y,z
x,1/2-y,z
x,1/2+y,1/2+z
-x,1/2-y,1/2+z
-x,y,1/2+z
x,-y,1/2+z
loop_
_atom_site_type_symbol
_atom_site_label
_atom_site_fract_x
_atom_site_fract_y
_atom_site_fract_z
Si Si1 0.430726 0.571759 0.353260
Si Si2 0.343464 0.429461 0.692666
Si Si3 0.203319 0.431158 0.751833
Si Si4 0.338565 0.926927 0.995066
Si Si5 0.805413 0.427075 0.946936
Si Si6 0.065445 0.922438 0.454752
Si Si7 0.935138 0.078372 0.236424
O O1 0.500000 0.500000 0.365769
O O2 0.437029 0.750000 0.353350
O O3 0.396332 0.519894 0.262163
O O4 0.379296 0.520508 0.426170
O O5 0.340505 0.250000 0.699990
O O6 0.270701 0.479267 0.710643
O O7 0.362433 0.465312 0.592990
O O8 0.201714 0.250000 0.755128
O O9 0.203166 0.497684 0.850666
O O10 0.135369 0.478038 0.709053
O O11 0.346854 0.750000 0.977627
O O12 0.262337 0.953704 0.993988
O O13 0.814261 0.250000 0.939380
O O14 0.870137 0.496498 0.985835
O O15 0.066141 0.750000 0.479742
O O16 0.065751 0.929344 0.345489
O O17 0.000000 0.000000 0.483795
O O18 0.939554 0.250000 0.210448
O O19 0.000000 0.000000 0.206661
#
# Coordination Sequence:
#
# PCOD9362172 Si02
#       7
#     8   8   8   8   8   8   8
#     4  11  23  41  65  89 117 150 185 228 280 340
#     4   9  19  37  61  85 113 151 192 232 280 336
#     4   9  16  30  51  73 101 143 191 231 278 333
#     4  10  21  38  60  88 119 151 192 236 280 336
#     4  10  18  28  48  77 110 145 184 234 285 334
#     4   9  16  26  42  67 102 142 189 238 285 339
#     4   8  14  22  37  63  95 131 173 223 269 319
#
# _framework density 9.8765429999999999
#
# number of rings (size 3 to 8) (size 9 to 14) (size 15 to 20)
#    0.000    2.571    1.429    2.143    0.000    4.571 
#    0.000    3.571    0.000    0.857    0.000    2.000 
#    0.000    0.000    0.000    0.000    0.000    0.000 
#
# Total GULP energy -156118.134144 kJ/mol
# GULP energy per Si atom -5575.647648 kJ/mol
# Density = 0.985406 g / cm^3
# Si number density = 9.876543 Si / 1000 Ang^3
#
#
#
# Elastic Constant Matrix: (Units=GPa)
#
#
# Indices 1 2 3 4 5 6 
#
# 1 120.0909 46.6964 18.2985 0.0000 0.0000 0.0000
# 2 46.6964 47.4686 14.3766 0.0000 0.0000 0.0000
# 3 18.2985 14.3766 50.5232 0.0000 0.0000 0.0000
# 4 0.0000 0.0000 0.0000 8.8805 0.0000 0.0000
# 5 0.0000 0.0000 0.0000 0.0000 -18.6766 0.0000
# 6 0.0000 0.0000 0.0000 0.0000 0.0000 34.9069
#
#
#
# Elastic Compliance Matrix: (Units=1/GPa)
#
#
# Indices 1 2 3 4 5 6 
#
# 1 0.013554 -0.012964 -0.001220 0.000000 0.000000 0.000000
# 2 -0.012964 0.035453 -0.005393 0.000000 0.000000 0.000000
# 3 -0.001220 -0.005393 0.021769 0.000000 0.000000 0.000000
# 4 0.000000 0.000000 0.000000 0.112606 0.000000 0.000000
# 5 0.000000 0.000000 0.000000 0.000000 -0.053543 0.000000
# 6 0.000000 0.000000 0.000000 0.000000 0.000000 0.028648
#
#
# Mechanical properties :
#
#
# Convention : Reuss Voigt Hill
#
# Bulk Modulus (GPa) = 31.62323 41.86951 36.74637
# Shear Modulus (GPa) = 24.01754 14.26957 19.14356
#
# Velocity S-wave (km/s) = 3.49074 2.69066 3.11648
# Velocity P-wave (km/s) = 5.68252 5.55836 5.62078
#
# Compressibility (1/GPa) = 0.03162232
#
# Stress axis : x y z
#
# Youngs Moduli (GPa) = 73.78004 28.20648 45.93609
#
# Poissons Ratio (x) = 0.36566 0.05604
# Poissons Ratio (y) = 0.95647 0.24773
# Poissons Ratio (z) = 0.09001 0.15212
#
# Static dielectric constant tensor:
#      x y z
#    x 1.696570 0.000000 0.000000 
#    y 0.000000 1.666580 0.000000 
#    z 0.000000 0.000000 1.721260 
# 
# From -- ./inp_files/10383.got.cif
#   From: 2010.05.17/outbox.ucp.g08.bks.cvg/sg39_6_cif.got.tgz:10383.got - 2010.06.11 10:41:16.
