data_PCOD9362873
_publ_section_title
;
Structure prediction by ZEFSAII (Michael W. Deem and Ramdas Pophale) SiO2 
 PCOD9362873
Probable space group: A M A 2
;
_chemical_formula_sum "Si O2"
_cell_formula_units_Z 64
_cell_length_a 18.000502
_cell_length_b 18.602056
_cell_length_c 6.865543
_cell_angle_alpha 90.000000
_cell_angle_beta 90.000000
_cell_angle_gamma 90.000000
_cell_volume 2298.901988
_symmetry_space_group_name_H-M "A M A 2"
_symmetry_group_IT_number 40
_symmetry_cell_setting 'orthorhombic'
loop_
_space_group_symop_operation_xyz
x,y,z
-x,-y,z
1/2-x,y,z
1/2+x,-y,z
x,1/2+y,1/2+z
-x,1/2-y,1/2+z
1/2-x,1/2+y,1/2+z
1/2+x,1/2-y,1/2+z
loop_
_atom_site_type_symbol
_atom_site_label
_atom_site_fract_x
_atom_site_fract_y
_atom_site_fract_z
Si Si1 0.964941 0.578471 0.720110
Si Si2 0.442852 0.863266 0.795908
Si Si3 0.661226 0.033098 0.641954
Si Si4 0.665428 0.493739 0.603132
Si Si5 0.837770 0.834229 0.009747
Si Si6 0.663953 0.879792 0.550662
Si Si7 0.163955 0.770961 0.993617
Si Si8 0.552755 0.231090 0.343192
O O1 0.976578 0.597073 0.486714
O O2 0.878034 0.555697 0.715628
O O3 0.984507 0.651488 0.839623
O O4 0.000000 0.500000 0.758473
O O5 0.362182 0.829776 0.845792
O O6 0.412427 0.916636 0.631685
O O7 0.498198 0.795358 0.772130
O O8 0.750000 0.051290 0.597397
O O9 0.634971 0.959377 0.537665
O O10 0.663054 0.012810 0.873185
O O11 0.750000 0.495434 0.664135
O O12 0.641731 0.409653 0.614622
O O13 0.750000 0.816180 0.051499
O O14 0.840262 0.855758 0.778012
O O15 0.896402 0.768430 0.010725
O O16 0.750000 0.888888 0.508412
O O17 0.642706 0.809560 0.430284
O O18 0.250000 0.773826 0.037337
O O19 0.113233 0.784462 0.178052
#
# Coordination Sequence:
#
# PCOD9362873 Si02
#       8
#     8   8   8   8   8   8   8   8
#     4  10  20  32  47  67  99 139 171 207 253 311
#     4  10  19  29  47  74 103 130 163 213 261 300
#     4   8  13  23  41  68  96 123 155 198 248 297
#     4   8  14  25  45  72  98 122 158 206 255 300
#     4   8  13  24  42  66  97 129 156 195 252 307
#     4   7  11  21  39  63  93 123 156 197 240 287
#     4   9  17  31  50  73  99 133 173 212 253 308
#     4  10  19  29  45  71 104 135 169 212 258 304
#
# _framework density 27.839376000000001
#
# number of rings (size 3 to 8) (size 9 to 14) (size 15 to 20)
#    0.000    3.250    0.000    3.750    0.000    4.500 
#    0.000    0.000    0.000    4.500    0.000   10.500 
#    0.000    0.000    0.000    0.000    0.000    0.000 
#
# Total GULP energy -178623.138045 kJ/mol
# GULP energy per Si atom -5581.973064 kJ/mol
# Density = 2.777601 g / cm^3
# Si number density = 27.839376 Si / 1000 Ang^3
#
#
#
# Elastic Constant Matrix: (Units=GPa)
#
#
# Indices 1 2 3 4 5 6 
#
# 1 127.0648 73.7563 0.6122 0.0000 0.0000 0.0000
# 2 73.7563 229.0613 30.5263 0.0000 0.0000 0.0000
# 3 0.6122 30.5263 57.3262 0.0000 0.0000 0.0000
# 4 0.0000 0.0000 0.0000 57.7755 0.0000 0.0000
# 5 0.0000 0.0000 0.0000 0.0000 23.1582 0.0000
# 6 0.0000 0.0000 0.0000 0.0000 0.0000 51.8173
#
#
#
# Elastic Compliance Matrix: (Units=1/GPa)
#
#
# Indices 1 2 3 4 5 6 
#
# 1 0.009831 -0.003392 0.001701 0.000000 0.000000 0.000000
# 2 -0.003392 0.005870 -0.003089 0.000000 0.000000 0.000000
# 3 0.001701 -0.003089 0.019071 0.000000 0.000000 0.000000
# 4 0.000000 0.000000 0.000000 0.017308 0.000000 0.000000
# 5 0.000000 0.000000 0.000000 0.000000 0.043181 0.000000
# 6 0.000000 0.000000 0.000000 0.000000 0.000000 0.019299
#
#
# Mechanical properties :
#
#
# Convention : Reuss Voigt Hill
#
# Bulk Modulus (GPa) = 39.66518 69.24909 54.45714
# Shear Modulus (GPa) = 37.72913 47.12071 42.42492
#
# Velocity S-wave (km/s) = 3.68536 4.11858 3.90797
# Velocity P-wave (km/s) = 5.69104 6.89532 6.32192
#
# Compressibility (1/GPa) = 0.02521103
#
# Stress axis : x y z
#
# Youngs Moduli (GPa) = 101.72066 170.36880 52.43577
#
# Poissons Ratio (x) = 0.57793 -0.08921
# Poissons Ratio (y) = 0.34506 0.16199
# Poissons Ratio (z) = -0.17306 0.52633
#
# Static dielectric constant tensor:
#      x y z
#    x 2.131580 0.000000 0.000000 
#    y 0.000000 2.280320 0.000000 
#    z 0.000000 0.000000 2.350240 
# 
# From -- ./inp_files/17953.got.cif
#   From: 2010.05.17/outbox.cif.g08.bks.cpg/sg40_9_cif.got.tgz:17953.got - 2010.06.03 18:35:42.
