data_PCOD9362487
_publ_section_title
;
Structure prediction by ZEFSAII (Michael W. Deem and Ramdas Pophale) SiO2 
 PCOD9362487
Probable space group: A M A 2
;
_chemical_formula_sum "Si O2"
_cell_formula_units_Z 64
_cell_length_a 8.070918
_cell_length_b 29.213571
_cell_length_c 14.814428
_cell_angle_alpha 90.000000
_cell_angle_beta 90.000000
_cell_angle_gamma 90.000000
_cell_volume 3492.950812
_symmetry_space_group_name_H-M "A M A 2"
_symmetry_group_IT_number 40
_symmetry_cell_setting 'orthorhombic'
loop_
_space_group_symop_operation_xyz
x,y,z
-x,-y,z
1/2-x,y,z
1/2+x,-y,z
x,1/2+y,1/2+z
-x,1/2-y,1/2+z
1/2-x,1/2+y,1/2+z
1/2+x,1/2-y,1/2+z
loop_
_atom_site_type_symbol
_atom_site_label
_atom_site_fract_x
_atom_site_fract_y
_atom_site_fract_z
Si Si1 0.939600 0.763612 0.548310
Si Si2 0.561183 0.266747 0.735364
Si Si3 0.953110 0.860439 0.167488
Si Si4 0.552070 0.949273 0.479500
Si Si5 0.049584 0.330256 0.282088
Si Si6 0.449683 0.050538 0.272455
Si Si7 0.447399 0.174204 0.971255
Si Si8 0.447042 0.359341 0.083313
O O1 0.750000 0.759886 0.579138
O O2 0.059375 0.749118 0.630343
O O3 0.970606 0.724693 0.474782
O O4 0.975797 0.816522 0.528310
O O5 0.750000 0.270892 0.768864
O O6 0.488388 0.317549 0.729214
O O7 0.481953 0.222152 0.779913
O O8 0.750000 0.859053 0.169185
O O9 0.008327 0.908286 0.209097
O O10 0.001934 0.851127 0.063659
O O11 0.750000 0.947445 0.477751
O O12 0.490475 0.943720 0.375947
O O13 0.490427 0.907902 0.540931
O O14 0.500000 0.000000 0.510350
O O15 0.250000 0.328447 0.280147
O O16 0.996833 0.353871 0.188215
O O17 0.995452 0.350097 0.377907
O O18 0.250000 0.052499 0.274339
O O19 0.500000 0.000000 0.241480
O O20 0.250000 0.179105 0.974693
O O21 0.250000 0.353488 0.081750
#
# Coordination Sequence:
#
# PCOD9362487 Si02
#       8
#     8   8   8   8   8   8   8   8
#     4  10  18  29  46  68  96 129 166 204 242 289
#     4   8  15  29  46  65  93 128 162 198 241 286
#     4   8  15  30  50  69  93 128 165 198 240 292
#     4  10  20  34  54  78 101 127 160 202 252 305
#     4   9  18  31  48  71 100 133 166 202 246 293
#     4   9  18  33  52  74  99 126 158 198 247 300
#     4  10  19  31  48  70  99 135 172 209 247 290
#     4  10  20  35  53  73 101 134 167 207 252 297
#
# _framework density 18.322617000000001
#
# number of rings (size 3 to 8) (size 9 to 14) (size 15 to 20)
#    0.000    2.750    0.000    3.750    0.000    4.000 
#    0.000    5.625    0.000    0.750    0.000    3.500 
#    0.000    0.000    0.000    0.000    0.000    0.000 
#
# Total GULP energy -178233.639434 kJ/mol
# GULP energy per Si atom -5569.801232 kJ/mol
# Density = 1.828091 g / cm^3
# Si number density = 18.322617 Si / 1000 Ang^3
#
#
#
# Elastic Constant Matrix: (Units=GPa)
#
#
# Indices 1 2 3 4 5 6 
#
# 1 40.8571 14.7060 9.1162 0.0000 0.0000 0.0000
# 2 14.7060 148.7130 63.5576 0.0000 0.0000 0.0000
# 3 9.1162 63.5576 81.8302 0.0000 0.0000 0.0000
# 4 0.0000 0.0000 0.0000 23.5902 0.0000 0.0000
# 5 0.0000 0.0000 0.0000 0.0000 17.7547 0.0000
# 6 0.0000 0.0000 0.0000 0.0000 0.0000 20.5610
#
#
#
# Elastic Compliance Matrix: (Units=1/GPa)
#
#
# Indices 1 2 3 4 5 6 
#
# 1 0.025474 -0.001955 -0.001319 0.000000 0.000000 0.000000
# 2 -0.001955 0.010216 -0.007717 0.000000 0.000000 0.000000
# 3 -0.001319 -0.007717 0.018361 0.000000 0.000000 0.000000
# 4 0.000000 0.000000 0.000000 0.042390 0.000000 0.000000
# 5 0.000000 0.000000 0.000000 0.000000 0.056323 0.000000
# 6 0.000000 0.000000 0.000000 0.000000 0.000000 0.048636
#
#
# Mechanical properties :
#
#
# Convention : Reuss Voigt Hill
#
# Bulk Modulus (GPa) = 31.18378 49.57332 40.37855
# Shear Modulus (GPa) = 21.36101 24.64922 23.00512
#
# Velocity S-wave (km/s) = 3.41813 3.67180 3.54723
# Velocity P-wave (km/s) = 5.71265 6.71496 6.23398
#
# Compressibility (1/GPa) = 0.03206795
#
# Stress axis : x y z
#
# Youngs Moduli (GPa) = 39.25628 97.88827 54.46329
#
# Poissons Ratio (x) = 0.19139 0.07185
# Poissons Ratio (y) = 0.07676 0.42028
# Poissons Ratio (z) = 0.05179 0.75538
#
# Static dielectric constant tensor:
#      x y z
#    x 1.663300 0.000000 0.000000 
#    y 0.000000 1.636820 0.000000 
#    z 0.000000 0.000000 1.662760 
# 
# From -- ./inp_files/15927.got.cif
#   From: 2010.05.17/outbox.cif.g08.bks.cpg/sg40_8_cif.got.tgz:15927.got - 2010.06.03 18:35:42.
