data_PCOD9362631
_publ_section_title
;
Structure prediction by ZEFSAII (Michael W. Deem and Ramdas Pophale) SiO2 
 PCOD9362631
Probable space group: A M A 2
;
_chemical_formula_sum "Si O2"
_cell_formula_units_Z 64
_cell_length_a 8.577485
_cell_length_b 23.845655
_cell_length_c 19.776094
_cell_angle_alpha 90.000000
_cell_angle_beta 90.000000
_cell_angle_gamma 90.000000
_cell_volume 4044.918180
_symmetry_space_group_name_H-M "A M A 2"
_symmetry_group_IT_number 40
_symmetry_cell_setting 'orthorhombic'
loop_
_space_group_symop_operation_xyz
x,y,z
-x,-y,z
1/2-x,y,z
1/2+x,-y,z
x,1/2+y,1/2+z
-x,1/2-y,1/2+z
1/2-x,1/2+y,1/2+z
1/2+x,1/2-y,1/2+z
loop_
_atom_site_type_symbol
_atom_site_label
_atom_site_fract_x
_atom_site_fract_y
_atom_site_fract_z
Si Si1 0.562039 0.335560 0.427940
Si Si2 0.936577 0.731201 0.547766
Si Si3 0.564506 0.937876 0.560894
Si Si4 0.060914 0.774708 0.343082
Si Si5 0.562633 0.437821 0.335206
Si Si6 0.437111 0.840407 0.471098
Si Si7 0.436159 0.382618 0.198037
Si Si8 0.438659 0.244343 0.697280
O O1 0.750000 0.334145 0.433814
O O2 0.489833 0.319521 0.499900
O O3 0.516744 0.284906 0.376896
O O4 0.515818 0.393963 0.393871
O O5 0.750000 0.737635 0.543436
O O6 0.981272 0.726914 0.626411
O O7 0.014915 0.787365 0.517540
O O8 0.750000 0.939149 0.566213
O O9 0.513339 0.895534 0.501787
O O10 0.495969 0.913335 0.630724
O O11 0.500000 0.000000 0.549693
O O12 0.250000 0.776081 0.342737
O O13 0.011346 0.822880 0.395371
O O14 0.007931 0.775267 0.265680
O O15 0.500000 0.500000 0.346908
O O16 0.750000 0.438467 0.331887
O O17 0.499298 0.414082 0.264277
O O18 0.250000 0.845877 0.472709
O O19 0.250000 0.382851 0.198521
O O20 0.497444 0.318888 0.197861
O O21 0.250000 0.240659 0.699451
#
# Coordination Sequence:
#
# PCOD9362631 Si02
#       8
#     8   8   8   8   8   8   8   8
#     4   9  18  33  51  68  96 135 167 203 251 301
#     4  10  19  29  49  75 102 131 165 210 250 294
#     4  12  24  38  53  71  98 135 173 212 249 296
#     4   8  15  30  51  71  96 130 164 198 245 300
#     4  11  22  37  53  71  98 135 173 212 253 297
#     4  10  19  33  51  73  99 131 168 207 251 299
#     4  12  23  34  49  73 102 136 172 209 243 292
#     4  10  18  32  51  74 102 136 168 202 249 297
#
# _framework density 15.822323000000001
#
# number of rings (size 3 to 8) (size 9 to 14) (size 15 to 20)
#    0.000    1.750    2.500    4.500    0.000    1.500 
#    0.000    0.625    0.000    0.000    0.000    0.875 
#    0.000    2.000    0.000    0.000    0.000    0.000 
#
# Total GULP energy -178598.048464 kJ/mol
# GULP energy per Si atom -5581.189015 kJ/mol
# Density = 1.578631 g / cm^3
# Si number density = 15.822323 Si / 1000 Ang^3
#
#
#
# Elastic Constant Matrix: (Units=GPa)
#
#
# Indices 1 2 3 4 5 6 
#
# 1 45.7542 23.8525 34.6963 0.0000 0.0000 0.0000
# 2 23.8525 97.9499 78.6563 0.0000 0.0000 0.0000
# 3 34.6963 78.6563 154.1877 0.0000 0.0000 0.0000
# 4 0.0000 0.0000 0.0000 16.8132 0.0000 0.0000
# 5 0.0000 0.0000 0.0000 0.0000 16.2177 0.0000
# 6 0.0000 0.0000 0.0000 0.0000 0.0000 187.5130
#
#
#
# Elastic Compliance Matrix: (Units=1/GPa)
#
#
# Indices 1 2 3 4 5 6 
#
# 1 0.026815 -0.002853 -0.004579 0.000000 0.000000 0.000000
# 2 -0.002853 0.017597 -0.008335 0.000000 0.000000 0.000000
# 3 -0.004579 -0.008335 0.011768 0.000000 0.000000 0.000000
# 4 0.000000 0.000000 0.000000 0.059477 0.000000 0.000000
# 5 0.000000 0.000000 0.000000 0.000000 0.061661 0.000000
# 6 0.000000 0.000000 0.000000 0.000000 0.000000 0.005333
#
#
# Mechanical properties :
#
#
# Convention : Reuss Voigt Hill
#
# Bulk Modulus (GPa) = 40.57300 63.58910 52.08105
# Shear Modulus (GPa) = 22.48195 54.82123 38.65159
#
# Velocity S-wave (km/s) = 3.77357 5.89264 4.94788
# Velocity P-wave (km/s) = 6.68469 9.30454 8.10122
#
# Compressibility (1/GPa) = 0.02464694
#
# Stress axis : x y z
#
# Youngs Moduli (GPa) = 37.29200 56.82711 84.97753
#
# Poissons Ratio (x) = 0.16214 0.38908
# Poissons Ratio (y) = 0.10640 0.70828
# Poissons Ratio (z) = 0.17075 0.47365
#
# Static dielectric constant tensor:
#      x y z
#    x 1.534630 0.000000 0.000000 
#    y 0.000000 1.500150 0.000000 
#    z 0.000000 0.000000 1.544230 
# 
# From -- ./inp_files/22533.got.cif
#   From: 2010.05.17/outbox.cif.g08.bks.cpg/sg40_12_cif.got.tgz:22533.got - 2010.06.03 18:35:42.
