data_PCOD9362257
_publ_section_title
;
Structure prediction by ZEFSAII (Michael W. Deem and Ramdas Pophale) SiO2 
 PCOD9362257
Probable space group: A M A 2
;
_chemical_formula_sum "Si O2"
_cell_formula_units_Z 60
_cell_length_a 8.982256
_cell_length_b 14.771332
_cell_length_c 25.103726
_cell_angle_alpha 90.000000
_cell_angle_beta 90.000000
_cell_angle_gamma 90.000000
_cell_volume 3330.759491
_symmetry_space_group_name_H-M "A M A 2"
_symmetry_group_IT_number 40
_symmetry_cell_setting 'orthorhombic'
loop_
_space_group_symop_operation_xyz
x,y,z
-x,-y,z
1/2-x,y,z
1/2+x,-y,z
x,1/2+y,1/2+z
-x,1/2-y,1/2+z
1/2-x,1/2+y,1/2+z
1/2+x,1/2-y,1/2+z
loop_
_atom_site_type_symbol
_atom_site_label
_atom_site_fract_x
_atom_site_fract_y
_atom_site_fract_z
Si Si1 0.424047 0.906808 0.914250
Si Si2 0.929037 0.714288 0.928274
Si Si3 0.500000 0.500000 0.204904
Si Si4 0.068854 0.100371 0.523817
Si Si5 0.422725 0.172590 0.635966
Si Si6 0.929446 0.596270 0.824940
Si Si7 0.926687 0.217352 0.232816
Si Si8 0.909147 0.633593 0.290850
O O1 0.250000 0.903584 0.929435
O O2 0.508612 0.816054 0.931895
O O3 0.430524 0.904000 0.849667
O O4 0.500000 0.000000 0.932476
O O5 0.750000 0.713352 0.934144
O O6 0.965906 0.669375 0.870846
O O7 0.007191 0.653029 0.972832
O O8 0.430398 0.576939 0.167452
O O9 0.598440 0.555822 0.246564
O O10 0.250000 0.095248 0.523262
O O11 0.017009 0.153569 0.577264
O O12 0.000000 0.000000 0.525190
O O13 0.250000 0.196404 0.628775
O O14 0.489569 0.248584 0.675855
O O15 0.750000 0.588470 0.823993
O O16 0.981740 0.632011 0.766845
O O17 0.000000 0.500000 0.837935
O O18 0.750000 0.206890 0.226585
O O19 0.959475 0.301367 0.272202
O O20 0.750000 0.684011 0.290157
#
# Coordination Sequence:
#
# PCOD9362257 Si02
#       8
#     8   8   4   8   8   8   8   8
#     4  11  22  36  55  83 115 150 185 228 278 339
#     4  11  23  40  58  81 110 150 193 240 285 335
#     4  10  16  30  46  76 114 148 176 214 266 322
#     4  11  22  38  57  83 112 149 191 236 284 340
#     4   9  18  31  52  77 109 146 182 220 274 335
#     4  10  21  35  55  80 110 146 188 231 281 333
#     4   9  18  34  52  74 106 144 179 221 276 333
#     4  10  19  28  46  76 109 143 176 212 262 320
#
# _framework density 18.013909000000002
#
# number of rings (size 3 to 8) (size 9 to 14) (size 15 to 20)
#    0.000    1.867    2.667    2.000    0.000    3.733 
#    0.000    0.667    0.000    0.800    0.000    1.867 
#    0.000    0.000    0.000    0.000    0.000    0.000 
#
# Total GULP energy -167097.662340 kJ/mol
# GULP energy per Si atom -5569.922078 kJ/mol
# Density = 1.797291 g / cm^3
# Si number density = 18.013909 Si / 1000 Ang^3
#
#
#
# Elastic Constant Matrix: (Units=GPa)
#
#
# Indices 1 2 3 4 5 6 
#
# 1 44.2034 27.8417 25.3229 0.0000 0.0000 0.0000
# 2 27.8417 94.2321 37.7660 0.0000 0.0000 0.0000
# 3 25.3229 37.7660 102.0826 0.0000 0.0000 0.0000
# 4 0.0000 0.0000 0.0000 26.7265 0.0000 0.0000
# 5 0.0000 0.0000 0.0000 0.0000 47.7664 0.0000
# 6 0.0000 0.0000 0.0000 0.0000 0.0000 26.1555
#
#
#
# Elastic Compliance Matrix: (Units=1/GPa)
#
#
# Indices 1 2 3 4 5 6 
#
# 1 0.029700 -0.006836 -0.004839 0.000000 0.000000 0.000000
# 2 -0.006836 0.014033 -0.003496 0.000000 0.000000 0.000000
# 3 -0.004839 -0.003496 0.012290 0.000000 0.000000 0.000000
# 4 0.000000 0.000000 0.000000 0.037416 0.000000 0.000000
# 5 0.000000 0.000000 0.000000 0.000000 0.020935 0.000000
# 6 0.000000 0.000000 0.000000 0.000000 0.000000 0.038233
#
#
# Mechanical properties :
#
#
# Convention : Reuss Voigt Hill
#
# Bulk Modulus (GPa) = 38.93773 46.93104 42.93438
# Shear Modulus (GPa) = 26.10855 30.10219 28.10537
#
# Velocity S-wave (km/s) = 3.81117 4.09229 3.95423
# Velocity P-wave (km/s) = 6.40539 6.95976 6.68832
#
# Compressibility (1/GPa) = 0.02568203
#
# Stress axis : x y z
#
# Youngs Moduli (GPa) = 33.66972 71.26119 81.37014
#
# Poissons Ratio (x) = 0.48715 0.39371
# Poissons Ratio (y) = 0.23017 0.28445
# Poissons Ratio (z) = 0.16291 0.24911
#
# Static dielectric constant tensor:
#      x y z
#    x 1.623590 0.000000 0.000000 
#    y 0.000000 1.613320 0.000000 
#    z 0.000000 0.000000 1.629830 
# 
# From -- ./inp_files/25468.got.cif
#   From: 2010.05.17/outbox.cif.g08.bks.cpg/sg40_13_cif.got.tgz:25468.got - 2010.06.03 18:35:42.
