data_PCOD9362037
_publ_section_title
;
Structure prediction by ZEFSAII (Michael W. Deem and Ramdas Pophale) SiO2 
 PCOD9362037
Probable space group: A B M 2
;
_chemical_formula_sum "Si O2"
_cell_formula_units_Z 36
_cell_length_a 8.154380
_cell_length_b 10.055741
_cell_length_c 18.803636
_cell_angle_alpha 90.000000
_cell_angle_beta 90.000000
_cell_angle_gamma 90.000000
_cell_volume 1541.866812
_symmetry_space_group_name_H-M "A B M 2"
_symmetry_group_IT_number 39
_symmetry_cell_setting 'orthorhombic'
loop_
_space_group_symop_operation_xyz
x,y,z
-x,-y,z
-x,1/2+y,z
x,1/2-y,z
x,1/2+y,1/2+z
-x,1/2-y,1/2+z
-x,y,1/2+z
x,-y,1/2+z
loop_
_atom_site_type_symbol
_atom_site_label
_atom_site_fract_x
_atom_site_fract_y
_atom_site_fract_z
Si Si1 0.363524 0.918251 0.888760
Si Si2 0.179839 0.250000 0.782065
Si Si3 0.000000 0.500000 0.439632
Si Si4 0.379657 0.750000 0.424608
Si Si5 0.114196 0.250000 0.027680
Si Si6 0.108925 0.750000 0.684066
Si Si7 0.330830 0.478644 0.227200
O O1 0.392953 0.750000 0.914415
O O2 0.166133 0.945024 0.901248
O O3 0.373544 0.908911 0.802538
O O4 0.422555 0.085775 0.909281
O O5 0.229840 0.250000 0.864169
O O6 0.253155 0.381283 0.746538
O O7 0.993819 0.250000 0.756600
O O8 0.054266 0.619418 0.489105
O O9 0.309590 0.750000 0.505929
O O10 0.035168 0.250000 0.105861
O O11 0.213996 0.883065 0.685226
O O12 0.500000 0.500000 0.186913
#
# Coordination Sequence:
#
# PCOD9362037 Si02
#       7
#     8   4   4   4   4   4   8
#     4  11  22  42  76 112 147 180 242 312 368 437
#     4  12  23  41  79 106 140 188 236 311 364 425
#     4  12  26  48  76 112 146 200 240 314 372 438
#     4  12  22  49  75 114 146 195 249 316 374 441
#     4  12  29  48  73 104 150 201 254 293 381 444
#     4  12  30  46  67 106 152 194 245 304 365 462
#     4  11  23  45  70 105 143 184 239 298 374 438
#
# _framework density 23.348320999999999
#
# number of rings (size 3 to 8) (size 9 to 14) (size 15 to 20)
#    0.000    0.444    6.667    2.667    9.333    0.000 
#    4.000    2.222    0.000    0.000    0.000    0.000 
#    0.000    0.000    0.000    0.000    0.000    0.000 
#
# Total GULP energy -100232.770119 kJ/mol
# GULP energy per Si atom -5568.487229 kJ/mol
# Density = 2.329518 g / cm^3
# Si number density = 23.348321 Si / 1000 Ang^3
#
#
#
# Elastic Constant Matrix: (Units=GPa)
#
#
# Indices 1 2 3 4 5 6 
#
# 1 145.6847 43.9859 16.4943 0.0000 0.0000 0.0000
# 2 43.9859 143.4376 13.2351 0.0000 0.0000 0.0000
# 3 16.4943 13.2351 38.4424 0.0000 0.0000 0.0000
# 4 0.0000 0.0000 0.0000 -106.9193 0.0000 0.0000
# 5 0.0000 0.0000 0.0000 0.0000 9.6627 0.0000
# 6 0.0000 0.0000 0.0000 0.0000 0.0000 61.9427
#
#
#
# Elastic Compliance Matrix: (Units=1/GPa)
#
#
# Indices 1 2 3 4 5 6 
#
# 1 0.007810 -0.002154 -0.002609 0.000000 0.000000 0.000000
# 2 -0.002154 0.007795 -0.001759 0.000000 0.000000 0.000000
# 3 -0.002609 -0.001759 0.027738 0.000000 0.000000 0.000000
# 4 0.000000 0.000000 0.000000 -0.009353 0.000000 0.000000
# 5 0.000000 0.000000 0.000000 0.000000 0.103491 0.000000
# 6 0.000000 0.000000 0.000000 0.000000 0.000000 0.016144
#
#
# Mechanical properties :
#
#
# Convention : Reuss Voigt Hill
#
# Bulk Modulus (GPa) = 33.00637 52.77724 42.89181
# Shear Modulus (GPa) = 28.28539 9.86049 19.07294
#
# Velocity S-wave (km/s) = 3.48437 2.05728 2.86122
# Velocity P-wave (km/s) = 5.50953 5.31945 5.41533
#
# Compressibility (1/GPa) = 0.03029718
#
# Stress axis : x y z
#
# Youngs Moduli (GPa) = 128.04139 128.29395 36.05137
#
# Poissons Ratio (x) = 0.27637 0.09407
# Poissons Ratio (y) = 0.27583 0.06342
# Poissons Ratio (z) = 0.33410 0.22570
#
# Static dielectric constant tensor:
#      x y z
#    x 2.106630 0.000000 0.000000 
#    y 0.000000 2.712270 0.000000 
#    z 0.000000 0.000000 1.780170 
# 
# From -- ./inp_files/13822.got.cif
#   From: 2010.05.17/outbox.cif.g08.bks.cpg/sg39_7_cif.got.tgz:13822.got - 2010.06.03 18:22:40.
