data_PCOD9362074
_publ_section_title
;
Structure prediction by ZEFSAII (Michael W. Deem and Ramdas Pophale) SiO2 
 PCOD9362074
Probable space group: A B M 2
;
_chemical_formula_sum "Si O2"
_cell_formula_units_Z 56
_cell_length_a 5.362714
_cell_length_b 32.017774
_cell_length_c 14.329795
_cell_angle_alpha 90.000000
_cell_angle_beta 90.000000
_cell_angle_gamma 90.000000
_cell_volume 2460.456824
_symmetry_space_group_name_H-M "A B M 2"
_symmetry_group_IT_number 39
_symmetry_cell_setting 'orthorhombic'
loop_
_space_group_symop_operation_xyz
x,y,z
-x,-y,z
-x,1/2+y,z
x,1/2-y,z
x,1/2+y,1/2+z
-x,1/2-y,1/2+z
-x,y,1/2+z
x,-y,1/2+z
loop_
_atom_site_type_symbol
_atom_site_label
_atom_site_fract_x
_atom_site_fract_y
_atom_site_fract_z
Si Si1 0.253910 0.127506 0.067270
Si Si2 0.113761 0.353147 0.406976
Si Si3 0.512240 0.588286 0.304935
Si Si4 0.763695 0.025083 0.430583
Si Si5 0.620850 0.798583 0.560817
Si Si6 0.636963 0.544608 0.123617
Si Si7 0.868897 0.847779 0.716127
O O1 0.380481 0.172449 0.074701
O O2 0.452440 0.089648 0.079076
O O3 0.051793 0.124708 0.150570
O O4 0.105232 0.128421 0.970923
O O5 0.301622 0.389727 0.376659
O O6 0.246761 0.318337 0.470002
O O7 0.009111 0.335319 0.310329
O O8 0.307779 0.561244 0.359047
O O9 0.656031 0.558430 0.231320
O O10 0.365829 0.624824 0.250084
O O11 0.831788 0.037213 0.538523
O O12 0.500000 0.000000 0.436686
O O13 0.000000 0.000000 0.394289
O O14 0.571550 0.750000 0.551375
O O15 0.786698 0.809634 0.651190
O O16 0.500000 0.500000 0.128977
#
# Coordination Sequence:
#
# PCOD9362074 Si02
#       7
#     8   8   8   8   8   8   8
#     4  11  24  45  73 104 149 197 247 312 388 458
#     4  11  24  44  76 108 144 200 250 315 388 469
#     4  12  25  46  75 110 145 204 256 321 391 465
#     4  11  28  47  71 109 154 206 266 331 384 458
#     4  11  25  47  74 110 152 194 249 309 387 483
#     4  11  24  46  72 107 151 201 257 315 383 455
#     4  11  23  43  75 106 144 189 246 316 382 454
#
# _framework density 22.760002
#
# number of rings (size 3 to 8) (size 9 to 14) (size 15 to 20)
#    0.000    0.857    2.857    3.000    6.000    5.143 
#    0.000    6.429    0.000    0.000    0.000    0.000 
#    0.000    0.000    0.000    0.000    0.000    0.000 
#
# Total GULP energy -156228.200976 kJ/mol
# GULP energy per Si atom -5579.578606 kJ/mol
# Density = 2.270820 g / cm^3
# Si number density = 22.760002 Si / 1000 Ang^3
#
#
#
# Elastic Constant Matrix: (Units=GPa)
#
#
# Indices 1 2 3 4 5 6 
#
# 1 83.7267 46.4753 43.6415 0.0000 0.0000 0.0000
# 2 46.4753 172.8568 59.0651 0.0000 0.0000 0.0000
# 3 43.6415 59.0651 164.4359 0.0000 0.0000 0.0000
# 4 0.0000 0.0000 0.0000 21.3915 0.0000 0.0000
# 5 0.0000 0.0000 0.0000 0.0000 46.3417 0.0000
# 6 0.0000 0.0000 0.0000 0.0000 0.0000 27.5276
#
#
#
# Elastic Compliance Matrix: (Units=1/GPa)
#
#
# Indices 1 2 3 4 5 6 
#
# 1 0.015177 -0.003083 -0.002921 0.000000 0.000000 0.000000
# 2 -0.003083 0.007221 -0.001776 0.000000 0.000000 0.000000
# 3 -0.002921 -0.001776 0.007494 0.000000 0.000000 0.000000
# 4 0.000000 0.000000 0.000000 0.046748 0.000000 0.000000
# 5 0.000000 0.000000 0.000000 0.000000 0.021579 0.000000
# 6 0.000000 0.000000 0.000000 0.000000 0.000000 0.036327
#
#
# Mechanical properties :
#
#
# Convention : Reuss Voigt Hill
#
# Bulk Modulus (GPa) = 69.76246 79.93145 74.84695
# Shear Modulus (GPa) = 32.28274 37.17466 34.72870
#
# Velocity S-wave (km/s) = 3.77025 4.04584 3.91047
# Velocity P-wave (km/s) = 7.04776 7.55120 7.30382
#
# Compressibility (1/GPa) = 0.01433436
#
# Stress axis : x y z
#
# Youngs Moduli (GPa) = 65.88859 138.49207 133.43415
#
# Poissons Ratio (x) = 0.42691 0.38973
# Poissons Ratio (y) = 0.20311 0.23691
# Poissons Ratio (z) = 0.19245 0.24589
#
# Static dielectric constant tensor:
#      x y z
#    x 1.920080 0.000000 0.000000 
#    y 0.000000 1.858880 0.000000 
#    z 0.000000 0.000000 1.886840 
# 
# From -- ./inp_files/7683.got.cif
#   From: 2010.05.17/outbox.cif.g08.bks.cpg/sg39_4_cif.got.tgz:7683.got - 2010.06.03 18:22:40.
