data_PCOD9362640
_publ_section_title
;
Structure prediction by ZEFSAII (Michael W. Deem and Ramdas Pophale) SiO2 
 PCOD9362640
Probable space group: A M A 2
;
_chemical_formula_sum "Si O2"
_cell_formula_units_Z 48
_cell_length_a 16.586522
_cell_length_b 16.248509
_cell_length_c 9.281856
_cell_angle_alpha 90.000000
_cell_angle_beta 90.000000
_cell_angle_gamma 90.000000
_cell_volume 2501.518222
_symmetry_space_group_name_H-M "A M A 2"
_symmetry_group_IT_number 40
_symmetry_cell_setting 'orthorhombic'
loop_
_space_group_symop_operation_xyz
x,y,z
-x,-y,z
1/2-x,y,z
1/2+x,-y,z
x,1/2+y,1/2+z
-x,1/2-y,1/2+z
1/2-x,1/2+y,1/2+z
1/2+x,1/2-y,1/2+z
loop_
_atom_site_type_symbol
_atom_site_label
_atom_site_fract_x
_atom_site_fract_y
_atom_site_fract_z
Si Si1 0.341204 0.700936 0.269840
Si Si2 0.380228 0.788307 0.001778
Si Si3 0.347839 0.545685 0.084782
Si Si4 0.430994 0.221086 0.066396
Si Si5 0.344194 0.128405 0.306159
Si Si6 0.654040 0.628003 0.225293
O O1 0.250000 0.681392 0.312946
O O2 0.340266 0.776169 0.156877
O O3 0.375707 0.622288 0.182687
O O4 0.390712 0.719159 0.410811
O O5 0.474387 0.782169 0.037993
O O6 0.350176 0.710746 0.905463
O O7 0.360667 0.864221 0.897069
O O8 0.250000 0.551950 0.080538
O O9 0.368007 0.459828 0.158269
O O10 0.372835 0.558489 0.918455
O O11 0.398416 0.147010 0.167601
O O12 0.400214 0.302906 0.148100
O O13 0.250000 0.116862 0.266546
O O14 0.750000 0.643240 0.198883
#
# Coordination Sequence:
#
# PCOD9362640 Si02
#       6
#     8   8   8   8   8   8
#     4  10  18  32  52  76 103 138 174 212 261 320
#     4  10  19  32  50  75 108 140 174 215 258 311
#     4   8  17  33  56  78  98 128 177 223 263 312
#     4  11  20  31  51  80 108 137 174 216 261 314
#     4   9  17  34  55  76 103 143 180 215 264 325
#     4  10  19  36  58  79 100 136 182 225 263 308
#
# _framework density 19.188347
#
# number of rings (size 3 to 8) (size 9 to 14) (size 15 to 20)
#    0.000    2.333    0.000    7.000    0.000    0.000 
#    0.000    9.167    0.000    8.000    0.000    0.000 
#    0.000    0.000    0.000    0.000    0.000    0.000 
#
# Total GULP energy -133774.699853 kJ/mol
# GULP energy per Si atom -5573.945827 kJ/mol
# Density = 1.914467 g / cm^3
# Si number density = 19.188347 Si / 1000 Ang^3
#
#
#
# Elastic Constant Matrix: (Units=GPa)
#
#
# Indices 1 2 3 4 5 6 
#
# 1 83.8677 9.6899 18.2588 0.0000 0.0000 0.0000
# 2 9.6899 67.9191 36.9682 0.0000 0.0000 0.0000
# 3 18.2588 36.9682 111.5771 0.0000 0.0000 0.0000
# 4 0.0000 0.0000 0.0000 35.2947 0.0000 0.0000
# 5 0.0000 0.0000 0.0000 0.0000 28.6320 0.0000
# 6 0.0000 0.0000 0.0000 0.0000 0.0000 -4.0538
#
#
#
# Elastic Compliance Matrix: (Units=1/GPa)
#
#
# Indices 1 2 3 4 5 6 
#
# 1 0.012401 -0.000811 -0.001761 0.000000 0.000000 0.000000
# 2 -0.000811 0.018016 -0.005836 0.000000 0.000000 0.000000
# 3 -0.001761 -0.005836 0.011184 0.000000 0.000000 0.000000
# 4 0.000000 0.000000 0.000000 0.028333 0.000000 0.000000
# 5 0.000000 0.000000 0.000000 0.000000 0.034926 0.000000
# 6 0.000000 0.000000 0.000000 0.000000 0.000000 -0.246684
#
#
# Mechanical properties :
#
#
# Convention : Reuss Voigt Hill
#
# Bulk Modulus (GPa) = 40.34718 43.68865 42.01791
# Shear Modulus (GPa) = -42.82742 25.20438 -8.81152
#
# Velocity S-wave (km/s) = -4.72948 3.62819 -2.14525
# Velocity P-wave (km/s) = 2.95827 6.35369 3.97606
#
# Compressibility (1/GPa) = 0.02478488
#
# Stress axis : x y z
#
# Youngs Moduli (GPa) = 80.64171 55.50679 89.41138
#
# Poissons Ratio (x) = 0.04501 0.15742
# Poissons Ratio (y) = 0.06539 0.52184
# Poissons Ratio (z) = 0.14198 0.32396
#
# Static dielectric constant tensor:
#      x y z
#    x 1.676910 0.000000 0.000000 
#    y 0.000000 1.698150 0.000000 
#    z 0.000000 0.000000 1.682630 
# 
# From -- ./inp_files/6458.got.cif
#   From: 2010.05.17/outbox.cif.g08.bks.cpg/sg40_4_cif.got.tgz:6458.got - 2010.06.03 18:35:42.
