data_PCOD9362407
_publ_section_title
;
Structure prediction by ZEFSAII (Michael W. Deem and Ramdas Pophale) SiO2 
 PCOD9362407
Probable space group: A M A 2
;
_chemical_formula_sum "Si O2"
_cell_formula_units_Z 64
_cell_length_a 15.025175
_cell_length_b 22.753940
_cell_length_c 7.343663
_cell_angle_alpha 90.000000
_cell_angle_beta 90.000000
_cell_angle_gamma 90.000000
_cell_volume 2510.665683
_symmetry_space_group_name_H-M "A M A 2"
_symmetry_group_IT_number 40
_symmetry_cell_setting 'orthorhombic'
loop_
_space_group_symop_operation_xyz
x,y,z
-x,-y,z
1/2-x,y,z
1/2+x,-y,z
x,1/2+y,1/2+z
-x,1/2-y,1/2+z
1/2-x,1/2+y,1/2+z
1/2+x,1/2-y,1/2+z
loop_
_atom_site_type_symbol
_atom_site_label
_atom_site_fract_x
_atom_site_fract_y
_atom_site_fract_z
Si Si1 0.150379 0.130022 0.769860
Si Si2 0.647129 0.745713 0.260542
Si Si3 0.851742 0.619840 0.286420
Si Si4 0.898290 0.495909 0.796588
Si Si5 0.602172 0.375269 0.865459
Si Si6 0.393368 0.882484 0.363845
Si Si7 0.140629 0.005191 0.729906
Si Si8 0.648650 0.743880 0.825995
O O1 0.250000 0.134625 0.851793
O O2 0.155234 0.124200 0.552614
O O3 0.111235 0.066567 0.821309
O O4 0.103487 0.193258 0.788798
O O5 0.750000 0.749777 0.320507
O O6 0.608437 0.683833 0.333951
O O7 0.604777 0.808508 0.299369
O O8 0.647430 0.740497 0.043441
O O9 0.750000 0.620877 0.351630
O O10 0.849509 0.619302 0.063627
O O11 0.890036 0.555177 0.325303
O O12 0.863091 0.430874 0.747640
O O13 0.858265 0.560231 0.757059
O O14 0.892301 0.495526 0.020044
O O15 0.000000 0.500000 0.733970
O O16 0.498571 0.389246 0.899903
O O17 0.383304 0.820030 0.265001
O O18 0.250000 0.005340 0.726845
O O19 0.750000 0.748883 0.758642
#
# Coordination Sequence:
#
# PCOD9362407 Si02
#       8
#     8   8   8   8   8   8   8   8
#     4   9  17  29  45  66  90 112 137 175 220 257
#     4   9  17  29  43  61  87 117 145 172 206 251
#     4   8  14  26  44  64  86 113 144 176 208 248
#     4   8  15  26  39  61  87 110 134 171 214 247
#     4  10  18  27  44  68  89 110 138 178 222 254
#     4   9  16  27  44  64  86 112 145 179 209 250
#     4   8  13  23  42  65  84 105 137 174 209 245
#     4   9  18  31  45  61  85 117 146 173 208 252
#
# _framework density 25.491247000000001
#
# number of rings (size 3 to 8) (size 9 to 14) (size 15 to 20)
#    0.000    3.250    0.000    1.500    0.000    3.000 
#    0.000    0.000    0.000    1.500    0.000   28.000 
#    0.000    0.000    0.000    0.000    0.000    0.000 
#
# Total GULP energy -178202.682161 kJ/mol
# GULP energy per Si atom -5568.833818 kJ/mol
# Density = 2.543323 g / cm^3
# Si number density = 25.491247 Si / 1000 Ang^3
#
#
#
# Elastic Constant Matrix: (Units=GPa)
#
#
# Indices 1 2 3 4 5 6 
#
# 1 82.1160 14.3014 -8.2135 0.0000 0.0000 0.0000
# 2 14.3014 342.8049 5.3554 0.0000 0.0000 0.0000
# 3 -8.2135 5.3554 66.1666 0.0000 0.0000 0.0000
# 4 0.0000 0.0000 0.0000 17.6050 0.0000 0.0000
# 5 0.0000 0.0000 0.0000 0.0000 15.6556 0.0000
# 6 0.0000 0.0000 0.0000 0.0000 0.0000 23.5657
#
#
#
# Elastic Compliance Matrix: (Units=1/GPa)
#
#
# Indices 1 2 3 4 5 6 
#
# 1 0.012431 -0.000543 0.001587 0.000000 0.000000 0.000000
# 2 -0.000543 0.002945 -0.000306 0.000000 0.000000 0.000000
# 3 0.001587 -0.000306 0.015335 0.000000 0.000000 0.000000
# 4 0.000000 0.000000 0.000000 0.056802 0.000000 0.000000
# 5 0.000000 0.000000 0.000000 0.000000 0.063875 0.000000
# 6 0.000000 0.000000 0.000000 0.000000 0.000000 0.042435
#
#
# Mechanical properties :
#
#
# Convention : Reuss Voigt Hill
#
# Bulk Modulus (GPa) = 31.06862 57.10825 44.08844
# Shear Modulus (GPa) = 24.62141 43.34156 33.98148
#
# Velocity S-wave (km/s) = 3.11123 4.12789 3.65508
# Velocity P-wave (km/s) = 5.01206 6.72093 5.92839
#
# Compressibility (1/GPa) = 0.03218682
#
# Stress axis : x y z
#
# Youngs Moduli (GPa) = 80.44225 339.60949 65.20974
#
# Poissons Ratio (x) = 0.18455 -0.10350
# Poissons Ratio (y) = 0.04371 0.01994
# Poissons Ratio (z) = -0.12767 0.10385
#
# Static dielectric constant tensor:
#      x y z
#    x 1.928920 0.000000 0.000000 
#    y 0.000000 2.212850 0.000000 
#    z 0.000000 0.000000 2.006710 
# 
# From -- ./inp_files/13207.got.cif
#   From: 2010.05.17/outbox.cif.g08.bks.cpg/sg40_7_cif.got.tgz:13207.got - 2010.06.03 18:35:42.
