data_PCOD9362305
_publ_section_title
;
Structure prediction by ZEFSAII (Michael W. Deem and Ramdas Pophale) SiO2 
 PCOD9362305
Probable space group: A M A 2
;
_chemical_formula_sum "Si O2"
_cell_formula_units_Z 64
_cell_length_a 18.331766
_cell_length_b 7.632734
_cell_length_c 21.666810
_cell_angle_alpha 90.000000
_cell_angle_beta 90.000000
_cell_angle_gamma 90.000000
_cell_volume 3031.652417
_symmetry_space_group_name_H-M "A M A 2"
_symmetry_group_IT_number 40
_symmetry_cell_setting 'orthorhombic'
loop_
_space_group_symop_operation_xyz
x,y,z
-x,-y,z
1/2-x,y,z
1/2+x,-y,z
x,1/2+y,1/2+z
-x,1/2-y,1/2+z
1/2-x,1/2+y,1/2+z
1/2+x,1/2-y,1/2+z
loop_
_atom_site_type_symbol
_atom_site_label
_atom_site_fract_x
_atom_site_fract_y
_atom_site_fract_z
Si Si1 0.831067 0.447843 0.518970
Si Si2 0.583885 0.950783 0.633831
Si Si3 0.338322 0.580057 0.386757
Si Si4 0.414331 0.957888 0.386022
Si Si5 0.415393 0.463364 0.640512
Si Si6 0.333414 0.037924 0.753259
Si Si7 0.667917 0.030060 0.508392
Si Si8 0.165906 0.466886 0.761823
O O1 0.750000 0.509672 0.537613
O O2 0.850312 0.520969 0.451129
O O3 0.886235 0.474142 0.574512
O O4 0.826894 0.240781 0.505824
O O5 0.592070 0.744164 0.640083
O O6 0.615718 0.025260 0.697906
O O7 0.500000 0.000000 0.625900
O O8 0.628894 0.996654 0.573026
O O9 0.250000 0.627912 0.385282
O O10 0.390740 0.750941 0.386427
O O11 0.351950 0.479143 0.322782
O O12 0.377235 0.029404 0.448615
O O13 0.378549 0.022892 0.322230
O O14 0.500000 0.000000 0.386641
O O15 0.500000 0.500000 0.649182
O O16 0.369046 0.533361 0.698202
O O17 0.250000 0.990918 0.738629
O O18 0.335999 0.252196 0.758328
O O19 0.750000 0.958048 0.507332
O O20 0.250000 0.518353 0.767359
#
# Coordination Sequence:
#
# PCOD9362305 Si02
#       8
#     8   8   8   8   8   8   8   8
#     4   9  18  34  57  81 105 137 177 220 263 313
#     4  11  22  35  52  77 109 141 174 219 270 320
#     4   8  15  31  54  77 102 136 180 222 262 312
#     4  10  17  27  48  78 109 138 171 214 262 313
#     4  11  22  35  53  77 106 140 178 222 271 317
#     4   8  15  30  53  77  99 131 175 218 259 311
#     4  10  20  35  55  78 106 142 180 217 262 317
#     4   9  17  31  51  75 102 135 178 220 259 309
#
# _framework density 21.110599000000001
#
# number of rings (size 3 to 8) (size 9 to 14) (size 15 to 20)
#    0.000    2.500    0.000    4.875    0.000    2.500 
#    0.000    0.625    0.000    6.000    0.000    3.500 
#    0.000    0.000    0.000    0.000    0.000    0.000 
#
# Total GULP energy -178539.413168 kJ/mol
# GULP energy per Si atom -5579.356661 kJ/mol
# Density = 2.106255 g / cm^3
# Si number density = 21.110599 Si / 1000 Ang^3
#
#
#
# Elastic Constant Matrix: (Units=GPa)
#
#
# Indices 1 2 3 4 5 6 
#
# 1 175.4800 5.3285 117.1447 0.0000 0.0000 0.0000
# 2 5.3285 34.6201 6.1535 0.0000 0.0000 0.0000
# 3 117.1447 6.1535 215.2093 0.0000 0.0000 0.0000
# 4 0.0000 0.0000 0.0000 5.0568 0.0000 0.0000
# 5 0.0000 0.0000 0.0000 0.0000 28.7201 0.0000
# 6 0.0000 0.0000 0.0000 0.0000 0.0000 40.3002
#
#
#
# Elastic Compliance Matrix: (Units=1/GPa)
#
#
# Indices 1 2 3 4 5 6 
#
# 1 0.008960 -0.000515 -0.004863 0.000000 0.000000 0.000000
# 2 -0.000515 0.029062 -0.000551 0.000000 0.000000 0.000000
# 3 -0.004863 -0.000551 0.007309 0.000000 0.000000 0.000000
# 4 0.000000 0.000000 0.000000 0.197753 0.000000 0.000000
# 5 0.000000 0.000000 0.000000 0.000000 0.034819 0.000000
# 6 0.000000 0.000000 0.000000 0.000000 0.000000 0.024814
#
#
# Mechanical properties :
#
#
# Convention : Reuss Voigt Hill
#
# Bulk Modulus (GPa) = 29.87277 75.84032 52.85655
# Shear Modulus (GPa) = 15.35000 34.59426 24.97213
#
# Velocity S-wave (km/s) = 2.69945 4.05250 3.44309
# Velocity P-wave (km/s) = 4.88849 7.60922 6.39521
#
# Compressibility (1/GPa) = 0.03347530
#
# Stress axis : x y z
#
# Youngs Moduli (GPa) = 111.60096 34.40906 136.81163
#
# Poissons Ratio (x) = 0.01771 0.66528
# Poissons Ratio (y) = 0.05746 0.07535
# Poissons Ratio (z) = 0.54269 0.01895
#
# Static dielectric constant tensor:
#      x y z
#    x 1.714900 0.000000 0.000000 
#    y 0.000000 1.811800 0.000000 
#    z 0.000000 0.000000 1.813400 
# 
# From -- ./inp_files/23393.got.cif
#   From: 2010.05.17/outbox.cif.g08.bks.cpg/sg40_12_cif.got.tgz:23393.got - 2010.06.03 18:35:42.
