data_PCOD9362635
_publ_section_title
;
Structure prediction by ZEFSAII (Michael W. Deem and Ramdas Pophale) SiO2 
 PCOD9362635
Probable space group: A M A 2
;
_chemical_formula_sum "Si O2"
_cell_formula_units_Z 56
_cell_length_a 8.434666
_cell_length_b 19.541078
_cell_length_c 18.692327
_cell_angle_alpha 90.000000
_cell_angle_beta 90.000000
_cell_angle_gamma 90.000000
_cell_volume 3080.915435
_symmetry_space_group_name_H-M "A M A 2"
_symmetry_group_IT_number 40
_symmetry_cell_setting 'orthorhombic'
loop_
_space_group_symop_operation_xyz
x,y,z
-x,-y,z
1/2-x,y,z
1/2+x,-y,z
x,1/2+y,1/2+z
-x,1/2-y,1/2+z
1/2-x,1/2+y,1/2+z
1/2+x,1/2-y,1/2+z
loop_
_atom_site_type_symbol
_atom_site_label
_atom_site_fract_x
_atom_site_fract_y
_atom_site_fract_z
Si Si1 0.932606 0.708321 0.080100
Si Si2 0.062399 0.427408 0.917584
Si Si3 0.933736 0.842538 0.176597
Si Si4 0.940717 0.423332 0.540068
Si Si5 0.061119 0.198466 0.330151
Si Si6 0.937132 0.930841 0.579031
Si Si7 0.939458 0.704281 0.450431
O O1 0.750000 0.691986 0.062672
O O2 0.932908 0.770746 0.135015
O O3 0.016491 0.641717 0.112121
O O4 0.016206 0.738118 0.009450
O O5 0.250000 0.420975 0.907090
O O6 0.000000 0.500000 0.888820
O O7 0.970712 0.365618 0.881294
O O8 0.022251 0.427358 0.001752
O O9 0.750000 0.863902 0.189082
O O10 0.000883 0.896134 0.118239
O O11 0.007553 0.825228 0.253551
O O12 0.750000 0.422449 0.542286
O O13 0.000000 0.500000 0.526103
O O14 0.992127 0.366884 0.481058
O O15 0.250000 0.208948 0.320309
O O16 0.002642 0.265381 0.374033
O O17 0.750000 0.936030 0.568787
O O18 0.000000 0.000000 0.615470
O O19 0.750000 0.697923 0.447661
#
# Coordination Sequence:
#
# PCOD9362635 Si02
#       7
#     8   8   8   8   8   8   8
#     4  10  18  32  52  74 102 133 171 214 256 306
#     4  11  21  32  47  70 102 136 170 206 248 297
#     4   8  18  34  53  76 104 140 172 210 262 317
#     4  10  20  36  57  79 107 139 180 226 271 321
#     4  10  19  34  53  76 107 140 176 212 259 316
#     4  11  20  31  48  72  99 130 166 207 253 300
#     4  10  19  31  53  79 104 136 176 219 263 311
#
# _framework density 18.176416
#
# number of rings (size 3 to 8) (size 9 to 14) (size 15 to 20)
#    0.000    2.000    1.429    5.571    0.000    1.143 
#    0.000    5.714    0.000    0.857    0.000    0.000 
#    0.000    0.000    0.000    0.000    0.000    0.000 
#
# Total GULP energy -156003.974588 kJ/mol
# GULP energy per Si atom -5571.570521 kJ/mol
# Density = 1.813505 g / cm^3
# Si number density = 18.176416 Si / 1000 Ang^3
#
#
#
# Elastic Constant Matrix: (Units=GPa)
#
#
# Indices 1 2 3 4 5 6 
#
# 1 37.1102 13.2001 -0.4177 0.0000 0.0000 0.0000
# 2 13.2001 121.9323 18.3816 0.0000 0.0000 0.0000
# 3 -0.4177 18.3816 49.4146 0.0000 0.0000 0.0000
# 4 0.0000 0.0000 0.0000 1.1471 0.0000 0.0000
# 5 0.0000 0.0000 0.0000 0.0000 12.0372 0.0000
# 6 0.0000 0.0000 0.0000 0.0000 0.0000 26.4557
#
#
#
# Elastic Compliance Matrix: (Units=1/GPa)
#
#
# Indices 1 2 3 4 5 6 
#
# 1 0.028124 -0.003263 0.001452 0.000000 0.000000 0.000000
# 2 -0.003263 0.009067 -0.003400 0.000000 0.000000 0.000000
# 3 0.001452 -0.003400 0.021514 0.000000 0.000000 0.000000
# 4 0.000000 0.000000 0.000000 0.871756 0.000000 0.000000
# 5 0.000000 0.000000 0.000000 0.000000 0.083076 0.000000
# 6 0.000000 0.000000 0.000000 0.000000 0.000000 0.037799
#
#
# Mechanical properties :
#
#
# Convention : Reuss Voigt Hill
#
# Bulk Modulus (GPa) = 20.71217 30.08723 25.39970
# Shear Modulus (GPa) = 4.63885 19.74753 12.19319
#
# Velocity S-wave (km/s) = 1.59927 3.29969 2.59284
# Velocity P-wave (km/s) = 3.85098 5.57728 4.79250
#
# Compressibility (1/GPa) = 0.04828078
#
# Stress axis : x y z
#
# Youngs Moduli (GPa) = 35.55695 110.28761 46.48105
#
# Poissons Ratio (x) = 0.35992 -0.06748
# Poissons Ratio (y) = 0.11604 0.15806
# Poissons Ratio (z) = -0.05162 0.37503
#
# Static dielectric constant tensor:
#      x y z
#    x 1.633910 0.000000 0.000000 
#    y 0.000000 1.659220 0.000000 
#    z 0.000000 0.000000 1.649840 
# 
# From -- ./inp_files/22311.got.cif
#   From: 2010.05.17/outbox.cif.g08.bks.cpg/sg40_12_cif.got.tgz:22311.got - 2010.06.03 18:35:42.
