data_PCOD9362519
_publ_section_title
;
Structure prediction by ZEFSAII (Michael W. Deem and Ramdas Pophale) SiO2 
 PCOD9362519
Probable space group: A M A 2
;
_chemical_formula_sum "Si O2"
_cell_formula_units_Z 48
_cell_length_a 16.409318
_cell_length_b 19.114037
_cell_length_c 7.279150
_cell_angle_alpha 90.000000
_cell_angle_beta 90.000000
_cell_angle_gamma 90.000000
_cell_volume 2283.093106
_symmetry_space_group_name_H-M "A M A 2"
_symmetry_group_IT_number 40
_symmetry_cell_setting 'orthorhombic'
loop_
_space_group_symop_operation_xyz
x,y,z
-x,-y,z
1/2-x,y,z
1/2+x,-y,z
x,1/2+y,1/2+z
-x,1/2-y,1/2+z
1/2-x,1/2+y,1/2+z
1/2+x,1/2-y,1/2+z
loop_
_atom_site_type_symbol
_atom_site_label
_atom_site_fract_x
_atom_site_fract_y
_atom_site_fract_z
Si Si1 0.340926 0.080140 0.979710
Si Si2 0.498099 0.164587 0.985086
Si Si3 0.416497 0.457061 0.894261
Si Si4 0.495169 0.672549 0.922649
Si Si5 0.660085 0.905753 0.428162
Si Si6 0.843691 0.580900 0.503622
O O1 0.250000 0.103440 0.921996
O O2 0.419516 0.122647 0.913674
O O3 0.341018 0.086919 0.204247
O O4 0.350793 0.998561 0.931863
O O5 0.487925 0.246605 0.948614
O O6 0.497359 0.158089 0.205409
O O7 0.585228 0.131593 0.929743
O O8 0.500000 0.500000 0.836829
O O9 0.444815 0.387403 0.999609
O O10 0.366192 0.517298 0.995538
O O11 0.363853 0.431045 0.720658
O O12 0.405023 0.651793 0.985091
O O13 0.750000 0.887498 0.485817
O O14 0.750000 0.604626 0.479113
#
# Coordination Sequence:
#
# PCOD9362519 Si02
#       6
#     8   8   8   8   8   8
#     4   8  14  26  45  65  82 107 146 185 214 241
#     4  10  18  30  43  64  91 116 139 172 212 256
#     4   8  13  24  41  62  83 107 141 183 215 241
#     4   9  18  28  43  63  89 115 140 169 212 258
#     4   8  13  24  44  65  82 105 143 185 214 241
#     4   9  15  24  43  67  86 106 140 184 218 243
#
# _framework density 21.024108999999999
#
# number of rings (size 3 to 8) (size 9 to 14) (size 15 to 20)
#    0.000    3.333    0.000    5.000    0.000    0.667 
#    0.000    4.167    0.000    6.000    0.000    2.333 
#    0.000    0.000    0.000    0.000    0.000    0.000 
#
# Total GULP energy -133711.111229 kJ/mol
# GULP energy per Si atom -5571.296301 kJ/mol
# Density = 2.097626 g / cm^3
# Si number density = 21.024109 Si / 1000 Ang^3
#
#
#
# Elastic Constant Matrix: (Units=GPa)
#
#
# Indices 1 2 3 4 5 6 
#
# 1 169.3799 88.6854 4.5018 0.0000 0.0000 0.0000
# 2 88.6854 130.1475 -10.6868 0.0000 0.0000 0.0000
# 3 4.5018 -10.6868 61.1843 0.0000 0.0000 0.0000
# 4 0.0000 0.0000 0.0000 15.7529 0.0000 0.0000
# 5 0.0000 0.0000 0.0000 0.0000 -6.6701 0.0000
# 6 0.0000 0.0000 0.0000 0.0000 0.0000 18.9136
#
#
#
# Elastic Compliance Matrix: (Units=1/GPa)
#
#
# Indices 1 2 3 4 5 6 
#
# 1 0.009377 -0.006540 -0.001832 0.000000 0.000000 0.000000
# 2 -0.006540 0.012357 0.002640 0.000000 0.000000 0.000000
# 3 -0.001832 0.002640 0.016940 0.000000 0.000000 0.000000
# 4 0.000000 0.000000 0.000000 0.063480 0.000000 0.000000
# 5 0.000000 0.000000 0.000000 0.000000 -0.149923 0.000000
# 6 0.000000 0.000000 0.000000 0.000000 0.000000 0.052872
#
#
# Mechanical properties :
#
#
# Convention : Reuss Voigt Hill
#
# Bulk Modulus (GPa) = 36.75377 58.41250 47.58314
# Shear Modulus (GPa) = 195.02626 24.14672 109.58649
#
# Velocity S-wave (km/s) = 9.64181 3.39267 7.22754
# Velocity P-wave (km/s) = 11.89422 6.57197 9.60893
#
# Compressibility (1/GPa) = 0.02720809
#
# Stress axis : x y z
#
# Youngs Moduli (GPa) = 106.64512 80.92655 59.03214
#
# Poissons Ratio (x) = 0.52927 0.10816
# Poissons Ratio (y) = 0.69747 -0.15582
# Poissons Ratio (z) = 0.19540 -0.21361
#
# Static dielectric constant tensor:
#      x y z
#    x 1.773270 0.000000 0.000000 
#    y 0.000000 1.756800 0.000000 
#    z 0.000000 0.000000 1.839980 
# 
# From -- ./inp_files/12982.got.cif
#   From: 2010.05.17/outbox.cif.g08.bks.cpg/sg40_7_cif.got.tgz:12982.got - 2010.06.03 18:35:42.
