data_PCOD9362196
_publ_section_title
;
Structure prediction by ZEFSAII (Michael W. Deem and Ramdas Pophale) SiO2 
 PCOD9362196
Probable space group: A B M 2
;
_chemical_formula_sum "Si O2"
_cell_formula_units_Z 28
_cell_length_a 21.000000
_cell_length_b 9.000000
_cell_length_c 15.000000
_cell_angle_alpha 90.000000
_cell_angle_beta 90.000000
_cell_angle_gamma 90.000000
_cell_volume 2835.000000
_symmetry_space_group_name_H-M "A B M 2"
_symmetry_group_IT_number 39
_symmetry_cell_setting 'orthorhombic'
loop_
_space_group_symop_operation_xyz
x,y,z
-x,-y,z
-x,1/2+y,z
x,1/2-y,z
x,1/2+y,1/2+z
-x,1/2-y,1/2+z
-x,y,1/2+z
x,-y,1/2+z
loop_
_atom_site_type_symbol
_atom_site_label
_atom_site_fract_x
_atom_site_fract_y
_atom_site_fract_z
Si Si1 0.062318 0.414921 0.718920
Si Si2 0.937553 0.082566 0.005255
Si Si3 0.430566 0.071189 0.606806
Si Si4 0.199394 0.919288 0.966919
Si Si5 0.192880 0.917507 0.753145
Si Si6 0.663836 0.930551 0.452226
Si Si7 0.666470 0.430723 0.745355
O O1 0.063122 0.250000 0.756653
O O2 0.055684 0.406542 0.611789
O O3 0.129693 0.491401 0.735427
O O4 0.000000 0.500000 0.752608
O O5 0.935445 0.250000 0.967041
O O6 0.868446 0.009042 0.989609
O O7 0.000000 0.000000 0.970936
O O8 0.434415 0.250000 0.612264
O O9 0.394607 0.029236 0.514898
O O10 0.500000 0.000000 0.611348
O O11 0.385615 0.007367 0.684320
O O12 0.196754 0.750000 0.004679
O O13 0.201217 0.909070 0.859888
O O14 0.267991 0.987190 0.990034
O O15 0.183613 0.750000 0.718932
O O16 0.261071 0.975664 0.719332
O O17 0.669222 0.750000 0.453061
O O18 0.656007 0.972715 0.349089
O O19 0.663372 0.250000 0.739139
#
# Coordination Sequence:
#
# PCOD9362196 Si02
#       7
#     8   8   8   8   8   8   8
#     4  10  20  32  48  71 102 139 179 224 269 320
#     4   9  18  31  48  69  97 133 173 217 260 310
#     4  11  23  38  60  88 116 148 187 228 272 332
#     4   8  15  31  53  75  98 132 175 214 262 319
#     4   9  18  33  54  77 104 137 173 218 270 323
#     4   8  17  35  59  83 111 148 187 226 274 333
#     4   9  19  38  60  85 117 151 186 228 279 334
#
# _framework density 9.8765429999999999
#
# number of rings (size 3 to 8) (size 9 to 14) (size 15 to 20)
#    0.000    2.857    0.000    2.571    2.000    2.286 
#    0.000    5.000    0.000    2.571    0.000    0.000 
#    0.000    0.000    0.000    0.000    0.000    0.000 
#
# Total GULP energy -156038.595612 kJ/mol
# GULP energy per Si atom -5572.806986 kJ/mol
# Density = 0.985406 g / cm^3
# Si number density = 9.876543 Si / 1000 Ang^3
#
#
#
# Elastic Constant Matrix: (Units=GPa)
#
#
# Indices 1 2 3 4 5 6 
#
# 1 231.4632 81.8107 51.5752 0.0000 0.0000 0.0000
# 2 81.8107 54.4162 23.5237 0.0000 0.0000 0.0000
# 3 51.5752 23.5237 58.1621 0.0000 0.0000 0.0000
# 4 0.0000 0.0000 0.0000 13.3131 0.0000 0.0000
# 5 0.0000 0.0000 0.0000 0.0000 42.9899 0.0000
# 6 0.0000 0.0000 0.0000 0.0000 0.0000 24.5472
#
#
#
# Elastic Compliance Matrix: (Units=1/GPa)
#
#
# Indices 1 2 3 4 5 6 
#
# 1 0.009709 -0.013180 -0.003279 0.000000 0.000000 0.000000
# 2 -0.013180 0.040161 -0.004556 0.000000 0.000000 0.000000
# 3 -0.003279 -0.004556 0.021944 0.000000 0.000000 0.000000
# 4 0.000000 0.000000 0.000000 0.075114 0.000000 0.000000
# 5 0.000000 0.000000 0.000000 0.000000 0.023261 0.000000
# 6 0.000000 0.000000 0.000000 0.000000 0.000000 0.040738
#
#
# Mechanical properties :
#
#
# Convention : Reuss Voigt Hill
#
# Bulk Modulus (GPa) = 33.57468 73.09565 53.33517
# Shear Modulus (GPa) = 19.01966 28.64552 23.83259
#
# Velocity S-wave (km/s) = 3.10638 3.81225 3.47727
# Velocity P-wave (km/s) = 5.46811 7.51417 6.57126
#
# Compressibility (1/GPa) = 0.02978435
#
# Stress axis : x y z
#
# Youngs Moduli (GPa) = 102.99247 24.89956 45.57076
#
# Poissons Ratio (x) = 0.32817 0.14944
# Poissons Ratio (y) = 1.35742 0.20762
# Poissons Ratio (z) = 0.33774 0.11344
#
# Static dielectric constant tensor:
#      x y z
#    x 1.711950 0.000000 0.000000 
#    y 0.000000 1.718010 0.000000 
#    z 0.000000 0.000000 1.707490 
# 
# From -- ./inp_files/10363.got.cif
#   From: 2010.05.17/outbox.ucp.g08.bks.cvg/sg39_6_cif.got.tgz:10363.got - 2010.06.11 10:41:16.
