data_PCOD9362920
_publ_section_title
;
Structure prediction by ZEFSAII (Michael W. Deem and Ramdas Pophale) SiO2 
 PCOD9362920
Probable space group: A M A 2
;
_chemical_formula_sum "Si O2"
_cell_formula_units_Z 64
_cell_length_a 8.717880
_cell_length_b 19.038155
_cell_length_c 27.017323
_cell_angle_alpha 90.000000
_cell_angle_beta 90.000000
_cell_angle_gamma 90.000000
_cell_volume 4484.128608
_symmetry_space_group_name_H-M "A M A 2"
_symmetry_group_IT_number 40
_symmetry_cell_setting 'orthorhombic'
loop_
_space_group_symop_operation_xyz
x,y,z
-x,-y,z
1/2-x,y,z
1/2+x,-y,z
x,1/2+y,1/2+z
-x,1/2-y,1/2+z
1/2-x,1/2+y,1/2+z
1/2+x,1/2-y,1/2+z
loop_
_atom_site_type_symbol
_atom_site_label
_atom_site_fract_x
_atom_site_fract_y
_atom_site_fract_z
Si Si1 0.065359 0.077636 0.105050
Si Si2 0.933424 0.422807 0.117396
Si Si3 0.066326 0.712875 0.065146
Si Si4 0.065374 0.167606 0.008300
Si Si5 0.433016 0.710418 0.661536
Si Si6 0.065630 0.076809 0.913336
Si Si7 0.933251 0.577356 0.305454
Si Si8 0.433790 0.664213 0.215994
O O1 0.250000 0.074271 0.104384
O O2 0.018342 0.115338 0.053357
O O3 0.020903 0.130017 0.150037
O O4 0.000000 0.000000 0.108914
O O5 0.750000 0.428297 0.119126
O O6 0.972453 0.369055 0.072769
O O7 0.980567 0.384479 0.168792
O O8 0.000000 0.500000 0.112942
O O9 0.250000 0.719999 0.071233
O O10 0.011424 0.756998 0.018072
O O11 0.981238 0.750690 0.110794
O O12 0.250000 0.175273 0.011113
O O13 0.026156 0.131518 0.956451
O O14 0.250000 0.713456 0.667726
O O15 0.512937 0.756627 0.703669
O O16 0.250000 0.072225 0.909470
O O17 0.996217 0.095484 0.859978
O O18 0.000000 0.000000 0.926526
O O19 0.750000 0.573599 0.306241
O O20 0.000000 0.500000 0.293247
O O21 0.990923 0.631841 0.264584
O O22 0.250000 0.661950 0.219618
#
# Coordination Sequence:
#
# PCOD9362920 Si02
#       8
#     8   8   8   8   8   8   8   8
#     4   9  17  27  40  60  85 111 141 173 206 247
#     4   9  18  28  40  60  83 108 138 170 204 244
#     4   9  17  28  41  59  82 108 140 175 208 247
#     4   9  18  30  43  60  82 111 144 176 212 251
#     4   9  17  29  42  59  83 110 140 174 211 250
#     4  10  19  31  45  62  85 111 143 180 214 250
#     4  11  21  32  45  62  85 113 144 178 215 250
#     4  10  19  31  45  62  83 110 145 178 212 253
#
# _framework density 14.272562000000001
#
# number of rings (size 3 to 8) (size 9 to 14) (size 15 to 20)
#    0.000    2.500    0.000    5.625    0.000    7.500 
#    0.000    0.000    0.000    0.000    0.000    0.000 
#    0.000    1.000    0.000    5.000    0.000    4.875 
#
# Total GULP energy -178264.809217 kJ/mol
# GULP energy per Si atom -5570.775288 kJ/mol
# Density = 1.424008 g / cm^3
# Si number density = 14.272562 Si / 1000 Ang^3
#
#
#
# Elastic Constant Matrix: (Units=GPa)
#
#
# Indices 1 2 3 4 5 6 
#
# 1 47.5776 32.0185 31.4825 0.0000 0.0000 0.0000
# 2 32.0185 108.6311 49.3352 0.0000 0.0000 0.0000
# 3 31.4825 49.3352 72.6911 0.0000 0.0000 0.0000
# 4 0.0000 0.0000 0.0000 24.9884 0.0000 0.0000
# 5 0.0000 0.0000 0.0000 0.0000 19.9919 0.0000
# 6 0.0000 0.0000 0.0000 0.0000 0.0000 26.7643
#
#
#
# Elastic Compliance Matrix: (Units=1/GPa)
#
#
# Indices 1 2 3 4 5 6 
#
# 1 0.030833 -0.004370 -0.010388 0.000000 0.000000 0.000000
# 2 -0.004370 0.013927 -0.007559 0.000000 0.000000 0.000000
# 3 -0.010388 -0.007559 0.023386 0.000000 0.000000 0.000000
# 4 0.000000 0.000000 0.000000 0.040018 0.000000 0.000000
# 5 0.000000 0.000000 0.000000 0.000000 0.050020 0.000000
# 6 0.000000 0.000000 0.000000 0.000000 0.000000 0.037363
#
#
# Mechanical properties :
#
#
# Convention : Reuss Voigt Hill
#
# Bulk Modulus (GPa) = 42.53243 50.50803 46.52023
# Shear Modulus (GPa) = 20.15974 22.08650 21.12312
#
# Velocity S-wave (km/s) = 3.76238 3.93807 3.85123
# Velocity P-wave (km/s) = 6.98132 7.49286 7.24161
#
# Compressibility (1/GPa) = 0.02351147
#
# Stress axis : x y z
#
# Youngs Moduli (GPa) = 32.43280 71.80495 42.76038
#
# Poissons Ratio (x) = 0.31381 0.44418
# Poissons Ratio (y) = 0.14174 0.32323
# Poissons Ratio (z) = 0.33690 0.54279
#
# Static dielectric constant tensor:
#      x y z
#    x 1.478700 0.000000 0.000000 
#    y 0.000000 1.479990 0.000000 
#    z 0.000000 0.000000 1.467980 
# 
# From -- ./inp_files/25531.got.cif
#   From: 2010.05.17/outbox.cif.g08.bks.cpg/sg40_13_cif.got.tgz:25531.got - 2010.06.03 18:35:42.
