data_PCOD9362456
_publ_section_title
;
Structure prediction by ZEFSAII (Michael W. Deem and Ramdas Pophale) SiO2 
 PCOD9362456
Probable space group: A M A 2
;
_chemical_formula_sum "Si O2"
_cell_formula_units_Z 64
_cell_length_a 8.136654
_cell_length_b 24.143950
_cell_length_c 19.890194
_cell_angle_alpha 90.000000
_cell_angle_beta 90.000000
_cell_angle_gamma 90.000000
_cell_volume 3907.447852
_symmetry_space_group_name_H-M "A M A 2"
_symmetry_group_IT_number 40
_symmetry_cell_setting 'orthorhombic'
loop_
_space_group_symop_operation_xyz
x,y,z
-x,-y,z
1/2-x,y,z
1/2+x,-y,z
x,1/2+y,1/2+z
-x,1/2-y,1/2+z
1/2-x,1/2+y,1/2+z
1/2+x,1/2-y,1/2+z
loop_
_atom_site_type_symbol
_atom_site_label
_atom_site_fract_x
_atom_site_fract_y
_atom_site_fract_z
Si Si1 0.049383 0.226883 0.465470
Si Si2 0.549454 0.245382 0.111262
Si Si3 0.053807 0.731965 0.258986
Si Si4 0.948311 0.562859 0.469794
Si Si5 0.444702 0.160155 0.340802
Si Si6 0.055919 0.437785 0.748914
Si Si7 0.548922 0.616161 0.610520
Si Si8 0.051636 0.835859 0.881407
O O1 0.250000 0.225628 0.465583
O O2 0.993167 0.225978 0.542365
O O3 0.992599 0.179225 0.414254
O O4 0.003071 0.285678 0.431610
O O5 0.750000 0.246185 0.110194
O O6 0.496905 0.271823 0.181879
O O7 0.500616 0.180647 0.110177
O O8 0.250000 0.738770 0.258804
O O9 0.981027 0.787580 0.292319
O O10 0.009185 0.681454 0.307891
O O11 0.750000 0.565054 0.470446
O O12 0.004774 0.585051 0.542838
O O13 0.005293 0.606376 0.413098
O O14 0.000000 0.500000 0.458623
O O15 0.250000 0.153244 0.345250
O O16 0.515390 0.105243 0.307747
O O17 0.250000 0.438916 0.740991
O O18 0.988155 0.413840 0.678102
O O19 0.000000 0.500000 0.761790
O O20 0.750000 0.615798 0.610744
O O21 0.250000 0.836026 0.879583
#
# Coordination Sequence:
#
# PCOD9362456 Si02
#       8
#     8   8   8   8   8   8   8   8
#     4   8  14  26  46  66  87 116 153 188 222 272
#     4   9  14  25  46  70  91 119 154 185 224 274
#     4  10  18  28  47  70  93 120 151 192 234 273
#     4  10  19  31  48  66  90 126 163 196 229 267
#     4  10  19  31  47  68  92 122 156 192 231 274
#     4  11  21  33  48  67  93 127 161 196 229 267
#     4   9  16  28  45  65  93 126 160 190 221 265
#     4   9  17  30  46  64  89 123 155 188 229 274
#
# _framework density 16.378976999999999
#
# number of rings (size 3 to 8) (size 9 to 14) (size 15 to 20)
#    0.000    2.500    2.500    2.250    0.000    0.500 
#    0.000    0.625    0.000    7.500    0.000    0.875 
#    0.000    2.000    0.000    0.000    0.000    0.000 
#
# Total GULP energy -178389.797933 kJ/mol
# GULP energy per Si atom -5574.681185 kJ/mol
# Density = 1.634170 g / cm^3
# Si number density = 16.378977 Si / 1000 Ang^3
#
#
#
# Elastic Constant Matrix: (Units=GPa)
#
#
# Indices 1 2 3 4 5 6 
#
# 1 6.6761 5.6245 1.4274 0.0000 0.0000 0.0000
# 2 5.6245 107.9180 79.0269 0.0000 0.0000 0.0000
# 3 1.4274 79.0269 152.2677 0.0000 0.0000 0.0000
# 4 0.0000 0.0000 0.0000 -5.0175 0.0000 0.0000
# 5 0.0000 0.0000 0.0000 0.0000 14.7498 0.0000
# 6 0.0000 0.0000 0.0000 0.0000 0.0000 19.1334
#
#
#
# Elastic Compliance Matrix: (Units=1/GPa)
#
#
# Indices 1 2 3 4 5 6 
#
# 1 0.158572 -0.011575 0.004521 0.000000 0.000000 0.000000
# 2 -0.011575 0.015792 -0.008088 0.000000 0.000000 0.000000
# 3 0.004521 -0.008088 0.010722 0.000000 0.000000 0.000000
# 4 0.000000 0.000000 0.000000 -0.199301 0.000000 0.000000
# 5 0.000000 0.000000 0.000000 0.000000 0.067798 0.000000
# 6 0.000000 0.000000 0.000000 0.000000 0.000000 0.052265
#
#
# Mechanical properties :
#
#
# Convention : Reuss Voigt Hill
#
# Bulk Modulus (GPa) = 6.45981 48.77992 27.61987
# Shear Modulus (GPa) = 26.63374 17.82534 22.22954
#
# Velocity S-wave (km/s) = 4.03686 3.30253 3.68802
# Velocity P-wave (km/s) = 5.06763 6.66250 5.91903
#
# Compressibility (1/GPa) = 0.15480322
#
# Stress axis : x y z
#
# Youngs Moduli (GPa) = 6.30628 63.32342 93.26260
#
# Poissons Ratio (x) = 0.73298 -0.42164
# Poissons Ratio (y) = 0.07300 0.75426
# Poissons Ratio (z) = -0.02851 0.51213
#
# Static dielectric constant tensor:
#      x y z
#    x 1.584420 0.000000 0.000000 
#    y 0.000000 1.550000 0.000000 
#    z 0.000000 0.000000 1.576830 
# 
# From -- ./inp_files/19731.got.cif
#   From: 2010.05.17/outbox.cif.g08.bks.cpg/sg40_10_cif.got.tgz:19731.got - 2010.06.03 18:35:42.
