data_PCOD9362518
_publ_section_title
;
Structure prediction by ZEFSAII (Michael W. Deem and Ramdas Pophale) SiO2 
 PCOD9362518
Probable space group: A M A 2
;
_chemical_formula_sum "Si O2"
_cell_formula_units_Z 64
_cell_length_a 18.966802
_cell_length_b 27.668050
_cell_length_c 5.329149
_cell_angle_alpha 90.000000
_cell_angle_beta 90.000000
_cell_angle_gamma 90.000000
_cell_volume 2796.601108
_symmetry_space_group_name_H-M "A M A 2"
_symmetry_group_IT_number 40
_symmetry_cell_setting 'orthorhombic'
loop_
_space_group_symop_operation_xyz
x,y,z
-x,-y,z
1/2-x,y,z
1/2+x,-y,z
x,1/2+y,1/2+z
-x,1/2-y,1/2+z
1/2-x,1/2+y,1/2+z
1/2+x,1/2-y,1/2+z
loop_
_atom_site_type_symbol
_atom_site_label
_atom_site_fract_x
_atom_site_fract_y
_atom_site_fract_z
Si Si1 0.326021 0.057858 0.849320
Si Si2 0.831880 0.563702 0.850411
Si Si3 0.830930 0.127434 0.847752
Si Si4 0.082857 0.211760 0.819098
Si Si5 0.824811 0.844856 0.125979
Si Si6 0.035802 0.131272 0.436177
Si Si7 0.901725 0.965282 0.351947
Si Si8 0.056690 0.305309 0.575301
O O1 0.250000 0.034417 0.902986
O O2 0.344616 0.051494 0.560725
O O3 0.320199 0.113851 0.915832
O O4 0.382174 0.040687 0.057620
O O5 0.750000 0.544729 0.864192
O O6 0.838035 0.590290 0.582460
O O7 0.891577 0.522683 0.881228
O O8 0.838694 0.600146 0.083790
O O9 0.750000 0.146596 0.860525
O O10 0.893892 0.165553 0.885005
O O11 0.052968 0.162587 0.684570
O O12 0.099812 0.258788 0.661879
O O13 0.151405 0.202302 0.983141
O O14 0.014797 0.221555 0.988187
O O15 0.750000 0.842375 0.259802
O O16 0.891507 0.858774 0.288724
O O17 0.035602 0.072357 0.429357
O O18 0.972241 0.156716 0.285006
#
# Coordination Sequence:
#
# PCOD9362518 Si02
#       8
#     8   8   8   8   8   8   8   8
#     4  10  18  29  51  85 125 169 200 243 316 380
#     4  10  21  40  66  96 128 171 220 269 335 403
#     4  10  24  45  69  98 131 172 228 283 331 388
#     4  11  21  40  65  93 120 174 223 265 329 408
#     4   9  20  35  54  90 134 166 203 264 323 391
#     4  10  22  39  60  94 131 170 219 261 330 403
#     4  11  20  35  60  90 130 164 212 265 318 393
#     4  11  24  41  71  89 127 177 226 276 336 396
#
# _framework density 22.884920999999999
#
# number of rings (size 3 to 8) (size 9 to 14) (size 15 to 20)
#    0.000    1.750    2.500    1.875    1.750    3.000 
#    0.000    0.625    0.000    0.000    0.000    0.000 
#    0.000    0.000    0.000    0.000    0.000    0.000 
#
# Total GULP energy -178215.201186 kJ/mol
# GULP energy per Si atom -5569.225037 kJ/mol
# Density = 2.283283 g / cm^3
# Si number density = 22.884921 Si / 1000 Ang^3
#
#
#
# Elastic Constant Matrix: (Units=GPa)
#
#
# Indices 1 2 3 4 5 6 
#
# 1 57.6772 30.3984 2.5827 0.0000 0.0000 0.0000
# 2 30.3984 60.3038 -1.5248 0.0000 0.0000 0.0000
# 3 2.5827 -1.5248 58.3938 0.0000 0.0000 0.0000
# 4 0.0000 0.0000 0.0000 32.1451 0.0000 0.0000
# 5 0.0000 0.0000 0.0000 0.0000 23.1754 0.0000
# 6 0.0000 0.0000 0.0000 0.0000 0.0000 14.5905
#
#
#
# Elastic Compliance Matrix: (Units=1/GPa)
#
#
# Indices 1 2 3 4 5 6 
#
# 1 0.023718 -0.011991 -0.001362 0.000000 0.000000 0.000000
# 2 -0.011991 0.022655 0.001122 0.000000 0.000000 0.000000
# 3 -0.001362 0.001122 0.017215 0.000000 0.000000 0.000000
# 4 0.000000 0.000000 0.000000 0.031109 0.000000 0.000000
# 5 0.000000 0.000000 0.000000 0.000000 0.043149 0.000000
# 6 0.000000 0.000000 0.000000 0.000000 0.000000 0.068538
#
#
# Mechanical properties :
#
#
# Convention : Reuss Voigt Hill
#
# Bulk Modulus (GPa) = 25.55795 26.58751 26.07273
# Shear Modulus (GPa) = 20.50119 23.64342 22.07230
#
# Velocity S-wave (km/s) = 2.99630 3.21774 3.10900
# Velocity P-wave (km/s) = 4.81277 5.04463 4.93006
#
# Compressibility (1/GPa) = 0.03912678
#
# Stress axis : x y z
#
# Youngs Moduli (GPa) = 42.16130 44.13960 58.09003
#
# Poissons Ratio (x) = 0.52926 0.07913
# Poissons Ratio (y) = 0.50554 -0.06517
# Poissons Ratio (z) = 0.05743 -0.04952
#
# Static dielectric constant tensor:
#      x y z
#    x 1.931420 0.000000 0.000000 
#    y 0.000000 1.940990 0.000000 
#    z 0.000000 0.000000 1.892160 
# 
# From -- ./inp_files/2014.got.cif
#   From: 2010.05.17/outbox.cif.g08.bks.cpg/sg40_2_cif.got.tgz:2014.got - 2010.06.03 18:35:42.
