data_PCOD9362849
_publ_section_title
;
Structure prediction by ZEFSAII (Michael W. Deem and Ramdas Pophale) SiO2 
 PCOD9362849
Probable space group: A M A 2
;
_chemical_formula_sum "Si O2"
_cell_formula_units_Z 64
_cell_length_a 8.626531
_cell_length_b 18.920320
_cell_length_c 27.183057
_cell_angle_alpha 90.000000
_cell_angle_beta 90.000000
_cell_angle_gamma 90.000000
_cell_volume 4436.729594
_symmetry_space_group_name_H-M "A M A 2"
_symmetry_group_IT_number 40
_symmetry_cell_setting 'orthorhombic'
loop_
_space_group_symop_operation_xyz
x,y,z
-x,-y,z
1/2-x,y,z
1/2+x,-y,z
x,1/2+y,1/2+z
-x,1/2-y,1/2+z
1/2-x,1/2+y,1/2+z
1/2+x,1/2-y,1/2+z
loop_
_atom_site_type_symbol
_atom_site_label
_atom_site_fract_x
_atom_site_fract_y
_atom_site_fract_z
Si Si1 0.565702 0.299682 0.542910
Si Si2 0.564619 0.786943 0.635123
Si Si3 0.063237 0.422486 0.894795
Si Si4 0.065638 0.421392 0.600880
Si Si5 0.065534 0.578075 0.079511
Si Si6 0.937490 0.666507 0.987181
Si Si7 0.565013 0.832212 0.193356
Si Si8 0.063505 0.421805 0.781606
O O1 0.750000 0.311331 0.540749
O O2 0.523073 0.252660 0.590657
O O3 0.482118 0.373329 0.554063
O O4 0.516225 0.247591 0.498694
O O5 0.750000 0.776087 0.630096
O O6 0.532013 0.869319 0.625387
O O7 0.505354 0.745433 0.682731
O O8 0.250000 0.425577 0.896046
O O9 0.011904 0.365428 0.935077
O O10 0.018249 0.407145 0.838385
O O11 0.000000 0.500000 0.907948
O O12 0.250000 0.422553 0.605958
O O13 0.000000 0.500000 0.597070
O O14 0.995031 0.383000 0.649144
O O15 0.250000 0.574334 0.073966
O O16 0.000000 0.500000 0.085353
O O17 0.998788 0.616062 0.030743
O O18 0.750000 0.664923 0.989337
O O19 0.750000 0.829522 0.191566
O O20 0.506471 0.866007 0.243847
O O21 0.250000 0.422155 0.777905
O O22 0.000000 0.500000 0.769340
#
# Coordination Sequence:
#
# PCOD9362849 Si02
#       8
#     8   8   8   8   8   8   8   8
#     4   9  16  27  42  60  82 107 135 168 204 241
#     4   9  17  29  42  58  80 107 138 169 202 241
#     4   9  18  30  43  60  82 110 141 174 207 238
#     4  11  20  30  43  60  83 109 139 170 203 243
#     4  10  19  28  41  61  85 112 141 171 203 241
#     4   9  17  29  44  61  83 111 142 172 204 242
#     4  11  20  30  44  61  81 107 139 171 208 247
#     4  10  19  31  44  59  82 109 140 175 208 241
#
# _framework density 14.425039999999999
#
# number of rings (size 3 to 8) (size 9 to 14) (size 15 to 20)
#    0.000    2.250    0.000    6.000    0.000    4.000 
#    0.000    0.000    0.000    0.000    0.000    0.000 
#    0.000    1.000    0.000    6.250    0.000    3.875 
#
# Total GULP energy -178317.966009 kJ/mol
# GULP energy per Si atom -5572.436438 kJ/mol
# Density = 1.439221 g / cm^3
# Si number density = 14.425040 Si / 1000 Ang^3
#
#
#
# Elastic Constant Matrix: (Units=GPa)
#
#
# Indices 1 2 3 4 5 6 
#
# 1 52.5944 26.4644 16.6442 0.0000 0.0000 0.0000
# 2 26.4644 93.7843 40.1937 0.0000 0.0000 0.0000
# 3 16.6442 40.1937 66.2598 0.0000 0.0000 0.0000
# 4 0.0000 0.0000 0.0000 26.4983 0.0000 0.0000
# 5 0.0000 0.0000 0.0000 0.0000 9.8192 0.0000
# 6 0.0000 0.0000 0.0000 0.0000 0.0000 21.3495
#
#
#
# Elastic Compliance Matrix: (Units=1/GPa)
#
#
# Indices 1 2 3 4 5 6 
#
# 1 0.022445 -0.005293 -0.002427 0.000000 0.000000 0.000000
# 2 -0.005293 0.015657 -0.008168 0.000000 0.000000 0.000000
# 3 -0.002427 -0.008168 0.020657 0.000000 0.000000 0.000000
# 4 0.000000 0.000000 0.000000 0.037738 0.000000 0.000000
# 5 0.000000 0.000000 0.000000 0.000000 0.101841 0.000000
# 6 0.000000 0.000000 0.000000 0.000000 0.000000 0.046840
#
#
# Mechanical properties :
#
#
# Convention : Reuss Voigt Hill
#
# Bulk Modulus (GPa) = 37.06223 42.13812 39.60018
# Shear Modulus (GPa) = 17.48566 20.15581 18.82073
#
# Velocity S-wave (km/s) = 3.48541 3.74208 3.61602
# Velocity P-wave (km/s) = 6.47659 6.92431 6.70419
#
# Compressibility (1/GPa) = 0.02698165
#
# Stress axis : x y z
#
# Youngs Moduli (GPa) = 44.55318 63.86873 48.41076
#
# Poissons Ratio (x) = 0.33809 0.11750
# Poissons Ratio (y) = 0.23584 0.39542
# Poissons Ratio (z) = 0.10813 0.52168
#
# Static dielectric constant tensor:
#      x y z
#    x 1.482720 0.000000 0.000000 
#    y 0.000000 1.489210 0.000000 
#    z 0.000000 0.000000 1.480710 
# 
# From -- ./inp_files/25544.got.cif
#   From: 2010.05.17/outbox.cif.g08.bks.cpg/sg40_13_cif.got.tgz:25544.got - 2010.06.03 18:35:42.
