data_PCOD9362927
_publ_section_title
;
Structure prediction by ZEFSAII (Michael W. Deem and Ramdas Pophale) SiO2 
 PCOD9362927
Probable space group: A M A 2
;
_chemical_formula_sum "Si O2"
_cell_formula_units_Z 64
_cell_length_a 8.562984
_cell_length_b 24.082533
_cell_length_c 19.756461
_cell_angle_alpha 90.000000
_cell_angle_beta 90.000000
_cell_angle_gamma 90.000000
_cell_volume 4074.144686
_symmetry_space_group_name_H-M "A M A 2"
_symmetry_group_IT_number 40
_symmetry_cell_setting 'orthorhombic'
loop_
_space_group_symop_operation_xyz
x,y,z
-x,-y,z
1/2-x,y,z
1/2+x,-y,z
x,1/2+y,1/2+z
-x,1/2-y,1/2+z
1/2-x,1/2+y,1/2+z
1/2+x,1/2-y,1/2+z
loop_
_atom_site_type_symbol
_atom_site_label
_atom_site_fract_x
_atom_site_fract_y
_atom_site_fract_z
Si Si1 0.438297 0.438047 0.459860
Si Si2 0.939775 0.664645 0.826360
Si Si3 0.061440 0.938382 0.240157
Si Si4 0.562778 0.663014 0.369318
Si Si5 0.061005 0.768041 0.452476
Si Si6 0.561015 0.120242 0.100118
Si Si7 0.436947 0.245939 0.102394
Si Si8 0.063249 0.724978 0.244362
O O1 0.500000 0.500000 0.452407
O O2 0.250000 0.439678 0.460442
O O3 0.487582 0.395849 0.400462
O O4 0.487915 0.411067 0.531599
O O5 0.750000 0.663413 0.825623
O O6 0.993614 0.606422 0.795877
O O7 0.988639 0.682700 0.901695
O O8 0.986153 0.715547 0.777047
O O9 0.250000 0.939653 0.241449
O O10 0.014913 0.914483 0.166526
O O11 0.000000 0.000000 0.250695
O O12 0.750000 0.664952 0.368738
O O13 0.501817 0.711267 0.419464
O O14 0.500238 0.678370 0.295222
O O15 0.250000 0.765389 0.450650
O O16 0.011952 0.771530 0.530339
O O17 0.750000 0.124908 0.100041
O O18 0.493465 0.182086 0.103261
O O19 0.250000 0.246925 0.105329
O O20 0.503402 0.276500 0.168093
O O21 0.250000 0.723603 0.245237
#
# Coordination Sequence:
#
# PCOD9362927 Si02
#       8
#     8   8   8   8   8   8   8   8
#     4  10  21  33  48  68  97 133 169 205 241 285
#     4   8  15  30  48  64  87 122 157 189 230 284
#     4  10  19  31  47  65  91 127 165 199 230 279
#     4  10  19  32  49  72  97 123 160 207 248 284
#     4   9  18  31  48  70  95 126 160 194 242 297
#     4  10  19  33  46  64  97 135 167 195 236 282
#     4  11  20  29  47  75 100 124 161 204 239 287
#     4  10  19  33  51  68  94 129 161 194 244 302
#
# _framework density 15.708819
#
# number of rings (size 3 to 8) (size 9 to 14) (size 15 to 20)
#    0.000    2.250    2.500    2.250    0.000    2.500 
#    0.000    0.625    0.000    0.000    0.000    0.875 
#    0.000    2.000    0.000    0.000    0.000    0.000 
#
# Total GULP energy -178455.049566 kJ/mol
# GULP energy per Si atom -5576.720299 kJ/mol
# Density = 1.567306 g / cm^3
# Si number density = 15.708819 Si / 1000 Ang^3
#
#
#
# Elastic Constant Matrix: (Units=GPa)
#
#
# Indices 1 2 3 4 5 6 
#
# 1 15.6291 21.3152 30.0841 0.0000 0.0000 0.0000
# 2 21.3152 105.8612 81.3103 0.0000 0.0000 0.0000
# 3 30.0841 81.3103 159.8373 0.0000 0.0000 0.0000
# 4 0.0000 0.0000 0.0000 21.1348 0.0000 0.0000
# 5 0.0000 0.0000 0.0000 0.0000 17.5793 0.0000
# 6 0.0000 0.0000 0.0000 0.0000 0.0000 23.0940
#
#
#
# Elastic Compliance Matrix: (Units=1/GPa)
#
#
# Indices 1 2 3 4 5 6 
#
# 1 0.106309 -0.009908 -0.014969 0.000000 0.000000 0.000000
# 2 -0.009908 0.016428 -0.006492 0.000000 0.000000 0.000000
# 3 -0.014969 -0.006492 0.012376 0.000000 0.000000 0.000000
# 4 0.000000 0.000000 0.000000 0.047315 0.000000 0.000000
# 5 0.000000 0.000000 0.000000 0.000000 0.056885 0.000000
# 6 0.000000 0.000000 0.000000 0.000000 0.000000 0.043301
#
#
# Mechanical properties :
#
#
# Convention : Reuss Voigt Hill
#
# Bulk Modulus (GPa) = 13.81691 60.74966 37.28328
# Shear Modulus (GPa) = 13.53262 22.26950 17.90106
#
# Velocity S-wave (km/s) = 2.93826 3.76925 3.37939
# Velocity P-wave (km/s) = 4.50842 7.59600 6.24600
#
# Compressibility (1/GPa) = 0.07237511
#
# Stress axis : x y z
#
# Youngs Moduli (GPa) = 9.40654 60.87257 80.79955
#
# Poissons Ratio (x) = 0.60313 1.20948
# Poissons Ratio (y) = 0.09320 0.52455
# Poissons Ratio (z) = 0.14081 0.39519
#
# Static dielectric constant tensor:
#      x y z
#    x 1.534460 0.000000 0.000000 
#    y 0.000000 1.496950 0.000000 
#    z 0.000000 0.000000 1.541330 
# 
# From -- ./inp_files/19739.got.cif
#   From: 2010.05.17/outbox.cif.g08.bks.cpg/sg40_10_cif.got.tgz:19739.got - 2010.06.03 18:35:42.
