data_PCOD9362354
_publ_section_title
;
Structure prediction by ZEFSAII (Michael W. Deem and Ramdas Pophale) SiO2 
 PCOD9362354
Probable space group: A M A 2
;
_chemical_formula_sum "Si O2"
_cell_formula_units_Z 64
_cell_length_a 15.357028
_cell_length_b 9.656772
_cell_length_c 19.926242
_cell_angle_alpha 90.000000
_cell_angle_beta 90.000000
_cell_angle_gamma 90.000000
_cell_volume 2955.048099
_symmetry_space_group_name_H-M "A M A 2"
_symmetry_group_IT_number 40
_symmetry_cell_setting 'orthorhombic'
loop_
_space_group_symop_operation_xyz
x,y,z
-x,-y,z
1/2-x,y,z
1/2+x,-y,z
x,1/2+y,1/2+z
-x,1/2-y,1/2+z
1/2-x,1/2+y,1/2+z
1/2+x,1/2-y,1/2+z
loop_
_atom_site_type_symbol
_atom_site_label
_atom_site_fract_x
_atom_site_fract_y
_atom_site_fract_z
Si Si1 0.980988 0.857867 0.135670
Si Si2 0.155337 0.824193 0.464861
Si Si3 0.594194 0.467615 0.492643
Si Si4 0.847360 0.162707 0.894747
Si Si5 0.650060 0.820538 0.656293
Si Si6 0.651332 0.630992 0.123776
Si Si7 0.492803 0.852439 0.366367
Si Si8 0.085600 0.081813 0.795381
O O1 0.932600 0.916472 0.067363
O O2 0.914601 0.738332 0.158708
O O3 0.075264 0.784220 0.131163
O O4 0.000000 0.000000 0.174786
O O5 0.250000 0.868976 0.438757
O O6 0.144619 0.658711 0.459602
O O7 0.152466 0.845577 0.544178
O O8 0.071736 0.884932 0.428490
O O9 0.500000 0.500000 0.459777
O O10 0.645307 0.604194 0.471309
O O11 0.750000 0.207441 0.880397
O O12 0.915014 0.286967 0.886381
O O13 0.870778 0.033279 0.844521
O O14 0.750000 0.780668 0.639741
O O15 0.643359 0.857703 0.735297
O O16 0.627644 0.971157 0.627736
O O17 0.750000 0.650017 0.149957
O O18 0.447304 0.722992 0.329904
O O19 0.500000 0.000000 0.329986
O O20 0.000000 0.000000 0.768738
#
# Coordination Sequence:
#
# PCOD9362354 Si02
#       8
#     8   8   8   8   8   8   8   8
#     4  10  22  36  61  87 125 168 206 260 326 380
#     4  10  19  34  58  85 122 167 205 252 316 382
#     4  10  17  34  58  86 118 160 210 257 309 366
#     4  11  21  39  65  95 128 171 222 270 316 389
#     4  11  23  42  66  96 123 164 223 277 324 387
#     4   9  20  38  61  88 121 165 218 263 318 377
#     4  11  24  39  60  94 137 166 207 256 331 399
#     4  10  21  40  67  94 126 170 223 267 325 384
#
# _framework density 21.657855000000001
#
# number of rings (size 3 to 8) (size 9 to 14) (size 15 to 20)
#    0.000    1.750    2.500    2.250    0.000    4.500 
#    0.000    3.750    0.000    0.000    0.000    0.000 
#    0.000    0.000    0.000    0.000    0.000    0.000 
#
# Total GULP energy -178193.595607 kJ/mol
# GULP energy per Si atom -5568.549863 kJ/mol
# Density = 2.160856 g / cm^3
# Si number density = 21.657855 Si / 1000 Ang^3
#
#
#
# Elastic Constant Matrix: (Units=GPa)
#
#
# Indices 1 2 3 4 5 6 
#
# 1 133.5388 66.9773 17.6299 0.0000 0.0000 0.0000
# 2 66.9773 151.7818 22.7609 0.0000 0.0000 0.0000
# 3 17.6299 22.7609 44.3372 0.0000 0.0000 0.0000
# 4 0.0000 0.0000 0.0000 51.7375 0.0000 0.0000
# 5 0.0000 0.0000 0.0000 0.0000 516.7750 0.0000
# 6 0.0000 0.0000 0.0000 0.0000 0.0000 10.5003
#
#
#
# Elastic Compliance Matrix: (Units=1/GPa)
#
#
# Indices 1 2 3 4 5 6 
#
# 1 0.009749 -0.004031 -0.001807 0.000000 0.000000 0.000000
# 2 -0.004031 0.008805 -0.002917 0.000000 0.000000 0.000000
# 3 -0.001807 -0.002917 0.024770 0.000000 0.000000 0.000000
# 4 0.000000 0.000000 0.000000 0.019328 0.000000 0.000000
# 5 0.000000 0.000000 0.000000 0.000000 0.001935 0.000000
# 6 0.000000 0.000000 0.000000 0.000000 0.000000 0.095236
#
#
# Mechanical properties :
#
#
# Convention : Reuss Voigt Hill
#
# Bulk Modulus (GPa) = 38.73923 60.48821 49.61372
# Shear Modulus (GPa) = 26.89076 130.62186 78.75631
#
# Velocity S-wave (km/s) = 3.52748 7.77448 6.03679
# Velocity P-wave (km/s) = 5.87508 10.42015 8.45861
#
# Compressibility (1/GPa) = 0.02581362
#
# Stress axis : x y z
#
# Youngs Moduli (GPa) = 102.57725 113.57747 40.37060
#
# Poissons Ratio (x) = 0.45782 0.07295
# Poissons Ratio (y) = 0.41348 0.11777
# Poissons Ratio (z) = 0.18537 0.33132
#
# Static dielectric constant tensor:
#      x y z
#    x 1.484250 0.000000 0.000000 
#    y 0.000000 1.812180 0.000000 
#    z 0.000000 0.000000 1.905900 
# 
# From -- ./inp_files/24804.got.cif
#   From: 2010.05.17/outbox.cif.g08.bks.cpg/sg40_13_cif.got.tgz:24804.got - 2010.06.03 18:35:42.
