data_PCOD9362530
_publ_section_title
;
Structure prediction by ZEFSAII (Michael W. Deem and Ramdas Pophale) SiO2 
 PCOD9362530
Probable space group: A M A 2
;
_chemical_formula_sum "Si O2"
_cell_formula_units_Z 64
_cell_length_a 8.108461
_cell_length_b 19.302720
_cell_length_c 22.438831
_cell_angle_alpha 90.000000
_cell_angle_beta 90.000000
_cell_angle_gamma 90.000000
_cell_volume 3512.021539
_symmetry_space_group_name_H-M "A M A 2"
_symmetry_group_IT_number 40
_symmetry_cell_setting 'orthorhombic'
loop_
_space_group_symop_operation_xyz
x,y,z
-x,-y,z
1/2-x,y,z
1/2+x,-y,z
x,1/2+y,1/2+z
-x,1/2-y,1/2+z
1/2-x,1/2+y,1/2+z
1/2+x,1/2-y,1/2+z
loop_
_atom_site_type_symbol
_atom_site_label
_atom_site_fract_x
_atom_site_fract_y
_atom_site_fract_z
Si Si1 0.552540 0.220926 0.022890
Si Si2 0.449970 0.578520 0.199628
Si Si3 0.448224 0.132171 0.571769
Si Si4 0.950733 0.219467 0.395481
Si Si5 0.059636 0.925242 0.883493
Si Si6 0.446259 0.424903 0.946335
Si Si7 0.443850 0.572286 0.517439
Si Si8 0.937617 0.316017 0.298297
O O1 0.750000 0.216953 0.026487
O O2 0.494258 0.288897 0.059248
O O3 0.506339 0.236980 0.953772
O O4 0.480474 0.147679 0.044690
O O5 0.500000 0.500000 0.214683
O O6 0.250000 0.580240 0.201871
O O7 0.507292 0.598360 0.133087
O O8 0.511669 0.638596 0.244681
O O9 0.250000 0.134857 0.574960
O O10 0.494418 0.087960 0.513873
O O11 0.750000 0.222146 0.394392
O O12 0.005805 0.140995 0.408308
O O13 0.012426 0.249808 0.332357
O O14 0.250000 0.912119 0.867969
O O15 0.040032 0.925077 0.954545
O O16 0.942337 0.870040 0.852990
O O17 0.000000 0.000000 0.862337
O O18 0.500000 0.500000 0.924863
O O19 0.250000 0.422200 0.946903
O O20 0.500000 0.500000 0.547658
O O21 0.250000 0.567101 0.505241
O O22 0.750000 0.298520 0.280788
#
# Coordination Sequence:
#
# PCOD9362530 Si02
#       8
#     8   8   8   8   8   8   8   8
#     4  10  18  30  48  70  95 124 159 202 248 292
#     4  10  21  35  50  70  97 132 170 205 240 280
#     4   9  19  34  51  71  97 128 165 205 243 287
#     4   9  18  31  47  67  93 124 159 197 240 296
#     4  11  20  29  42  62  89 124 161 194 232 275
#     4  10  19  31  49  73  97 124 156 196 248 298
#     4  11  20  30  44  65  94 125 158 194 236 287
#     4  10  19  32  48  66  93 127 163 203 239 279
#
# _framework density 18.223122
#
# number of rings (size 3 to 8) (size 9 to 14) (size 15 to 20)
#    0.000    2.000    1.250    4.500    0.000    4.000 
#    0.000    0.000    0.000    0.000    0.000    0.875 
#    0.000    2.000    0.000    0.000    0.000    0.750 
#
# Total GULP energy -178365.359717 kJ/mol
# GULP energy per Si atom -5573.917491 kJ/mol
# Density = 1.818165 g / cm^3
# Si number density = 18.223122 Si / 1000 Ang^3
#
#
#
# Elastic Constant Matrix: (Units=GPa)
#
#
# Indices 1 2 3 4 5 6 
#
# 1 40.6884 8.3923 3.3041 0.0000 0.0000 0.0000
# 2 8.3923 139.9681 39.3753 0.0000 0.0000 0.0000
# 3 3.3041 39.3753 69.0909 0.0000 0.0000 0.0000
# 4 0.0000 0.0000 0.0000 24.1137 0.0000 0.0000
# 5 0.0000 0.0000 0.0000 0.0000 10.8337 0.0000
# 6 0.0000 0.0000 0.0000 0.0000 0.0000 25.0062
#
#
#
# Elastic Compliance Matrix: (Units=1/GPa)
#
#
# Indices 1 2 3 4 5 6 
#
# 1 0.024894 -0.001379 -0.000405 0.000000 0.000000 0.000000
# 2 -0.001379 0.008585 -0.004827 0.000000 0.000000 0.000000
# 3 -0.000405 -0.004827 0.017244 0.000000 0.000000 0.000000
# 4 0.000000 0.000000 0.000000 0.041470 0.000000 0.000000
# 5 0.000000 0.000000 0.000000 0.000000 0.092305 0.000000
# 6 0.000000 0.000000 0.000000 0.000000 0.000000 0.039990
#
#
# Mechanical properties :
#
#
# Convention : Reuss Voigt Hill
#
# Bulk Modulus (GPa) = 26.66479 39.09897 32.88188
# Shear Modulus (GPa) = 19.98326 25.23576 22.60951
#
# Velocity S-wave (km/s) = 3.31507 3.72536 3.52619
# Velocity P-wave (km/s) = 5.41452 6.32508 5.88743
#
# Compressibility (1/GPa) = 0.03750264
#
# Stress axis : x y z
#
# Youngs Moduli (GPa) = 40.16991 116.48254 57.99181
#
# Poissons Ratio (x) = 0.16060 0.02347
# Poissons Ratio (y) = 0.05538 0.27991
# Poissons Ratio (z) = 0.01626 0.56223
#
# Static dielectric constant tensor:
#      x y z
#    x 1.644510 0.000000 0.000000 
#    y 0.000000 1.690470 0.000000 
#    z 0.000000 0.000000 1.625580 
# 
# From -- ./inp_files/24413.got.cif
#   From: 2010.05.17/outbox.cif.g08.bks.cpg/sg40_13_cif.got.tgz:24413.got - 2010.06.03 18:35:42.
