data_PCOD9362565
_publ_section_title
;
Structure prediction by ZEFSAII (Michael W. Deem and Ramdas Pophale) SiO2 
 PCOD9362565
Probable space group: A M A 2
;
_chemical_formula_sum "Si O2"
_cell_formula_units_Z 60
_cell_length_a 14.634370
_cell_length_b 26.115993
_cell_length_c 7.976424
_cell_angle_alpha 90.000000
_cell_angle_beta 90.000000
_cell_angle_gamma 90.000000
_cell_volume 3048.518298
_symmetry_space_group_name_H-M "A M A 2"
_symmetry_group_IT_number 40
_symmetry_cell_setting 'orthorhombic'
loop_
_space_group_symop_operation_xyz
x,y,z
-x,-y,z
1/2-x,y,z
1/2+x,-y,z
x,1/2+y,1/2+z
-x,1/2-y,1/2+z
1/2-x,1/2+y,1/2+z
1/2+x,1/2-y,1/2+z
loop_
_atom_site_type_symbol
_atom_site_label
_atom_site_fract_x
_atom_site_fract_y
_atom_site_fract_z
Si Si1 0.349079 0.737171 0.525260
Si Si2 0.010659 0.101304 0.468806
Si Si3 0.000000 0.000000 0.668805
Si Si4 0.352666 0.683063 0.890281
Si Si5 0.639384 0.626921 0.702740
Si Si6 0.558702 0.717998 0.507389
Si Si7 0.349280 0.939088 0.866339
Si Si8 0.611035 0.659470 0.181041
O O1 0.250000 0.724703 0.444088
O O2 0.348504 0.709671 0.707580
O O3 0.450676 0.721658 0.466091
O O4 0.351788 0.798899 0.551063
O O5 0.918573 0.102894 0.355491
O O6 0.986614 0.139233 0.621933
O O7 0.091940 0.130308 0.375841
O O8 0.030370 0.046339 0.547219
O O9 0.078306 0.978035 0.790229
O O10 0.250000 0.673848 0.948939
O O11 0.401051 0.725098 0.009288
O O12 0.750000 0.632058 0.725978
O O13 0.590051 0.681562 0.660326
O O14 0.625895 0.589613 0.540564
O O15 0.606416 0.690621 0.351593
O O16 0.250000 0.963249 0.889392
O O17 0.341947 0.893477 0.729294
#
# Coordination Sequence:
#
# PCOD9362565 Si02
#       8
#     8   8   4   8   8   8   8   8
#     4  10  18  30  53  83 117 158 194 232 282 340
#     4  11  21  38  55  87 117 149 195 246 302 346
#     4  10  24  38  62  88 112 156 188 248 306 354
#     4  10  20  34  54  80 120 163 192 231 288 349
#     4  10  21  37  63  90 114 149 198 251 292 342
#     4  10  18  35  55  84 120 160 200 233 277 354
#     4   9  19  39  62  83 110 148 197 244 291 348
#     4   9  19  33  54  79 116 152 192 240 286 334
#
# _framework density 19.681692999999999
#
# number of rings (size 3 to 8) (size 9 to 14) (size 15 to 20)
#    0.000    2.133    2.667    0.800    0.000    6.933 
#    0.000    0.667    0.000    5.600    0.000    0.000 
#    0.000    0.000    0.000    0.000    0.000    0.000 
#
# Total GULP energy -167007.213394 kJ/mol
# GULP energy per Si atom -5566.907113 kJ/mol
# Density = 1.963690 g / cm^3
# Si number density = 19.681693 Si / 1000 Ang^3
#
#
#
# Elastic Constant Matrix: (Units=GPa)
#
#
# Indices 1 2 3 4 5 6 
#
# 1 125.7206 52.9512 7.1629 0.0000 0.0000 0.0000
# 2 52.9512 112.4420 22.9034 0.0000 0.0000 0.0000
# 3 7.1629 22.9034 40.9466 0.0000 0.0000 0.0000
# 4 0.0000 0.0000 0.0000 20.2470 0.0000 0.0000
# 5 0.0000 0.0000 0.0000 0.0000 4.3200 0.0000
# 6 0.0000 0.0000 0.0000 0.0000 0.0000 4.5980
#
#
#
# Elastic Compliance Matrix: (Units=1/GPa)
#
#
# Indices 1 2 3 4 5 6 
#
# 1 0.009958 -0.004892 0.000994 0.000000 0.000000 0.000000
# 2 -0.004892 0.012440 -0.006103 0.000000 0.000000 0.000000
# 3 0.000994 -0.006103 0.027662 0.000000 0.000000 0.000000
# 4 0.000000 0.000000 0.000000 0.049390 0.000000 0.000000
# 5 0.000000 0.000000 0.000000 0.000000 0.231483 0.000000
# 6 0.000000 0.000000 0.000000 0.000000 0.000000 0.217484
#
#
# Mechanical properties :
#
#
# Convention : Reuss Voigt Hill
#
# Bulk Modulus (GPa) = 33.26768 49.46049 41.36408
# Shear Modulus (GPa) = 8.64399 18.90578 13.77488
#
# Velocity S-wave (km/s) = 2.09796 3.10268 2.64840
# Velocity P-wave (km/s) = 4.77578 6.16606 5.51491
#
# Compressibility (1/GPa) = 0.03005920
#
# Stress axis : x y z
#
# Youngs Moduli (GPa) = 100.42305 80.38439 36.15120
#
# Poissons Ratio (x) = 0.39323 -0.03595
# Poissons Ratio (y) = 0.49126 0.22062
# Poissons Ratio (z) = -0.09985 0.49056
#
# Static dielectric constant tensor:
#      x y z
#    x 1.841140 0.000000 0.000000 
#    y 0.000000 1.681590 0.000000 
#    z 0.000000 0.000000 1.756710 
# 
# From -- ./inp_files/6941.got.cif
#   From: 2010.05.17/outbox.cif.g08.bks.cpg/sg40_4_cif.got.tgz:6941.got - 2010.06.03 18:35:42.
