data_PCOD9362626
_publ_section_title
;
Structure prediction by ZEFSAII (Michael W. Deem and Ramdas Pophale) SiO2 
 PCOD9362626
Probable space group: A M A 2
;
_chemical_formula_sum "Si O2"
_cell_formula_units_Z 64
_cell_length_a 8.766343
_cell_length_b 31.141900
_cell_length_c 14.986841
_cell_angle_alpha 90.000000
_cell_angle_beta 90.000000
_cell_angle_gamma 90.000000
_cell_volume 4091.416241
_symmetry_space_group_name_H-M "A M A 2"
_symmetry_group_IT_number 40
_symmetry_cell_setting 'orthorhombic'
loop_
_space_group_symop_operation_xyz
x,y,z
-x,-y,z
1/2-x,y,z
1/2+x,-y,z
x,1/2+y,1/2+z
-x,1/2-y,1/2+z
1/2-x,1/2+y,1/2+z
1/2+x,1/2-y,1/2+z
loop_
_atom_site_type_symbol
_atom_site_label
_atom_site_fract_x
_atom_site_fract_y
_atom_site_fract_z
Si Si1 0.565880 0.546348 0.161930
Si Si2 0.569121 0.635387 0.087190
Si Si3 0.434411 0.364161 0.439182
Si Si4 0.064099 0.294072 0.581292
Si Si5 0.066917 0.954070 0.869271
Si Si6 0.926853 0.722941 0.777132
Si Si7 0.074398 0.174545 0.760977
Si Si8 0.067869 0.709305 0.969888
O O1 0.500000 0.500000 0.137088
O O2 0.750000 0.544650 0.160514
O O3 0.517323 0.585955 0.099558
O O4 0.520378 0.554923 0.265786
O O5 0.750000 0.635535 0.072568
O O6 0.529316 0.656931 0.181918
O O7 0.491221 0.665519 0.014209
O O8 0.250000 0.361560 0.430119
O O9 0.477573 0.336342 0.525317
O O10 0.477469 0.414218 0.431801
O O11 0.510918 0.341926 0.354331
O O12 0.250000 0.291737 0.584758
O O13 0.011201 0.295535 0.683648
O O14 0.013779 0.251035 0.527757
O O15 0.250000 0.956978 0.869546
O O16 0.000000 0.000000 0.895050
O O17 0.750000 0.709543 0.788473
O O18 0.928545 0.774112 0.762283
O O19 0.013985 0.712997 0.868058
O O20 0.250000 0.160865 0.746772
O O21 0.250000 0.709907 0.973596
#
# Coordination Sequence:
#
# PCOD9362626 Si02
#       8
#     8   8   8   8   8   8   8   8
#     4   9  18  31  47  69  97 128 162 199 242 294
#     4  11  21  34  50  71 100 135 168 201 244 294
#     4  10  18  32  50  69  95 133 170 201 241 293
#     4   9  18  32  50  69  95 127 166 205 240 287
#     4   9  17  29  45  68  96 126 162 197 241 295
#     4  10  20  35  48  68  99 131 165 205 244 284
#     4  11  20  29  46  72 101 131 167 207 241 284
#     4  11  21  34  51  74  98 129 167 204 244 288
#
# _framework density 15.642505999999999
#
# number of rings (size 3 to 8) (size 9 to 14) (size 15 to 20)
#    0.000    2.000    3.750    1.125    0.000    2.000 
#    0.000    0.625    0.000    0.000    0.000    0.875 
#    0.000    2.000    0.000    0.000    0.000    0.000 
#
# Total GULP energy -178410.211073 kJ/mol
# GULP energy per Si atom -5575.319096 kJ/mol
# Density = 1.560690 g / cm^3
# Si number density = 15.642506 Si / 1000 Ang^3
#
#
#
# Elastic Constant Matrix: (Units=GPa)
#
#
# Indices 1 2 3 4 5 6 
#
# 1 16.2810 19.3285 13.0995 0.0000 0.0000 0.0000
# 2 19.3285 105.5459 41.9448 0.0000 0.0000 0.0000
# 3 13.0995 41.9448 85.3844 0.0000 0.0000 0.0000
# 4 0.0000 0.0000 0.0000 18.2707 0.0000 0.0000
# 5 0.0000 0.0000 0.0000 0.0000 18.4021 0.0000
# 6 0.0000 0.0000 0.0000 0.0000 0.0000 22.6858
#
#
#
# Elastic Compliance Matrix: (Units=1/GPa)
#
#
# Indices 1 2 3 4 5 6 
#
# 1 0.081207 -0.012327 -0.006403 0.000000 0.000000 0.000000
# 2 -0.012327 0.013644 -0.004811 0.000000 0.000000 0.000000
# 3 -0.006403 -0.004811 0.015058 0.000000 0.000000 0.000000
# 4 0.000000 0.000000 0.000000 0.054732 0.000000 0.000000
# 5 0.000000 0.000000 0.000000 0.000000 0.054342 0.000000
# 6 0.000000 0.000000 0.000000 0.000000 0.000000 0.044081
#
#
# Mechanical properties :
#
#
# Convention : Reuss Voigt Hill
#
# Bulk Modulus (GPa) = 15.91687 39.55076 27.73382
# Shear Modulus (GPa) = 15.10171 20.72763 17.91467
#
# Velocity S-wave (km/s) = 3.11050 3.64412 3.38783
# Velocity P-wave (km/s) = 4.80602 6.56088 5.75078
#
# Compressibility (1/GPa) = 0.06282643
#
# Stress axis : x y z
#
# Youngs Moduli (GPa) = 12.31415 73.29208 66.41122
#
# Poissons Ratio (x) = 0.90345 0.42524
# Poissons Ratio (y) = 0.15179 0.31953
# Poissons Ratio (z) = 0.07885 0.35264
#
# Static dielectric constant tensor:
#      x y z
#    x 1.534950 0.000000 0.000000 
#    y 0.000000 1.531870 0.000000 
#    z 0.000000 0.000000 1.509990 
# 
# From -- ./inp_files/10630.got.cif
#   From: 2010.05.17/outbox.cif.g08.bks.cpg/sg40_6_cif.got.tgz:10630.got - 2010.06.03 18:35:42.
