data_PCOD9362102
_publ_section_title
;
Structure prediction by ZEFSAII (Michael W. Deem and Ramdas Pophale) SiO2 
 PCOD9362102
Probable space group: A B M 2
;
_chemical_formula_sum "Si O2"
_cell_formula_units_Z 64
_cell_length_a 11.088384
_cell_length_b 27.277014
_cell_length_c 9.512671
_cell_angle_alpha 90.000000
_cell_angle_beta 90.000000
_cell_angle_gamma 90.000000
_cell_volume 2877.183499
_symmetry_space_group_name_H-M "A B M 2"
_symmetry_group_IT_number 39
_symmetry_cell_setting 'orthorhombic'
loop_
_space_group_symop_operation_xyz
x,y,z
-x,-y,z
-x,1/2+y,z
x,1/2-y,z
x,1/2+y,1/2+z
-x,1/2-y,1/2+z
-x,y,1/2+z
x,-y,1/2+z
loop_
_atom_site_type_symbol
_atom_site_label
_atom_site_fract_x
_atom_site_fract_y
_atom_site_fract_z
Si Si1 0.940298 0.046033 0.757730
Si Si2 0.467399 0.637985 0.715305
Si Si3 0.937121 0.139212 0.354253
Si Si4 0.239103 0.900040 0.553378
Si Si5 0.663858 0.937491 0.603952
Si Si6 0.411343 0.695336 0.986573
Si Si7 0.716173 0.004077 0.374525
Si Si8 0.158004 0.653094 0.057715
O O1 0.866897 0.079542 0.651451
O O2 0.038377 0.081315 0.826280
O O3 0.847378 0.021747 0.867263
O O4 0.000000 0.000000 0.181867
O O5 0.340303 0.621468 0.653359
O O6 0.561159 0.595135 0.676359
O O7 0.453573 0.654068 0.875706
O O8 0.516607 0.684343 0.628535
O O9 0.819240 0.140381 0.451545
O O10 0.907443 0.163713 0.205768
O O11 0.057148 0.154737 0.436829
O O12 0.286169 0.945500 0.460985
O O13 0.689618 0.981143 0.714310
O O14 0.776480 0.900247 0.579597
O O15 0.635344 0.963884 0.455650
O O16 0.432876 0.750000 0.934469
O O17 0.270148 0.687284 0.018814
#
# Coordination Sequence:
#
# PCOD9362102 Si02
#       8
#     8   8   8   8   8   8   8   8
#     4  12  23  35  56  92 138 190 253 294 313 381
#     4  11  27  49  74 102 141 180 232 299 376 436
#     4  12  23  39  66  97 142 193 234 284 350 412
#     4  12  25  39  62  99 140 192 241 290 342 402
#     4  11  24  43  62  96 139 193 242 298 338 404
#     4  11  26  52  84 108 131 170 232 304 380 468
#     4  12  23  38  57  93 137 188 251 284 327 380
#     4  11  24  43  70 104 141 183 234 291 363 431
#
# _framework density 22.243976
#
# number of rings (size 3 to 8) (size 9 to 14) (size 15 to 20)
#    0.000    0.500    6.250    1.875    5.250    0.500 
#    2.250    0.625    0.000    0.000    0.000    0.000 
#    0.000    0.000    0.000    0.000    0.000    0.000 
#
# Total GULP energy -179026.546948 kJ/mol
# GULP energy per Si atom -5594.579592 kJ/mol
# Density = 2.219335 g / cm^3
# Si number density = 22.243976 Si / 1000 Ang^3
#
#
#
# Elastic Constant Matrix: (Units=GPa)
#
#
# Indices 1 2 3 4 5 6 
#
# 1 68.4682 9.7843 23.5783 0.0000 0.0000 0.0000
# 2 9.7843 41.8373 7.7903 0.0000 0.0000 0.0000
# 3 23.5783 7.7903 75.0975 0.0000 0.0000 0.0000
# 4 0.0000 0.0000 0.0000 25.4443 0.0000 0.0000
# 5 0.0000 0.0000 0.0000 0.0000 36.5557 0.0000
# 6 0.0000 0.0000 0.0000 0.0000 0.0000 8.7817
#
#
#
# Elastic Compliance Matrix: (Units=1/GPa)
#
#
# Indices 1 2 3 4 5 6 
#
# 1 0.016736 -0.002993 -0.004944 0.000000 0.000000 0.000000
# 2 -0.002993 0.024908 -0.001644 0.000000 0.000000 0.000000
# 3 -0.004944 -0.001644 0.015039 0.000000 0.000000 0.000000
# 4 0.000000 0.000000 0.000000 0.039302 0.000000 0.000000
# 5 0.000000 0.000000 0.000000 0.000000 0.027356 0.000000
# 6 0.000000 0.000000 0.000000 0.000000 0.000000 0.113873
#
#
# Mechanical properties :
#
#
# Convention : Reuss Voigt Hill
#
# Bulk Modulus (GPa) = 26.65243 29.74543 28.19893
# Shear Modulus (GPa) = 18.59551 23.77302 21.18426
#
# Velocity S-wave (km/s) = 2.89447 3.27270 3.08938
# Velocity P-wave (km/s) = 4.81440 5.26139 5.04285
#
# Compressibility (1/GPa) = 0.03752004
#
# Stress axis : x y z
#
# Youngs Moduli (GPa) = 59.75281 40.14729 66.49456
#
# Poissons Ratio (x) = 0.12017 0.32875
# Poissons Ratio (y) = 0.17886 0.10932
# Poissons Ratio (z) = 0.29541 0.06601
#
# Static dielectric constant tensor:
#      x y z
#    x 1.839640 0.000000 0.000000 
#    y 0.000000 1.795790 0.000000 
#    z 0.000000 0.000000 1.849120 
# 
# From -- ./inp_files/2887.got.cif
#   From: 2010.05.17/outbox.cif.g08.bks.cpg/sg39_2_cif.got.tgz:2887.got - 2010.06.03 18:22:40.
