data_PCOD9362674
_publ_section_title
;
Structure prediction by ZEFSAII (Michael W. Deem and Ramdas Pophale) SiO2 
 PCOD9362674
Probable space group: A M A 2
;
_chemical_formula_sum "Si O2"
_cell_formula_units_Z 64
_cell_length_a 8.695750
_cell_length_b 14.402359
_cell_length_c 24.882030
_cell_angle_alpha 90.000000
_cell_angle_beta 90.000000
_cell_angle_gamma 90.000000
_cell_volume 3116.208350
_symmetry_space_group_name_H-M "A M A 2"
_symmetry_group_IT_number 40
_symmetry_cell_setting 'orthorhombic'
loop_
_space_group_symop_operation_xyz
x,y,z
-x,-y,z
1/2-x,y,z
1/2+x,-y,z
x,1/2+y,1/2+z
-x,1/2-y,1/2+z
1/2-x,1/2+y,1/2+z
1/2+x,1/2-y,1/2+z
loop_
_atom_site_type_symbol
_atom_site_label
_atom_site_fract_x
_atom_site_fract_y
_atom_site_fract_z
Si Si1 0.565798 0.719210 0.959950
Si Si2 0.065599 0.396234 0.410529
Si Si3 0.933588 0.104778 0.789558
Si Si4 0.433563 0.604424 0.861031
Si Si5 0.566075 0.605489 0.750294
Si Si6 0.566430 0.714184 0.080465
Si Si7 0.432241 0.604049 0.180176
Si Si8 0.932586 0.898215 0.137985
O O1 0.750000 0.712373 0.955288
O O2 0.513206 0.824915 0.950701
O O3 0.487250 0.659734 0.913273
O O4 0.520393 0.688736 0.020021
O O5 0.250000 0.397431 0.416802
O O6 0.031710 0.360344 0.349560
O O7 0.000000 0.500000 0.415768
O O8 0.750000 0.102731 0.783419
O O9 0.005417 0.148063 0.735996
O O10 0.000000 0.000000 0.790397
O O11 0.500000 0.500000 0.865182
O O12 0.250000 0.601658 0.857593
O O13 0.498700 0.646834 0.805252
O O14 0.500000 0.500000 0.750163
O O15 0.750000 0.605161 0.752234
O O16 0.507680 0.640946 0.692890
O O17 0.750000 0.698992 0.085849
O O18 0.483776 0.658013 0.127262
O O19 0.538868 0.823266 0.091743
O O20 0.500000 0.500000 0.176659
O O21 0.250000 0.599221 0.183745
O O22 0.750000 0.907030 0.146701
O O23 0.000000 0.000000 0.126776
#
# Coordination Sequence:
#
# PCOD9362674 Si02
#       8
#     8   8   8   8   8   8   8   8
#     4  11  24  42  61  84 114 152 199 247 289 339
#     4  10  21  38  61  89 120 156 193 237 290 344
#     4   9  17  32  56  85 118 150 185 229 281 341
#     4  11  22  39  62  88 118 153 190 235 290 347
#     4  10  18  32  56  87 119 150 186 231 282 343
#     4  10  24  43  60  81 113 152 197 243 286 335
#     4  11  22  37  61  88 117 151 188 234 287 342
#     4  10  20  37  60  86 117 152 188 234 287 341
#
# _framework density 20.537780000000001
#
# number of rings (size 3 to 8) (size 9 to 14) (size 15 to 20)
#    0.000    1.750    0.000    7.125    0.000    5.500 
#    0.000    2.500    0.000    0.000    0.000    0.000 
#    0.000    0.000    0.000    0.000    0.000    0.000 
#
# Total GULP energy -178831.413815 kJ/mol
# GULP energy per Si atom -5588.481682 kJ/mol
# Density = 2.049104 g / cm^3
# Si number density = 20.537780 Si / 1000 Ang^3
#
#
#
# Elastic Constant Matrix: (Units=GPa)
#
#
# Indices 1 2 3 4 5 6 
#
# 1 106.4519 11.3835 39.8877 0.0000 0.0000 0.0000
# 2 11.3835 41.1589 2.8783 0.0000 0.0000 0.0000
# 3 39.8877 2.8783 96.2532 0.0000 0.0000 0.0000
# 4 0.0000 0.0000 0.0000 25.1661 0.0000 0.0000
# 5 0.0000 0.0000 0.0000 0.0000 -25.1745 0.0000
# 6 0.0000 0.0000 0.0000 0.0000 0.0000 17.6682
#
#
#
# Elastic Compliance Matrix: (Units=1/GPa)
#
#
# Indices 1 2 3 4 5 6 
#
# 1 0.011442 -0.002839 -0.004657 0.000000 0.000000 0.000000
# 2 -0.002839 0.025051 0.000427 0.000000 0.000000 0.000000
# 3 -0.004657 0.000427 0.012306 0.000000 0.000000 0.000000
# 4 0.000000 0.000000 0.000000 0.039736 0.000000 0.000000
# 5 0.000000 0.000000 0.000000 0.000000 -0.039723 0.000000
# 6 0.000000 0.000000 0.000000 0.000000 0.000000 0.056599
#
#
# Mechanical properties :
#
#
# Convention : Reuss Voigt Hill
#
# Bulk Modulus (GPa) = 28.84916 39.12923 33.98919
# Shear Modulus (GPa) = 38.13775 16.17960 27.15867
#
# Velocity S-wave (km/s) = 4.31392 2.80982 3.64039
# Velocity P-wave (km/s) = 6.23623 5.44247 5.85282
#
# Compressibility (1/GPa) = 0.03466306
#
# Stress axis : x y z
#
# Youngs Moduli (GPa) = 87.39378 39.91797 81.25899
#
# Poissons Ratio (x) = 0.11333 0.37842
# Poissons Ratio (y) = 0.24811 -0.03473
# Poissons Ratio (z) = 0.40698 -0.01706
#
# Static dielectric constant tensor:
#      x y z
#    x 1.680290 0.000000 0.000000 
#    y 0.000000 1.817460 0.000000 
#    z 0.000000 0.000000 1.745600 
# 
# From -- ./inp_files/24315.got.cif
#   From: 2010.05.17/outbox.cif.g08.bks.cpg/sg40_13_cif.got.tgz:24315.got - 2010.06.03 18:35:42.
