data_PCOD9362460
_publ_section_title
;
Structure prediction by ZEFSAII (Michael W. Deem and Ramdas Pophale) SiO2 
 PCOD9362460
Probable space group: A M A 2
;
_chemical_formula_sum "Si O2"
_cell_formula_units_Z 64
_cell_length_a 15.669351
_cell_length_b 9.388144
_cell_length_c 21.613727
_cell_angle_alpha 90.000000
_cell_angle_beta 90.000000
_cell_angle_gamma 90.000000
_cell_volume 3179.511595
_symmetry_space_group_name_H-M "A M A 2"
_symmetry_group_IT_number 40
_symmetry_cell_setting 'orthorhombic'
loop_
_space_group_symop_operation_xyz
x,y,z
-x,-y,z
1/2-x,y,z
1/2+x,-y,z
x,1/2+y,1/2+z
-x,1/2-y,1/2+z
1/2-x,1/2+y,1/2+z
1/2+x,1/2-y,1/2+z
loop_
_atom_site_type_symbol
_atom_site_label
_atom_site_fract_x
_atom_site_fract_y
_atom_site_fract_z
Si Si1 0.351251 0.404581 0.998880
Si Si2 0.649473 0.133059 0.131958
Si Si3 0.402976 0.548801 0.125332
Si Si4 0.342529 0.848203 0.273226
Si Si5 0.850327 0.362486 0.565559
Si Si6 0.522321 0.329780 0.793377
Si Si7 0.153203 0.082197 0.381070
Si Si8 0.655037 0.202113 0.697594
O O1 0.250000 0.385356 0.989197
O O2 0.380432 0.491835 0.939369
O O3 0.364440 0.498661 0.060003
O O4 0.387656 0.247575 0.015356
O O5 0.750000 0.154819 0.118088
O O6 0.603564 0.283084 0.129692
O O7 0.646448 0.087685 0.204089
O O8 0.613832 0.016138 0.084467
O O9 0.500000 0.500000 0.126906
O O10 0.356370 0.464026 0.180477
O O11 0.250000 0.773006 0.273019
O O12 0.427946 0.762278 0.290047
O O13 0.336862 0.971430 0.324380
O O14 0.750000 0.384527 0.550036
O O15 0.850926 0.277917 0.630714
O O16 0.500000 0.500000 0.784835
O O17 0.578562 0.315982 0.855688
O O18 0.581480 0.263948 0.740486
O O19 0.250000 0.138739 0.393673
O O20 0.750000 0.230037 0.723221
#
# Coordination Sequence:
#
# PCOD9362460 Si02
#       8
#     8   8   8   8   8   8   8   8
#     4   9  18  34  52  73 103 139 179 223 273 327
#     4  10  18  32  53  76 104 137 178 225 279 340
#     4  11  22  33  49  77 111 146 181 227 286 340
#     4   9  18  30  46  72 103 136 175 223 274 321
#     4   8  15  28  50  75  99 134 176 218 263 320
#     4  10  18  28  48  77 104 136 180 227 272 323
#     4   9  17  30  50  75 103 137 179 223 268 322
#     4  10  19  33  51  75 109 143 180 226 278 331
#
# _framework density 20.128878
#
# number of rings (size 3 to 8) (size 9 to 14) (size 15 to 20)
#    0.000    2.500    0.000    4.500    0.000    5.000 
#    0.000    1.875    0.000    1.500    0.000    8.750 
#    0.000    0.000    0.000    0.250    0.000    0.125 
#
# Total GULP energy -178228.538516 kJ/mol
# GULP energy per Si atom -5569.641829 kJ/mol
# Density = 2.008306 g / cm^3
# Si number density = 20.128878 Si / 1000 Ang^3
#
#
#
# Elastic Constant Matrix: (Units=GPa)
#
#
# Indices 1 2 3 4 5 6 
#
# 1 113.9629 14.0440 18.5418 0.0000 0.0000 0.0000
# 2 14.0440 65.2826 27.2210 0.0000 0.0000 0.0000
# 3 18.5418 27.2210 68.4138 0.0000 0.0000 0.0000
# 4 0.0000 0.0000 0.0000 9.3680 0.0000 0.0000
# 5 0.0000 0.0000 0.0000 0.0000 20.6872 0.0000
# 6 0.0000 0.0000 0.0000 0.0000 0.0000 5.2651
#
#
#
# Elastic Compliance Matrix: (Units=1/GPa)
#
#
# Indices 1 2 3 4 5 6 
#
# 1 0.009249 -0.001132 -0.002056 0.000000 0.000000 0.000000
# 2 -0.001132 0.018504 -0.007055 0.000000 0.000000 0.000000
# 3 -0.002056 -0.007055 0.017981 0.000000 0.000000 0.000000
# 4 0.000000 0.000000 0.000000 0.106747 0.000000 0.000000
# 5 0.000000 0.000000 0.000000 0.000000 0.048339 0.000000
# 6 0.000000 0.000000 0.000000 0.000000 0.000000 0.189929
#
#
# Mechanical properties :
#
#
# Convention : Reuss Voigt Hill
#
# Bulk Modulus (GPa) = 39.61011 40.80810 40.20911
# Shear Modulus (GPa) = 11.91463 19.58757 15.75110
#
# Velocity S-wave (km/s) = 2.43557 3.12285 2.80038
# Velocity P-wave (km/s) = 5.25646 5.77238 5.52045
#
# Compressibility (1/GPa) = 0.02524608
#
# Stress axis : x y z
#
# Youngs Moduli (GPa) = 108.12151 54.04379 55.61283
#
# Poissons Ratio (x) = 0.06120 0.11435
# Poissons Ratio (y) = 0.12243 0.39237
# Poissons Ratio (z) = 0.22231 0.38130
#
# Static dielectric constant tensor:
#      x y z
#    x 1.803070 0.000000 0.000000 
#    y 0.000000 1.747580 0.000000 
#    z 0.000000 0.000000 1.726410 
# 
# From -- ./inp_files/24799.got.cif
#   From: 2010.05.17/outbox.cif.g08.bks.cpg/sg40_13_cif.got.tgz:24799.got - 2010.06.03 18:35:42.
