data_PCOD9362465
_publ_section_title
;
Structure prediction by ZEFSAII (Michael W. Deem and Ramdas Pophale) SiO2 
 PCOD9362465
Probable space group: A M A 2
;
_chemical_formula_sum "Si O2"
_cell_formula_units_Z 64
_cell_length_a 8.802636
_cell_length_b 18.954163
_cell_length_c 27.021537
_cell_angle_alpha 90.000000
_cell_angle_beta 90.000000
_cell_angle_gamma 90.000000
_cell_volume 4508.451510
_symmetry_space_group_name_H-M "A M A 2"
_symmetry_group_IT_number 40
_symmetry_cell_setting 'orthorhombic'
loop_
_space_group_symop_operation_xyz
x,y,z
-x,-y,z
1/2-x,y,z
1/2+x,-y,z
x,1/2+y,1/2+z
-x,1/2-y,1/2+z
1/2-x,1/2+y,1/2+z
1/2+x,1/2-y,1/2+z
loop_
_atom_site_type_symbol
_atom_site_label
_atom_site_fract_x
_atom_site_fract_y
_atom_site_fract_z
Si Si1 0.566617 0.922377 0.947080
Si Si2 0.425246 0.297895 0.798596
Si Si3 0.433938 0.577461 0.251677
Si Si4 0.069090 0.660130 0.643941
Si Si5 0.568428 0.577686 0.553494
Si Si6 0.065081 0.661856 0.349915
Si Si7 0.430572 0.077097 0.244349
Si Si8 0.074583 0.711923 0.194701
O O1 0.750000 0.926232 0.949976
O O2 0.522522 0.870518 0.902483
O O3 0.500000 0.000000 0.936255
O O4 0.499163 0.901129 0.000158
O O5 0.250000 0.315461 0.809837
O O6 0.486445 0.241714 0.838485
O O7 0.514978 0.368636 0.786501
O O8 0.425749 0.252755 0.747524
O O9 0.500000 0.500000 0.245219
O O10 0.250000 0.575055 0.251752
O O11 0.482432 0.610776 0.304667
O O12 0.478931 0.633478 0.209026
O O13 0.250000 0.654874 0.637326
O O14 0.024791 0.611738 0.691398
O O15 0.984326 0.630534 0.596178
O O16 0.022365 0.739749 0.658201
O O17 0.500000 0.500000 0.564570
O O18 0.750000 0.572780 0.551002
O O19 0.250000 0.664183 0.347874
O O20 0.250000 0.072415 0.244935
O O21 0.500000 0.000000 0.249510
O O22 0.250000 0.709399 0.177916
#
# Coordination Sequence:
#
# PCOD9362465 Si02
#       8
#     8   8   8   8   8   8   8   8
#     4  10  18  29  43  60  83 109 140 174 206 238
#     4   8  14  27  43  57  77 106 137 167 200 238
#     4   9  16  26  40  60  85 112 142 171 202 240
#     4  10  19  30  44  61  80 105 139 173 207 246
#     4  11  21  32  44  59  81 108 139 173 209 243
#     4   8  15  27  43  60  80 110 142 170 203 242
#     4  10  19  28  40  60  83 107 135 167 202 241
#     4   8  15  27  41  57  80 109 137 167 203 242
#
# _framework density 14.195561
#
# number of rings (size 3 to 8) (size 9 to 14) (size 15 to 20)
#    0.000    2.750    0.000    5.250    0.000    3.000 
#    0.000    3.750    0.000    0.000    0.000    0.000 
#    0.000    1.000    0.000    7.250    0.000    3.500 
#
# Total GULP energy -178256.799716 kJ/mol
# GULP energy per Si atom -5570.524991 kJ/mol
# Density = 1.416325 g / cm^3
# Si number density = 14.195561 Si / 1000 Ang^3
#
#
#
# Elastic Constant Matrix: (Units=GPa)
#
#
# Indices 1 2 3 4 5 6 
#
# 1 48.8062 37.2616 35.2335 0.0000 0.0000 0.0000
# 2 37.2616 119.8843 58.8443 0.0000 0.0000 0.0000
# 3 35.2335 58.8443 83.9985 0.0000 0.0000 0.0000
# 4 0.0000 0.0000 0.0000 24.6395 0.0000 0.0000
# 5 0.0000 0.0000 0.0000 0.0000 0.8659 0.0000
# 6 0.0000 0.0000 0.0000 0.0000 0.0000 23.2615
#
#
#
# Elastic Compliance Matrix: (Units=1/GPa)
#
#
# Indices 1 2 3 4 5 6 
#
# 1 0.031235 -0.004995 -0.009602 0.000000 0.000000 0.000000
# 2 -0.004995 0.013511 -0.007370 0.000000 0.000000 0.000000
# 3 -0.009602 -0.007370 0.021096 0.000000 0.000000 0.000000
# 4 0.000000 0.000000 0.000000 0.040585 0.000000 0.000000
# 5 0.000000 0.000000 0.000000 0.000000 1.154805 0.000000
# 6 0.000000 0.000000 0.000000 0.000000 0.000000 0.042989
#
#
# Mechanical properties :
#
#
# Convention : Reuss Voigt Hill
#
# Bulk Modulus (GPa) = 45.64749 57.26311 51.45530
# Shear Modulus (GPa) = 3.68879 17.84338 10.76608
#
# Velocity S-wave (km/s) = 1.61375 3.54922 2.75692
# Velocity P-wave (km/s) = 5.97480 7.56454 6.81618
#
# Compressibility (1/GPa) = 0.02190701
#
# Stress axis : x y z
#
# Youngs Moduli (GPa) = 32.01578 74.01137 47.40269
#
# Poissons Ratio (x) = 0.36968 0.45518
# Poissons Ratio (y) = 0.15991 0.34937
# Poissons Ratio (z) = 0.30743 0.54548
#
# Static dielectric constant tensor:
#      x y z
#    x 1.476910 0.000000 0.000000 
#    y 0.000000 1.468340 0.000000 
#    z 0.000000 0.000000 1.458870 
# 
# From -- ./inp_files/25528.got.cif
#   From: 2010.05.17/outbox.cif.g08.bks.cpg/sg40_13_cif.got.tgz:25528.got - 2010.06.03 18:35:42.
