data_PCOD9362663
_publ_section_title
;
Structure prediction by ZEFSAII (Michael W. Deem and Ramdas Pophale) SiO2 
 PCOD9362663
Probable space group: A M A 2
;
_chemical_formula_sum "Si O2"
_cell_formula_units_Z 64
_cell_length_a 7.980446
_cell_length_b 29.160862
_cell_length_c 12.970453
_cell_angle_alpha 90.000000
_cell_angle_beta 90.000000
_cell_angle_gamma 90.000000
_cell_volume 3018.440819
_symmetry_space_group_name_H-M "A M A 2"
_symmetry_group_IT_number 40
_symmetry_cell_setting 'orthorhombic'
loop_
_space_group_symop_operation_xyz
x,y,z
-x,-y,z
1/2-x,y,z
1/2+x,-y,z
x,1/2+y,1/2+z
-x,1/2-y,1/2+z
1/2-x,1/2+y,1/2+z
1/2+x,1/2-y,1/2+z
loop_
_atom_site_type_symbol
_atom_site_label
_atom_site_fract_x
_atom_site_fract_y
_atom_site_fract_z
Si Si1 0.947504 0.334230 0.989300
Si Si2 0.453487 0.307526 0.203822
Si Si3 0.944085 0.451753 0.816705
Si Si4 0.955560 0.878235 0.158403
Si Si5 0.050805 0.052486 0.980826
Si Si6 0.452264 0.410582 0.258172
Si Si7 0.559954 0.066617 0.539956
Si Si8 0.045860 0.709368 0.772561
O O1 0.750000 0.347231 0.980391
O O2 0.001098 0.311596 0.882934
O O3 0.053243 0.379046 0.017477
O O4 0.974682 0.302933 0.088685
O O5 0.250000 0.308211 0.199903
O O6 0.507198 0.357054 0.249767
O O7 0.508752 0.261839 0.262619
O O8 0.750000 0.448376 0.798553
O O9 0.015950 0.408186 0.757088
O O10 0.000000 0.500000 0.771522
O O11 0.972698 0.452128 0.938623
O O12 0.750000 0.876764 0.154633
O O13 0.008742 0.826059 0.182543
O O14 0.012768 0.908014 0.059820
O O15 0.250000 0.053598 0.988142
O O16 0.001018 0.066084 0.864654
O O17 0.000000 0.000000 0.004289
O O18 0.250000 0.410588 0.250498
O O19 0.514184 0.437058 0.154915
O O20 0.750000 0.049366 0.539974
O O21 0.250000 0.709874 0.770574
#
# Coordination Sequence:
#
# PCOD9362663 Si02
#       8
#     8   8   8   8   8   8   8   8
#     4  10  18  32  55  79 109 147 185 232 285 341
#     4   9  19  35  56  82 115 155 192 236 292 346
#     4  11  21  35  56  83 114 146 182 229 283 342
#     4   9  19  36  57  83 113 149 192 235 288 347
#     4  11  23  39  61  84 112 153 198 244 293 349
#     4   9  20  38  57  80 114 150 189 235 286 343
#     4  10  20  36  57  81 109 144 184 230 287 345
#     4   9  17  33  57  82 112 153 192 231 289 349
#
# _framework density 21.202999999999999
#
# number of rings (size 3 to 8) (size 9 to 14) (size 15 to 20)
#    0.000    2.250    1.250    2.625    0.000    4.000 
#    0.000    3.125    0.000    0.000    0.000    0.000 
#    0.000    0.000    0.000    0.000    0.000    0.000 
#
# Total GULP energy -178444.060076 kJ/mol
# GULP energy per Si atom -5576.376877 kJ/mol
# Density = 2.115474 g / cm^3
# Si number density = 21.203000 Si / 1000 Ang^3
#
#
#
# Elastic Constant Matrix: (Units=GPa)
#
#
# Indices 1 2 3 4 5 6 
#
# 1 20.7574 -2.1108 -0.4073 0.0000 0.0000 0.0000
# 2 -2.1108 60.4176 13.5069 0.0000 0.0000 0.0000
# 3 -0.4073 13.5069 88.2732 0.0000 0.0000 0.0000
# 4 0.0000 0.0000 0.0000 28.9758 0.0000 0.0000
# 5 0.0000 0.0000 0.0000 0.0000 -96.3180 0.0000
# 6 0.0000 0.0000 0.0000 0.0000 0.0000 17.8881
#
#
#
# Elastic Compliance Matrix: (Units=1/GPa)
#
#
# Indices 1 2 3 4 5 6 
#
# 1 0.048347 0.001697 -0.000037 0.000000 0.000000 0.000000
# 2 0.001697 0.017197 -0.002624 0.000000 0.000000 0.000000
# 3 -0.000037 -0.002624 0.011730 0.000000 0.000000 0.000000
# 4 0.000000 0.000000 0.000000 0.034512 0.000000 0.000000
# 5 0.000000 0.000000 0.000000 0.000000 -0.010382 0.000000
# 6 0.000000 0.000000 0.000000 0.000000 0.000000 0.055903
#
#
# Mechanical properties :
#
#
# Convention : Reuss Voigt Hill
#
# Bulk Modulus (GPa) = 13.27162 21.26952 17.27057
# Shear Modulus (GPa) = 27.12248 0.67314 13.89781
#
# Velocity S-wave (km/s) = 3.58044 0.56406 2.56298
# Velocity P-wave (km/s) = 4.83381 3.23688 4.11358
#
# Compressibility (1/GPa) = 0.07534873
#
# Stress axis : x y z
#
# Youngs Moduli (GPa) = 20.68361 58.14864 85.25336
#
# Poissons Ratio (x) = -0.09870 0.00312
# Poissons Ratio (y) = -0.03511 0.22367
# Poissons Ratio (z) = 0.00076 0.15256
#
# Static dielectric constant tensor:
#      x y z
#    x 1.779910 0.000000 0.000000 
#    y 0.000000 1.804380 0.000000 
#    z 0.000000 0.000000 1.784850 
# 
# From -- ./inp_files/10666.got.cif
#   From: 2010.05.17/outbox.cif.g08.bks.cpg/sg40_6_cif.got.tgz:10666.got - 2010.06.03 18:35:42.
