data_PCOD9362951
_publ_section_title
;
Structure prediction by ZEFSAII (Michael W. Deem and Ramdas Pophale) SiO2 
 PCOD9362951
Probable space group: A M A 2
;
_chemical_formula_sum "Si O2"
_cell_formula_units_Z 64
_cell_length_a 16.481527
_cell_length_b 18.328313
_cell_length_c 8.784430
_cell_angle_alpha 90.000000
_cell_angle_beta 90.000000
_cell_angle_gamma 90.000000
_cell_volume 2653.588189
_symmetry_space_group_name_H-M "A M A 2"
_symmetry_group_IT_number 40
_symmetry_cell_setting 'orthorhombic'
loop_
_space_group_symop_operation_xyz
x,y,z
-x,-y,z
1/2-x,y,z
1/2+x,-y,z
x,1/2+y,1/2+z
-x,1/2-y,1/2+z
1/2-x,1/2+y,1/2+z
1/2+x,1/2-y,1/2+z
loop_
_atom_site_type_symbol
_atom_site_label
_atom_site_fract_x
_atom_site_fract_y
_atom_site_fract_z
Si Si1 0.584433 0.143095 0.699060
Si Si2 0.514973 0.422027 0.933202
Si Si3 0.341142 0.737665 0.526629
Si Si4 0.340697 0.260835 0.552208
Si Si5 0.847436 0.424015 0.511848
Si Si6 0.342723 0.603010 0.166341
Si Si7 0.653541 0.082086 0.009736
Si Si8 0.502825 0.268561 0.841760
O O1 0.553140 0.091805 0.564498
O O2 0.656655 0.196495 0.647381
O O3 0.606767 0.100483 0.852259
O O4 0.513595 0.204237 0.720297
O O5 0.500000 0.500000 0.862983
O O6 0.599154 0.420082 0.028474
O O7 0.509184 0.354847 0.817498
O O8 0.250000 0.734787 0.462073
O O9 0.362624 0.655666 0.584085
O O10 0.416692 0.756945 0.420361
O O11 0.250000 0.260432 0.479244
O O12 0.338315 0.190934 0.659866
O O13 0.352978 0.343913 0.610050
O O14 0.417035 0.247699 0.443154
O O15 0.750000 0.426701 0.512875
O O16 0.873297 0.419499 0.333771
O O17 0.874320 0.503295 0.571860
O O18 0.250000 0.575604 0.147456
O O19 0.750000 0.075775 0.975578
#
# Coordination Sequence:
#
# PCOD9362951 Si02
#       8
#     8   8   8   8   8   8   8   8
#     4  10  19  32  52  73  99 136 176 210 251 311
#     4  10  19  31  49  74 101 128 162 213 260 295
#     4  10  20  34  52  78 110 143 174 212 261 313
#     4   8  15  28  47  70  98 130 168 211 255 301
#     4   9  17  28  46  72 103 131 162 208 258 301
#     4   9  16  28  46  69  96 131 168 202 248 309
#     4   9  16  28  47  74 101 127 165 216 258 294
#     4   9  19  33  50  74 106 136 171 212 257 310
#
# _framework density 24.118286999999999
#
# number of rings (size 3 to 8) (size 9 to 14) (size 15 to 20)
#    0.000    2.750    0.000    1.875    0.000    0.500 
#    0.000    4.375    0.000   10.500    0.000    3.500 
#    0.000    0.000    0.000    0.000    0.000    0.000 
#
# Total GULP energy -178393.773444 kJ/mol
# GULP energy per Si atom -5574.805420 kJ/mol
# Density = 2.406339 g / cm^3
# Si number density = 24.118287 Si / 1000 Ang^3
#
#
#
# Elastic Constant Matrix: (Units=GPa)
#
#
# Indices 1 2 3 4 5 6 
#
# 1 135.0324 28.7856 39.1579 0.0000 0.0000 0.0000
# 2 28.7856 182.8510 -3.6191 0.0000 0.0000 0.0000
# 3 39.1579 -3.6191 31.7092 0.0000 0.0000 0.0000
# 4 0.0000 0.0000 0.0000 20.8961 0.0000 0.0000
# 5 0.0000 0.0000 0.0000 0.0000 32.7127 0.0000
# 6 0.0000 0.0000 0.0000 0.0000 0.0000 15.9544
#
#
#
# Elastic Compliance Matrix: (Units=1/GPa)
#
#
# Indices 1 2 3 4 5 6 
#
# 1 0.012405 -0.002261 -0.015577 0.000000 0.000000 0.000000
# 2 -0.002261 0.005893 0.003465 0.000000 0.000000 0.000000
# 3 -0.015577 0.003465 0.051168 0.000000 0.000000 0.000000
# 4 0.000000 0.000000 0.000000 0.047856 0.000000 0.000000
# 5 0.000000 0.000000 0.000000 0.000000 0.030569 0.000000
# 6 0.000000 0.000000 0.000000 0.000000 0.000000 0.062679
#
#
# Mechanical properties :
#
#
# Convention : Reuss Voigt Hill
#
# Bulk Modulus (GPa) = 24.55784 53.13792 38.84788
# Shear Modulus (GPa) = 19.77150 32.93051 26.35100
#
# Velocity S-wave (km/s) = 2.86627 3.69911 3.30900
# Velocity P-wave (km/s) = 4.59982 6.35016 5.54450
#
# Compressibility (1/GPa) = 0.04072020
#
# Stress axis : x y z
#
# Youngs Moduli (GPa) = 80.61428 169.67905 19.54350
#
# Poissons Ratio (x) = 0.38367 0.30442
# Poissons Ratio (y) = 0.18228 -0.06772
# Poissons Ratio (z) = 1.25571 -0.58793
#
# Static dielectric constant tensor:
#      x y z
#    x 1.926740 0.000000 0.000000 
#    y 0.000000 1.954910 0.000000 
#    z 0.000000 0.000000 2.023450 
# 
# From -- ./inp_files/13200.got.cif
#   From: 2010.05.17/outbox.cif.g08.bks.cpg/sg40_7_cif.got.tgz:13200.got - 2010.06.03 18:35:42.
