data_PCOD9362056
_publ_section_title
;
Structure prediction by ZEFSAII (Michael W. Deem and Ramdas Pophale) SiO2 
 PCOD9362056
Probable space group: A B M 2
;
_chemical_formula_sum "Si O2"
_cell_formula_units_Z 64
_cell_length_a 12.489900
_cell_length_b 25.915465
_cell_length_c 9.163919
_cell_angle_alpha 90.000000
_cell_angle_beta 90.000000
_cell_angle_gamma 90.000000
_cell_volume 2966.191655
_symmetry_space_group_name_H-M "A B M 2"
_symmetry_group_IT_number 39
_symmetry_cell_setting 'orthorhombic'
loop_
_space_group_symop_operation_xyz
x,y,z
-x,-y,z
-x,1/2+y,z
x,1/2-y,z
x,1/2+y,1/2+z
-x,1/2-y,1/2+z
-x,y,1/2+z
x,-y,1/2+z
loop_
_atom_site_type_symbol
_atom_site_label
_atom_site_fract_x
_atom_site_fract_y
_atom_site_fract_z
Si Si1 0.100288 0.034600 0.983040
Si Si2 0.657618 0.190103 0.989104
Si Si3 0.449630 0.948395 0.236551
Si Si4 0.445207 0.378950 0.011133
Si Si5 0.857473 0.343042 0.159786
Si Si6 0.267780 0.689561 0.662981
Si Si7 0.212785 0.459974 0.693497
Si Si8 0.063996 0.344200 0.989528
O O1 0.194813 0.034849 0.865431
O O2 0.066861 0.093535 0.004462
O O3 0.000000 0.000000 0.931267
O O4 0.147110 0.006185 0.122675
O O5 0.625351 0.250000 0.984982
O O6 0.713106 0.176943 0.833511
O O7 0.553778 0.154715 0.008021
O O8 0.744536 0.181898 0.116437
O O9 0.533953 0.924897 0.124262
O O10 0.426152 0.904470 0.355090
O O11 0.337674 0.960689 0.158219
O O12 0.500000 0.000000 0.303497
O O13 0.348314 0.344299 0.066564
O O14 0.836964 0.404760 0.150202
O O15 0.900477 0.331633 0.323430
O O16 0.946869 0.326999 0.041687
O O17 0.291527 0.750000 0.644632
O O18 0.149983 0.678086 0.603051
#
# Coordination Sequence:
#
# PCOD9362056 Si02
#       8
#     8   8   8   8   8   8   8   8
#     4  11  23  40  65  97 137 182 234 276 337 417
#     4  11  25  46  74 102 134 181 234 293 356 419
#     4  12  28  44  69 104 145 187 231 285 353 423
#     4  12  24  49  69 102 144 185 234 285 349 421
#     4  11  23  45  67 103 138 178 229 283 354 418
#     4  11  26  47  72 103 137 185 240 295 354 414
#     4  11  25  40  63  98 137 185 229 278 343 410
#     4  11  25  42  70 101 141 183 230 291 349 419
#
# _framework density 21.576488000000001
#
# number of rings (size 3 to 8) (size 9 to 14) (size 15 to 20)
#    0.000    0.750    3.750    3.375    7.000    2.000 
#    0.000    0.000    0.000    0.000    0.000    0.000 
#    0.000    0.000    0.000    0.000    0.000    0.000 
#
# Total GULP energy -179059.061156 kJ/mol
# GULP energy per Si atom -5595.595661 kJ/mol
# Density = 2.152738 g / cm^3
# Si number density = 21.576488 Si / 1000 Ang^3
#
#
#
# Elastic Constant Matrix: (Units=GPa)
#
#
# Indices 1 2 3 4 5 6 
#
# 1 93.5080 12.3285 3.0423 0.0000 0.0000 0.0000
# 2 12.3285 45.8836 18.8502 0.0000 0.0000 0.0000
# 3 3.0423 18.8502 50.5185 0.0000 0.0000 0.0000
# 4 0.0000 0.0000 0.0000 18.0716 0.0000 0.0000
# 5 0.0000 0.0000 0.0000 0.0000 36.1623 0.0000
# 6 0.0000 0.0000 0.0000 0.0000 0.0000 74.1486
#
#
#
# Elastic Compliance Matrix: (Units=1/GPa)
#
#
# Indices 1 2 3 4 5 6 
#
# 1 0.011099 -0.003198 0.000525 0.000000 0.000000 0.000000
# 2 -0.003198 0.026661 -0.009756 0.000000 0.000000 0.000000
# 3 0.000525 -0.009756 0.023403 0.000000 0.000000 0.000000
# 4 0.000000 0.000000 0.000000 0.055335 0.000000 0.000000
# 5 0.000000 0.000000 0.000000 0.000000 0.027653 0.000000
# 6 0.000000 0.000000 0.000000 0.000000 0.000000 0.013486
#
#
# Mechanical properties :
#
#
# Convention : Reuss Voigt Hill
#
# Bulk Modulus (GPa) = 27.54351 28.70579 28.12465
# Shear Modulus (GPa) = 25.69400 36.05577 30.87488
#
# Velocity S-wave (km/s) = 3.45459 4.09230 3.78689
# Velocity P-wave (km/s) = 5.35775 5.97180 5.67309
#
# Compressibility (1/GPa) = 0.03630619
#
# Stress axis : x y z
#
# Youngs Moduli (GPa) = 90.09977 37.50739 42.72896
#
# Poissons Ratio (x) = 0.11994 -0.02242
# Poissons Ratio (y) = 0.28812 0.41685
# Poissons Ratio (z) = -0.04729 0.36591
#
# Static dielectric constant tensor:
#      x y z
#    x 1.738750 0.000000 0.000000 
#    y 0.000000 1.765190 0.000000 
#    z 0.000000 0.000000 1.763310 
# 
# From -- ./inp_files/2895.got.cif
#   From: 2010.05.17/outbox.cif.g08.bks.cpg/sg39_2_cif.got.tgz:2895.got - 2010.06.03 18:22:40.
