data_PCOD9362695
_publ_section_title
;
Structure prediction by ZEFSAII (Michael W. Deem and Ramdas Pophale) SiO2 
 PCOD9362695
Probable space group: A M A 2
;
_chemical_formula_sum "Si O2"
_cell_formula_units_Z 64
_cell_length_a 8.303265
_cell_length_b 21.313685
_cell_length_c 20.373438
_cell_angle_alpha 90.000000
_cell_angle_beta 90.000000
_cell_angle_gamma 90.000000
_cell_volume 3605.552002
_symmetry_space_group_name_H-M "A M A 2"
_symmetry_group_IT_number 40
_symmetry_cell_setting 'orthorhombic'
loop_
_space_group_symop_operation_xyz
x,y,z
-x,-y,z
1/2-x,y,z
1/2+x,-y,z
x,1/2+y,1/2+z
-x,1/2-y,1/2+z
1/2-x,1/2+y,1/2+z
1/2+x,1/2-y,1/2+z
loop_
_atom_site_type_symbol
_atom_site_label
_atom_site_fract_x
_atom_site_fract_y
_atom_site_fract_z
Si Si1 0.554985 0.689170 0.015820
Si Si2 0.945036 0.738283 0.877731
Si Si3 0.057365 0.382191 0.374347
Si Si4 0.054985 0.811726 0.095124
Si Si5 0.944343 0.567950 0.513171
Si Si6 0.554008 0.236386 0.232787
Si Si7 0.058655 0.432013 0.094885
Si Si8 0.057944 0.617635 0.231357
O O1 0.750000 0.688163 0.016593
O O2 0.499218 0.750339 0.055487
O O3 0.495173 0.626250 0.051560
O O4 0.502025 0.698249 0.940399
O O5 0.750000 0.740277 0.877982
O O6 0.997304 0.715451 0.805496
O O7 0.004812 0.809824 0.884272
O O8 0.250000 0.384698 0.372022
O O9 0.999684 0.419753 0.438284
O O10 0.991867 0.404037 0.303977
O O11 0.250000 0.812534 0.094937
O O12 0.998933 0.874601 0.058682
O O13 0.999356 0.803247 0.170270
O O14 0.750000 0.569545 0.512685
O O15 0.000000 0.500000 0.535913
O O16 0.750000 0.236148 0.232177
O O17 0.504177 0.309338 0.224777
O O18 0.250000 0.430985 0.090702
O O19 0.000000 0.500000 0.072956
O O20 0.010831 0.420392 0.170469
O O21 0.250000 0.616536 0.227158
#
# Coordination Sequence:
#
# PCOD9362695 Si02
#       8
#     8   8   8   8   8   8   8   8
#     4  10  20  33  53  79 105 133 171 220 265 306
#     4   9  17  31  51  78 105 133 169 210 262 313
#     4  10  19  32  49  74 106 139 174 215 254 304
#     4  10  18  33  54  77 101 131 173 214 259 313
#     4  10  22  35  50  72 102 139 175 212 257 304
#     4   8  15  28  51  77 101 128 163 205 253 310
#     4  11  23  37  52  75 105 141 179 218 266 316
#     4  10  19  33  53  76 103 140 174 211 259 311
#
# _framework density 17.750402000000001
#
# number of rings (size 3 to 8) (size 9 to 14) (size 15 to 20)
#    0.000    2.250    2.500    1.875    0.000    2.500 
#    0.000    1.250    0.000    0.750    0.000    0.000 
#    0.000    0.000    0.000    0.000    0.000    0.000 
#
# Total GULP energy -178510.869935 kJ/mol
# GULP energy per Si atom -5578.464685 kJ/mol
# Density = 1.771000 g / cm^3
# Si number density = 17.750402 Si / 1000 Ang^3
#
#
#
# Elastic Constant Matrix: (Units=GPa)
#
#
# Indices 1 2 3 4 5 6 
#
# 1 13.8740 10.9941 9.8299 0.0000 0.0000 0.0000
# 2 10.9941 119.9122 71.6974 0.0000 0.0000 0.0000
# 3 9.8299 71.6974 125.2169 0.0000 0.0000 0.0000
# 4 0.0000 0.0000 0.0000 19.6716 0.0000 0.0000
# 5 0.0000 0.0000 0.0000 0.0000 15.4174 0.0000
# 6 0.0000 0.0000 0.0000 0.0000 0.0000 21.4076
#
#
#
# Elastic Compliance Matrix: (Units=1/GPa)
#
#
# Indices 1 2 3 4 5 6 
#
# 1 0.078510 -0.005342 -0.003105 0.000000 0.000000 0.000000
# 2 -0.005342 0.013044 -0.007050 0.000000 0.000000 0.000000
# 3 -0.003105 -0.007050 0.012266 0.000000 0.000000 0.000000
# 4 0.000000 0.000000 0.000000 0.050835 0.000000 0.000000
# 5 0.000000 0.000000 0.000000 0.000000 0.064862 0.000000
# 6 0.000000 0.000000 0.000000 0.000000 0.000000 0.046712
#
#
# Mechanical properties :
#
#
# Convention : Reuss Voigt Hill
#
# Bulk Modulus (GPa) = 13.73094 49.33843 31.53469
# Shear Modulus (GPa) = 15.55223 22.39811 18.97517
#
# Velocity S-wave (km/s) = 2.96322 3.55609 3.27310
# Velocity P-wave (km/s) = 4.41134 6.68708 5.66467
#
# Compressibility (1/GPa) = 0.07282822
#
# Stress axis : x y z
#
# Youngs Moduli (GPa) = 12.73728 76.66196 81.52376
#
# Poissons Ratio (x) = 0.40952 0.25310
# Poissons Ratio (y) = 0.06804 0.57471
# Poissons Ratio (z) = 0.03954 0.54044
#
# Static dielectric constant tensor:
#      x y z
#    x 1.609760 0.000000 0.000000 
#    y 0.000000 1.593480 0.000000 
#    z 0.000000 0.000000 1.635160 
# 
# From -- ./inp_files/22386.got.cif
#   From: 2010.05.17/outbox.cif.g08.bks.cpg/sg40_12_cif.got.tgz:22386.got - 2010.06.03 18:35:42.
