data_PCOD9362104
_publ_section_title
;
Structure prediction by ZEFSAII (Michael W. Deem and Ramdas Pophale) SiO2 
 PCOD9362104
Probable space group: A B M 2
;
_chemical_formula_sum "Si O2"
_cell_formula_units_Z 48
_cell_length_a 25.659114
_cell_length_b 9.984272
_cell_length_c 9.767455
_cell_angle_alpha 90.000000
_cell_angle_beta 90.000000
_cell_angle_gamma 90.000000
_cell_volume 2502.300595
_symmetry_space_group_name_H-M "A B M 2"
_symmetry_group_IT_number 39
_symmetry_cell_setting 'orthorhombic'
loop_
_space_group_symop_operation_xyz
x,y,z
-x,-y,z
-x,1/2+y,z
x,1/2-y,z
x,1/2+y,1/2+z
-x,1/2-y,1/2+z
-x,y,1/2+z
x,-y,1/2+z
loop_
_atom_site_type_symbol
_atom_site_label
_atom_site_fract_x
_atom_site_fract_y
_atom_site_fract_z
Si Si1 0.185613 0.404061 0.680070
Si Si2 0.044556 0.250000 0.055428
Si Si3 0.447324 0.750000 0.058725
Si Si4 0.374232 0.494235 0.471950
Si Si5 0.940605 0.750000 0.377498
Si Si6 0.120369 0.522058 0.443966
Si Si7 0.556534 0.250000 0.396912
Si Si8 0.693406 0.913439 0.726409
O O1 0.184602 0.250000 0.632445
O O2 0.163881 0.495953 0.559266
O O3 0.147739 0.419471 0.809605
O O4 0.244765 0.434586 0.722718
O O5 0.040537 0.250000 0.219797
O O6 0.077326 0.121634 0.005079
O O7 0.989091 0.250000 0.981105
O O8 0.414912 0.623992 0.002285
O O9 0.450015 0.750000 0.228063
O O10 0.502610 0.750000 0.981251
O O11 0.410397 0.623136 0.447942
O O12 0.333668 0.475241 0.594095
O O13 0.335693 0.504858 0.343977
O O14 0.906646 0.617912 0.405134
O O15 0.684307 0.750000 0.735766
#
# Coordination Sequence:
#
# PCOD9362104 Si02
#       8
#     8   4   4   8   4   8   4   8
#     4  11  24  43  72 100 137 178 219 281 340 391
#     4  12  28  44  69  99 134 176 233 279 339 408
#     4  12  28  46  69 101 134 178 233 281 339 402
#     4  12  22  48  68  98 140 172 224 280 332 400
#     4  12  28  44  69  99 134 176 233 279 339 408
#     4  12  24  46  68 102 134 176 226 278 338 402
#     4  12  28  46  69 101 134 178 233 281 339 402
#     4  11  24  45  68 104 137 176 225 275 338 403
#
# _framework density 19.182348000000001
#
# number of rings (size 3 to 8) (size 9 to 14) (size 15 to 20)
#    0.000    0.333    6.667    2.000    4.667    2.667 
#    0.000    1.667    0.000    0.000    0.000    0.000 
#    0.000    0.000    0.000    0.000    0.000    0.000 
#
# Total GULP energy -134004.640003 kJ/mol
# GULP energy per Si atom -5583.526667 kJ/mol
# Density = 1.913869 g / cm^3
# Si number density = 19.182348 Si / 1000 Ang^3
#
#
#
# Elastic Constant Matrix: (Units=GPa)
#
#
# Indices 1 2 3 4 5 6 
#
# 1 119.6660 33.8591 27.7139 0.0000 0.0000 0.0000
# 2 33.8591 95.8607 26.6889 0.0000 0.0000 0.0000
# 3 27.7139 26.6889 99.0706 0.0000 0.0000 0.0000
# 4 0.0000 0.0000 0.0000 28.1929 0.0000 0.0000
# 5 0.0000 0.0000 0.0000 0.0000 45.0486 0.0000
# 6 0.0000 0.0000 0.0000 0.0000 0.0000 49.7855
#
#
#
# Elastic Compliance Matrix: (Units=1/GPa)
#
#
# Indices 1 2 3 4 5 6 
#
# 1 0.009610 -0.002860 -0.001918 0.000000 0.000000 0.000000
# 2 -0.002860 0.012129 -0.002467 0.000000 0.000000 0.000000
# 3 -0.001918 -0.002467 0.011295 0.000000 0.000000 0.000000
# 4 0.000000 0.000000 0.000000 0.035470 0.000000 0.000000
# 5 0.000000 0.000000 0.000000 0.000000 0.022198 0.000000
# 6 0.000000 0.000000 0.000000 0.000000 0.000000 0.020086
#
#
# Mechanical properties :
#
#
# Convention : Reuss Voigt Hill
#
# Bulk Modulus (GPa) = 53.92836 54.56901 54.24868
# Shear Modulus (GPa) = 38.03425 39.69442 38.86434
#
# Velocity S-wave (km/s) = 4.45766 4.55391 4.50605
# Velocity P-wave (km/s) = 7.39384 7.49400 7.44409
#
# Compressibility (1/GPa) = 0.01854312
#
# Stress axis : x y z
#
# Youngs Moduli (GPa) = 104.05730 82.44650 88.53516
#
# Poissons Ratio (x) = 0.23584 0.16979
# Poissons Ratio (y) = 0.29765 0.21844
# Poissons Ratio (z) = 0.19955 0.20342
#
# Static dielectric constant tensor:
#      x y z
#    x 1.656140 0.000000 0.000000 
#    y 0.000000 1.655460 0.000000 
#    z 0.000000 0.000000 1.657720 
# 
# From -- ./inp_files/4065.got.cif
#   From: 2010.05.17/outbox.cif.g08.bks.cpg/sg39_3_cif.got.tgz:4065.got - 2010.06.03 18:22:40.
