data_PCOD9362210
_publ_section_title
;
Structure prediction by ZEFSAII (Michael W. Deem and Ramdas Pophale) SiO2 
 PCOD9362210
Probable space group: A B M 2
;
_chemical_formula_sum "Si O2"
_cell_formula_units_Z 20
_cell_length_a 9.000000
_cell_length_b 9.000000
_cell_length_c 24.000000
_cell_angle_alpha 90.000000
_cell_angle_beta 90.000000
_cell_angle_gamma 90.000000
_cell_volume 1944.000000
_symmetry_space_group_name_H-M "A B M 2"
_symmetry_group_IT_number 39
_symmetry_cell_setting 'orthorhombic'
loop_
_space_group_symop_operation_xyz
x,y,z
-x,-y,z
-x,1/2+y,z
x,1/2-y,z
x,1/2+y,1/2+z
-x,1/2-y,1/2+z
-x,y,1/2+z
x,-y,1/2+z
loop_
_atom_site_type_symbol
_atom_site_label
_atom_site_fract_x
_atom_site_fract_y
_atom_site_fract_z
Si Si1 0.136950 0.412058 0.275160
Si Si2 0.653963 0.428791 0.868154
Si Si3 0.849616 0.427265 0.965660
Si Si4 0.637402 0.586865 0.175176
Si Si5 0.848081 0.073509 0.094393
O O1 0.085958 0.250000 0.293791
O O2 0.218851 0.484683 0.326936
O O3 0.249654 0.399274 0.225233
O O4 0.000000 0.500000 0.253739
O O5 0.500000 0.500000 0.853462
O O6 0.644643 0.250000 0.862211
O O7 0.707159 0.468025 0.929791
O O8 0.866808 0.250000 0.962561
O O9 0.000000 0.500000 0.943404
O O10 0.833392 0.469369 0.029801
O O11 0.500000 0.500000 0.198822
O O12 0.597046 0.750000 0.154309
O O13 0.710675 0.490853 0.127238
O O14 0.858353 0.250000 0.099424
O O15 0.000000 0.000000 0.115489
#
# Coordination Sequence:
#
# PCOD9362210 Si02
#       5
#     8   8   8   8   8
#     4  10  22  38  58  82 108 139 179 222 268 321
#     4  10  21  37  55  80 111 142 177 220 268 320
#     4   9  19  35  56  81 109 141 181 223 266 316
#     4  11  23  38  56  81 111 145 182 224 273 325
#     4  10  20  36  57  82 111 145 184 227 270 320
#
# _framework density 10.288066000000001
#
# number of rings (size 3 to 8) (size 9 to 14) (size 15 to 20)
#    0.000    2.000    0.000    3.000    0.000    6.400 
#    0.000    2.000    0.000    0.000    0.000    0.000 
#    0.000    0.000    0.000    0.000    0.000    0.000 
#
# Total GULP energy -111438.698654 kJ/mol
# GULP energy per Si atom -5571.934933 kJ/mol
# Density = 1.026465 g / cm^3
# Si number density = 10.288066 Si / 1000 Ang^3
#
#
#
# Elastic Constant Matrix: (Units=GPa)
#
#
# Indices 1 2 3 4 5 6 
#
# 1 77.8305 52.2907 25.5093 0.0000 0.0000 0.0000
# 2 52.2907 24.1747 30.4776 0.0000 0.0000 0.0000
# 3 25.5093 30.4776 57.0259 0.0000 0.0000 0.0000
# 4 0.0000 0.0000 0.0000 20.1697 0.0000 0.0000
# 5 0.0000 0.0000 0.0000 0.0000 37.0793 0.0000
# 6 0.0000 0.0000 0.0000 0.0000 0.0000 19.6332
#
#
#
# Elastic Compliance Matrix: (Units=1/GPa)
#
#
# Indices 1 2 3 4 5 6 
#
# 1 -0.008125 0.039828 -0.017652 0.000000 0.000000 0.000000
# 2 0.039828 -0.068431 0.018757 0.000000 0.000000 0.000000
# 3 -0.017652 0.018757 0.015407 0.000000 0.000000 0.000000
# 4 0.000000 0.000000 0.000000 0.049579 0.000000 0.000000
# 5 0.000000 0.000000 0.000000 0.000000 0.026969 0.000000
# 6 0.000000 0.000000 0.000000 0.000000 0.000000 0.050934
#
#
# Mechanical properties :
#
#
# Convention : Reuss Voigt Hill
#
# Bulk Modulus (GPa) = 48.26733 41.73180 44.99957
# Shear Modulus (GPa) = -579.63681 18.76001 -280.43840
#
# Velocity S-wave (km/s) = -16.80223 3.02277 -11.68713
# Velocity P-wave (km/s) = 18.78593 5.70163 12.65707
#
# Compressibility (1/GPa) = 0.02071795
#
# Stress axis : x y z
#
# Youngs Moduli (GPa) = -123.08183 -14.61325 64.90423
#
# Poissons Ratio (x) = 0.58202 1.14567
# Poissons Ratio (y) = 4.90210 -1.21741
# Poissons Ratio (z) = -2.17261 0.27410
#
# Static dielectric constant tensor:
#      x y z
#    x 1.705750 0.000000 0.000000 
#    y 0.000000 1.585130 0.000000 
#    z 0.000000 0.000000 1.728510 
# 
# From -- ./inp_files/15448.got.cif
#   From: 2010.05.17/outbox.ucp.g08.bks.cvg/sg39_8_cif.got.tgz:15448.got - 2010.06.11 10:41:16.
