data_PCOD9362712
_publ_section_title
;
Structure prediction by ZEFSAII (Michael W. Deem and Ramdas Pophale) SiO2 
 PCOD9362712
Probable space group: A M A 2
;
_chemical_formula_sum "Si O2"
_cell_formula_units_Z 56
_cell_length_a 25.485303
_cell_length_b 10.918586
_cell_length_c 9.983883
_cell_angle_alpha 90.000000
_cell_angle_beta 90.000000
_cell_angle_gamma 90.000000
_cell_volume 2778.149953
_symmetry_space_group_name_H-M "A M A 2"
_symmetry_group_IT_number 40
_symmetry_cell_setting 'orthorhombic'
loop_
_space_group_symop_operation_xyz
x,y,z
-x,-y,z
1/2-x,y,z
1/2+x,-y,z
x,1/2+y,1/2+z
-x,1/2-y,1/2+z
1/2-x,1/2+y,1/2+z
1/2+x,1/2-y,1/2+z
loop_
_atom_site_type_symbol
_atom_site_label
_atom_site_fract_x
_atom_site_fract_y
_atom_site_fract_z
Si Si1 0.056191 0.939454 0.107700
Si Si2 0.109652 0.227449 0.464445
Si Si3 0.808278 0.601796 0.349772
Si Si4 0.690682 0.352152 0.193289
Si Si5 0.336471 0.555215 0.601121
Si Si6 0.808369 0.200205 0.471055
Si Si7 0.616199 0.026897 0.355914
O O1 0.101431 0.038095 0.067190
O O2 0.074446 0.907076 0.259581
O O3 0.065815 0.820494 0.017280
O O4 0.000000 0.000000 0.100660
O O5 0.145746 0.299768 0.357863
O O6 0.148548 0.193432 0.587076
O O7 0.091261 0.098988 0.405992
O O8 0.750000 0.652234 0.326970
O O9 0.817539 0.490665 0.246314
O O10 0.809081 0.535991 0.496606
O O11 0.750000 0.343326 0.138496
O O12 0.688588 0.268108 0.326351
O O13 0.316316 0.690422 0.575941
O O14 0.336091 0.510104 0.753752
O O15 0.750000 0.146821 0.486407
O O16 0.856108 0.105764 0.469190
#
# Coordination Sequence:
#
# PCOD9362712 Si02
#       7
#     8   8   8   8   8   8   8
#     4   9  20  43  59  77 106 144 190 241 293 327
#     4  11  20  35  56  79 110 140 182 234 273 328
#     4   9  17  31  53  78 111 153 183 217 267 322
#     4   9  17  31  52  78 110 151 186 215 268 327
#     4   8  18  35  54  79 111 143 188 233 269 335
#     4  10  18  33  57  84 119 158 182 221 280 335
#     4  10  22  36  54  84 111 145 183 232 275 337
#
# _framework density 20.157299999999999
#
# number of rings (size 3 to 8) (size 9 to 14) (size 15 to 20)
#    0.857    1.714    1.429    1.714    0.000    4.571 
#    2.571    1.429    0.000    0.000    0.000    1.000 
#    0.000    0.000    0.000    0.000    0.000    0.000 
#
# Total GULP energy -156116.261238 kJ/mol
# GULP energy per Si atom -5575.580758 kJ/mol
# Density = 2.011142 g / cm^3
# Si number density = 20.157300 Si / 1000 Ang^3
#
#
#
# Elastic Constant Matrix: (Units=GPa)
#
#
# Indices 1 2 3 4 5 6 
#
# 1 58.9703 -1.4704 -9.2624 0.0000 0.0000 0.0000
# 2 -1.4704 59.4129 -5.9390 0.0000 0.0000 0.0000
# 3 -9.2624 -5.9390 45.9916 0.0000 0.0000 0.0000
# 4 0.0000 0.0000 0.0000 26.9885 0.0000 0.0000
# 5 0.0000 0.0000 0.0000 0.0000 5.2076 0.0000
# 6 0.0000 0.0000 0.0000 0.0000 0.0000 9.9069
#
#
#
# Elastic Compliance Matrix: (Units=1/GPa)
#
#
# Indices 1 2 3 4 5 6 
#
# 1 0.017549 0.000798 0.003637 0.000000 0.000000 0.000000
# 2 0.000798 0.017088 0.002367 0.000000 0.000000 0.000000
# 3 0.003637 0.002367 0.022781 0.000000 0.000000 0.000000
# 4 0.000000 0.000000 0.000000 0.037053 0.000000 0.000000
# 5 0.000000 0.000000 0.000000 0.000000 0.192028 0.000000
# 6 0.000000 0.000000 0.000000 0.000000 0.000000 0.100940
#
#
# Mechanical properties :
#
#
# Convention : Reuss Voigt Hill
#
# Bulk Modulus (GPa) = 14.07999 14.55903 14.31951
# Shear Modulus (GPa) = 12.57838 20.49037 16.53438
#
# Velocity S-wave (km/s) = 2.50073 3.19176 2.86714
# Velocity P-wave (km/s) = 3.91643 4.56305 4.25205
#
# Compressibility (1/GPa) = 0.07102277
#
# Stress axis : x y z
#
# Youngs Moduli (GPa) = 56.98372 58.52150 43.89560
#
# Poissons Ratio (x) = -0.04669 -0.15966
# Poissons Ratio (y) = -0.04547 -0.10391
# Poissons Ratio (z) = -0.20726 -0.13854
#
# Static dielectric constant tensor:
#      x y z
#    x 1.668200 0.000000 0.000000 
#    y 0.000000 1.750080 0.000000 
#    z 0.000000 0.000000 1.760980 
# 
# From -- ./inp_files/13995.got.cif
#   From: 2010.05.17/outbox.cif.g08.bks.cpg/sg40_7_cif.got.tgz:13995.got - 2010.06.03 18:35:42.
