data_PCOD9362810
_publ_section_title
;
Structure prediction by ZEFSAII (Michael W. Deem and Ramdas Pophale) SiO2 
 PCOD9362810
Probable space group: A M A 2
;
_chemical_formula_sum "Si O2"
_cell_formula_units_Z 52
_cell_length_a 20.550863
_cell_length_b 14.724029
_cell_length_c 7.027176
_cell_angle_alpha 90.000000
_cell_angle_beta 90.000000
_cell_angle_gamma 90.000000
_cell_volume 2126.363746
_symmetry_space_group_name_H-M "A M A 2"
_symmetry_group_IT_number 40
_symmetry_cell_setting 'orthorhombic'
loop_
_space_group_symop_operation_xyz
x,y,z
-x,-y,z
1/2-x,y,z
1/2+x,-y,z
x,1/2+y,1/2+z
-x,1/2-y,1/2+z
1/2-x,1/2+y,1/2+z
1/2+x,1/2-y,1/2+z
loop_
_atom_site_type_symbol
_atom_site_label
_atom_site_fract_x
_atom_site_fract_y
_atom_site_fract_z
Si Si1 0.750000 0.083813 0.750000
Si Si2 0.074560 0.991021 0.145508
Si Si3 0.532822 0.130296 0.785291
Si Si4 0.250000 0.231414 0.378403
Si Si5 0.890858 0.809045 0.290606
Si Si6 0.750000 0.868989 0.782068
Si Si7 0.374617 0.447523 0.017174
Si Si8 0.386734 0.642216 0.208656
O O1 0.686188 0.098875 0.619640
O O2 0.750000 0.978403 0.816280
O O3 0.750000 0.159938 0.913310
O O4 0.068076 0.930809 0.951118
O O5 0.096740 0.095222 0.187065
O O6 0.121582 0.938680 0.292019
O O7 0.000000 0.000000 0.208928
O O8 0.559159 0.230415 0.737096
O O9 0.555028 0.080879 0.593938
O O10 0.455544 0.131373 0.812980
O O11 0.184973 0.210612 0.264644
O O12 0.250000 0.166176 0.561558
O O13 0.898361 0.797829 0.522607
O O14 0.676884 0.835573 0.833967
O O15 0.368751 0.549396 0.097117
#
# Coordination Sequence:
#
# PCOD9362810 Si02
#       8
#     4   8   8   4   8   4   8   8
#     4  10  18  36  70 101 141 201 240 303 374 449
#     4  11  25  44  67 103 140 187 240 313 378 436
#     4  12  23  41  71 108 138 190 248 300 375 447
#     4  10  18  42  70 103 149 195 244 307 372 449
#     4  10  23  42  69 108 146 187 246 309 366 448
#     4   8  18  34  62 100 146 192 238 298 384 434
#     4  10  20  41  64  99 145 179 241 305 364 432
#     4   9  19  38  64  97 141 186 233 304 365 435
#
# _framework density 24.454892999999998
#
# number of rings (size 3 to 8) (size 9 to 14) (size 15 to 20)
#    0.000    1.846    1.538    4.154    2.154    0.000 
#    0.000    4.615    0.000    1.846    4.000    1.077 
#    0.000    0.000    0.000    0.000    0.000    0.000 
#
# Total GULP energy -144764.732251 kJ/mol
# GULP energy per Si atom -5567.874317 kJ/mol
# Density = 2.439923 g / cm^3
# Si number density = 24.454893 Si / 1000 Ang^3
#
#
#
# Elastic Constant Matrix: (Units=GPa)
#
#
# Indices 1 2 3 4 5 6 
#
# 1 141.1116 36.9369 17.1342 0.0000 0.0000 0.0000
# 2 36.9369 64.7029 16.4665 0.0000 0.0000 0.0000
# 3 17.1342 16.4665 90.2062 0.0000 0.0000 0.0000
# 4 0.0000 0.0000 0.0000 13.1809 0.0000 0.0000
# 5 0.0000 0.0000 0.0000 0.0000 12.3636 0.0000
# 6 0.0000 0.0000 0.0000 0.0000 0.0000 -19.6952
#
#
#
# Elastic Compliance Matrix: (Units=1/GPa)
#
#
# Indices 1 2 3 4 5 6 
#
# 1 0.008380 -0.004592 -0.000753 0.000000 0.000000 0.000000
# 2 -0.004592 0.018725 -0.002546 0.000000 0.000000 0.000000
# 3 -0.000753 -0.002546 0.011694 0.000000 0.000000 0.000000
# 4 0.000000 0.000000 0.000000 0.075868 0.000000 0.000000
# 5 0.000000 0.000000 0.000000 0.000000 0.080883 0.000000
# 6 0.000000 0.000000 0.000000 0.000000 0.000000 -0.050774
#
#
# Mechanical properties :
#
#
# Convention : Reuss Voigt Hill
#
# Bulk Modulus (GPa) = 43.44915 48.56619 46.00767
# Shear Modulus (GPa) = 29.72129 16.20206 22.96167
#
# Velocity S-wave (km/s) = 3.48997 2.57675 3.06754
# Velocity P-wave (km/s) = 5.83485 5.36242 5.60361
#
# Compressibility (1/GPa) = 0.02301541
#
# Stress axis : x y z
#
# Youngs Moduli (GPa) = 119.33003 53.40540 85.51725
#
# Poissons Ratio (x) = 0.24525 0.06444
# Poissons Ratio (y) = 0.54799 0.21771
# Poissons Ratio (z) = 0.08991 0.13596
#
# Static dielectric constant tensor:
#      x y z
#    x 1.964960 0.000000 0.000000 
#    y 0.000000 2.027450 0.000000 
#    z 0.000000 0.000000 2.040410 
# 
# From -- ./inp_files/8262.got.cif
#   From: 2010.05.17/outbox.cif.g08.bks.cpg/sg40_5_cif.got.tgz:8262.got - 2010.06.03 18:35:42.
