data_PCOD9362333
_publ_section_title
;
Structure prediction by ZEFSAII (Michael W. Deem and Ramdas Pophale) SiO2 
 PCOD9362333
Probable space group: A M A 2
;
_chemical_formula_sum "Si O2"
_cell_formula_units_Z 64
_cell_length_a 8.712506
_cell_length_b 23.846103
_cell_length_c 19.613845
_cell_angle_alpha 90.000000
_cell_angle_beta 90.000000
_cell_angle_gamma 90.000000
_cell_volume 4074.959011
_symmetry_space_group_name_H-M "A M A 2"
_symmetry_group_IT_number 40
_symmetry_cell_setting 'orthorhombic'
loop_
_space_group_symop_operation_xyz
x,y,z
-x,-y,z
1/2-x,y,z
1/2+x,-y,z
x,1/2+y,1/2+z
-x,1/2-y,1/2+z
1/2-x,1/2+y,1/2+z
1/2+x,1/2-y,1/2+z
loop_
_atom_site_type_symbol
_atom_site_label
_atom_site_fract_x
_atom_site_fract_y
_atom_site_fract_z
Si Si1 0.934930 0.233143 0.697090
Si Si2 0.436448 0.118168 0.345924
Si Si3 0.933490 0.438574 0.986966
Si Si4 0.934541 0.937851 0.203205
Si Si5 0.066178 0.838219 0.570062
Si Si6 0.933205 0.276495 0.491703
Si Si7 0.564951 0.751210 0.349872
Si Si8 0.067406 0.339213 0.617004
O O1 0.750000 0.249749 0.857322
O O2 0.974171 0.182376 0.646239
O O3 0.974922 0.226002 0.776053
O O4 0.010895 0.289103 0.666789
O O5 0.250000 0.118215 0.345839
O O6 0.487863 0.085231 0.413340
O O7 0.485477 0.088317 0.276160
O O8 0.483640 0.183222 0.348727
O O9 0.750000 0.441400 0.985426
O O10 0.000000 0.500000 0.998886
O O11 0.985711 0.393573 0.043016
O O12 0.750000 0.939048 0.202380
O O13 0.994411 0.896198 0.144987
O O14 0.000000 0.000000 0.196047
O O15 0.250000 0.845678 0.566488
O O16 0.025167 0.785246 0.521676
O O17 0.750000 0.281677 0.496144
O O18 0.989873 0.278483 0.414437
O O19 0.009387 0.321183 0.542284
O O20 0.750000 0.741450 0.192822
O O21 0.250000 0.342632 0.618206
#
# Coordination Sequence:
#
# PCOD9362333 Si02
#       8
#     8   8   8   8   8   8   8   8
#     4   9  18  33  52  72 101 133 162 204 256 300
#     4   9  18  31  48  69 100 136 169 203 242 287
#     4  11  21  33  48  68  95 132 171 208 244 284
#     4  11  21  36  52  71 100 137 175 214 254 298
#     4   9  18  32  48  69  95 128 165 202 246 292
#     4  10  20  33  50  73 101 131 164 209 255 298
#     4  10  17  31  52  75 101 134 167 200 248 304
#     4  11  21  33  50  73  98 132 173 211 251 301
#
# _framework density 15.705679999999999
#
# number of rings (size 3 to 8) (size 9 to 14) (size 15 to 20)
#    0.000    2.000    2.500    3.375    0.000    2.500 
#    0.000    1.875    0.000    0.000    0.000    0.875 
#    0.000    2.000    0.000    0.000    0.000    0.000 
#
# Total GULP energy -178582.746852 kJ/mol
# GULP energy per Si atom -5580.710839 kJ/mol
# Density = 1.566993 g / cm^3
# Si number density = 15.705680 Si / 1000 Ang^3
#
#
#
# Elastic Constant Matrix: (Units=GPa)
#
#
# Indices 1 2 3 4 5 6 
#
# 1 44.7347 35.4119 45.2282 0.0000 0.0000 0.0000
# 2 35.4119 98.4218 68.7622 0.0000 0.0000 0.0000
# 3 45.2282 68.7622 139.3666 0.0000 0.0000 0.0000
# 4 0.0000 0.0000 0.0000 18.5943 0.0000 0.0000
# 5 0.0000 0.0000 0.0000 0.0000 22.6154 0.0000
# 6 0.0000 0.0000 0.0000 0.0000 0.0000 22.6039
#
#
#
# Elastic Compliance Matrix: (Units=1/GPa)
#
#
# Indices 1 2 3 4 5 6 
#
# 1 0.036500 -0.007412 -0.008188 0.000000 0.000000 0.000000
# 2 -0.007412 0.017010 -0.005987 0.000000 0.000000 0.000000
# 3 -0.008188 -0.005987 0.012787 0.000000 0.000000 0.000000
# 4 0.000000 0.000000 0.000000 0.053780 0.000000 0.000000
# 5 0.000000 0.000000 0.000000 0.000000 0.044218 0.000000
# 6 0.000000 0.000000 0.000000 0.000000 0.000000 0.044240
#
#
# Mechanical properties :
#
#
# Convention : Reuss Voigt Hill
#
# Bulk Modulus (GPa) = 43.24907 64.59195 53.92051
# Shear Modulus (GPa) = 19.27406 21.63746 20.45576
#
# Velocity S-wave (km/s) = 3.50695 3.71574 3.61285
# Velocity P-wave (km/s) = 6.63289 7.72171 7.19792
#
# Compressibility (1/GPa) = 0.02312188
#
# Stress axis : x y z
#
# Youngs Moduli (GPa) = 27.39743 58.78851 78.20620
#
# Poissons Ratio (x) = 0.43573 0.64037
# Poissons Ratio (y) = 0.20306 0.46824
# Poissons Ratio (z) = 0.22434 0.35198
#
# Static dielectric constant tensor:
#      x y z
#    x 1.525110 0.000000 0.000000 
#    y 0.000000 1.494240 0.000000 
#    z 0.000000 0.000000 1.530310 
# 
# From -- ./inp_files/19621.got.cif
#   From: 2010.05.17/outbox.cif.g08.bks.cpg/sg40_10_cif.got.tgz:19621.got - 2010.06.03 18:35:42.
