data_PCOD9362365
_publ_section_title
;
Structure prediction by ZEFSAII (Michael W. Deem and Ramdas Pophale) SiO2 
 PCOD9362365
Probable space group: A M A 2
;
_chemical_formula_sum "Si O2"
_cell_formula_units_Z 48
_cell_length_a 15.976822
_cell_length_b 13.379793
_cell_length_c 12.651790
_cell_angle_alpha 90.000000
_cell_angle_beta 90.000000
_cell_angle_gamma 90.000000
_cell_volume 2704.529767
_symmetry_space_group_name_H-M "A M A 2"
_symmetry_group_IT_number 40
_symmetry_cell_setting 'orthorhombic'
loop_
_space_group_symop_operation_xyz
x,y,z
-x,-y,z
1/2-x,y,z
1/2+x,-y,z
x,1/2+y,1/2+z
-x,1/2-y,1/2+z
1/2-x,1/2+y,1/2+z
1/2+x,1/2-y,1/2+z
loop_
_atom_site_type_symbol
_atom_site_label
_atom_site_fract_x
_atom_site_fract_y
_atom_site_fract_z
Si Si1 0.750000 0.902222 0.851980
Si Si2 0.590573 0.005131 0.937508
Si Si3 0.898501 0.679318 0.600475
Si Si4 0.655560 0.506812 0.759499
Si Si5 0.750000 0.333350 0.112378
Si Si6 0.250000 0.751771 0.550032
Si Si7 0.084109 0.656113 0.629001
Si Si8 0.750000 0.026909 0.465239
O O1 0.668210 0.970031 0.869097
O O2 0.750000 0.856509 0.736574
O O3 0.750000 0.816055 0.942677
O O4 0.500000 0.000000 0.882874
O O5 0.584290 0.925287 0.033875
O O6 0.604623 0.110720 0.995181
O O7 0.872959 0.605352 0.697174
O O8 0.832304 0.767201 0.590519
O O9 0.994645 0.709170 0.622368
O O10 0.750000 0.482691 0.716282
O O11 0.596574 0.414119 0.731257
O O12 0.671734 0.522547 0.883089
O O13 0.750000 0.433382 0.042955
O O14 0.165444 0.723487 0.612317
O O15 0.250000 0.867652 0.522308
#
# Coordination Sequence:
#
# PCOD9362365 Si02
#       8
#     4   8   8   8   4   4   8   4
#     4  10  19  32  58  76 102 144 173 220 254 316
#     4   8  16  31  55  86 106 126 168 219 271 316
#     4  10  18  34  60  85 105 135 170 227 275 319
#     4   9  16  34  58  85 103 138 177 219 274 314
#     4  12  23  38  48  74 110 144 189 214 262 316
#     4  10  17  36  56  78 110 144 181 212 264 322
#     4   9  17  31  60  88 108 127 176 229 270 316
#     4  10  23  36  54  72 114 158 181 216 264 322
#
# _framework density 17.748002
#
# number of rings (size 3 to 8) (size 9 to 14) (size 15 to 20)
#    0.500    2.000    1.667    3.000    2.333    0.000 
#    0.000   14.167    0.000    0.000    0.000    0.000 
#    0.000    0.000    0.000    0.000    0.000    0.000 
#
# Total GULP energy -133709.806033 kJ/mol
# GULP energy per Si atom -5571.241918 kJ/mol
# Density = 1.770761 g / cm^3
# Si number density = 17.748002 Si / 1000 Ang^3
#
#
#
# Elastic Constant Matrix: (Units=GPa)
#
#
# Indices 1 2 3 4 5 6 
#
# 1 143.1034 63.6932 14.1686 0.0000 0.0000 0.0000
# 2 63.6932 108.3889 31.5140 0.0000 0.0000 0.0000
# 3 14.1686 31.5140 26.5614 0.0000 0.0000 0.0000
# 4 0.0000 0.0000 0.0000 18.3987 0.0000 0.0000
# 5 0.0000 0.0000 0.0000 0.0000 2.2616 0.0000
# 6 0.0000 0.0000 0.0000 0.0000 0.0000 5.4804
#
#
#
# Elastic Compliance Matrix: (Units=1/GPa)
#
#
# Indices 1 2 3 4 5 6 
#
# 1 0.009561 -0.006314 0.002391 0.000000 0.000000 0.000000
# 2 -0.006314 0.018254 -0.018290 0.000000 0.000000 0.000000
# 3 0.002391 -0.018290 0.058073 0.000000 0.000000 0.000000
# 4 0.000000 0.000000 0.000000 0.054352 0.000000 0.000000
# 5 0.000000 0.000000 0.000000 0.000000 0.442157 0.000000
# 6 0.000000 0.000000 0.000000 0.000000 0.000000 0.182468
#
#
# Mechanical properties :
#
#
# Convention : Reuss Voigt Hill
#
# Bulk Modulus (GPa) = 24.11774 55.20057 39.65916
# Shear Modulus (GPa) = 6.07451 16.47334 11.27392
#
# Velocity S-wave (km/s) = 1.85205 3.04991 2.52310
# Velocity P-wave (km/s) = 4.26520 6.60095 5.55718
#
# Compressibility (1/GPa) = 0.04146325
#
# Stress axis : x y z
#
# Youngs Moduli (GPa) = 104.58740 54.78296 17.21962
#
# Poissons Ratio (x) = 0.34588 -0.04117
# Poissons Ratio (y) = 0.66033 0.31494
# Poissons Ratio (z) = -0.25003 1.00196
#
# Static dielectric constant tensor:
#      x y z
#    x 1.646190 0.000000 0.000000 
#    y 0.000000 1.583900 0.000000 
#    z 0.000000 0.000000 1.590990 
# 
# From -- ./inp_files/17034.got.cif
#   From: 2010.05.17/outbox.cif.g08.bks.cpg/sg40_9_cif.got.tgz:17034.got - 2010.06.03 18:35:42.
