data_PCOD9362916
_publ_section_title
;
Structure prediction by ZEFSAII (Michael W. Deem and Ramdas Pophale) SiO2 
 PCOD9362916
Probable space group: A M A 2
;
_chemical_formula_sum "Si O2"
_cell_formula_units_Z 48
_cell_length_a 8.378804
_cell_length_b 14.133207
_cell_length_c 19.250972
_cell_angle_alpha 90.000000
_cell_angle_beta 90.000000
_cell_angle_gamma 90.000000
_cell_volume 2279.688002
_symmetry_space_group_name_H-M "A M A 2"
_symmetry_group_IT_number 40
_symmetry_cell_setting 'orthorhombic'
loop_
_space_group_symop_operation_xyz
x,y,z
-x,-y,z
1/2-x,y,z
1/2+x,-y,z
x,1/2+y,1/2+z
-x,1/2-y,1/2+z
1/2-x,1/2+y,1/2+z
1/2+x,1/2-y,1/2+z
loop_
_atom_site_type_symbol
_atom_site_label
_atom_site_fract_x
_atom_site_fract_y
_atom_site_fract_z
Si Si1 0.931812 0.398656 0.855360
Si Si2 0.061125 0.193615 0.860856
Si Si3 0.561232 0.104070 0.725182
Si Si4 0.556409 0.392962 0.507150
Si Si5 0.565827 0.752651 0.115898
Si Si6 0.432971 0.100334 0.522727
O O1 0.750000 0.388442 0.830922
O O2 0.000000 0.500000 0.831317
O O3 0.025057 0.302191 0.840270
O O4 0.931886 0.401735 0.939436
O O5 0.250000 0.177731 0.858241
O O6 0.004920 0.166413 0.938705
O O7 0.978139 0.126922 0.804675
O O8 0.750000 0.103420 0.713985
O O9 0.493536 0.191362 0.678873
O O10 0.500000 0.000000 0.706924
O O11 0.500000 0.500000 0.499872
O O12 0.750000 0.389725 0.508915
O O13 0.496109 0.346080 0.579416
O O14 0.750000 0.772811 0.133813
O O15 0.550833 0.678653 0.052331
O O16 0.250000 0.116327 0.545724
O O17 0.500000 0.000000 0.546698
#
# Coordination Sequence:
#
# PCOD9362916 Si02
#       6
#     8   8   8   8   8   8
#     4  10  20  34  55  86 121 156 197 245 299 355
#     4  11  22  39  63  89 123 162 203 251 304 364
#     4  11  24  41  62  88 123 161 202 249 304 367
#     4  10  22  39  61  88 117 153 198 249 303 358
#     4  10  21  39  59  83 117 156 197 248 301 357
#     4  10  19  30  51  82 115 150 187 236 289 347
#
# _framework density 21.055512
#
# number of rings (size 3 to 8) (size 9 to 14) (size 15 to 20)
#    0.000    1.667    1.667    3.000    0.000    7.333 
#    0.000    0.833    0.000    2.000    0.000    0.000 
#    0.000    0.000    0.000    0.000    0.000    0.000 
#
# Total GULP energy -133901.788571 kJ/mol
# GULP energy per Si atom -5579.241190 kJ/mol
# Density = 2.100759 g / cm^3
# Si number density = 21.055512 Si / 1000 Ang^3
#
#
#
# Elastic Constant Matrix: (Units=GPa)
#
#
# Indices 1 2 3 4 5 6 
#
# 1 26.3151 -1.3455 8.7493 0.0000 0.0000 0.0000
# 2 -1.3455 112.4705 28.5013 0.0000 0.0000 0.0000
# 3 8.7493 28.5013 77.2306 0.0000 0.0000 0.0000
# 4 0.0000 0.0000 0.0000 9.0276 0.0000 0.0000
# 5 0.0000 0.0000 0.0000 0.0000 44.9973 0.0000
# 6 0.0000 0.0000 0.0000 0.0000 0.0000 33.1915
#
#
#
# Elastic Compliance Matrix: (Units=1/GPa)
#
#
# Indices 1 2 3 4 5 6 
#
# 1 0.039811 0.001786 -0.005169 0.000000 0.000000 0.000000
# 2 0.001786 0.009889 -0.003852 0.000000 0.000000 0.000000
# 3 -0.005169 -0.003852 0.014955 0.000000 0.000000 0.000000
# 4 0.000000 0.000000 0.000000 0.110772 0.000000 0.000000
# 5 0.000000 0.000000 0.000000 0.000000 0.022224 0.000000
# 6 0.000000 0.000000 0.000000 0.000000 0.000000 0.030128
#
#
# Mechanical properties :
#
#
# Convention : Reuss Voigt Hill
#
# Bulk Modulus (GPa) = 19.92609 31.98070 25.95339
# Shear Modulus (GPa) = 19.30678 29.45068 24.37873
#
# Velocity S-wave (km/s) = 3.03140 3.74400 3.40638
# Velocity P-wave (km/s) = 4.66226 5.82338 5.27486
#
# Compressibility (1/GPa) = 0.05018547
#
# Stress axis : x y z
#
# Youngs Moduli (GPa) = 25.11868 101.12605 66.86601
#
# Poissons Ratio (x) = -0.18063 0.34565
# Poissons Ratio (y) = -0.04487 0.25755
# Poissons Ratio (z) = 0.12985 0.38951
#
# Static dielectric constant tensor:
#      x y z
#    x 1.746320 0.000000 0.000000 
#    y 0.000000 1.768970 0.000000 
#    z 0.000000 0.000000 1.780300 
# 
# From -- ./inp_files/19193.got.cif
#   From: 2010.05.17/outbox.cif.g08.bks.cpg/sg40_10_cif.got.tgz:19193.got - 2010.06.03 18:35:42.
