data_PCOD9362131
_publ_section_title
;
Structure prediction by ZEFSAII (Michael W. Deem and Ramdas Pophale) SiO2 
 PCOD9362131
Probable space group: A B M 2
;
_chemical_formula_sum "Si O2"
_cell_formula_units_Z 28
_cell_length_a 5.122796
_cell_length_b 10.421436
_cell_length_c 23.580066
_cell_angle_alpha 90.000000
_cell_angle_beta 90.000000
_cell_angle_gamma 90.000000
_cell_volume 1258.866405
_symmetry_space_group_name_H-M "A B M 2"
_symmetry_group_IT_number 39
_symmetry_cell_setting 'orthorhombic'
loop_
_space_group_symop_operation_xyz
x,y,z
-x,-y,z
-x,1/2+y,z
x,1/2-y,z
x,1/2+y,1/2+z
-x,1/2-y,1/2+z
-x,y,1/2+z
x,-y,1/2+z
loop_
_atom_site_type_symbol
_atom_site_label
_atom_site_fract_x
_atom_site_fract_y
_atom_site_fract_z
Si Si1 0.500000 0.500000 0.831580
Si Si2 0.803896 0.390660 0.727111
Si Si3 0.000000 0.000000 0.554092
Si Si4 0.876571 0.250000 0.979090
Si Si5 0.635118 0.750000 0.904545
Si Si6 0.500000 0.000000 0.635452
O O1 0.707205 0.437023 0.788334
O O2 0.594395 0.619142 0.869280
O O3 0.923188 0.250000 0.730430
O O4 0.567729 0.389921 0.681660
O O5 0.000000 0.500000 0.706819
O O6 0.953578 0.875253 0.515256
O O7 0.254003 0.998341 0.593881
O O8 0.578952 0.250000 0.955960
O O9 0.069608 0.250000 0.925897
#
# Coordination Sequence:
#
# PCOD9362131 Si02
#       6
#     4   8   4   4   4   4
#     4  11  26  43  74 108 146 195 234 301 372 434
#     4  11  26  46  73 116 149 192 246 300 362 468
#     4  12  26  48  74 104 144 192 242 304 366 422
#     4  12  28  48  72 106 140 188 256 302 354 432
#     4  12  26  48  74 104 144 192 242 306 366 424
#     4  11  26  45  76 108 146 189 234 297 370 432
#
# _framework density 22.242235999999998
#
# number of rings (size 3 to 8) (size 9 to 14) (size 15 to 20)
#    0.000    0.571    2.857    3.429   10.000    1.143 
#    0.000    0.000    0.000    0.000    0.000    0.000 
#    0.000    0.000    0.000    0.000    0.000    0.000 
#
# Total GULP energy -78199.343331 kJ/mol
# GULP energy per Si atom -5585.667381 kJ/mol
# Density = 2.219161 g / cm^3
# Si number density = 22.242236 Si / 1000 Ang^3
#
#
#
# Elastic Constant Matrix: (Units=GPa)
#
#
# Indices 1 2 3 4 5 6 
#
# 1 71.3545 -3.3744 -3.2473 0.0000 0.0000 0.0000
# 2 -3.3744 184.2947 35.5896 0.0000 0.0000 0.0000
# 3 -3.2473 35.5896 84.2588 0.0000 0.0000 0.0000
# 4 0.0000 0.0000 0.0000 -15.4005 0.0000 0.0000
# 5 0.0000 0.0000 0.0000 0.0000 30.5318 0.0000
# 6 0.0000 0.0000 0.0000 0.0000 0.0000 13.7437
#
#
#
# Elastic Compliance Matrix: (Units=1/GPa)
#
#
# Indices 1 2 3 4 5 6 
#
# 1 0.014044 0.000166 0.000471 0.000000 0.000000 0.000000
# 2 0.000166 0.005910 -0.002490 0.000000 0.000000 0.000000
# 3 0.000471 -0.002490 0.012938 0.000000 0.000000 0.000000
# 4 0.000000 0.000000 0.000000 -0.064933 0.000000 0.000000
# 5 0.000000 0.000000 0.000000 0.000000 0.032753 0.000000
# 6 0.000000 0.000000 0.000000 0.000000 0.000000 0.072761
#
#
# Mechanical properties :
#
#
# Convention : Reuss Voigt Hill
#
# Bulk Modulus (GPa) = 34.26236 44.20486 39.23361
# Shear Modulus (GPa) = 57.53295 26.50431 42.01863
#
# Velocity S-wave (km/s) = 5.09143 3.45573 4.35114
# Velocity P-wave (km/s) = 7.07115 5.98667 6.55139
#
# Compressibility (1/GPa) = 0.02918655
#
# Stress axis : x y z
#
# Youngs Moduli (GPa) = 71.20566 169.20586 77.29148
#
# Poissons Ratio (x) = -0.02812 -0.03641
# Poissons Ratio (y) = -0.01183 0.19245
# Poissons Ratio (z) = -0.03354 0.42130
#
# Static dielectric constant tensor:
#      x y z
#    x 2.096850 0.000000 0.000000 
#    y 0.000000 1.799780 0.000000 
#    z 0.000000 0.000000 1.834240 
# 
# From -- ./inp_files/13312.got.cif
#   From: 2010.05.17/outbox.cif.g08.bks.cpg/sg39_7_cif.got.tgz:13312.got - 2010.06.03 18:22:40.
