data_PCOD9362311
_publ_section_title
;
Structure prediction by ZEFSAII (Michael W. Deem and Ramdas Pophale) SiO2 
 PCOD9362311
Probable space group: A M A 2
;
_chemical_formula_sum "Si O2"
_cell_formula_units_Z 48
_cell_length_a 8.215795
_cell_length_b 14.304108
_cell_length_c 19.301577
_cell_angle_alpha 90.000000
_cell_angle_beta 90.000000
_cell_angle_gamma 90.000000
_cell_volume 2268.313975
_symmetry_space_group_name_H-M "A M A 2"
_symmetry_group_IT_number 40
_symmetry_cell_setting 'orthorhombic'
loop_
_space_group_symop_operation_xyz
x,y,z
-x,-y,z
1/2-x,y,z
1/2+x,-y,z
x,1/2+y,1/2+z
-x,1/2-y,1/2+z
1/2-x,1/2+y,1/2+z
1/2+x,1/2-y,1/2+z
loop_
_atom_site_type_symbol
_atom_site_label
_atom_site_fract_x
_atom_site_fract_y
_atom_site_fract_z
Si Si1 0.553512 0.103126 0.024700
Si Si2 0.947197 0.694931 0.663592
Si Si3 0.945196 0.893249 0.308455
Si Si4 0.938571 0.252600 0.916551
Si Si5 0.063640 0.907496 0.802584
Si Si6 0.564884 0.898884 0.651722
O O1 0.750000 0.105794 0.018936
O O2 0.507022 0.121246 0.104431
O O3 0.500000 0.000000 0.003054
O O4 0.490112 0.190674 0.978902
O O5 0.750000 0.700520 0.666374
O O6 0.010428 0.796776 0.637740
O O7 0.004591 0.663456 0.739295
O O8 0.750000 0.889379 0.311728
O O9 0.010080 0.844363 0.379346
O O10 0.000000 0.000000 0.302398
O O11 0.750000 0.273870 0.935750
O O12 0.939150 0.179264 0.853015
O O13 0.250000 0.919291 0.778451
O O14 0.951179 0.899150 0.735437
O O15 0.000000 0.000000 0.840397
O O16 0.750000 0.895365 0.628364
O O17 0.500000 0.000000 0.628263
#
# Coordination Sequence:
#
# PCOD9362311 Si02
#       6
#     8   8   8   8   8   8
#     4  10  21  39  59  83 114 148 186 228 282 339
#     4  10  21  37  58  84 115 151 190 233 280 336
#     4  11  22  38  59  83 112 147 189 236 285 336
#     4   9  19  35  55  78 108 145 181 223 278 332
#     4  10  17  28  47  75 104 136 173 214 267 319
#     4  10  19  31  49  77 109 142 180 223 272 323
#
# _framework density 21.161090999999999
#
# number of rings (size 3 to 8) (size 9 to 14) (size 15 to 20)
#    0.000    2.000    1.667    3.500    0.000    2.667 
#    0.000    3.333    0.000    0.000    0.000    0.000 
#    0.000    0.000    0.000    0.000    0.000    0.000 
#
# Total GULP energy -133732.831786 kJ/mol
# GULP energy per Si atom -5572.201324 kJ/mol
# Density = 2.111293 g / cm^3
# Si number density = 21.161091 Si / 1000 Ang^3
#
#
#
# Elastic Constant Matrix: (Units=GPa)
#
#
# Indices 1 2 3 4 5 6 
#
# 1 18.9674 13.0230 4.5276 0.0000 0.0000 0.0000
# 2 13.0230 138.2329 33.4948 0.0000 0.0000 0.0000
# 3 4.5276 33.4948 79.2184 0.0000 0.0000 0.0000
# 4 0.0000 0.0000 0.0000 25.6015 0.0000 0.0000
# 5 0.0000 0.0000 0.0000 0.0000 12.1338 0.0000
# 6 0.0000 0.0000 0.0000 0.0000 0.0000 22.2480
#
#
#
# Elastic Compliance Matrix: (Units=1/GPa)
#
#
# Indices 1 2 3 4 5 6 
#
# 1 0.056452 -0.005054 -0.001089 0.000000 0.000000 0.000000
# 2 -0.005054 0.008512 -0.003310 0.000000 0.000000 0.000000
# 3 -0.001089 -0.003310 0.014085 0.000000 0.000000 0.000000
# 4 0.000000 0.000000 0.000000 0.039060 0.000000 0.000000
# 5 0.000000 0.000000 0.000000 0.000000 0.082414 0.000000
# 6 0.000000 0.000000 0.000000 0.000000 0.000000 0.044948
#
#
# Mechanical properties :
#
#
# Convention : Reuss Voigt Hill
#
# Bulk Modulus (GPa) = 16.62735 37.61214 27.11975
# Shear Modulus (GPa) = 17.57915 24.35490 20.96702
#
# Velocity S-wave (km/s) = 2.88537 3.39621 3.15116
# Velocity P-wave (km/s) = 4.35603 5.76123 5.10719
#
# Compressibility (1/GPa) = 0.06014187
#
# Stress axis : x y z
#
# Youngs Moduli (GPa) = 17.71407 117.47486 70.99629
#
# Poissons Ratio (x) = 0.59377 0.07734
# Poissons Ratio (y) = 0.08953 0.23502
# Poissons Ratio (z) = 0.01930 0.38888
#
# Static dielectric constant tensor:
#      x y z
#    x 1.782400 0.000000 0.000000 
#    y 0.000000 1.842030 0.000000 
#    z 0.000000 0.000000 1.760040 
# 
# From -- ./inp_files/19222.got.cif
#   From: 2010.05.17/outbox.cif.g08.bks.cpg/sg40_10_cif.got.tgz:19222.got - 2010.06.03 18:35:42.
