data_PCOD9362171
_publ_section_title
;
Structure prediction by ZEFSAII (Michael W. Deem and Ramdas Pophale) SiO2 
 PCOD9362171
Probable space group: A B M 2
;
_chemical_formula_sum "Si O2"
_cell_formula_units_Z 32
_cell_length_a 9.000000
_cell_length_b 18.000000
_cell_length_c 21.000000
_cell_angle_alpha 90.000000
_cell_angle_beta 90.000000
_cell_angle_gamma 90.000000
_cell_volume 3402.000000
_symmetry_space_group_name_H-M "A B M 2"
_symmetry_group_IT_number 39
_symmetry_cell_setting 'orthorhombic'
loop_
_space_group_symop_operation_xyz
x,y,z
-x,-y,z
-x,1/2+y,z
x,1/2-y,z
x,1/2+y,1/2+z
-x,1/2-y,1/2+z
-x,y,1/2+z
x,-y,1/2+z
loop_
_atom_site_type_symbol
_atom_site_label
_atom_site_fract_x
_atom_site_fract_y
_atom_site_fract_z
Si Si1 0.114976 0.563684 0.748910
Si Si2 0.967046 0.583249 0.999751
Si Si3 0.541889 0.331495 0.553188
Si Si4 0.711137 0.338444 0.422097
Si Si5 0.254710 0.051246 0.115389
Si Si6 0.844864 0.662666 0.730056
Si Si7 0.223972 0.121763 0.588713
Si Si8 0.659772 0.956347 0.808013
O O1 0.216515 0.574795 0.687090
O O2 0.216480 0.523282 0.802724
O O3 0.000000 0.500000 0.727579
O O4 0.002356 0.632718 0.759715
O O5 0.874013 0.571343 0.064991
O O6 0.000000 0.500000 0.973442
O O7 0.116336 0.618581 0.027580
O O8 0.867595 0.633318 0.952858
O O9 0.601940 0.250000 0.572811
O O10 0.591841 0.341375 0.479862
O O11 0.609312 0.399677 0.592035
O O12 0.368653 0.334409 0.567087
O O13 0.719557 0.250000 0.402183
O O14 0.667998 0.401746 0.369906
O O15 0.269106 0.962907 0.107522
O O16 0.819319 0.750000 0.745528
O O17 0.848485 0.654407 0.653213
O O18 0.717047 0.604577 0.754869
O O19 0.500000 0.000000 0.801252
#
# Coordination Sequence:
#
# PCOD9362171 Si02
#       8
#     8   8   8   8   8   8   8   8
#     4  10  19  39  61  88 122 161 209 258 311 378
#     4   9  19  34  62  94 123 161 203 246 306 378
#     4  10  23  36  55  91 131 165 200 252 316 379
#     4  10  23  45  63  86 127 167 209 263 318 370
#     4  10  17  34  58  84 125 164 201 244 305 369
#     4  11  23  39  63  95 133 168 206 265 326 383
#     4  11  19  35  60  96 128 162 203 254 310 380
#     4  11  25  42  67  88 119 171 229 267 316 374
#
# _framework density 9.4062319999999993
#
# number of rings (size 3 to 8) (size 9 to 14) (size 15 to 20)
#    0.000    1.750    3.750    1.500    1.750    6.000 
#    0.000    1.250    0.000    1.500    0.000    0.000 
#    0.000    0.000    0.000    0.000    0.000    0.000 
#
# Total GULP energy -178238.631332 kJ/mol
# GULP energy per Si atom -5569.957229 kJ/mol
# Density = 0.938482 g / cm^3
# Si number density = 9.406232 Si / 1000 Ang^3
#
#
#
# Elastic Constant Matrix: (Units=GPa)
#
#
# Indices 1 2 3 4 5 6 
#
# 1 93.4366 50.7395 27.7045 0.0000 0.0000 0.0000
# 2 50.7395 122.9523 31.7514 0.0000 0.0000 0.0000
# 3 27.7045 31.7514 57.6013 0.0000 0.0000 0.0000
# 4 0.0000 0.0000 0.0000 29.9479 0.0000 0.0000
# 5 0.0000 0.0000 0.0000 0.0000 16.7921 0.0000
# 6 0.0000 0.0000 0.0000 0.0000 0.0000 29.3512
#
#
#
# Elastic Compliance Matrix: (Units=1/GPa)
#
#
# Indices 1 2 3 4 5 6 
#
# 1 0.014667 -0.004933 -0.004335 0.000000 0.000000 0.000000
# 2 -0.004933 0.011142 -0.003769 0.000000 0.000000 0.000000
# 3 -0.004335 -0.003769 0.021523 0.000000 0.000000 0.000000
# 4 0.000000 0.000000 0.000000 0.033391 0.000000 0.000000
# 5 0.000000 0.000000 0.000000 0.000000 0.059552 0.000000
# 6 0.000000 0.000000 0.000000 0.000000 0.000000 0.034070
#
#
# Mechanical properties :
#
#
# Convention : Reuss Voigt Hill
#
# Bulk Modulus (GPa) = 47.04167 54.93121 50.98644
# Shear Modulus (GPa) = 24.09562 26.13789 25.11675
#
# Velocity S-wave (km/s) = 3.58275 3.73150 3.65788
# Velocity P-wave (km/s) = 6.49421 6.91579 6.70831
#
# Compressibility (1/GPa) = 0.02125775
#
# Stress axis : x y z
#
# Youngs Moduli (GPa) = 68.18189 89.74720 46.46098
#
# Poissons Ratio (x) = 0.44273 0.20141
# Poissons Ratio (y) = 0.33635 0.17513
# Poissons Ratio (z) = 0.29556 0.33828
#
# Static dielectric constant tensor:
#      x y z
#    x 1.690310 0.000000 0.000000 
#    y 0.000000 1.661070 0.000000 
#    z 0.000000 0.000000 1.664550 
# 
# From -- ./inp_files/14179.got.cif
#   From: 2010.05.17/outbox.ucp.g08.bks.cvg/sg39_8_cif.got.tgz:14179.got - 2010.06.11 10:41:16.
