data_PCOD9362889
_publ_section_title
;
Structure prediction by ZEFSAII (Michael W. Deem and Ramdas Pophale) SiO2 
 PCOD9362889
Probable space group: A M A 2
;
_chemical_formula_sum "Si O2"
_cell_formula_units_Z 64
_cell_length_a 8.850171
_cell_length_b 27.325385
_cell_length_c 18.635643
_cell_angle_alpha 90.000000
_cell_angle_beta 90.000000
_cell_angle_gamma 90.000000
_cell_volume 4506.738237
_symmetry_space_group_name_H-M "A M A 2"
_symmetry_group_IT_number 40
_symmetry_cell_setting 'orthorhombic'
loop_
_space_group_symop_operation_xyz
x,y,z
-x,-y,z
1/2-x,y,z
1/2+x,-y,z
x,1/2+y,1/2+z
-x,1/2-y,1/2+z
1/2-x,1/2+y,1/2+z
1/2+x,1/2-y,1/2+z
loop_
_atom_site_type_symbol
_atom_site_label
_atom_site_fract_x
_atom_site_fract_y
_atom_site_fract_z
Si Si1 0.070640 0.740717 0.677990
Si Si2 0.576417 0.298015 0.056118
Si Si3 0.067740 0.852817 0.096445
Si Si4 0.568421 0.947211 0.170366
Si Si5 0.929375 0.243375 0.334038
Si Si6 0.933347 0.349395 0.916966
Si Si7 0.068923 0.052020 0.338268
Si Si8 0.576374 0.200272 0.957018
O O1 0.250000 0.735016 0.680978
O O2 0.024570 0.784336 0.623808
O O3 0.998399 0.691141 0.645024
O O4 0.003992 0.749460 0.756539
O O5 0.750000 0.306392 0.078888
O O6 0.527026 0.339851 0.000334
O O7 0.576590 0.249383 0.006074
O O8 0.250000 0.851576 0.101195
O O9 0.002392 0.903658 0.124376
O O10 0.026749 0.841060 0.013481
O O11 0.750000 0.947692 0.163804
O O12 0.529782 0.938685 0.254623
O O13 0.500000 0.000000 0.150874
O O14 0.750000 0.240361 0.327837
O O15 0.993470 0.193365 0.369276
O O16 0.976718 0.286732 0.388521
O O17 0.750000 0.344513 0.911769
O O18 0.978459 0.402003 0.886337
O O19 0.250000 0.048465 0.342114
O O20 0.000000 0.000000 0.359555
O O21 0.750000 0.191558 0.934841
#
# Coordination Sequence:
#
# PCOD9362889 Si02
#       8
#     8   8   8   8   8   8   8   8
#     4  11  20  29  42  60  85 114 143 174 210 251
#     4   8  15  28  43  59  81 108 138 172 207 246
#     4  10  19  31  46  63  84 111 144 178 213 253
#     4  10  19  30  44  62  86 115 147 181 214 248
#     4  11  20  28  42  63  85 110 143 177 207 246
#     4   9  17  30  45  60  83 113 141 171 212 253
#     4   9  18  30  43  60  82 110 141 174 210 244
#     4   8  16  30  44  59  83 111 136 169 212 253
#
# _framework density 14.200958999999999
#
# number of rings (size 3 to 8) (size 9 to 14) (size 15 to 20)
#    0.000    2.500    0.000    5.250    0.000    7.000 
#    0.000    0.000    0.000    0.000    0.000    0.000 
#    0.000    1.000    0.000    9.250    0.000    3.875 
#
# Total GULP energy -178341.834449 kJ/mol
# GULP energy per Si atom -5573.182327 kJ/mol
# Density = 1.416864 g / cm^3
# Si number density = 14.200959 Si / 1000 Ang^3
#
#
#
# Elastic Constant Matrix: (Units=GPa)
#
#
# Indices 1 2 3 4 5 6 
#
# 1 68.5892 36.7210 53.9523 0.0000 0.0000 0.0000
# 2 36.7210 98.4777 61.4999 0.0000 0.0000 0.0000
# 3 53.9523 61.4999 103.0831 0.0000 0.0000 0.0000
# 4 0.0000 0.0000 0.0000 27.6276 0.0000 0.0000
# 5 0.0000 0.0000 0.0000 0.0000 21.1468 0.0000
# 6 0.0000 0.0000 0.0000 0.0000 0.0000 10.4685
#
#
#
# Elastic Compliance Matrix: (Units=1/GPa)
#
#
# Indices 1 2 3 4 5 6 
#
# 1 0.024988 -0.001833 -0.011985 0.000000 0.000000 0.000000
# 2 -0.001833 0.016319 -0.008777 0.000000 0.000000 0.000000
# 3 -0.011985 -0.008777 0.021210 0.000000 0.000000 0.000000
# 4 0.000000 0.000000 0.000000 0.036196 0.000000 0.000000
# 5 0.000000 0.000000 0.000000 0.000000 0.047288 0.000000
# 6 0.000000 0.000000 0.000000 0.000000 0.000000 0.095525
#
#
# Mechanical properties :
#
#
# Convention : Reuss Voigt Hill
#
# Bulk Modulus (GPa) = 57.71031 63.83296 60.77163
# Shear Modulus (GPa) = 17.09450 19.71370 18.40410
#
# Velocity S-wave (km/s) = 3.47328 3.72989 3.60387
# Velocity P-wave (km/s) = 7.53734 7.97476 7.75913
#
# Compressibility (1/GPa) = 0.01732793
#
# Stress axis : x y z
#
# Youngs Moduli (GPa) = 40.01878 61.27738 47.14796
#
# Poissons Ratio (x) = 0.11233 0.56506
# Poissons Ratio (y) = 0.07336 0.41380
# Poissons Ratio (z) = 0.47962 0.53781
#
# Static dielectric constant tensor:
#      x y z
#    x 1.473540 0.000000 0.000000 
#    y 0.000000 1.457090 0.000000 
#    z 0.000000 0.000000 1.471240 
# 
# From -- ./inp_files/19773.got.cif
#   From: 2010.05.17/outbox.cif.g08.bks.cpg/sg40_10_cif.got.tgz:19773.got - 2010.06.03 18:35:42.
