data_PCOD9362155
_publ_section_title
;
Structure prediction by ZEFSAII (Michael W. Deem and Ramdas Pophale) SiO2 
 PCOD9362155
Probable space group: A B M 2
;
_chemical_formula_sum "Si O2"
_cell_formula_units_Z 40
_cell_length_a 9.585861
_cell_length_b 21.682759
_cell_length_c 8.415887
_cell_angle_alpha 90.000000
_cell_angle_beta 90.000000
_cell_angle_gamma 90.000000
_cell_volume 1749.224556
_symmetry_space_group_name_H-M "A B M 2"
_symmetry_group_IT_number 39
_symmetry_cell_setting 'orthorhombic'
loop_
_space_group_symop_operation_xyz
x,y,z
-x,-y,z
-x,1/2+y,z
x,1/2-y,z
x,1/2+y,1/2+z
-x,1/2-y,1/2+z
-x,y,1/2+z
x,-y,1/2+z
loop_
_atom_site_type_symbol
_atom_site_label
_atom_site_fract_x
_atom_site_fract_y
_atom_site_fract_z
Si Si1 0.805878 0.118648 0.180190
Si Si2 0.308107 0.381906 0.186494
Si Si3 0.951659 0.929382 0.365621
Si Si4 0.323911 0.250000 0.685103
Si Si5 0.551662 0.069524 0.368757
Si Si6 0.357805 0.250000 0.065821
O O1 0.759423 0.188060 0.142835
O O2 0.668582 0.082359 0.236240
O O3 0.916140 0.113357 0.324427
O O4 0.881343 0.087132 0.032272
O O5 0.167528 0.415693 0.235932
O O6 0.419602 0.387477 0.329535
O O7 0.290042 0.311084 0.139380
O O8 0.380312 0.414511 0.036554
O O9 0.000000 0.000000 0.361258
O O10 0.477602 0.250000 0.608611
O O11 0.342307 0.250000 0.876199
O O12 0.500000 0.000000 0.363862
#
# Coordination Sequence:
#
# PCOD9362155 Si02
#       6
#     8   8   8   4   8   4
#     4  12  27  50  77 110 151 205 258 323 391 460
#     4  12  25  46  80 112 153 204 254 324 388 457
#     4  12  29  52  76 110 157 202 259 321 393 470
#     4  12  28  49  81 112 160 196 264 322 394 461
#     4  12  25  45  73 115 151 199 265 316 386 466
#     4  12  24  49  79 114 156 194 258 324 380 465
#
# _framework density 22.867276
#
# number of rings (size 3 to 8) (size 9 to 14) (size 15 to 20)
#    0.000    0.000    4.000    4.800    2.800    4.800 
#    0.000    2.000    0.000    0.000    0.000    0.000 
#    0.000    0.000    0.000    0.000    0.000    0.000 
#
# Total GULP energy -112257.793797 kJ/mol
# GULP energy per Si atom -5612.889690 kJ/mol
# Density = 2.281523 g / cm^3
# Si number density = 22.867276 Si / 1000 Ang^3
#
#
#
# Elastic Constant Matrix: (Units=GPa)
#
#
# Indices 1 2 3 4 5 6 
#
# 1 135.7219 89.0644 51.5825 0.0000 0.0000 0.0000
# 2 89.0644 172.0762 51.3369 0.0000 0.0000 0.0000
# 3 51.5825 51.3369 75.3774 0.0000 0.0000 0.0000
# 4 0.0000 0.0000 0.0000 31.6635 0.0000 0.0000
# 5 0.0000 0.0000 0.0000 0.0000 56.0253 0.0000
# 6 0.0000 0.0000 0.0000 0.0000 0.0000 67.7669
#
#
#
# Elastic Compliance Matrix: (Units=1/GPa)
#
#
# Indices 1 2 3 4 5 6 
#
# 1 0.012625 -0.004966 -0.005257 0.000000 0.000000 0.000000
# 2 -0.004966 0.009247 -0.002899 0.000000 0.000000 0.000000
# 3 -0.005257 -0.002899 0.018839 0.000000 0.000000 0.000000
# 4 0.000000 0.000000 0.000000 0.031582 0.000000 0.000000
# 5 0.000000 0.000000 0.000000 0.000000 0.017849 0.000000
# 6 0.000000 0.000000 0.000000 0.000000 0.000000 0.014756
#
#
# Mechanical properties :
#
#
# Convention : Reuss Voigt Hill
#
# Bulk Modulus (GPa) = 69.13106 85.23811 77.18459
# Shear Modulus (GPa) = 36.77413 43.83726 40.30570
#
# Velocity S-wave (km/s) = 4.01453 4.38314 4.20288
# Velocity P-wave (km/s) = 7.19623 7.93549 7.57488
#
# Compressibility (1/GPa) = 0.01446528
#
# Stress axis : x y z
#
# Youngs Moduli (GPa) = 79.20809 108.14691 53.08185
#
# Poissons Ratio (x) = 0.53706 0.27907
# Poissons Ratio (y) = 0.39335 0.15390
# Poissons Ratio (z) = 0.41642 0.31354
#
# Static dielectric constant tensor:
#      x y z
#    x 1.840710 0.000000 0.000000 
#    y 0.000000 1.816050 0.000000 
#    z 0.000000 0.000000 1.910490 
# 
# From -- ./inp_files/2132.got.cif
#   From: 2010.05.17/outbox.cif.g08.bks.cpg/sg39_2_cif.got.tgz:2132.got - 2010.06.03 18:22:40.
