data_PCOD9362060
_publ_section_title
;
Structure prediction by ZEFSAII (Michael W. Deem and Ramdas Pophale) SiO2 
 PCOD9362060
Probable space group: A B M 2
;
_chemical_formula_sum "Si O2"
_cell_formula_units_Z 48
_cell_length_a 8.032558
_cell_length_b 27.912852
_cell_length_c 9.603523
_cell_angle_alpha 90.000000
_cell_angle_beta 90.000000
_cell_angle_gamma 90.000000
_cell_volume 2153.221283
_symmetry_space_group_name_H-M "A B M 2"
_symmetry_group_IT_number 39
_symmetry_cell_setting 'orthorhombic'
loop_
_space_group_symop_operation_xyz
x,y,z
-x,-y,z
-x,1/2+y,z
x,1/2-y,z
x,1/2+y,1/2+z
-x,1/2-y,1/2+z
-x,y,1/2+z
x,-y,1/2+z
loop_
_atom_site_type_symbol
_atom_site_label
_atom_site_fract_x
_atom_site_fract_y
_atom_site_fract_z
Si Si1 0.365507 0.542299 0.008450
Si Si2 0.869628 0.956828 0.251468
Si Si3 0.805474 0.197537 0.576846
Si Si4 0.337029 0.402328 0.041212
Si Si5 0.148146 0.697687 0.246078
Si Si6 0.191472 0.094278 0.745684
O O1 0.500000 0.500000 0.991439
O O2 0.478690 0.589142 0.982607
O O3 0.292056 0.554217 0.160600
O O4 0.212317 0.537541 0.902923
O O5 0.716067 0.943101 0.151774
O O6 0.994568 0.912413 0.227620
O O7 0.000000 0.000000 0.225935
O O8 0.724938 0.250000 0.597617
O O9 0.692607 0.150803 0.598114
O O10 0.862544 0.195581 0.414348
O O11 0.967607 0.196033 0.674264
O O12 0.220811 0.411331 0.908743
O O13 0.222355 0.750000 0.210180
O O14 0.239147 0.648424 0.203866
#
# Coordination Sequence:
#
# PCOD9362060 Si02
#       6
#     8   8   8   8   8   8
#     4  12  27  46  64  91 132 174 215 270 337 386
#     4  12  25  43  67  92 123 168 228 271 318 384
#     4   9  18  35  62  95 133 171 210 261 320 383
#     4  11  23  41  64  95 132 170 211 266 332 382
#     4   9  18  34  61  96 130 164 213 272 318 369
#     4  11  23  41  66  95 127 169 222 268 314 387
#
# _framework density 22.292183000000001
#
# number of rings (size 3 to 8) (size 9 to 14) (size 15 to 20)
#    0.000    1.333    1.667    4.000    2.333    2.667 
#    0.000    0.833    0.000    4.000    0.000    0.000 
#    0.000    0.000    0.000    0.000    0.000    0.000 
#
# Total GULP energy -133865.667710 kJ/mol
# GULP energy per Si atom -5577.736155 kJ/mol
# Density = 2.224145 g / cm^3
# Si number density = 22.292183 Si / 1000 Ang^3
#
#
#
# Elastic Constant Matrix: (Units=GPa)
#
#
# Indices 1 2 3 4 5 6 
#
# 1 50.9506 25.5685 0.0189 0.0000 0.0000 0.0000
# 2 25.5685 171.5391 42.0557 0.0000 0.0000 0.0000
# 3 0.0189 42.0557 33.7685 0.0000 0.0000 0.0000
# 4 0.0000 0.0000 0.0000 23.7916 0.0000 0.0000
# 5 0.0000 0.0000 0.0000 0.0000 34.4324 0.0000
# 6 0.0000 0.0000 0.0000 0.0000 0.0000 17.9480
#
#
#
# Elastic Compliance Matrix: (Units=1/GPa)
#
#
# Indices 1 2 3 4 5 6 
#
# 1 0.021990 -0.004714 0.005859 0.000000 0.000000 0.000000
# 2 -0.004714 0.009402 -0.011707 0.000000 0.000000 0.000000
# 3 0.005859 -0.011707 0.044191 0.000000 0.000000 0.000000
# 4 0.000000 0.000000 0.000000 0.042032 0.000000 0.000000
# 5 0.000000 0.000000 0.000000 0.000000 0.029042 0.000000
# 6 0.000000 0.000000 0.000000 0.000000 0.000000 0.055717
#
#
# Mechanical properties :
#
#
# Convention : Reuss Voigt Hill
#
# Bulk Modulus (GPa) = 18.36276 43.50491 30.93384
# Shear Modulus (GPa) = 20.69089 27.80873 24.24981
#
# Velocity S-wave (km/s) = 3.04989 3.53578 3.30178
# Velocity P-wave (km/s) = 4.54507 6.01890 5.33314
#
# Compressibility (1/GPa) = 0.05445805
#
# Stress axis : x y z
#
# Youngs Moduli (GPa) = 45.47443 106.35485 22.62924
#
# Poissons Ratio (x) = 0.50137 -0.13258
# Poissons Ratio (y) = 0.21437 0.26493
# Poissons Ratio (z) = -0.26642 1.24513
#
# Static dielectric constant tensor:
#      x y z
#    x 1.833890 0.000000 0.000000 
#    y 0.000000 1.947380 0.000000 
#    z 0.000000 0.000000 1.821800 
# 
# From -- ./inp_files/2292.got.cif
#   From: 2010.05.17/outbox.cif.g08.bks.cpg/sg39_2_cif.got.tgz:2292.got - 2010.06.03 18:22:40.
