data_PCOD9362879
_publ_section_title
;
Structure prediction by ZEFSAII (Michael W. Deem and Ramdas Pophale) SiO2 
 PCOD9362879
Probable space group: A M A 2
;
_chemical_formula_sum "Si O2"
_cell_formula_units_Z 56
_cell_length_a 9.038197
_cell_length_b 19.568923
_cell_length_c 18.233968
_cell_angle_alpha 90.000000
_cell_angle_beta 90.000000
_cell_angle_gamma 90.000000
_cell_volume 3225.001462
_symmetry_space_group_name_H-M "A M A 2"
_symmetry_group_IT_number 40
_symmetry_cell_setting 'orthorhombic'
loop_
_space_group_symop_operation_xyz
x,y,z
-x,-y,z
1/2-x,y,z
1/2+x,-y,z
x,1/2+y,1/2+z
-x,1/2-y,1/2+z
1/2-x,1/2+y,1/2+z
1/2+x,1/2-y,1/2+z
loop_
_atom_site_type_symbol
_atom_site_label
_atom_site_fract_x
_atom_site_fract_y
_atom_site_fract_z
Si Si1 0.428984 0.213378 0.746730
Si Si2 0.572820 0.282007 0.608923
Si Si3 0.420171 0.808358 0.373486
Si Si4 0.079213 0.937019 0.267728
Si Si5 0.426844 0.659688 0.022882
Si Si6 0.072123 0.573424 0.163237
Si Si7 0.925731 0.933186 0.110001
O O1 0.250000 0.220387 0.739794
O O2 0.506837 0.263986 0.688775
O O3 0.467573 0.240036 0.828602
O O4 0.466299 0.136171 0.719320
O O5 0.750000 0.274496 0.611349
O O6 0.496617 0.227413 0.557333
O O7 0.538354 0.358107 0.580644
O O8 0.250000 0.798088 0.398508
O O9 0.421788 0.868178 0.313311
O O10 0.514555 0.837859 0.440370
O O11 0.250000 0.953892 0.251256
O O12 0.988209 0.929307 0.192853
O O13 0.000000 0.000000 0.308604
O O14 0.250000 0.662405 0.023836
O O15 0.469875 0.599919 0.080934
O O16 0.250000 0.566531 0.165467
O O17 0.000000 0.500000 0.178992
O O18 0.750000 0.941476 0.110096
O O19 0.000000 0.000000 0.075229
#
# Coordination Sequence:
#
# PCOD9362879 Si02
#       7
#     8   8   8   8   8   8   8
#     4   9  18  34  54  76 103 136 172 213 266 313
#     4  10  19  32  51  75 100 129 170 215 254 303
#     4  10  20  34  52  74 103 139 175 213 259 312
#     4  10  19  30  46  69 100 136 166 200 242 290
#     4  10  22  36  52  74 103 138 173 214 264 316
#     4   9  19  35  55  78 104 136 174 218 265 315
#     4  10  19  29  46  72  99 128 162 202 245 292
#
# _framework density 17.364332000000001
#
# number of rings (size 3 to 8) (size 9 to 14) (size 15 to 20)
#    0.000    2.286    1.429    3.429    0.000    6.857 
#    0.000    2.857    0.000    0.857    0.000    2.000 
#    0.000    0.000    0.000    0.000    0.000    0.000 
#
# Total GULP energy -155881.824661 kJ/mol
# GULP energy per Si atom -5567.208024 kJ/mol
# Density = 1.732481 g / cm^3
# Si number density = 17.364332 Si / 1000 Ang^3
#
#
#
# Elastic Constant Matrix: (Units=GPa)
#
#
# Indices 1 2 3 4 5 6 
#
# 1 36.8053 31.1932 -0.5752 0.0000 0.0000 0.0000
# 2 31.1932 111.8299 10.3262 0.0000 0.0000 0.0000
# 3 -0.5752 10.3262 21.6994 0.0000 0.0000 0.0000
# 4 0.0000 0.0000 0.0000 5.2970 0.0000 0.0000
# 5 0.0000 0.0000 0.0000 0.0000 21.5408 0.0000
# 6 0.0000 0.0000 0.0000 0.0000 0.0000 33.2472
#
#
#
# Elastic Compliance Matrix: (Units=1/GPa)
#
#
# Indices 1 2 3 4 5 6 
#
# 1 0.036325 -0.010691 0.006051 0.000000 0.000000 0.000000
# 2 -0.010691 0.012500 -0.006232 0.000000 0.000000 0.000000
# 3 0.006051 -0.006232 0.049210 0.000000 0.000000 0.000000
# 4 0.000000 0.000000 0.000000 0.188787 0.000000 0.000000
# 5 0.000000 0.000000 0.000000 0.000000 0.046423 0.000000
# 6 0.000000 0.000000 0.000000 0.000000 0.000000 0.030078
#
#
# Mechanical properties :
#
#
# Convention : Reuss Voigt Hill
#
# Bulk Modulus (GPa) = 13.10774 28.02478 20.56626
# Shear Modulus (GPa) = 12.18032 20.64302 16.41167
#
# Velocity S-wave (km/s) = 2.65137 3.45166 3.07764
# Velocity P-wave (km/s) = 4.11559 5.66212 4.94963
#
# Compressibility (1/GPa) = 0.07629079
#
# Stress axis : x y z
#
# Youngs Moduli (GPa) = 27.52888 80.00193 20.32102
#
# Poissons Ratio (x) = 0.85531 -0.12295
# Poissons Ratio (y) = 0.29431 0.12663
# Poissons Ratio (z) = -0.16657 0.49855
#
# Static dielectric constant tensor:
#      x y z
#    x 1.586910 0.000000 0.000000 
#    y 0.000000 1.642270 0.000000 
#    z 0.000000 0.000000 1.629610 
# 
# From -- ./inp_files/19477.got.cif
#   From: 2010.05.17/outbox.cif.g08.bks.cpg/sg40_10_cif.got.tgz:19477.got - 2010.06.03 18:35:42.
