data_PCOD9362508
_publ_section_title
;
Structure prediction by ZEFSAII (Michael W. Deem and Ramdas Pophale) SiO2 
 PCOD9362508
Probable space group: A M A 2
;
_chemical_formula_sum "Si O2"
_cell_formula_units_Z 48
_cell_length_a 9.567473
_cell_length_b 14.139487
_cell_length_c 18.520399
_cell_angle_alpha 90.000000
_cell_angle_beta 90.000000
_cell_angle_gamma 90.000000
_cell_volume 2505.424022
_symmetry_space_group_name_H-M "A M A 2"
_symmetry_group_IT_number 40
_symmetry_cell_setting 'orthorhombic'
loop_
_space_group_symop_operation_xyz
x,y,z
-x,-y,z
1/2-x,y,z
1/2+x,-y,z
x,1/2+y,1/2+z
-x,1/2-y,1/2+z
1/2-x,1/2+y,1/2+z
1/2+x,1/2-y,1/2+z
loop_
_atom_site_type_symbol
_atom_site_label
_atom_site_fract_x
_atom_site_fract_y
_atom_site_fract_z
Si Si1 0.404942 0.416295 0.666550
Si Si2 0.912624 0.905521 0.369097
Si Si3 0.906832 0.086905 0.994152
Si Si4 0.586922 0.768345 0.239277
Si Si5 0.416964 0.199434 0.518828
Si Si6 0.416344 0.402398 0.147256
O O1 0.500000 0.500000 0.695976
O O2 0.250000 0.418116 0.697243
O O3 0.395441 0.428273 0.580672
O O4 0.484722 0.321318 0.684613
O O5 0.750000 0.927821 0.357274
O O6 0.945322 0.816942 0.315980
O O7 0.929474 0.870266 0.450958
O O8 0.000000 0.000000 0.356770
O O9 0.750000 0.083599 0.963091
O O10 0.958928 0.195274 0.991244
O O11 0.000000 0.000000 0.966004
O O12 0.750000 0.790253 0.222842
O O13 0.570240 0.658036 0.221547
O O14 0.250000 0.205645 0.539377
O O15 0.512237 0.158736 0.582920
O O16 0.500000 0.500000 0.151222
O O17 0.250000 0.416090 0.133394
#
# Coordination Sequence:
#
# PCOD9362508 Si02
#       6
#     8   8   8   8   8   8
#     4  10  18  29  49  77 109 142 177 222 273 325
#     4  10  22  39  59  83 115 150 187 231 283 340
#     4   9  18  31  50  78 110 143 180 224 275 325
#     4  10  21  37  55  80 110 146 186 230 281 334
#     4  10  20  38  60  84 116 152 191 234 282 336
#     4  11  23  38  59  84 113 147 189 237 285 338
#
# _framework density 19.158432999999999
#
# number of rings (size 3 to 8) (size 9 to 14) (size 15 to 20)
#    0.000    2.000    1.667    2.000    0.000    6.000 
#    0.000    0.833    0.000    0.000    0.000    0.000 
#    0.000    0.000    0.000    0.000    0.000    0.000 
#
# Total GULP energy -133759.290904 kJ/mol
# GULP energy per Si atom -5573.303788 kJ/mol
# Density = 1.911483 g / cm^3
# Si number density = 19.158433 Si / 1000 Ang^3
#
#
#
# Elastic Constant Matrix: (Units=GPa)
#
#
# Indices 1 2 3 4 5 6 
#
# 1 80.1886 71.9538 29.1936 0.0000 0.0000 0.0000
# 2 71.9538 146.0810 33.4989 0.0000 0.0000 0.0000
# 3 29.1936 33.4989 50.9133 0.0000 0.0000 0.0000
# 4 0.0000 0.0000 0.0000 16.9821 0.0000 0.0000
# 5 0.0000 0.0000 0.0000 0.0000 29.1579 0.0000
# 6 0.0000 0.0000 0.0000 0.0000 0.0000 29.3578
#
#
#
# Elastic Compliance Matrix: (Units=1/GPa)
#
#
# Indices 1 2 3 4 5 6 
#
# 1 0.024378 -0.010366 -0.007158 0.000000 0.000000 0.000000
# 2 -0.010366 0.012470 -0.002261 0.000000 0.000000 0.000000
# 3 -0.007158 -0.002261 0.025233 0.000000 0.000000 0.000000
# 4 0.000000 0.000000 0.000000 0.058886 0.000000 0.000000
# 5 0.000000 0.000000 0.000000 0.000000 0.034296 0.000000
# 6 0.000000 0.000000 0.000000 0.000000 0.000000 0.034063
#
#
# Mechanical properties :
#
#
# Convention : Reuss Voigt Hill
#
# Bulk Modulus (GPa) = 44.42177 60.71949 52.57063
# Shear Modulus (GPa) = 21.15067 24.60198 22.87632
#
# Velocity S-wave (km/s) = 3.32623 3.58737 3.45927
# Velocity P-wave (km/s) = 6.16349 6.99436 6.59203
#
# Compressibility (1/GPa) = 0.02251148
#
# Stress axis : x y z
#
# Youngs Moduli (GPa) = 41.02000 80.19225 39.63073
#
# Poissons Ratio (x) = 0.83131 0.28367
# Poissons Ratio (y) = 0.42523 0.08959
# Poissons Ratio (z) = 0.29361 0.18129
#
# Static dielectric constant tensor:
#      x y z
#    x 1.666650 0.000000 0.000000 
#    y 0.000000 1.699580 0.000000 
#    z 0.000000 0.000000 1.691220 
# 
# From -- ./inp_files/19221.got.cif
#   From: 2010.05.17/outbox.cif.g08.bks.cpg/sg40_10_cif.got.tgz:19221.got - 2010.06.03 18:35:42.
