data_PCOD9362813
_publ_section_title
;
Structure prediction by ZEFSAII (Michael W. Deem and Ramdas Pophale) SiO2 
 PCOD9362813
Probable space group: A M A 2
;
_chemical_formula_sum "Si O2"
_cell_formula_units_Z 56
_cell_length_a 15.615875
_cell_length_b 22.209579
_cell_length_c 8.639574
_cell_angle_alpha 90.000000
_cell_angle_beta 90.000000
_cell_angle_gamma 90.000000
_cell_volume 2996.394416
_symmetry_space_group_name_H-M "A M A 2"
_symmetry_group_IT_number 40
_symmetry_cell_setting 'orthorhombic'
loop_
_space_group_symop_operation_xyz
x,y,z
-x,-y,z
1/2-x,y,z
1/2+x,-y,z
x,1/2+y,1/2+z
-x,1/2-y,1/2+z
1/2-x,1/2+y,1/2+z
1/2+x,1/2-y,1/2+z
loop_
_atom_site_type_symbol
_atom_site_label
_atom_site_fract_x
_atom_site_fract_y
_atom_site_fract_z
Si Si1 0.524324 0.824025 0.846910
Si Si2 0.981874 0.434679 0.121899
Si Si3 0.405708 0.401619 0.848613
Si Si4 0.919242 0.861568 0.188624
Si Si5 0.349726 0.265655 0.257791
Si Si6 0.153201 0.532655 0.851435
Si Si7 0.656438 0.725315 0.885327
O O1 0.540284 0.879873 0.733114
O O2 0.424149 0.805009 0.838777
O O3 0.581232 0.764780 0.809336
O O4 0.558673 0.843608 0.014354
O O5 0.000000 0.500000 0.197672
O O6 0.909797 0.447986 0.991482
O O7 0.065643 0.413698 0.025945
O O8 0.491521 0.381721 0.762618
O O9 0.371643 0.465953 0.794616
O O10 0.346373 0.343882 0.834547
O O11 0.877239 0.804290 0.274469
O O12 0.858737 0.918725 0.215856
O O13 0.250000 0.275429 0.303785
O O14 0.355308 0.276265 0.071850
O O15 0.250000 0.531855 0.907636
O O16 0.750000 0.752236 0.853356
#
# Coordination Sequence:
#
# PCOD9362813 Si02
#       7
#     8   8   8   8   8   8   8
#     4  11  21  37  61  85 123 153 190 246 299 350
#     4   9  20  36  59  83 110 154 201 237 290 339
#     4  10  18  37  59  81 113 154 196 240 282 343
#     4  10  21  35  58  84 119 156 194 231 300 355
#     4  10  20  36  58  84 116 155 193 238 294 352
#     4  10  21  37  58  84 114 157 203 243 283 347
#     4  10  20  34  59  88 115 152 193 237 292 348
#
# _framework density 18.689129000000001
#
# number of rings (size 3 to 8) (size 9 to 14) (size 15 to 20)
#    0.000    2.000    2.857    2.143    0.000    2.286 
#    0.000    1.429    0.000    0.000    0.000    0.000 
#    0.000    0.000    0.000    0.000    0.000    0.000 
#
# Total GULP energy -156012.014216 kJ/mol
# GULP energy per Si atom -5571.857651 kJ/mol
# Density = 1.864659 g / cm^3
# Si number density = 18.689129 Si / 1000 Ang^3
#
#
#
# Elastic Constant Matrix: (Units=GPa)
#
#
# Indices 1 2 3 4 5 6 
#
# 1 108.2773 42.9508 3.5108 0.0000 0.0000 0.0000
# 2 42.9508 151.0644 29.6992 0.0000 0.0000 0.0000
# 3 3.5108 29.6992 20.1441 0.0000 0.0000 0.0000
# 4 0.0000 0.0000 0.0000 17.6455 0.0000 0.0000
# 5 0.0000 0.0000 0.0000 0.0000 15.0212 0.0000
# 6 0.0000 0.0000 0.0000 0.0000 0.0000 20.2099
#
#
#
# Elastic Compliance Matrix: (Units=1/GPa)
#
#
# Indices 1 2 3 4 5 6 
#
# 1 0.010597 -0.003731 0.003655 0.000000 0.000000 0.000000
# 2 -0.003731 0.010636 -0.015030 0.000000 0.000000 0.000000
# 3 0.003655 -0.015030 0.071165 0.000000 0.000000 0.000000
# 4 0.000000 0.000000 0.000000 0.056672 0.000000 0.000000
# 5 0.000000 0.000000 0.000000 0.000000 0.066573 0.000000
# 6 0.000000 0.000000 0.000000 0.000000 0.000000 0.049481
#
#
# Mechanical properties :
#
#
# Convention : Reuss Voigt Hill
#
# Bulk Modulus (GPa) = 16.08141 47.97859 32.03000
# Shear Modulus (GPa) = 15.81954 24.13029 19.97491
#
# Velocity S-wave (km/s) = 2.91255 3.59714 3.27280
# Velocity P-wave (km/s) = 4.46475 6.55593 5.60866
#
# Compressibility (1/GPa) = 0.06218362
#
# Stress axis : x y z
#
# Youngs Moduli (GPa) = 94.36423 94.02446 14.05189
#
# Poissons Ratio (x) = 0.35085 -0.05135
# Poissons Ratio (y) = 0.35212 0.21120
# Poissons Ratio (z) = -0.34486 1.41319
#
# Static dielectric constant tensor:
#      x y z
#    x 1.666980 0.000000 0.000000 
#    y 0.000000 1.686470 0.000000 
#    z 0.000000 0.000000 1.643560 
# 
# From -- ./inp_files/6710.got.cif
#   From: 2010.05.17/outbox.cif.g08.bks.cpg/sg40_4_cif.got.tgz:6710.got - 2010.06.03 18:35:42.
