data_PCOD9362568
_publ_section_title
;
Structure prediction by ZEFSAII (Michael W. Deem and Ramdas Pophale) SiO2 
 PCOD9362568
Probable space group: A M A 2
;
_chemical_formula_sum "Si O2"
_cell_formula_units_Z 52
_cell_length_a 15.208855
_cell_length_b 8.142657
_cell_length_c 22.087774
_cell_angle_alpha 90.000000
_cell_angle_beta 90.000000
_cell_angle_gamma 90.000000
_cell_volume 2735.360747
_symmetry_space_group_name_H-M "A M A 2"
_symmetry_group_IT_number 40
_symmetry_cell_setting 'orthorhombic'
loop_
_space_group_symop_operation_xyz
x,y,z
-x,-y,z
1/2-x,y,z
1/2+x,-y,z
x,1/2+y,1/2+z
-x,1/2-y,1/2+z
1/2-x,1/2+y,1/2+z
1/2+x,1/2-y,1/2+z
loop_
_atom_site_type_symbol
_atom_site_label
_atom_site_fract_x
_atom_site_fract_y
_atom_site_fract_z
Si Si1 0.750000 0.693287 0.009830
Si Si2 0.648669 0.498060 0.302360
Si Si3 0.355555 0.323979 0.739832
Si Si4 0.750000 0.998550 0.919746
Si Si5 0.855370 0.820059 0.239954
Si Si6 0.750000 0.803326 0.510180
Si Si7 0.101323 0.806970 0.608888
Si Si8 0.600854 0.305117 0.108983
O O1 0.750000 0.498200 0.991473
O O2 0.834030 0.722418 0.053107
O O3 0.750000 0.830847 0.958013
O O4 0.750000 0.497818 0.277085
O O5 0.608608 0.330603 0.277323
O O6 0.666457 0.498882 0.373911
O O7 0.608334 0.664850 0.276888
O O8 0.250000 0.329322 0.748485
O O9 0.390749 0.501997 0.757958
O O10 0.373570 0.292545 0.669133
O O11 0.750000 0.165390 0.958494
O O12 0.750000 0.824991 0.249435
O O13 0.872408 0.790053 0.169044
O O14 0.665856 0.774799 0.553437
O O15 0.000308 0.772192 0.593363
O O16 0.109530 0.000937 0.624231
#
# Coordination Sequence:
#
# PCOD9362568 Si02
#       8
#     4   8   8   4   8   4   8   8
#     4  10  22  37  55  79 115 152 194 235 274 328
#     4   8  18  34  53  80 115 141 189 237 271 331
#     4  10  18  30  55  85 111 144 177 228 290 335
#     4  10  22  36  58  84 108 160 208 222 276 340
#     4  10  18  30  55  85 111 144 177 228 290 335
#     4  10  22  37  55  79 115 152 194 235 274 328
#     4  10  20  34  56  85 118 149 181 231 292 343
#     4  10  20  34  56  85 118 149 181 231 292 343
#
# _framework density 19.010289
#
# number of rings (size 3 to 8) (size 9 to 14) (size 15 to 20)
#    0.462    1.846    3.077    0.000    2.154    1.846 
#    0.000    0.000    0.000    3.692    0.000    4.308 
#    0.000    0.000    0.000    0.000    0.000    0.000 
#
# Total GULP energy -144910.500741 kJ/mol
# GULP energy per Si atom -5573.480798 kJ/mol
# Density = 1.896702 g / cm^3
# Si number density = 19.010289 Si / 1000 Ang^3
#
#
#
# Elastic Constant Matrix: (Units=GPa)
#
#
# Indices 1 2 3 4 5 6 
#
# 1 66.9346 42.9787 17.4329 0.0000 0.0000 0.0000
# 2 42.9787 188.9206 101.4828 0.0000 0.0000 0.0000
# 3 17.4329 101.4828 103.5467 0.0000 0.0000 0.0000
# 4 0.0000 0.0000 0.0000 7.5447 0.0000 0.0000
# 5 0.0000 0.0000 0.0000 0.0000 -8.3165 0.0000
# 6 0.0000 0.0000 0.0000 0.0000 0.0000 5.1766
#
#
#
# Elastic Compliance Matrix: (Units=1/GPa)
#
#
# Indices 1 2 3 4 5 6 
#
# 1 0.017698 -0.005122 0.002041 0.000000 0.000000 0.000000
# 2 -0.005122 0.012661 -0.011546 0.000000 0.000000 0.000000
# 3 0.002041 -0.011546 0.020630 0.000000 0.000000 0.000000
# 4 0.000000 0.000000 0.000000 0.132544 0.000000 0.000000
# 5 0.000000 0.000000 0.000000 0.000000 -0.120243 0.000000
# 6 0.000000 0.000000 0.000000 0.000000 0.000000 0.193178
#
#
# Mechanical properties :
#
#
# Convention : Reuss Voigt Hill
#
# Bulk Modulus (GPa) = 46.01341 75.91007 60.96174
# Shear Modulus (GPa) = 17.06677 14.04811 15.55744
#
# Velocity S-wave (km/s) = 2.99952 2.72136 2.86382
# Velocity P-wave (km/s) = 6.02106 7.06343 6.56298
#
# Compressibility (1/GPa) = 0.02173280
#
# Stress axis : x y z
#
# Youngs Moduli (GPa) = 56.50515 78.98454 48.47374
#
# Poissons Ratio (x) = 0.40459 -0.09892
# Poissons Ratio (y) = 0.28944 0.55968
# Poissons Ratio (z) = -0.11531 0.91195
#
# Static dielectric constant tensor:
#      x y z
#    x 1.663390 0.000000 0.000000 
#    y 0.000000 1.730930 0.000000 
#    z 0.000000 0.000000 1.616000 
# 
# From -- ./inp_files/21113.got.cif
#   From: 2010.05.17/outbox.cif.g08.bks.cpg/sg40_11_cif.got.tgz:21113.got - 2010.06.03 18:35:42.
