data_PCOD9362844
_publ_section_title
;
Structure prediction by ZEFSAII (Michael W. Deem and Ramdas Pophale) SiO2 
 PCOD9362844
Probable space group: A M A 2
;
_chemical_formula_sum "Si O2"
_cell_formula_units_Z 40
_cell_length_a 16.561751
_cell_length_b 9.110943
_cell_length_c 11.619452
_cell_angle_alpha 90.000000
_cell_angle_beta 90.000000
_cell_angle_gamma 90.000000
_cell_volume 1753.295938
_symmetry_space_group_name_H-M "A M A 2"
_symmetry_group_IT_number 40
_symmetry_cell_setting 'orthorhombic'
loop_
_space_group_symop_operation_xyz
x,y,z
-x,-y,z
1/2-x,y,z
1/2+x,-y,z
x,1/2+y,1/2+z
-x,1/2-y,1/2+z
1/2-x,1/2+y,1/2+z
1/2+x,1/2-y,1/2+z
loop_
_atom_site_type_symbol
_atom_site_label
_atom_site_fract_x
_atom_site_fract_y
_atom_site_fract_z
Si Si1 0.427495 0.396301 0.368690
Si Si2 0.250000 0.712114 0.647349
Si Si3 0.250000 0.864920 0.903857
Si Si4 0.750000 0.551929 0.770123
Si Si5 0.079036 0.548977 0.878315
Si Si6 0.250000 0.665463 0.131902
Si Si7 0.114575 0.420314 0.113059
O O1 0.500000 0.500000 0.412726
O O2 0.336269 0.447514 0.401086
O O3 0.426745 0.223363 0.400819
O O4 0.433933 0.394105 0.229326
O O5 0.250000 0.777432 0.779742
O O6 0.250000 0.539455 0.651333
O O7 0.171105 0.780082 0.593156
O O8 0.250000 0.752272 0.010716
O O9 0.833476 0.498945 0.828802
O O10 0.750000 0.721011 0.736815
O O11 0.000000 0.500000 0.805794
O O12 0.073460 0.455442 0.994520
O O13 0.173277 0.558986 0.135607
#
# Coordination Sequence:
#
# PCOD9362844 Si02
#       7
#     8   4   4   4   8   4   8
#     4  11  23  43  72  99 134 178 231 284 338 413
#     4   9  17  39  73  92 122 182 223 269 340 402
#     4  10  18  45  66  89 135 176 215 280 331 394
#     4  12  23  45  66 100 148 172 223 299 335 406
#     4  12  25  46  70 101 137 182 228 288 343 413
#     4  11  22  37  71 103 129 182 231 278 344 410
#     4  10  20  43  71  94 127 184 231 267 344 418
#
# _framework density 22.814176
#
# number of rings (size 3 to 8) (size 9 to 14) (size 15 to 20)
#    0.000    1.200    6.000    2.400    2.800    0.000 
#    3.600    1.000    0.000    0.000    0.000    0.000 
#    0.000    0.000    0.000    0.000    0.000    0.000 
#
# Total GULP energy -111612.472950 kJ/mol
# GULP energy per Si atom -5580.623648 kJ/mol
# Density = 2.276225 g / cm^3
# Si number density = 22.814176 Si / 1000 Ang^3
#
#
#
# Elastic Constant Matrix: (Units=GPa)
#
#
# Indices 1 2 3 4 5 6 
#
# 1 146.8034 18.4660 -4.7536 0.0000 0.0000 0.0000
# 2 18.4660 46.7129 0.9107 0.0000 0.0000 0.0000
# 3 -4.7536 0.9107 56.1840 0.0000 0.0000 0.0000
# 4 0.0000 0.0000 0.0000 34.8127 0.0000 0.0000
# 5 0.0000 0.0000 0.0000 0.0000 59.2111 0.0000
# 6 0.0000 0.0000 0.0000 0.0000 0.0000 -1.7039
#
#
#
# Elastic Compliance Matrix: (Units=1/GPa)
#
#
# Indices 1 2 3 4 5 6 
#
# 1 0.007192 -0.002856 0.000655 0.000000 0.000000 0.000000
# 2 -0.002856 0.022548 -0.000607 0.000000 0.000000 0.000000
# 3 0.000655 -0.000607 0.017864 0.000000 0.000000 0.000000
# 4 0.000000 0.000000 0.000000 0.028725 0.000000 0.000000
# 5 0.000000 0.000000 0.000000 0.000000 0.016889 0.000000
# 6 0.000000 0.000000 0.000000 0.000000 0.000000 -0.586893
#
#
# Mechanical properties :
#
#
# Convention : Reuss Voigt Hill
#
# Bulk Modulus (GPa) = 23.81641 30.99407 27.40524
# Shear Modulus (GPa) = -10.54714 34.13579 11.79433
#
# Velocity S-wave (km/s) = -2.15246 3.87234 2.27617
# Velocity P-wave (km/s) = 2.06990 5.79727 4.35275
#
# Compressibility (1/GPa) = 0.04198785
#
# Stress axis : x y z
#
# Youngs Moduli (GPa) = 139.03802 44.34953 55.97886
#
# Poissons Ratio (x) = 0.12666 -0.03666
# Poissons Ratio (y) = 0.39708 0.03398
# Poissons Ratio (z) = -0.09104 0.02692
#
# Static dielectric constant tensor:
#      x y z
#    x 1.953430 0.000000 0.000000 
#    y 0.000000 1.837480 0.000000 
#    z 0.000000 0.000000 1.884500 
# 
# From -- ./inp_files/12755.got.cif
#   From: 2010.05.17/outbox.cif.g08.bks.cpg/sg40_7_cif.got.tgz:12755.got - 2010.06.03 18:35:42.
