data_PCOD9362256
_publ_section_title
;
Structure prediction by ZEFSAII (Michael W. Deem and Ramdas Pophale) SiO2 
 PCOD9362256
Probable space group: A M A 2
;
_chemical_formula_sum "Si O2"
_cell_formula_units_Z 56
_cell_length_a 14.765148
_cell_length_b 19.407572
_cell_length_c 7.141676
_cell_angle_alpha 90.000000
_cell_angle_beta 90.000000
_cell_angle_gamma 90.000000
_cell_volume 2046.487772
_symmetry_space_group_name_H-M "A M A 2"
_symmetry_group_IT_number 40
_symmetry_cell_setting 'orthorhombic'
loop_
_space_group_symop_operation_xyz
x,y,z
-x,-y,z
1/2-x,y,z
1/2+x,-y,z
x,1/2+y,1/2+z
-x,1/2-y,1/2+z
1/2-x,1/2+y,1/2+z
1/2+x,1/2-y,1/2+z
loop_
_atom_site_type_symbol
_atom_site_label
_atom_site_fract_x
_atom_site_fract_y
_atom_site_fract_z
Si Si1 0.353964 0.654770 0.259790
Si Si2 0.359095 0.505434 0.327562
Si Si3 0.348374 0.847230 0.491164
Si Si4 0.347343 0.140400 0.309013
Si Si5 0.603725 0.507373 0.883521
Si Si6 0.146913 0.863810 0.938245
Si Si7 0.012133 0.245584 0.379287
O O1 0.250000 0.672376 0.308962
O O2 0.378655 0.584788 0.370913
O O3 0.351401 0.644262 0.035982
O O4 0.436039 0.705353 0.292737
O O5 0.250000 0.499440 0.324136
O O6 0.390762 0.500051 0.111354
O O7 0.390761 0.442274 0.457943
O O8 0.250000 0.815470 0.445663
O O9 0.356846 0.916175 0.365082
O O10 0.344997 0.862290 0.711833
O O11 0.443007 0.808505 0.471918
O O12 0.250000 0.166469 0.244079
O O13 0.424083 0.194996 0.252844
O O14 0.351695 0.058130 0.283095
O O15 0.500000 0.500000 0.832841
O O16 0.250000 0.854773 0.010428
O O17 0.082289 0.799019 0.980265
#
# Coordination Sequence:
#
# PCOD9362256 Si02
#       7
#     8   8   8   8   8   8   8
#     4   9  19  33  49  71 100 129 159 196 241 289
#     4   8  16  30  48  70  96 125 154 194 247 292
#     4  10  20  34  49  71 102 131 158 197 243 288
#     4  10  20  34  49  71 102 131 158 197 243 288
#     4  10  16  28  50  73  93 122 158 197 242 292
#     4   9  19  33  49  71 100 129 159 196 241 289
#     4  12  20  28  46  74 102 132 160 192 234 294
#
# _framework density 27.363956999999999
#
# number of rings (size 3 to 8) (size 9 to 14) (size 15 to 20)
#    0.000    2.286    1.429    4.714    6.000    0.000 
#    0.000    0.000    0.000    0.000    0.000   16.000 
#    0.000   36.571    0.000    0.000    0.000    0.000 
#
# Total GULP energy -156501.843837 kJ/mol
# GULP energy per Si atom -5589.351566 kJ/mol
# Density = 2.730168 g / cm^3
# Si number density = 27.363957 Si / 1000 Ang^3
#
#
#
# Elastic Constant Matrix: (Units=GPa)
#
#
# Indices 1 2 3 4 5 6 
#
# 1 214.9775 93.4312 9.1214 0.0000 0.0000 0.0000
# 2 93.4312 208.7524 21.8476 0.0000 0.0000 0.0000
# 3 9.1214 21.8476 90.1598 0.0000 0.0000 0.0000
# 4 0.0000 0.0000 0.0000 29.2952 0.0000 0.0000
# 5 0.0000 0.0000 0.0000 0.0000 4.7551 0.0000
# 6 0.0000 0.0000 0.0000 0.0000 0.0000 49.4467
#
#
#
# Elastic Compliance Matrix: (Units=1/GPa)
#
#
# Indices 1 2 3 4 5 6 
#
# 1 0.005775 -0.002589 0.000043 0.000000 0.000000 0.000000
# 2 -0.002589 0.006076 -0.001210 0.000000 0.000000 0.000000
# 3 0.000043 -0.001210 0.011380 0.000000 0.000000 0.000000
# 4 0.000000 0.000000 0.000000 0.034135 0.000000 0.000000
# 5 0.000000 0.000000 0.000000 0.000000 0.210302 0.000000
# 6 0.000000 0.000000 0.000000 0.000000 0.000000 0.020224
#
#
# Mechanical properties :
#
#
# Convention : Reuss Voigt Hill
#
# Bulk Modulus (GPa) = 63.61951 84.74332 74.18141
# Shear Modulus (GPa) = 16.63089 42.66535 29.64812
#
# Velocity S-wave (km/s) = 2.46797 3.95293 3.29519
# Velocity P-wave (km/s) = 5.60544 7.20211 6.45335
#
# Compressibility (1/GPa) = 0.01571845
#
# Stress axis : x y z
#
# Youngs Moduli (GPa) = 173.15564 164.58383 87.87075
#
# Poissons Ratio (x) = 0.42616 -0.00379
# Poissons Ratio (y) = 0.44835 0.10636
# Poissons Ratio (z) = -0.00748 0.19921
#
# Static dielectric constant tensor:
#      x y z
#    x 2.047510 0.000000 0.000000 
#    y 0.000000 2.217180 0.000000 
#    z 0.000000 0.000000 2.309820 
# 
# From -- ./inp_files/17150.got.cif
#   From: 2010.05.17/outbox.cif.g08.bks.cpg/sg40_9_cif.got.tgz:17150.got - 2010.06.03 18:35:42.
