data_PCOD9362134
_publ_section_title
;
Structure prediction by ZEFSAII (Michael W. Deem and Ramdas Pophale) SiO2 
 PCOD9362134
Probable space group: A B M 2
;
_chemical_formula_sum "Si O2"
_cell_formula_units_Z 36
_cell_length_a 5.019548
_cell_length_b 15.034670
_cell_length_c 19.871482
_cell_angle_alpha 90.000000
_cell_angle_beta 90.000000
_cell_angle_gamma 90.000000
_cell_volume 1499.646055
_symmetry_space_group_name_H-M "A B M 2"
_symmetry_group_IT_number 39
_symmetry_cell_setting 'orthorhombic'
loop_
_space_group_symop_operation_xyz
x,y,z
-x,-y,z
-x,1/2+y,z
x,1/2-y,z
x,1/2+y,1/2+z
-x,1/2-y,1/2+z
-x,y,1/2+z
x,-y,1/2+z
loop_
_atom_site_type_symbol
_atom_site_label
_atom_site_fract_x
_atom_site_fract_y
_atom_site_fract_z
Si Si1 0.150054 0.905244 0.989500
Si Si2 0.735354 0.250000 0.701856
Si Si3 0.342732 0.350609 0.909485
Si Si4 0.572644 0.398282 0.262382
Si Si5 0.945981 0.605709 0.639481
O O1 0.427343 0.900989 0.950673
O O2 0.931252 0.848830 0.950092
O O3 0.187188 0.879413 0.067321
O O4 0.000000 0.000000 0.990558
O O5 0.668578 0.170732 0.757374
O O6 0.803102 0.329599 0.646489
O O7 0.435812 0.250000 0.899921
O O8 0.302860 0.393609 0.836197
O O9 0.500000 0.500000 0.247714
O O10 0.765673 0.364203 0.202741
O O11 0.000000 0.500000 0.646588
#
# Coordination Sequence:
#
# PCOD9362134 Si02
#       5
#     8   4   8   8   8
#     4  11  27  49  74 107 149 198 246 305 374 444
#     4  12  26  46  74 108 144 196 242 308 366 442
#     4  12  28  47  73 109 149 198 250 305 371 445
#     4  12  26  47  76 107 149 192 247 308 373 442
#     4  11  27  46  76 108 148 191 249 307 374 441
#
# _framework density 24.005666999999999
#
# number of rings (size 3 to 8) (size 9 to 14) (size 15 to 20)
#    0.000    0.444    3.333    3.333    9.333    0.889 
#    0.000    0.000    0.000    0.000    0.000    0.000 
#    0.000    0.000    0.000    0.000    0.000    0.000 
#
# Total GULP energy -100204.401646 kJ/mol
# GULP energy per Si atom -5566.911203 kJ/mol
# Density = 2.395103 g / cm^3
# Si number density = 24.005667 Si / 1000 Ang^3
#
#
#
# Elastic Constant Matrix: (Units=GPa)
#
#
# Indices 1 2 3 4 5 6 
#
# 1 90.4919 2.9042 51.2222 0.0000 0.0000 0.0000
# 2 2.9042 145.9285 2.9707 0.0000 0.0000 0.0000
# 3 51.2222 2.9707 189.2476 0.0000 0.0000 0.0000
# 4 0.0000 0.0000 0.0000 -33.8076 0.0000 0.0000
# 5 0.0000 0.0000 0.0000 0.0000 45.5063 0.0000
# 6 0.0000 0.0000 0.0000 0.0000 0.0000 -3.1436
#
#
#
# Elastic Compliance Matrix: (Units=1/GPa)
#
#
# Indices 1 2 3 4 5 6 
#
# 1 0.013055 -0.000188 -0.003531 0.000000 0.000000 0.000000
# 2 -0.000188 0.006858 -0.000057 0.000000 0.000000 0.000000
# 3 -0.003531 -0.000057 0.006241 0.000000 0.000000 0.000000
# 4 0.000000 0.000000 0.000000 -0.029579 0.000000 0.000000
# 5 0.000000 0.000000 0.000000 0.000000 0.021975 0.000000
# 6 0.000000 0.000000 0.000000 0.000000 0.000000 -0.318103
#
#
# Mechanical properties :
#
#
# Convention : Reuss Voigt Hill
#
# Bulk Modulus (GPa) = 53.75564 59.98469 56.87016
# Shear Modulus (GPa) = -17.49459 26.28241 4.39391
#
# Velocity S-wave (km/s) = -2.70250 3.31243 1.35438
# Velocity P-wave (km/s) = 3.56420 6.29854 5.11737
#
# Compressibility (1/GPa) = 0.01860270
#
# Stress axis : x y z
#
# Youngs Moduli (GPa) = 76.59776 145.82431 160.24167
#
# Poissons Ratio (x) = 0.02741 0.56575
# Poissons Ratio (y) = 0.01440 0.00910
# Poissons Ratio (z) = 0.27044 0.00828
#
# Static dielectric constant tensor:
#      x y z
#    x 2.044590 0.000000 0.000000 
#    y 0.000000 2.064860 0.000000 
#    z 0.000000 0.000000 1.906200 
# 
# From -- ./inp_files/13385.got.cif
#   From: 2010.05.17/outbox.cif.g08.bks.cpg/sg39_7_cif.got.tgz:13385.got - 2010.06.03 18:22:40.
