data_PCOD9362602
_publ_section_title
;
Structure prediction by ZEFSAII (Michael W. Deem and Ramdas Pophale) SiO2 
 PCOD9362602
Probable space group: A M A 2
;
_chemical_formula_sum "Si O2"
_cell_formula_units_Z 48
_cell_length_a 13.314123
_cell_length_b 11.324337
_cell_length_c 17.899162
_cell_angle_alpha 90.000000
_cell_angle_beta 90.000000
_cell_angle_gamma 90.000000
_cell_volume 2698.721373
_symmetry_space_group_name_H-M "A M A 2"
_symmetry_group_IT_number 40
_symmetry_cell_setting 'orthorhombic'
loop_
_space_group_symop_operation_xyz
x,y,z
-x,-y,z
1/2-x,y,z
1/2+x,-y,z
x,1/2+y,1/2+z
-x,1/2-y,1/2+z
1/2-x,1/2+y,1/2+z
1/2+x,1/2-y,1/2+z
loop_
_atom_site_type_symbol
_atom_site_label
_atom_site_fract_x
_atom_site_fract_y
_atom_site_fract_z
Si Si1 0.933704 0.681442 0.148910
Si Si2 0.362221 0.073229 0.430700
Si Si3 0.365497 0.219149 0.291958
Si Si4 0.931707 0.181796 0.477289
Si Si5 0.635106 0.922337 0.702561
Si Si6 0.959825 0.378262 0.362434
O O1 0.896407 0.781881 0.205588
O O2 0.884291 0.557349 0.176407
O O3 0.052497 0.657050 0.160200
O O4 0.907731 0.703558 0.063413
O O5 0.250000 0.110365 0.452671
O O6 0.374074 0.101879 0.342402
O O7 0.450104 0.145960 0.471027
O O8 0.376984 0.936252 0.448688
O O9 0.250000 0.259071 0.297466
O O10 0.443354 0.309864 0.329178
O O11 0.911917 0.291253 0.422872
O O12 0.750000 0.890740 0.688383
O O13 0.608463 0.909043 0.790518
O O14 0.000000 0.500000 0.396314
#
# Coordination Sequence:
#
# PCOD9362602 Si02
#       6
#     8   8   8   8   8   8
#     4  10  19  31  49  78 105 132 170 216 267 308
#     4   9  18  33  52  76 102 137 174 212 260 307
#     4   9  17  32  54  74  98 135 177 212 250 313
#     4  10  21  33  52  79 111 130 169 225 260 307
#     4  10  18  31  53  76 102 135 178 220 254 306
#     4  10  19  34  53  77 105 136 179 210 257 311
#
# _framework density 17.786200000000001
#
# number of rings (size 3 to 8) (size 9 to 14) (size 15 to 20)
#    0.000    2.333    3.333    2.500    0.000    4.000 
#    0.000    0.000   11.000    0.000    0.000    0.000 
#    0.000    0.000    0.000    0.000    0.000    0.000 
#
# Total GULP energy -133754.673060 kJ/mol
# GULP energy per Si atom -5573.111378 kJ/mol
# Density = 1.774572 g / cm^3
# Si number density = 17.786200 Si / 1000 Ang^3
#
#
#
# Elastic Constant Matrix: (Units=GPa)
#
#
# Indices 1 2 3 4 5 6 
#
# 1 82.5255 -7.7236 10.1162 0.0000 0.0000 0.0000
# 2 -7.7236 32.8585 41.5199 0.0000 0.0000 0.0000
# 3 10.1162 41.5199 144.3205 0.0000 0.0000 0.0000
# 4 0.0000 0.0000 0.0000 22.6150 0.0000 0.0000
# 5 0.0000 0.0000 0.0000 0.0000 6.7436 0.0000
# 6 0.0000 0.0000 0.0000 0.0000 0.0000 4.5903
#
#
#
# Elastic Compliance Matrix: (Units=1/GPa)
#
#
# Indices 1 2 3 4 5 6 
#
# 1 0.013087 0.006655 -0.002832 0.000000 0.000000 0.000000
# 2 0.006655 0.051199 -0.015196 0.000000 0.000000 0.000000
# 3 -0.002832 -0.015196 0.011499 0.000000 0.000000 0.000000
# 4 0.000000 0.000000 0.000000 0.044218 0.000000 0.000000
# 5 0.000000 0.000000 0.000000 0.000000 0.148289 0.000000
# 6 0.000000 0.000000 0.000000 0.000000 0.000000 0.217853
#
#
# Mechanical properties :
#
#
# Convention : Reuss Voigt Hill
#
# Bulk Modulus (GPa) = 18.85391 38.61438 28.73414
# Shear Modulus (GPa) = 9.49537 21.17591 15.33564
#
# Velocity S-wave (km/s) = 2.31305 3.45422 2.93955
# Velocity P-wave (km/s) = 4.21390 6.13729 5.26418
#
# Compressibility (1/GPa) = 0.05303940
#
# Stress axis : x y z
#
# Youngs Moduli (GPa) = 76.40937 19.53145 86.96161
#
# Poissons Ratio (x) = -0.12997 0.24626
# Poissons Ratio (y) = -0.50847 1.32148
# Poissons Ratio (z) = 0.21638 0.29680
#
# Static dielectric constant tensor:
#      x y z
#    x 1.633330 0.000000 0.000000 
#    y 0.000000 1.596630 0.000000 
#    z 0.000000 0.000000 1.630160 
# 
# From -- ./inp_files/20637.got.cif
#   From: 2010.05.17/outbox.cif.g08.bks.cpg/sg40_11_cif.got.tgz:20637.got - 2010.06.03 18:35:42.
