data_PCOD9362418
_publ_section_title
;
Structure prediction by ZEFSAII (Michael W. Deem and Ramdas Pophale) SiO2 
 PCOD9362418
Probable space group: A M A 2
;
_chemical_formula_sum "Si O2"
_cell_formula_units_Z 64
_cell_length_a 8.980088
_cell_length_b 18.821696
_cell_length_c 26.867093
_cell_angle_alpha 90.000000
_cell_angle_beta 90.000000
_cell_angle_gamma 90.000000
_cell_volume 4541.089127
_symmetry_space_group_name_H-M "A M A 2"
_symmetry_group_IT_number 40
_symmetry_cell_setting 'orthorhombic'
loop_
_space_group_symop_operation_xyz
x,y,z
-x,-y,z
1/2-x,y,z
1/2+x,-y,z
x,1/2+y,1/2+z
-x,1/2-y,1/2+z
1/2-x,1/2+y,1/2+z
1/2+x,1/2-y,1/2+z
loop_
_atom_site_type_symbol
_atom_site_label
_atom_site_fract_x
_atom_site_fract_y
_atom_site_fract_z
Si Si1 0.926561 0.423892 0.977640
Si Si2 0.070871 0.836286 0.386353
Si Si3 0.928438 0.923525 0.300353
Si Si4 0.573802 0.163846 0.099989
Si Si5 0.927494 0.577238 0.498319
Si Si6 0.925961 0.798811 0.944537
Si Si7 0.073532 0.075371 0.183904
Si Si8 0.925760 0.286960 0.032766
O O1 0.750000 0.431147 0.968518
O O2 0.000000 0.500000 0.985053
O O3 0.000871 0.384683 0.930305
O O4 0.946689 0.370525 0.024567
O O5 0.250000 0.844069 0.386742
O O6 0.035720 0.753775 0.398923
O O7 0.001173 0.864732 0.335525
O O8 0.750000 0.926355 0.307151
O O9 0.960826 0.910555 0.241980
O O10 0.000000 0.000000 0.313397
O O11 0.750000 0.155770 0.109145
O O12 0.486089 0.135182 0.147030
O O13 0.544902 0.245471 0.083869
O O14 0.537001 0.116178 0.051069
O O15 0.750000 0.572061 0.495124
O O16 0.000000 0.500000 0.497097
O O17 0.988230 0.628102 0.454435
O O18 0.750000 0.812137 0.944045
O O19 0.971510 0.750808 0.991979
O O20 0.250000 0.068505 0.179040
O O21 0.000000 0.000000 0.170202
O O22 0.750000 0.271922 0.020745
#
# Coordination Sequence:
#
# PCOD9362418 Si02
#       8
#     8   8   8   8   8   8   8   8
#     4  10  18  28  42  60  84 111 139 170 203 241
#     4  10  19  30  44  61  81 108 141 172 205 244
#     4  10  20  32  44  59  81 108 139 173 207 242
#     4   9  17  29  44  60  79 107 140 170 202 240
#     4  10  19  29  42  61  85 112 141 170 202 241
#     4   9  17  28  42  60  81 105 135 170 204 241
#     4  10  20  31  43  60  81 107 138 172 207 241
#     4   8  16  29  42  57  79 108 138 167 201 242
#
# _framework density 14.093536
#
# number of rings (size 3 to 8) (size 9 to 14) (size 15 to 20)
#    0.000    2.500    0.000    3.750    0.000    7.000 
#    0.000    0.000    0.000    0.000    0.000    0.000 
#    0.000    1.000    0.000    4.500    0.000    4.500 
#
# Total GULP energy -178259.070973 kJ/mol
# GULP energy per Si atom -5570.595968 kJ/mol
# Density = 1.406146 g / cm^3
# Si number density = 14.093536 Si / 1000 Ang^3
#
#
#
# Elastic Constant Matrix: (Units=GPa)
#
#
# Indices 1 2 3 4 5 6 
#
# 1 50.4547 39.8592 31.0771 0.0000 0.0000 0.0000
# 2 39.8592 87.4492 32.9425 0.0000 0.0000 0.0000
# 3 31.0771 32.9425 54.2485 0.0000 0.0000 0.0000
# 4 0.0000 0.0000 0.0000 24.5070 0.0000 0.0000
# 5 0.0000 0.0000 0.0000 0.0000 21.3047 0.0000
# 6 0.0000 0.0000 0.0000 0.0000 0.0000 21.5419
#
#
#
# Elastic Compliance Matrix: (Units=1/GPa)
#
#
# Indices 1 2 3 4 5 6 
#
# 1 0.038284 -0.011913 -0.014697 0.000000 0.000000 0.000000
# 2 -0.011913 0.018534 -0.004430 0.000000 0.000000 0.000000
# 3 -0.014697 -0.004430 0.029543 0.000000 0.000000 0.000000
# 4 0.000000 0.000000 0.000000 0.040805 0.000000 0.000000
# 5 0.000000 0.000000 0.000000 0.000000 0.046938 0.000000
# 6 0.000000 0.000000 0.000000 0.000000 0.000000 0.046421
#
#
# Mechanical properties :
#
#
# Convention : Reuss Voigt Hill
#
# Bulk Modulus (GPa) = 41.18583 44.43445 42.81014
# Shear Modulus (GPa) = 17.19989 19.35561 18.27775
#
# Velocity S-wave (km/s) = 3.49723 3.70992 3.60514
# Velocity P-wave (km/s) = 6.75234 7.06739 6.91166
#
# Compressibility (1/GPa) = 0.02428019
#
# Stress axis : x y z
#
# Youngs Moduli (GPa) = 26.12080 53.95463 33.84844
#
# Poissons Ratio (x) = 0.64277 0.49747
# Poissons Ratio (y) = 0.31118 0.14996
# Poissons Ratio (z) = 0.38390 0.23903
#
# Static dielectric constant tensor:
#      x y z
#    x 1.470100 0.000000 0.000000 
#    y 0.000000 1.473300 0.000000 
#    z 0.000000 0.000000 1.456870 
# 
# From -- ./inp_files/24394.got.cif
#   From: 2010.05.17/outbox.cif.g08.bks.cpg/sg40_13_cif.got.tgz:24394.got - 2010.06.03 18:35:42.
