data_PCOD9362853
_publ_section_title
;
Structure prediction by ZEFSAII (Michael W. Deem and Ramdas Pophale) SiO2 
 PCOD9362853
Probable space group: A M A 2
;
_chemical_formula_sum "Si O2"
_cell_formula_units_Z 56
_cell_length_a 7.343705
_cell_length_b 31.317471
_cell_length_c 11.973468
_cell_angle_alpha 90.000000
_cell_angle_beta 90.000000
_cell_angle_gamma 90.000000
_cell_volume 2753.733225
_symmetry_space_group_name_H-M "A M A 2"
_symmetry_group_IT_number 40
_symmetry_cell_setting 'orthorhombic'
loop_
_space_group_symop_operation_xyz
x,y,z
-x,-y,z
1/2-x,y,z
1/2+x,-y,z
x,1/2+y,1/2+z
-x,1/2-y,1/2+z
1/2-x,1/2+y,1/2+z
1/2+x,1/2-y,1/2+z
loop_
_atom_site_type_symbol
_atom_site_label
_atom_site_fract_x
_atom_site_fract_y
_atom_site_fract_z
Si Si1 0.043391 0.184752 0.073220
Si Si2 0.025779 0.120340 0.251760
Si Si3 0.471287 0.746260 0.388552
Si Si4 0.540774 0.838451 0.464049
Si Si5 0.956824 0.391284 0.389713
Si Si6 0.032510 0.549913 0.577486
Si Si7 0.473465 0.674842 0.213350
O O1 0.250000 0.197017 0.102906
O O2 0.961232 0.161280 0.179373
O O3 0.962437 0.223625 0.003599
O O4 0.052114 0.146845 0.981212
O O5 0.250000 0.121352 0.250967
O O6 0.964863 0.126256 0.378959
O O7 0.969434 0.078495 0.182483
O O8 0.250000 0.745743 0.390226
O O9 0.535108 0.794419 0.394778
O O10 0.528146 0.717136 0.283210
O O11 0.750000 0.850494 0.484845
O O12 0.462798 0.828644 0.586138
O O13 0.750000 0.403531 0.358755
O O14 0.039638 0.430030 0.460900
O O15 0.034989 0.367064 0.282602
O O16 0.250000 0.556531 0.572611
O O17 0.000000 0.500000 0.589173
O O18 0.250000 0.675530 0.216063
#
# Coordination Sequence:
#
# PCOD9362853 Si02
#       7
#     8   8   8   8   8   8   8
#     4   7  11  22  40  57  75 106 146 176 201 244
#     4   8  15  27  42  62  86 113 143 176 212 256
#     4   9  17  28  42  59  83 116 150 183 221 258
#     4  10  19  28  42  63  86 114 152 189 212 243
#     4   7  11  23  43  62  80 107 140 169 204 254
#     4   9  16  28  49  72  88 105 136 177 221 267
#     4   8  15  28  43  61  85 115 150 186 216 248
#
# _framework density 20.336029
#
# number of rings (size 3 to 8) (size 9 to 14) (size 15 to 20)
#    0.000    3.714    0.000    3.429    2.000    0.000 
#    0.000    0.714    0.000    9.429    0.000    0.000 
#    0.000    0.000    0.000    0.000    0.000    0.000 
#
# Total GULP energy -155908.801714 kJ/mol
# GULP energy per Si atom -5568.171490 kJ/mol
# Density = 2.028974 g / cm^3
# Si number density = 20.336029 Si / 1000 Ang^3
#
#
#
# Elastic Constant Matrix: (Units=GPa)
#
#
# Indices 1 2 3 4 5 6 
#
# 1 77.4511 -7.1514 2.4952 0.0000 0.0000 0.0000
# 2 -7.1514 93.0314 58.4235 0.0000 0.0000 0.0000
# 3 2.4952 58.4235 157.2577 0.0000 0.0000 0.0000
# 4 0.0000 0.0000 0.0000 21.1571 0.0000 0.0000
# 5 0.0000 0.0000 0.0000 0.0000 -9.6329 0.0000
# 6 0.0000 0.0000 0.0000 0.0000 0.0000 12.8015
#
#
#
# Elastic Compliance Matrix: (Units=1/GPa)
#
#
# Indices 1 2 3 4 5 6 
#
# 1 0.013072 0.001481 -0.000757 0.000000 0.000000 0.000000
# 2 0.001481 0.014188 -0.005294 0.000000 0.000000 0.000000
# 3 -0.000757 -0.005294 0.008338 0.000000 0.000000 0.000000
# 4 0.000000 0.000000 0.000000 0.047265 0.000000 0.000000
# 5 0.000000 0.000000 0.000000 0.000000 -0.103810 0.000000
# 6 0.000000 0.000000 0.000000 0.000000 0.000000 0.078116
#
#
# Mechanical properties :
#
#
# Convention : Reuss Voigt Hill
#
# Bulk Modulus (GPa) = 37.79927 48.36387 43.08157
# Shear Modulus (GPa) = 66.55126 23.13000 44.84063
#
# Velocity S-wave (km/s) = 5.72685 3.37618 4.70082
# Velocity P-wave (km/s) = 7.89663 6.24757 7.12000
#
# Compressibility (1/GPa) = 0.02645554
#
# Stress axis : x y z
#
# Youngs Moduli (GPa) = 76.49659 70.48318 119.93325
#
# Poissons Ratio (x) = -0.10436 0.09085
# Poissons Ratio (y) = -0.11326 0.63498
# Poissons Ratio (z) = 0.05794 0.37317
#
# Static dielectric constant tensor:
#      x y z
#    x 1.796560 0.000000 0.000000 
#    y 0.000000 1.704510 0.000000 
#    z 0.000000 0.000000 1.777400 
# 
# From -- ./inp_files/11516.got.cif
#   From: 2010.05.17/outbox.cif.g08.bks.cpg/sg40_6_cif.got.tgz:11516.got - 2010.06.03 18:35:42.
