data_PCOD9362259
_publ_section_title
;
Structure prediction by ZEFSAII (Michael W. Deem and Ramdas Pophale) SiO2 
 PCOD9362259
Probable space group: A M A 2
;
_chemical_formula_sum "Si O2"
_cell_formula_units_Z 48
_cell_length_a 28.361891
_cell_length_b 14.771481
_cell_length_c 5.255113
_cell_angle_alpha 90.000000
_cell_angle_beta 90.000000
_cell_angle_gamma 90.000000
_cell_volume 2201.614530
_symmetry_space_group_name_H-M "A M A 2"
_symmetry_group_IT_number 40
_symmetry_cell_setting 'orthorhombic'
loop_
_space_group_symop_operation_xyz
x,y,z
-x,-y,z
1/2-x,y,z
1/2+x,-y,z
x,1/2+y,1/2+z
-x,1/2-y,1/2+z
1/2-x,1/2+y,1/2+z
1/2+x,1/2-y,1/2+z
loop_
_atom_site_type_symbol
_atom_site_label
_atom_site_fract_x
_atom_site_fract_y
_atom_site_fract_z
Si Si1 0.440711 0.054562 0.953740
Si Si2 0.099489 0.028486 0.455077
Si Si3 0.302300 0.319061 0.605791
Si Si4 0.015548 0.303668 0.540433
Si Si5 0.105479 0.210742 0.650810
Si Si6 0.803165 0.557759 0.108442
O O1 0.436458 0.003353 0.682667
O O2 0.490776 0.098563 0.027561
O O3 0.409778 0.145994 0.884441
O O4 0.416348 0.998862 0.178090
O O5 0.096433 0.137197 0.432334
O O6 0.151742 0.004614 0.550987
O O7 0.250000 0.280219 0.565973
O O8 0.341878 0.244454 0.641613
O O9 0.311738 0.384332 0.364476
O O10 0.301960 0.377074 0.863715
O O11 0.070191 0.293845 0.613999
O O12 0.991961 0.243281 0.765207
O O13 0.750000 0.516829 0.131082
#
# Coordination Sequence:
#
# PCOD9362259 Si02
#       6
#     8   8   8   8   8   8
#     4   9  18  31  52  84 106 132 172 222 261 302
#     4  10  19  33  55  78 104 135 178 219 257 305
#     4  10  22  38  55  76 107 139 177 217 268 319
#     4  10  16  30  50  81 108 136 168 209 261 321
#     4   9  21  31  59  82 104 136 177 223 259 301
#     4  10  22  39  55  73 104 149 177 209 269 332
#
# _framework density 21.80218
#
# number of rings (size 3 to 8) (size 9 to 14) (size 15 to 20)
#    1.000    1.333    1.667    1.000    2.333    0.667 
#    0.000    0.833    0.000    6.000    0.000    0.000 
#    0.000    0.000    0.000    0.000    0.000    0.000 
#
# Total GULP energy -133705.674226 kJ/mol
# GULP energy per Si atom -5571.069759 kJ/mol
# Density = 2.175256 g / cm^3
# Si number density = 21.802180 Si / 1000 Ang^3
#
#
#
# Elastic Constant Matrix: (Units=GPa)
#
#
# Indices 1 2 3 4 5 6 
#
# 1 110.1679 20.4186 19.5661 0.0000 0.0000 0.0000
# 2 20.4186 49.3891 12.9300 0.0000 0.0000 0.0000
# 3 19.5661 12.9300 125.0103 0.0000 0.0000 0.0000
# 4 0.0000 0.0000 0.0000 0.8833 0.0000 0.0000
# 5 0.0000 0.0000 0.0000 0.0000 24.6356 0.0000
# 6 0.0000 0.0000 0.0000 0.0000 0.0000 47.9980
#
#
#
# Elastic Compliance Matrix: (Units=1/GPa)
#
#
# Indices 1 2 3 4 5 6 
#
# 1 0.009994 -0.003826 -0.001168 0.000000 0.000000 0.000000
# 2 -0.003826 0.022275 -0.001705 0.000000 0.000000 0.000000
# 3 -0.001168 -0.001705 0.008359 0.000000 0.000000 0.000000
# 4 0.000000 0.000000 0.000000 1.132103 0.000000 0.000000
# 5 0.000000 0.000000 0.000000 0.000000 0.040592 0.000000
# 6 0.000000 0.000000 0.000000 0.000000 0.000000 0.020834
#
#
# Mechanical properties :
#
#
# Convention : Reuss Voigt Hill
#
# Bulk Modulus (GPa) = 36.72563 43.37742 40.05152
# Shear Modulus (GPa) = 3.97889 30.14688 17.06289
#
# Velocity S-wave (km/s) = 1.35239 3.72256 2.80057
# Velocity P-wave (km/s) = 4.39547 6.19804 5.37289
#
# Compressibility (1/GPa) = 0.02722894
#
# Stress axis : x y z
#
# Youngs Moduli (GPa) = 100.06364 44.89245 119.63732
#
# Poissons Ratio (x) = 0.17175 0.13979
# Poissons Ratio (y) = 0.38281 0.20401
# Poissons Ratio (z) = 0.11692 0.07655
#
# Static dielectric constant tensor:
#      x y z
#    x 1.852450 0.000000 0.000000 
#    y 0.000000 1.811840 0.000000 
#    z 0.000000 0.000000 1.811320 
# 
# From -- ./inp_files/3128.got.cif
#   From: 2010.05.17/outbox.cif.g08.bks.cpg/sg40_2_cif.got.tgz:3128.got - 2010.06.03 18:35:42.
