data_PCOD9362258
_publ_section_title
;
Structure prediction by ZEFSAII (Michael W. Deem and Ramdas Pophale) SiO2 
 PCOD9362258
Probable space group: A M A 2
;
_chemical_formula_sum "Si O2"
_cell_formula_units_Z 48
_cell_length_a 15.152199
_cell_length_b 28.552209
_cell_length_c 5.239700
_cell_angle_alpha 90.000000
_cell_angle_beta 90.000000
_cell_angle_gamma 90.000000
_cell_volume 2266.844875
_symmetry_space_group_name_H-M "A M A 2"
_symmetry_group_IT_number 40
_symmetry_cell_setting 'orthorhombic'
loop_
_space_group_symop_operation_xyz
x,y,z
-x,-y,z
1/2-x,y,z
1/2+x,-y,z
x,1/2+y,1/2+z
-x,1/2-y,1/2+z
1/2-x,1/2+y,1/2+z
1/2+x,1/2-y,1/2+z
loop_
_atom_site_type_symbol
_atom_site_label
_atom_site_fract_x
_atom_site_fract_y
_atom_site_fract_z
Si Si1 0.855718 0.946409 0.506870
Si Si2 0.143130 0.500455 0.505297
Si Si3 0.606622 0.108713 0.984527
Si Si4 0.879925 0.161483 0.485943
Si Si5 0.939961 0.855962 0.726644
Si Si6 0.060456 0.743534 0.409336
O O1 0.750000 0.949442 0.496362
O O2 0.879750 0.893906 0.590105
O O3 0.888729 0.978961 0.737432
O O4 0.889351 0.967794 0.240893
O O5 0.250000 0.503197 0.504960
O O6 0.119729 0.446080 0.520979
O O7 0.502781 0.119580 0.938582
O O8 0.649622 0.131681 0.730816
O O9 0.643006 0.135834 0.227752
O O10 0.986425 0.159167 0.520069
O O11 0.866578 0.217062 0.473885
O O12 0.993597 0.241281 0.152089
O O13 0.902805 0.808216 0.845731
#
# Coordination Sequence:
#
# PCOD9362258 Si02
#       6
#     8   8   8   8   8   8
#     4  10  22  38  54  73 105 144 182 217 270 328
#     4  10  22  39  54  71 102 147 182 219 273 325
#     4  10  19  33  52  78 104 131 178 222 266 310
#     4   9  18  31  49  83 104 133 167 215 268 319
#     4   9  21  31  55  80 106 137 176 221 267 312
#     4  10  16  30  50  78 109 139 164 208 271 329
#
# _framework density 21.174804999999999
#
# number of rings (size 3 to 8) (size 9 to 14) (size 15 to 20)
#    1.000    1.333    1.667    1.000    2.333    0.667 
#    0.000    0.000    0.000    2.000    0.000    0.000 
#    0.000    0.000    0.000    0.000    0.000    0.000 
#
# Total GULP energy -133712.738805 kJ/mol
# GULP energy per Si atom -5571.364117 kJ/mol
# Density = 2.112661 g / cm^3
# Si number density = 21.174805 Si / 1000 Ang^3
#
#
#
# Elastic Constant Matrix: (Units=GPa)
#
#
# Indices 1 2 3 4 5 6 
#
# 1 20.8682 14.8362 15.7793 0.0000 0.0000 0.0000
# 2 14.8362 146.2623 44.9437 0.0000 0.0000 0.0000
# 3 15.7793 44.9437 145.5521 0.0000 0.0000 0.0000
# 4 0.0000 0.0000 0.0000 40.4857 0.0000 0.0000
# 5 0.0000 0.0000 0.0000 0.0000 -42.6383 0.0000
# 6 0.0000 0.0000 0.0000 0.0000 0.0000 -363.2429
#
#
#
# Elastic Compliance Matrix: (Units=1/GPa)
#
#
# Indices 1 2 3 4 5 6 
#
# 1 0.054325 -0.004089 -0.004627 0.000000 0.000000 0.000000
# 2 -0.004089 0.007861 -0.001984 0.000000 0.000000 0.000000
# 3 -0.004627 -0.001984 0.007985 0.000000 0.000000 0.000000
# 4 0.000000 0.000000 0.000000 0.024700 0.000000 0.000000
# 5 0.000000 0.000000 0.000000 0.000000 -0.023453 0.000000
# 6 0.000000 0.000000 0.000000 0.000000 0.000000 -0.002753
#
#
# Mechanical properties :
#
#
# Convention : Reuss Voigt Hill
#
# Bulk Modulus (GPa) = 20.50372 51.53347 36.01860
# Shear Modulus (GPa) = 47.02686 -57.27086 -5.12200
#
# Velocity S-wave (km/s) = 4.71774 -5.20629 -1.55697
# Velocity P-wave (km/s) = 6.27537 3.42791 3.71683
#
# Compressibility (1/GPa) = 0.04877163
#
# Stress axis : x y z
#
# Youngs Moduli (GPa) = 18.40768 127.20234 125.23980
#
# Poissons Ratio (x) = 0.52010 0.57947
# Poissons Ratio (y) = 0.07526 0.24850
# Poissons Ratio (z) = 0.08517 0.25240
#
# Static dielectric constant tensor:
#      x y z
#    x 1.812040 0.000000 0.000000 
#    y 0.000000 1.806890 0.000000 
#    z 0.000000 0.000000 1.764680 
# 
# From -- ./inp_files/2773.got.cif
#   From: 2010.05.17/outbox.cif.g08.bks.cpg/sg40_2_cif.got.tgz:2773.got - 2010.06.03 18:35:42.
