data_PCOD9362432
_publ_section_title
;
Structure prediction by ZEFSAII (Michael W. Deem and Ramdas Pophale) SiO2 
 PCOD9362432
Probable space group: A M A 2
;
_chemical_formula_sum "Si O2"
_cell_formula_units_Z 56
_cell_length_a 8.746601
_cell_length_b 14.015066
_cell_length_c 30.285013
_cell_angle_alpha 90.000000
_cell_angle_beta 90.000000
_cell_angle_gamma 90.000000
_cell_volume 3712.463797
_symmetry_space_group_name_H-M "A M A 2"
_symmetry_group_IT_number 40
_symmetry_cell_setting 'orthorhombic'
loop_
_space_group_symop_operation_xyz
x,y,z
-x,-y,z
1/2-x,y,z
1/2+x,-y,z
x,1/2+y,1/2+z
-x,1/2-y,1/2+z
1/2-x,1/2+y,1/2+z
1/2+x,1/2-y,1/2+z
loop_
_atom_site_type_symbol
_atom_site_label
_atom_site_fract_x
_atom_site_fract_y
_atom_site_fract_z
Si Si1 0.065105 0.785072 0.203530
Si Si2 0.933070 0.103218 0.291616
Si Si3 0.434229 0.393267 0.615830
Si Si4 0.933240 0.607292 0.518367
Si Si5 0.932188 0.603445 0.250106
Si Si6 0.434627 0.702444 0.335959
Si Si7 0.933206 0.393015 0.427983
O O1 0.250000 0.775360 0.204227
O O2 0.023230 0.859073 0.242705
O O3 0.016868 0.827334 0.156479
O O4 0.992454 0.684446 0.216702
O O5 0.750000 0.096369 0.292656
O O6 0.978818 0.188616 0.324703
O O7 0.000000 0.000000 0.301058
O O8 0.500000 0.500000 0.620515
O O9 0.250000 0.400940 0.617507
O O10 0.473861 0.353679 0.566973
O O11 0.750000 0.604257 0.514418
O O12 0.000000 0.500000 0.519195
O O13 0.003023 0.650124 0.473756
O O14 0.750000 0.600301 0.249892
O O15 0.000000 0.500000 0.239888
O O16 0.990972 0.636542 0.298426
O O17 0.250000 0.695501 0.331068
O O18 0.475120 0.667312 0.384722
O O19 0.750000 0.399597 0.430758
O O20 0.000000 0.500000 0.423073
#
# Coordination Sequence:
#
# PCOD9362432 Si02
#       7
#     8   8   8   8   8   8   8
#     4   9  18  32  46  63  89 118 147 178 213 253
#     4   9  17  29  44  62  86 113 141 176 213 250
#     4   9  17  28  44  65  91 121 148 179 217 257
#     4   9  16  26  40  61  88 116 145 176 214 257
#     4  11  21  32  47  66  88 115 146 180 218 259
#     4   9  19  33  46  63  88 117 148 181 218 258
#     4  10  18  28  43  62  86 116 146 178 217 258
#
# _framework density 15.084322999999999
#
# number of rings (size 3 to 8) (size 9 to 14) (size 15 to 20)
#    0.000    2.571    0.000    4.714    0.000    5.714 
#    0.000    0.000    0.000    0.000    0.000    1.000 
#    0.000    4.571    0.000    0.000    0.000    0.000 
#
# Total GULP energy -156020.745320 kJ/mol
# GULP energy per Si atom -5572.169476 kJ/mol
# Density = 1.504999 g / cm^3
# Si number density = 15.084323 Si / 1000 Ang^3
#
#
#
# Elastic Constant Matrix: (Units=GPa)
#
#
# Indices 1 2 3 4 5 6 
#
# 1 34.8983 28.7324 41.6238 0.0000 0.0000 0.0000
# 2 28.7324 92.8063 65.8710 0.0000 0.0000 0.0000
# 3 41.6238 65.8710 160.1189 0.0000 0.0000 0.0000
# 4 0.0000 0.0000 0.0000 21.1578 0.0000 0.0000
# 5 0.0000 0.0000 0.0000 0.0000 26.4365 0.0000
# 6 0.0000 0.0000 0.0000 0.0000 0.0000 20.2402
#
#
#
# Elastic Compliance Matrix: (Units=1/GPa)
#
#
# Indices 1 2 3 4 5 6 
#
# 1 0.045399 -0.008021 -0.008502 0.000000 0.000000 0.000000
# 2 -0.008021 0.016636 -0.004759 0.000000 0.000000 0.000000
# 3 -0.008502 -0.004759 0.010413 0.000000 0.000000 0.000000
# 4 0.000000 0.000000 0.000000 0.047264 0.000000 0.000000
# 5 0.000000 0.000000 0.000000 0.000000 0.037827 0.000000
# 6 0.000000 0.000000 0.000000 0.000000 0.000000 0.049407
#
#
# Mechanical properties :
#
#
# Convention : Reuss Voigt Hill
#
# Bulk Modulus (GPa) = 33.46179 62.25310 47.85745
# Shear Modulus (GPa) = 19.27006 23.67332 21.47169
#
# Velocity S-wave (km/s) = 3.57808 3.96586 3.77695
# Velocity P-wave (km/s) = 6.26909 7.89496 7.12853
#
# Compressibility (1/GPa) = 0.02988483
#
# Stress axis : x y z
#
# Youngs Moduli (GPa) = 22.02698 60.11070 96.03185
#
# Poissons Ratio (x) = 0.48214 0.81646
# Poissons Ratio (y) = 0.17667 0.45700
# Poissons Ratio (z) = 0.18727 0.28605
#
# Static dielectric constant tensor:
#      x y z
#    x 1.507990 0.000000 0.000000 
#    y 0.000000 1.474660 0.000000 
#    z 0.000000 0.000000 1.530940 
# 
# From -- ./inp_files/26404.got.cif
#   From: 2010.05.17/outbox.cif.g08.bks.cpg/sg40_14_cif.got.tgz:26404.got - 2010.06.03 18:35:42.
