data_PCOD9362994
_publ_section_title
;
Structure prediction by ZEFSAII (Michael W. Deem and Ramdas Pophale) SiO2 
 PCOD9362994
Probable space group: A M A 2
;
_chemical_formula_sum "Si O2"
_cell_formula_units_Z 44
_cell_length_a 7.417745
_cell_length_b 7.938841
_cell_length_c 30.740812
_cell_angle_alpha 90.000000
_cell_angle_beta 90.000000
_cell_angle_gamma 90.000000
_cell_volume 1810.274102
_symmetry_space_group_name_H-M "A M A 2"
_symmetry_group_IT_number 40
_symmetry_cell_setting 'orthorhombic'
loop_
_space_group_symop_operation_xyz
x,y,z
-x,-y,z
1/2-x,y,z
1/2+x,-y,z
x,1/2+y,1/2+z
-x,1/2-y,1/2+z
1/2-x,1/2+y,1/2+z
1/2+x,1/2-y,1/2+z
loop_
_atom_site_type_symbol
_atom_site_label
_atom_site_fract_x
_atom_site_fract_y
_atom_site_fract_z
Si Si1 0.036779 0.189814 0.513040
Si Si2 0.966311 0.296577 0.294282
Si Si3 0.964386 0.193057 0.104373
Si Si4 0.949316 0.310146 0.423463
Si Si5 0.250000 0.174077 0.365803
Si Si6 0.035852 0.698696 0.197535
O O1 0.250000 0.224747 0.513895
O O2 0.965262 0.209158 0.562220
O O3 0.953815 0.304718 0.475657
O O4 0.000000 0.000000 0.499186
O O5 0.750000 0.268923 0.299656
O O6 0.024742 0.244496 0.245287
O O7 0.000000 0.500000 0.298271
O O8 0.090007 0.202845 0.328878
O O9 0.750000 0.227123 0.106840
O O10 0.039266 0.228586 0.152518
O O11 0.000000 0.000000 0.094247
O O12 0.750000 0.269616 0.407596
O O13 0.000000 0.500000 0.408832
O O14 0.094530 0.186096 0.403948
O O15 0.250000 0.728223 0.197745
O O16 0.000000 0.500000 0.195621
#
# Coordination Sequence:
#
# PCOD9362994 Si02
#       6
#     8   8   8   8   4   8
#     4  11  23  42  64  92 125 166 207 257 312 379
#     4  10  19  31  54  86 126 161 207 262 309 361
#     4  10  22  39  62  91 126 161 203 251 307 370
#     4  12  24  39  61  94 129 165 210 266 317 371
#     4  12  22  36  58  90 126 166 210 264 314 376
#     4   9  19  35  55  89 123 161 202 254 304 364
#
# _framework density 24.305710000000001
#
# number of rings (size 3 to 8) (size 9 to 14) (size 15 to 20)
#    0.000    1.455    2.727    2.727    1.273    3.636 
#    0.000    0.000    0.000    1.091    4.727    0.000 
#    0.000    0.000    0.000    0.000    0.000    0.000 
#
# Total GULP energy -122561.338160 kJ/mol
# GULP energy per Si atom -5570.969916 kJ/mol
# Density = 2.425039 g / cm^3
# Si number density = 24.305710 Si / 1000 Ang^3
#
#
#
# Elastic Constant Matrix: (Units=GPa)
#
#
# Indices 1 2 3 4 5 6 
#
# 1 175.5034 -6.1648 40.1162 0.0000 0.0000 0.0000
# 2 -6.1648 36.5440 7.6357 0.0000 0.0000 0.0000
# 3 40.1162 7.6357 180.4919 0.0000 0.0000 0.0000
# 4 0.0000 0.0000 0.0000 -105.4204 0.0000 0.0000
# 5 0.0000 0.0000 0.0000 0.0000 8.9706 0.0000
# 6 0.0000 0.0000 0.0000 0.0000 0.0000 12.9314
#
#
#
# Elastic Compliance Matrix: (Units=1/GPa)
#
#
# Indices 1 2 3 4 5 6 
#
# 1 0.006065 0.001316 -0.001404 0.000000 0.000000 0.000000
# 2 0.001316 0.027894 -0.001473 0.000000 0.000000 0.000000
# 3 -0.001404 -0.001473 0.005915 0.000000 0.000000 0.000000
# 4 0.000000 0.000000 0.000000 -0.009486 0.000000 0.000000
# 5 0.000000 0.000000 0.000000 0.000000 0.111475 0.000000
# 6 0.000000 0.000000 0.000000 0.000000 0.000000 0.077331
#
#
# Mechanical properties :
#
#
# Convention : Reuss Voigt Hill
#
# Bulk Modulus (GPa) = 27.20798 52.85705 40.03251
# Shear Modulus (GPa) = 21.31606 6.69314 14.00460
#
# Velocity S-wave (km/s) = 2.96463 1.66124 2.40299
# Velocity P-wave (km/s) = 4.78927 5.04714 4.91989
#
# Compressibility (1/GPa) = 0.03675392
#
# Stress axis : x y z
#
# Youngs Moduli (GPa) = 164.88072 35.84994 169.07026
#
# Poissons Ratio (x) = -0.04719 0.23732
# Poissons Ratio (y) = -0.21706 0.24898
# Poissons Ratio (z) = 0.23144 0.05279
#
# Static dielectric constant tensor:
#      x y z
#    x 1.950330 0.000000 0.000000 
#    y 0.000000 1.936040 0.000000 
#    z 0.000000 0.000000 1.963180 
# 
# From -- ./inp_files/25993.got.cif
#   From: 2010.05.17/outbox.cif.g08.bks.cpg/sg40_13_cif.got.tgz:25993.got - 2010.06.03 18:35:42.
