data_PCOD9362442
_publ_section_title
;
Structure prediction by ZEFSAII (Michael W. Deem and Ramdas Pophale) SiO2 
 PCOD9362442
Probable space group: A M A 2
;
_chemical_formula_sum "Si O2"
_cell_formula_units_Z 64
_cell_length_a 8.588763
_cell_length_b 19.123467
_cell_length_c 22.140022
_cell_angle_alpha 90.000000
_cell_angle_beta 90.000000
_cell_angle_gamma 90.000000
_cell_volume 3636.430551
_symmetry_space_group_name_H-M "A M A 2"
_symmetry_group_IT_number 40
_symmetry_cell_setting 'orthorhombic'
loop_
_space_group_symop_operation_xyz
x,y,z
-x,-y,z
1/2-x,y,z
1/2+x,-y,z
x,1/2+y,1/2+z
-x,1/2-y,1/2+z
1/2-x,1/2+y,1/2+z
1/2+x,1/2-y,1/2+z
loop_
_atom_site_type_symbol
_atom_site_label
_atom_site_fract_x
_atom_site_fract_y
_atom_site_fract_z
Si Si1 0.063478 0.867883 0.781180
Si Si2 0.436758 0.076902 0.906556
Si Si3 0.564251 0.075178 0.649455
Si Si4 0.062521 0.685022 0.508555
Si Si5 0.064672 0.218114 0.601568
Si Si6 0.436223 0.570564 0.603394
Si Si7 0.062837 0.574106 0.742321
Si Si8 0.937221 0.723351 0.732759
O O1 0.250000 0.864068 0.787454
O O2 0.026865 0.910414 0.720051
O O3 0.991074 0.904863 0.839186
O O4 0.995569 0.790237 0.770468
O O5 0.250000 0.073641 0.910150
O O6 0.488033 0.142298 0.949135
O O7 0.500000 0.000000 0.923896
O O8 0.750000 0.077917 0.642800
O O9 0.488497 0.139143 0.613630
O O10 0.500000 0.000000 0.631499
O O11 0.250000 0.690448 0.506034
O O12 0.012928 0.633754 0.562779
O O13 0.997450 0.756350 0.536443
O O14 0.250000 0.223728 0.601618
O O15 0.009003 0.260647 0.662760
O O16 0.500000 0.500000 0.575431
O O17 0.250000 0.569058 0.604327
O O18 0.491583 0.574047 0.672062
O O19 0.250000 0.572995 0.745302
O O20 0.000000 0.500000 0.768357
O O21 0.001950 0.650834 0.760665
O O22 0.750000 0.720681 0.732594
#
# Coordination Sequence:
#
# PCOD9362442 Si02
#       8
#     8   8   8   8   8   8   8   8
#     4  10  21  36  55  76 102 138 177 221 267 312
#     4  11  23  37  54  76 105 142 183 224 261 304
#     4  10  20  34  54  78 105 135 168 211 264 317
#     4  10  20  34  49  69 100 138 175 213 256 301
#     4  10  20  32  50  75 102 133 170 212 259 313
#     4   9  17  27  41  61  90 128 167 204 241 289
#     4  10  18  28  44  67  98 133 169 208 253 305
#     4  10  19  32  50  74 102 133 172 217 265 317
#
# _framework density 17.599677
#
# number of rings (size 3 to 8) (size 9 to 14) (size 15 to 20)
#    0.000    2.000    1.250    3.000    0.000    5.500 
#    0.000    0.000    0.000    0.000    0.000    0.875 
#    0.000    6.000    0.000    0.000    0.000    0.125 
#
# Total GULP energy -178312.412281 kJ/mol
# GULP energy per Si atom -5572.262884 kJ/mol
# Density = 1.755962 g / cm^3
# Si number density = 17.599677 Si / 1000 Ang^3
#
#
#
# Elastic Constant Matrix: (Units=GPa)
#
#
# Indices 1 2 3 4 5 6 
#
# 1 32.8068 27.3479 19.0647 0.0000 0.0000 0.0000
# 2 27.3479 118.0723 27.1933 0.0000 0.0000 0.0000
# 3 19.0647 27.1933 58.1399 0.0000 0.0000 0.0000
# 4 0.0000 0.0000 0.0000 21.3954 0.0000 0.0000
# 5 0.0000 0.0000 0.0000 0.0000 21.8793 0.0000
# 6 0.0000 0.0000 0.0000 0.0000 0.0000 32.8902
#
#
#
# Elastic Compliance Matrix: (Units=1/GPa)
#
#
# Indices 1 2 3 4 5 6 
#
# 1 0.042862 -0.007498 -0.010548 0.000000 0.000000 0.000000
# 2 -0.007498 0.010804 -0.002594 0.000000 0.000000 0.000000
# 3 -0.010548 -0.002594 0.021872 0.000000 0.000000 0.000000
# 4 0.000000 0.000000 0.000000 0.046739 0.000000 0.000000
# 5 0.000000 0.000000 0.000000 0.000000 0.045705 0.000000
# 6 0.000000 0.000000 0.000000 0.000000 0.000000 0.030404
#
#
# Mechanical properties :
#
#
# Convention : Reuss Voigt Hill
#
# Bulk Modulus (GPa) = 29.19144 39.58121 34.38632
# Shear Modulus (GPa) = 19.91356 24.26053 22.08705
#
# Velocity S-wave (km/s) = 3.36739 3.71680 3.54640
# Velocity P-wave (km/s) = 5.63395 6.39984 6.02907
#
# Compressibility (1/GPa) = 0.03425662
#
# Stress axis : x y z
#
# Youngs Moduli (GPa) = 23.33089 92.56125 45.72053
#
# Poissons Ratio (x) = 0.69406 0.48224
# Poissons Ratio (y) = 0.17494 0.11861
# Poissons Ratio (z) = 0.24609 0.24013
#
# Static dielectric constant tensor:
#      x y z
#    x 1.596540 0.000000 0.000000 
#    y 0.000000 1.681960 0.000000 
#    z 0.000000 0.000000 1.603770 
# 
# From -- ./inp_files/22378.got.cif
#   From: 2010.05.17/outbox.cif.g08.bks.cpg/sg40_12_cif.got.tgz:22378.got - 2010.06.03 18:35:42.
