data_PCOD9362122
_publ_section_title
;
Structure prediction by ZEFSAII (Michael W. Deem and Ramdas Pophale) SiO2 
 PCOD9362122
Probable space group: A B M 2
;
_chemical_formula_sum "Si O2"
_cell_formula_units_Z 36
_cell_length_a 5.205698
_cell_length_b 25.599595
_cell_length_c 11.393617
_cell_angle_alpha 90.000000
_cell_angle_beta 90.000000
_cell_angle_gamma 90.000000
_cell_volume 1518.356247
_symmetry_space_group_name_H-M "A B M 2"
_symmetry_group_IT_number 39
_symmetry_cell_setting 'orthorhombic'
loop_
_space_group_symop_operation_xyz
x,y,z
-x,-y,z
-x,1/2+y,z
x,1/2-y,z
x,1/2+y,1/2+z
-x,1/2-y,1/2+z
-x,y,1/2+z
x,-y,1/2+z
loop_
_atom_site_type_symbol
_atom_site_label
_atom_site_fract_x
_atom_site_fract_y
_atom_site_fract_z
Si Si1 0.464928 0.310525 0.490270
Si Si2 0.377686 0.605734 0.170449
Si Si3 0.500000 0.000000 0.308106
Si Si4 0.048433 0.855301 0.371030
Si Si5 0.887552 0.456007 0.984319
O O1 0.416870 0.250000 0.514706
O O2 0.499305 0.342049 0.613663
O O3 0.724092 0.318709 0.416315
O O4 0.227811 0.332024 0.408763
O O5 0.490559 0.557828 0.247374
O O6 0.123247 0.627105 0.238825
O O7 0.329565 0.574213 0.052090
O O8 0.249477 0.008314 0.387772
O O9 0.065337 0.909579 0.442078
O O10 0.000000 0.500000 0.071046
#
# Coordination Sequence:
#
# PCOD9362122 Si02
#       5
#     8   8   4   8   8
#     4  11  27  50  74 105 143 186 249 309 354 419
#     4  11  25  42  74 102 143 193 241 282 372 430
#     4  12  24  44  66 108 156 196 224 296 358 444
#     4  11  25  47  71 104 144 187 239 299 357 423
#     4  11  25  41  64 103 147 186 231 290 347 433
#
# _framework density 23.709852999999999
#
# number of rings (size 3 to 8) (size 9 to 14) (size 15 to 20)
#    0.000    0.889    2.222    4.000    6.222    7.111 
#    0.000    0.000    0.000    0.000    0.000    0.000 
#    0.000    0.000    0.000    0.000    0.000    0.000 
#
# Total GULP energy -100222.225104 kJ/mol
# GULP energy per Si atom -5567.901395 kJ/mol
# Density = 2.365589 g / cm^3
# Si number density = 23.709853 Si / 1000 Ang^3
#
#
#
# Elastic Constant Matrix: (Units=GPa)
#
#
# Indices 1 2 3 4 5 6 
#
# 1 86.9052 7.8801 5.8265 0.0000 0.0000 0.0000
# 2 7.8801 164.9738 18.9873 0.0000 0.0000 0.0000
# 3 5.8265 18.9873 39.7212 0.0000 0.0000 0.0000
# 4 0.0000 0.0000 0.0000 24.2077 0.0000 0.0000
# 5 0.0000 0.0000 0.0000 0.0000 -28.6594 0.0000
# 6 0.0000 0.0000 0.0000 0.0000 0.0000 32.6850
#
#
#
# Elastic Compliance Matrix: (Units=1/GPa)
#
#
# Indices 1 2 3 4 5 6 
#
# 1 0.011644 -0.000381 -0.001526 0.000000 0.000000 0.000000
# 2 -0.000381 0.006427 -0.003016 0.000000 0.000000 0.000000
# 3 -0.001526 -0.003016 0.026841 0.000000 0.000000 0.000000
# 4 0.000000 0.000000 0.000000 0.041309 0.000000 0.000000
# 5 0.000000 0.000000 0.000000 0.000000 -0.034893 0.000000
# 6 0.000000 0.000000 0.000000 0.000000 0.000000 0.030595
#
#
# Mechanical properties :
#
#
# Convention : Reuss Voigt Hill
#
# Bulk Modulus (GPa) = 28.51773 39.66532 34.09153
# Shear Modulus (GPa) = 48.32888 22.90707 35.61798
#
# Velocity S-wave (km/s) = 4.51970 3.11165 3.88008
# Velocity P-wave (km/s) = 6.26824 5.44754 5.87224
#
# Compressibility (1/GPa) = 0.03506590
#
# Stress axis : x y z
#
# Youngs Moduli (GPa) = 85.88405 155.59590 37.25618
#
# Poissons Ratio (x) = 0.05921 0.05685
# Poissons Ratio (y) = 0.03268 0.11238
# Poissons Ratio (z) = 0.13106 0.46933
#
# Static dielectric constant tensor:
#      x y z
#    x 2.014710 0.000000 0.000000 
#    y 0.000000 2.752690 0.000000 
#    z 0.000000 0.000000 2.021090 
# 
# From -- ./inp_files/4478.got.cif
#   From: 2010.05.17/outbox.cif.g08.bks.cpg/sg39_3_cif.got.tgz:4478.got - 2010.06.03 18:22:40.
