data_PCOD9362956
_publ_section_title
;
Structure prediction by ZEFSAII (Michael W. Deem and Ramdas Pophale) SiO2 
 PCOD9362956
Probable space group: A M A 2
;
_chemical_formula_sum "Si O2"
_cell_formula_units_Z 64
_cell_length_a 9.773219
_cell_length_b 15.334479
_cell_length_c 22.961875
_cell_angle_alpha 90.000000
_cell_angle_beta 90.000000
_cell_angle_gamma 90.000000
_cell_volume 3441.232407
_symmetry_space_group_name_H-M "A M A 2"
_symmetry_group_IT_number 40
_symmetry_cell_setting 'orthorhombic'
loop_
_space_group_symop_operation_xyz
x,y,z
-x,-y,z
1/2-x,y,z
1/2+x,-y,z
x,1/2+y,1/2+z
-x,1/2-y,1/2+z
1/2-x,1/2+y,1/2+z
1/2+x,1/2-y,1/2+z
loop_
_atom_site_type_symbol
_atom_site_label
_atom_site_fract_x
_atom_site_fract_y
_atom_site_fract_z
Si Si1 0.532092 0.897245 0.412410
Si Si2 0.586189 0.773178 0.192579
Si Si3 0.590352 0.245095 0.566825
Si Si4 0.910272 0.084867 0.869472
Si Si5 0.096565 0.220349 0.934411
Si Si6 0.093284 0.085405 0.283445
Si Si7 0.409750 0.417060 0.228872
Si Si8 0.596580 0.915676 0.542942
O O1 0.415734 0.823933 0.420932
O O2 0.595500 0.878208 0.349506
O O3 0.608075 0.892823 0.473998
O O4 0.500000 0.000000 0.408555
O O5 0.750000 0.768662 0.202565
O O6 0.565005 0.799413 0.125482
O O7 0.535367 0.842093 0.239568
O O8 0.537980 0.674431 0.203229
O O9 0.750000 0.215096 0.569168
O O10 0.574812 0.289890 0.503973
O O11 0.486919 0.164576 0.569062
O O12 0.750000 0.077301 0.885632
O O13 0.916031 0.091740 0.799195
O O14 0.982814 0.167532 0.899217
O O15 0.000000 0.000000 0.885928
O O16 0.250000 0.190506 0.919450
O O17 0.250000 0.063643 0.267589
O O18 0.000000 0.000000 0.281205
O O19 0.500000 0.500000 0.211158
O O20 0.250000 0.429907 0.212781
O O21 0.750000 0.928878 0.565844
O O22 0.500000 0.000000 0.548476
#
# Coordination Sequence:
#
# PCOD9362956 Si02
#       8
#     8   8   8   8   8   8   8   8
#     4   9  19  32  51  79 111 140 169 206 254 312
#     4   9  18  35  56  74 100 138 174 209 254 305
#     4   9  19  35  52  71  99 136 176 214 253 303
#     4  10  20  35  56  81 108 136 170 215 266 318
#     4  10  20  34  54  79 107 140 176 215 261 309
#     4  10  20  35  55  78 103 134 173 216 262 311
#     4   9  18  33  53  78 105 134 167 205 252 307
#     4  10  19  31  49  74 105 138 170 208 254 305
#
# _framework density 18.597988999999998
#
# number of rings (size 3 to 8) (size 9 to 14) (size 15 to 20)
#    0.000    2.500    0.000    1.875    0.000    9.500 
#    0.000    3.750    0.000    1.500    0.000    0.000 
#    0.000    0.000    0.000    0.000    0.000    0.000 
#
# Total GULP energy -178216.831173 kJ/mol
# GULP energy per Si atom -5569.275974 kJ/mol
# Density = 1.855566 g / cm^3
# Si number density = 18.597989 Si / 1000 Ang^3
#
#
#
# Elastic Constant Matrix: (Units=GPa)
#
#
# Indices 1 2 3 4 5 6 
#
# 1 89.8490 25.0130 16.9716 0.0000 0.0000 0.0000
# 2 25.0130 64.4930 32.4836 0.0000 0.0000 0.0000
# 3 16.9716 32.4836 70.8598 0.0000 0.0000 0.0000
# 4 0.0000 0.0000 0.0000 -18.8892 0.0000 0.0000
# 5 0.0000 0.0000 0.0000 0.0000 9.9810 0.0000
# 6 0.0000 0.0000 0.0000 0.0000 0.0000 24.6468
#
#
#
# Elastic Compliance Matrix: (Units=1/GPa)
#
#
# Indices 1 2 3 4 5 6 
#
# 1 0.012532 -0.004354 -0.001006 0.000000 0.000000 0.000000
# 2 -0.004354 0.021673 -0.008893 0.000000 0.000000 0.000000
# 3 -0.001006 -0.008893 0.018430 0.000000 0.000000 0.000000
# 4 0.000000 0.000000 0.000000 -0.052940 0.000000 0.000000
# 5 0.000000 0.000000 0.000000 0.000000 0.100191 0.000000
# 6 0.000000 0.000000 0.000000 0.000000 0.000000 0.040573
#
#
# Mechanical properties :
#
#
# Convention : Reuss Voigt Hill
#
# Bulk Modulus (GPa) = 41.44116 41.57092 41.50604
# Shear Modulus (GPa) = 28.24761 13.19660 20.72211
#
# Velocity S-wave (km/s) = 3.90147 2.66667 3.34160
# Velocity P-wave (km/s) = 6.52888 5.64645 6.10363
#
# Compressibility (1/GPa) = 0.02413060
#
# Stress axis : x y z
#
# Youngs Moduli (GPa) = 79.79700 46.13997 54.25996
#
# Poissons Ratio (x) = 0.20089 0.05456
# Poissons Ratio (y) = 0.34742 0.48251
# Poissons Ratio (z) = 0.08024 0.41031
#
# Static dielectric constant tensor:
#      x y z
#    x 1.668340 0.000000 0.000000 
#    y 0.000000 1.679010 0.000000 
#    z 0.000000 0.000000 1.668780 
# 
# From -- ./inp_files/24335.got.cif
#   From: 2010.05.17/outbox.cif.g08.bks.cpg/sg40_13_cif.got.tgz:24335.got - 2010.06.03 18:35:42.
