data_PCOD9362472
_publ_section_title
;
Structure prediction by ZEFSAII (Michael W. Deem and Ramdas Pophale) SiO2 
 PCOD9362472
Probable space group: A M A 2
;
_chemical_formula_sum "Si O2"
_cell_formula_units_Z 64
_cell_length_a 8.989185
_cell_length_b 18.740313
_cell_length_c 26.816381
_cell_angle_alpha 90.000000
_cell_angle_beta 90.000000
_cell_angle_gamma 90.000000
_cell_volume 4517.491311
_symmetry_space_group_name_H-M "A M A 2"
_symmetry_group_IT_number 40
_symmetry_cell_setting 'orthorhombic'
loop_
_space_group_symop_operation_xyz
x,y,z
-x,-y,z
1/2-x,y,z
1/2+x,-y,z
x,1/2+y,1/2+z
-x,1/2-y,1/2+z
1/2-x,1/2+y,1/2+z
1/2+x,1/2-y,1/2+z
loop_
_atom_site_type_symbol
_atom_site_label
_atom_site_fract_x
_atom_site_fract_y
_atom_site_fract_z
Si Si1 0.929778 0.577680 0.905400
Si Si2 0.928079 0.423399 0.606324
Si Si3 0.574185 0.666530 0.521236
Si Si4 0.420450 0.790696 0.468517
Si Si5 0.072483 0.422366 0.420108
Si Si6 0.928092 0.924210 0.221244
Si Si7 0.071106 0.667983 0.815342
Si Si8 0.421795 0.702438 0.364253
O O1 0.750000 0.574999 0.900479
O O2 0.964762 0.629712 0.952197
O O3 0.000000 0.500000 0.910973
O O4 0.999467 0.615569 0.856684
O O5 0.750000 0.428646 0.602685
O O6 0.969183 0.407713 0.663981
O O7 0.000000 0.500000 0.593513
O O8 0.988695 0.364800 0.568441
O O9 0.750000 0.664880 0.529870
O O10 0.521664 0.745500 0.505595
O O11 0.541530 0.615491 0.473514
O O12 0.250000 0.790782 0.486461
O O13 0.422631 0.747545 0.416041
O O14 0.250000 0.426756 0.414562
O O15 0.000000 0.500000 0.419030
O O16 0.003568 0.370794 0.378013
O O17 0.750000 0.932736 0.222809
O O18 0.967652 0.864102 0.261346
O O19 0.000000 0.000000 0.235014
O O20 0.250000 0.668580 0.821247
O O21 0.006028 0.746459 0.825578
O O22 0.250000 0.691072 0.350328
#
# Coordination Sequence:
#
# PCOD9362472 Si02
#       8
#     8   8   8   8   8   8   8   8
#     4  10  19  29  42  62  86 112 142 172 206 246
#     4  10  19  31  44  59  82 110 141 176 211 244
#     4  10  19  29  43  62  82 108 141 173 208 247
#     4   8  16  29  42  57  80 109 138 169 203 242
#     4  10  19  29  42  61  85 112 141 173 208 247
#     4   9  19  31  43  60  82 110 142 176 210 244
#     4  10  18  29  44  61  83 111 143 175 209 247
#     4   9  17  29  43  60  82 108 139 172 207 247
#
# _framework density 14.167156
#
# number of rings (size 3 to 8) (size 9 to 14) (size 15 to 20)
#    0.000    2.500    0.000    3.750    0.000    8.500 
#    0.000    0.000    0.000    0.000    0.000    0.000 
#    0.000    1.000    0.000    6.500    0.000    4.875 
#
# Total GULP energy -178355.462353 kJ/mol
# GULP energy per Si atom -5573.608199 kJ/mol
# Density = 1.413491 g / cm^3
# Si number density = 14.167156 Si / 1000 Ang^3
#
#
#
# Elastic Constant Matrix: (Units=GPa)
#
#
# Indices 1 2 3 4 5 6 
#
# 1 61.2872 46.3194 37.4604 0.0000 0.0000 0.0000
# 2 46.3194 96.2586 36.6343 0.0000 0.0000 0.0000
# 3 37.4604 36.6343 58.2880 0.0000 0.0000 0.0000
# 4 0.0000 0.0000 0.0000 23.5747 0.0000 0.0000
# 5 0.0000 0.0000 0.0000 0.0000 16.2947 0.0000
# 6 0.0000 0.0000 0.0000 0.0000 0.0000 26.8949
#
#
#
# Elastic Compliance Matrix: (Units=1/GPa)
#
#
# Indices 1 2 3 4 5 6 
#
# 1 0.033190 -0.010322 -0.014843 0.000000 0.000000 0.000000
# 2 -0.010322 0.016865 -0.003966 0.000000 0.000000 0.000000
# 3 -0.014843 -0.003966 0.029188 0.000000 0.000000 0.000000
# 4 0.000000 0.000000 0.000000 0.042418 0.000000 0.000000
# 5 0.000000 0.000000 0.000000 0.000000 0.061370 0.000000
# 6 0.000000 0.000000 0.000000 0.000000 0.000000 0.037182
#
#
# Mechanical properties :
#
#
# Convention : Reuss Voigt Hill
#
# Bulk Modulus (GPa) = 47.66202 50.74021 49.20112
# Shear Modulus (GPa) = 17.51498 19.71417 18.61457
#
# Velocity S-wave (km/s) = 3.51993 3.73438 3.62874
# Velocity P-wave (km/s) = 7.08770 7.38155 7.23612
#
# Compressibility (1/GPa) = 0.02098106
#
# Stress axis : x y z
#
# Youngs Moduli (GPa) = 30.12915 59.29433 34.26033
#
# Poissons Ratio (x) = 0.61204 0.50854
# Poissons Ratio (y) = 0.31100 0.13588
# Poissons Ratio (z) = 0.44722 0.23516
#
# Static dielectric constant tensor:
#      x y z
#    x 1.473610 0.000000 0.000000 
#    y 0.000000 1.459200 0.000000 
#    z 0.000000 0.000000 1.454840 
# 
# From -- ./inp_files/24383.got.cif
#   From: 2010.05.17/outbox.cif.g08.bks.cpg/sg40_13_cif.got.tgz:24383.got - 2010.06.03 18:35:42.
