data_PCOD9362969
_publ_section_title
;
Structure prediction by ZEFSAII (Michael W. Deem and Ramdas Pophale) SiO2 
 PCOD9362969
Probable space group: A M A 2
;
_chemical_formula_sum "Si O2"
_cell_formula_units_Z 56
_cell_length_a 8.955369
_cell_length_b 14.270629
_cell_length_c 23.477982
_cell_angle_alpha 90.000000
_cell_angle_beta 90.000000
_cell_angle_gamma 90.000000
_cell_volume 3000.456718
_symmetry_space_group_name_H-M "A M A 2"
_symmetry_group_IT_number 40
_symmetry_cell_setting 'orthorhombic'
loop_
_space_group_symop_operation_xyz
x,y,z
-x,-y,z
1/2-x,y,z
1/2+x,-y,z
x,1/2+y,1/2+z
-x,1/2-y,1/2+z
1/2-x,1/2+y,1/2+z
1/2+x,1/2-y,1/2+z
loop_
_atom_site_type_symbol
_atom_site_label
_atom_site_fract_x
_atom_site_fract_y
_atom_site_fract_z
Si Si1 0.080913 0.360425 0.466200
Si Si2 0.573734 0.593781 0.885838
Si Si3 0.069379 0.710140 0.118811
Si Si4 0.072642 0.594844 0.581977
Si Si5 0.929610 0.397626 0.233433
Si Si6 0.569941 0.803903 0.853209
Si Si7 0.581652 0.859107 0.499377
O O1 0.250000 0.398993 0.467685
O O2 0.091339 0.250607 0.482732
O O3 0.977161 0.400720 0.515666
O O4 0.008875 0.361466 0.403846
O O5 0.500000 0.500000 0.861250
O O6 0.750000 0.586333 0.880446
O O7 0.526869 0.693910 0.859153
O O8 0.526896 0.599381 0.952279
O O9 0.250000 0.722393 0.116345
O O10 0.027196 0.662360 0.177996
O O11 0.030837 0.643384 0.064873
O O12 0.993661 0.810914 0.109899
O O13 0.250000 0.592701 0.586769
O O14 0.000000 0.500000 0.606206
O O15 0.750000 0.406134 0.232454
O O16 0.970175 0.345097 0.291925
O O17 0.000000 0.500000 0.231728
O O18 0.750000 0.808828 0.860783
O O19 0.750000 0.898650 0.494598
#
# Coordination Sequence:
#
# PCOD9362969 Si02
#       7
#     8   8   8   8   8   8   8
#     4   9  17  31  52  78 108 141 176 219 267 315
#     4  10  19  31  50  76 106 139 175 215 265 321
#     4   9  19  37  57  79 110 145 180 224 274 322
#     4  11  21  34  55  83 114 147 182 222 270 329
#     4  10  22  40  60  80 106 140 182 230 277 325
#     4   9  19  36  55  77 108 147 185 224 271 324
#     4   8  15  29  49  73 102 135 170 208 256 310
#
# _framework density 18.663824999999999
#
# number of rings (size 3 to 8) (size 9 to 14) (size 15 to 20)
#    0.000    2.571    0.000    3.000    0.000    6.286 
#    0.000    3.571    0.000    1.714    0.000    0.000 
#    0.000    0.000    0.000    0.000    0.000    0.000 
#
# Total GULP energy -156171.738574 kJ/mol
# GULP energy per Si atom -5577.562092 kJ/mol
# Density = 1.862135 g / cm^3
# Si number density = 18.663825 Si / 1000 Ang^3
#
#
#
# Elastic Constant Matrix: (Units=GPa)
#
#
# Indices 1 2 3 4 5 6 
#
# 1 57.2951 43.4507 33.0619 0.0000 0.0000 0.0000
# 2 43.4507 115.7530 57.8103 0.0000 0.0000 0.0000
# 3 33.0619 57.8103 142.1201 0.0000 0.0000 0.0000
# 4 0.0000 0.0000 0.0000 16.9869 0.0000 0.0000
# 5 0.0000 0.0000 0.0000 0.0000 21.9567 0.0000
# 6 0.0000 0.0000 0.0000 0.0000 0.0000 29.9993
#
#
#
# Elastic Compliance Matrix: (Units=1/GPa)
#
#
# Indices 1 2 3 4 5 6 
#
# 1 0.025097 -0.008163 -0.002518 0.000000 0.000000 0.000000
# 2 -0.008163 0.013497 -0.003591 0.000000 0.000000 0.000000
# 3 -0.002518 -0.003591 0.009083 0.000000 0.000000 0.000000
# 4 0.000000 0.000000 0.000000 0.058869 0.000000 0.000000
# 5 0.000000 0.000000 0.000000 0.000000 0.045544 0.000000
# 6 0.000000 0.000000 0.000000 0.000000 0.000000 0.033334
#
#
# Mechanical properties :
#
#
# Convention : Reuss Voigt Hill
#
# Bulk Modulus (GPa) = 52.26749 64.86821 58.56785
# Shear Modulus (GPa) = 22.69157 25.84493 24.26825
#
# Velocity S-wave (km/s) = 3.49062 3.72527 3.60986
# Velocity P-wave (km/s) = 6.65668 7.30309 6.98737
#
# Compressibility (1/GPa) = 0.01913235
#
# Stress axis : x y z
#
# Youngs Moduli (GPa) = 39.84502 74.09122 110.09859
#
# Poissons Ratio (x) = 0.60483 0.27721
# Poissons Ratio (y) = 0.32527 0.39537
# Poissons Ratio (z) = 0.10032 0.26607
#
# Static dielectric constant tensor:
#      x y z
#    x 1.638350 0.000000 0.000000 
#    y 0.000000 1.670860 0.000000 
#    z 0.000000 0.000000 1.636570 
# 
# From -- ./inp_files/22168.got.cif
#   From: 2010.05.17/outbox.cif.g08.bks.cpg/sg40_12_cif.got.tgz:22168.got - 2010.06.03 18:35:42.
