data_PCOD9362652
_publ_section_title
;
Structure prediction by ZEFSAII (Michael W. Deem and Ramdas Pophale) SiO2 
 PCOD9362652
Probable space group: A M A 2
;
_chemical_formula_sum "Si O2"
_cell_formula_units_Z 48
_cell_length_a 15.536062
_cell_length_b 8.388504
_cell_length_c 16.889874
_cell_angle_alpha 90.000000
_cell_angle_beta 90.000000
_cell_angle_gamma 90.000000
_cell_volume 2201.161314
_symmetry_space_group_name_H-M "A M A 2"
_symmetry_group_IT_number 40
_symmetry_cell_setting 'orthorhombic'
loop_
_space_group_symop_operation_xyz
x,y,z
-x,-y,z
1/2-x,y,z
1/2+x,-y,z
x,1/2+y,1/2+z
-x,1/2-y,1/2+z
1/2-x,1/2+y,1/2+z
1/2+x,1/2-y,1/2+z
loop_
_atom_site_type_symbol
_atom_site_label
_atom_site_fract_x
_atom_site_fract_y
_atom_site_fract_z
Si Si1 0.596935 0.934326 0.161450
Si Si2 0.099115 0.059771 0.991060
Si Si3 0.654777 0.093436 0.660649
Si Si4 0.599926 0.554827 0.824653
Si Si5 0.901346 0.054358 0.495068
Si Si6 0.098082 0.563726 0.319222
O O1 0.590911 0.742949 0.163490
O O2 0.500000 0.000000 0.161660
O O3 0.639170 0.987736 0.243720
O O4 0.636458 0.987191 0.076935
O O5 0.134684 0.009006 0.905162
O O6 0.101887 0.252636 0.992482
O O7 0.000000 0.000000 0.990710
O O8 0.750000 0.164614 0.656995
O O9 0.640064 0.002424 0.577973
O O10 0.644201 0.995357 0.740401
O O11 0.500000 0.500000 0.826551
O O12 0.600022 0.745393 0.819720
O O13 0.636509 0.501779 0.910099
O O14 0.000000 0.000000 0.498027
O O15 0.000000 0.500000 0.314942
#
# Coordination Sequence:
#
# PCOD9362652 Si02
#       6
#     8   8   8   8   8   8
#     4   9  17  34  57  81 108 142 184 227 272 325
#     4   8  16  29  50  80 106 133 176 223 266 315
#     4  11  23  37  52  79 115 149 182 225 277 327
#     4   9  17  31  55  85 107 131 180 230 266 313
#     4   9  18  33  54  78 104 140 180 220 265 322
#     4  10  18  32  54  79 108 143 181 221 267 326
#
# _framework density 21.806671000000001
#
# number of rings (size 3 to 8) (size 9 to 14) (size 15 to 20)
#    0.000    2.667    0.000    2.500    0.000    5.333 
#    0.000    9.167    0.000    0.000    0.000    0.000 
#    0.000    0.000    0.000    0.000    0.000    0.000 
#
# Total GULP energy -133676.875939 kJ/mol
# GULP energy per Si atom -5569.869831 kJ/mol
# Density = 2.175704 g / cm^3
# Si number density = 21.806671 Si / 1000 Ang^3
#
#
#
# Elastic Constant Matrix: (Units=GPa)
#
#
# Indices 1 2 3 4 5 6 
#
# 1 36.7163 -0.9398 19.3990 0.0000 0.0000 0.0000
# 2 -0.9398 22.4387 38.1575 0.0000 0.0000 0.0000
# 3 19.3990 38.1575 295.1453 0.0000 0.0000 0.0000
# 4 0.0000 0.0000 0.0000 29.9322 0.0000 0.0000
# 5 0.0000 0.0000 0.0000 0.0000 -40.1729 0.0000
# 6 0.0000 0.0000 0.0000 0.0000 0.0000 -18.2412
#
#
#
# Elastic Compliance Matrix: (Units=1/GPa)
#
#
# Indices 1 2 3 4 5 6 
#
# 1 0.028767 0.005666 -0.002623 0.000000 0.000000 0.000000
# 2 0.005666 0.058241 -0.007902 0.000000 0.000000 0.000000
# 3 -0.002623 -0.007902 0.004582 0.000000 0.000000 0.000000
# 4 0.000000 0.000000 0.000000 0.033409 0.000000 0.000000
# 5 0.000000 0.000000 0.000000 0.000000 -0.024892 0.000000
# 6 0.000000 0.000000 0.000000 0.000000 0.000000 -0.054821
#
#
# Mechanical properties :
#
#
# Convention : Reuss Voigt Hill
#
# Bulk Modulus (GPa) = 12.21436 51.94819 32.08128
# Shear Modulus (GPa) = 60.75741 14.14919 37.45330
#
# Velocity S-wave (km/s) = 5.28416 2.55001 4.14879
# Velocity P-wave (km/s) = 6.54547 5.70473 6.13951
#
# Compressibility (1/GPa) = 0.08187083
#
# Stress axis : x y z
#
# Youngs Moduli (GPa) = 34.76225 17.17010 218.23678
#
# Poissons Ratio (x) = -0.09728 0.57249
# Poissons Ratio (y) = -0.19695 1.72450
# Poissons Ratio (z) = 0.09119 0.13568
#
# Static dielectric constant tensor:
#      x y z
#    x 1.833620 0.000000 0.000000 
#    y 0.000000 1.776970 0.000000 
#    z 0.000000 0.000000 1.927790 
# 
# From -- ./inp_files/20567.got.cif
#   From: 2010.05.17/outbox.cif.g08.bks.cpg/sg40_11_cif.got.tgz:20567.got - 2010.06.03 18:35:42.
