data_PCOD9362624
_publ_section_title
;
Structure prediction by ZEFSAII (Michael W. Deem and Ramdas Pophale) SiO2 
 PCOD9362624
Probable space group: A M A 2
;
_chemical_formula_sum "Si O2"
_cell_formula_units_Z 44
_cell_length_a 24.462729
_cell_length_b 7.289020
_cell_length_c 13.385486
_cell_angle_alpha 90.000000
_cell_angle_beta 90.000000
_cell_angle_gamma 90.000000
_cell_volume 2386.756919
_symmetry_space_group_name_H-M "A M A 2"
_symmetry_group_IT_number 40
_symmetry_cell_setting 'orthorhombic'
loop_
_space_group_symop_operation_xyz
x,y,z
-x,-y,z
1/2-x,y,z
1/2+x,-y,z
x,1/2+y,1/2+z
-x,1/2-y,1/2+z
1/2-x,1/2+y,1/2+z
1/2+x,1/2-y,1/2+z
loop_
_atom_site_type_symbol
_atom_site_label
_atom_site_fract_x
_atom_site_fract_y
_atom_site_fract_z
Si Si1 0.865318 0.327735 0.748480
Si Si2 0.862066 0.705195 0.041384
Si Si3 0.750000 0.828926 0.305147
Si Si4 0.435505 0.487219 0.191501
Si Si5 0.367272 0.762255 0.316982
Si Si6 0.750000 0.976836 0.530125
Si Si7 0.750000 0.737151 0.728286
O O1 0.860810 0.357108 0.628795
O O2 0.807633 0.236346 0.780372
O O3 0.914634 0.185044 0.758942
O O4 0.871591 0.517771 0.804765
O O5 0.905954 0.560073 0.086271
O O6 0.803827 0.603072 0.037286
O O7 0.876208 0.779867 0.933024
O O8 0.750000 0.885972 0.420740
O O9 0.750000 0.014792 0.237165
O O10 0.500000 0.500000 0.183134
O O11 0.409114 0.663552 0.243331
O O12 0.305732 0.709323 0.284544
O O13 0.750000 0.827866 0.619117
#
# Coordination Sequence:
#
# PCOD9362624 Si02
#       7
#     8   8   4   8   8   4   4
#     4   9  21  39  60  90 121 156 203 248 306 364
#     4  10  21  39  62  90 123 158 203 245 310 363
#     4  10  19  36  56  94 130 152 199 239 320 378
#     4  10  24  44  59  88 124 163 218 254 291 355
#     4  11  20  42  63  90 128 156 201 255 310 363
#     4  12  17  35  66  91 129 162 184 256 312 377
#     4  10  18  31  62  95 115 162 185 239 316 371
#
# _framework density 18.435058000000001
#
# number of rings (size 3 to 8) (size 9 to 14) (size 15 to 20)
#    1.091    0.727    5.455    0.545    0.000    1.455 
#   13.091    0.000    0.000    0.000    0.000    0.000 
#    0.000    0.000    0.000    0.000    0.000    0.000 
#
# Total GULP energy -122528.996857 kJ/mol
# GULP energy per Si atom -5569.499857 kJ/mol
# Density = 1.839310 g / cm^3
# Si number density = 18.435058 Si / 1000 Ang^3
#
#
#
# Elastic Constant Matrix: (Units=GPa)
#
#
# Indices 1 2 3 4 5 6 
#
# 1 146.9659 5.5730 2.4633 0.0000 0.0000 0.0000
# 2 5.5730 29.9849 -11.9034 0.0000 0.0000 0.0000
# 3 2.4633 -11.9034 57.2780 0.0000 0.0000 0.0000
# 4 0.0000 0.0000 0.0000 31.4695 0.0000 0.0000
# 5 0.0000 0.0000 0.0000 0.0000 1.9449 0.0000
# 6 0.0000 0.0000 0.0000 0.0000 0.0000 637.6347
#
#
#
# Elastic Compliance Matrix: (Units=1/GPa)
#
#
# Indices 1 2 3 4 5 6 
#
# 1 0.006872 -0.001520 -0.000611 0.000000 0.000000 0.000000
# 2 -0.001520 0.036685 0.007689 0.000000 0.000000 0.000000
# 3 -0.000611 0.007689 0.019083 0.000000 0.000000 0.000000
# 4 0.000000 0.000000 0.000000 0.031777 0.000000 0.000000
# 5 0.000000 0.000000 0.000000 0.000000 0.514177 0.000000
# 6 0.000000 0.000000 0.000000 0.000000 0.000000 0.001568
#
#
# Mechanical properties :
#
#
# Convention : Reuss Voigt Hill
#
# Bulk Modulus (GPa) = 13.55824 25.16604 19.36214
# Shear Modulus (GPa) = 8.01755 150.08289 79.05022
#
# Velocity S-wave (km/s) = 2.08771 9.03263 6.55541
# Velocity P-wave (km/s) = 3.63069 11.06641 8.23551
#
# Compressibility (1/GPa) = 0.07375589
#
# Stress axis : x y z
#
# Youngs Moduli (GPa) = 145.51410 27.25901 52.40277
#
# Poissons Ratio (x) = 0.04143 0.03204
# Poissons Ratio (y) = 0.22118 -0.40294
# Poissons Ratio (z) = 0.08897 -0.20960
#
# Static dielectric constant tensor:
#      x y z
#    x 1.635970 0.000000 0.000000 
#    y 0.000000 1.656640 0.000000 
#    z 0.000000 0.000000 1.629940 
# 
# From -- ./inp_files/13895.got.cif
#   From: 2010.05.17/outbox.cif.g08.bks.cpg/sg40_7_cif.got.tgz:13895.got - 2010.06.03 18:35:42.
