data_PCOD9362273
_publ_section_title
;
Structure prediction by ZEFSAII (Michael W. Deem and Ramdas Pophale) SiO2 
 PCOD9362273
Probable space group: A M A 2
;
_chemical_formula_sum "Si O2"
_cell_formula_units_Z 44
_cell_length_a 18.008499
_cell_length_b 10.259894
_cell_length_c 10.235757
_cell_angle_alpha 90.000000
_cell_angle_beta 90.000000
_cell_angle_gamma 90.000000
_cell_volume 1891.212619
_symmetry_space_group_name_H-M "A M A 2"
_symmetry_group_IT_number 40
_symmetry_cell_setting 'orthorhombic'
loop_
_space_group_symop_operation_xyz
x,y,z
-x,-y,z
1/2-x,y,z
1/2+x,-y,z
x,1/2+y,1/2+z
-x,1/2-y,1/2+z
1/2-x,1/2+y,1/2+z
1/2+x,1/2-y,1/2+z
loop_
_atom_site_type_symbol
_atom_site_label
_atom_site_fract_x
_atom_site_fract_y
_atom_site_fract_z
Si Si1 0.000000 0.500000 0.376441
Si Si2 0.025324 0.814764 0.645136
Si Si3 0.620534 0.414656 0.572804
Si Si4 0.250000 0.031902 0.743216
Si Si5 0.619614 0.932030 0.568390
Si Si6 0.250000 0.143973 0.402798
Si Si7 0.750000 0.744457 0.109287
Si Si8 0.250000 0.919456 0.038405
O O1 0.008907 0.373322 0.286951
O O2 0.072437 0.520532 0.461211
O O3 0.061088 0.672010 0.652809
O O4 0.947781 0.828279 0.567152
O O5 0.080263 0.927304 0.587520
O O6 0.678617 0.299831 0.536323
O O7 0.677227 0.529312 0.614193
O O8 0.250000 0.904395 0.647898
O O9 0.250000 0.988040 0.893044
O O10 0.326702 0.095494 0.693987
O O11 0.673974 0.926653 0.444154
O O12 0.250000 0.189240 0.254003
O O13 0.250000 0.270731 0.497506
#
# Coordination Sequence:
#
# PCOD9362273 Si02
#       8
#     4   8   8   4   8   4   4   4
#     4  10  24  42  68  96 128 176 206 270 340 370
#     4  10  21  40  65  99 122 160 224 263 317 389
#     4  11  23  39  65  93 126 163 221 257 318 389
#     4  10  16  38  65  85 122 164 214 253 309 375
#     4   9  19  36  65  91 119 171 207 262 322 380
#     4  10  22  37  64  88 136 172 205 263 333 367
#     4  10  22  38  60  92 126 165 213 268 301 388
#     4  10  22  35  59  97 120 171 210 256 315 378
#
# _framework density 23.265495999999999
#
# number of rings (size 3 to 8) (size 9 to 14) (size 15 to 20)
#    0.000    2.182    1.818    2.182    5.091    0.000 
#    0.000    3.636   20.000    0.000    0.000    0.000 
#    0.000    0.000    0.000    0.000    0.000    0.000 
#
# Total GULP energy -122628.255713 kJ/mol
# GULP energy per Si atom -5574.011623 kJ/mol
# Density = 2.321254 g / cm^3
# Si number density = 23.265496 Si / 1000 Ang^3
#
#
#
# Elastic Constant Matrix: (Units=GPa)
#
#
# Indices 1 2 3 4 5 6 
#
# 1 157.2438 13.3681 27.6074 0.0000 0.0000 0.0000
# 2 13.3681 47.1316 15.3005 0.0000 0.0000 0.0000
# 3 27.6074 15.3005 39.7331 0.0000 0.0000 0.0000
# 4 0.0000 0.0000 0.0000 31.6033 0.0000 0.0000
# 5 0.0000 0.0000 0.0000 0.0000 -25.4300 0.0000
# 6 0.0000 0.0000 0.0000 0.0000 0.0000 19.2430
#
#
#
# Elastic Compliance Matrix: (Units=1/GPa)
#
#
# Indices 1 2 3 4 5 6 
#
# 1 0.007253 -0.000481 -0.004854 0.000000 0.000000 0.000000
# 2 -0.000481 0.024280 -0.009016 0.000000 0.000000 0.000000
# 3 -0.004854 -0.009016 0.032012 0.000000 0.000000 0.000000
# 4 0.000000 0.000000 0.000000 0.031642 0.000000 0.000000
# 5 0.000000 0.000000 0.000000 0.000000 -0.039324 0.000000
# 6 0.000000 0.000000 0.000000 0.000000 0.000000 0.051967
#
#
# Mechanical properties :
#
#
# Convention : Reuss Voigt Hill
#
# Bulk Modulus (GPa) = 28.69953 39.62894 34.16424
# Shear Modulus (GPa) = 33.75021 17.60542 25.67782
#
# Velocity S-wave (km/s) = 3.81288 2.75384 3.32578
# Velocity P-wave (km/s) = 5.63440 5.21362 5.42809
#
# Compressibility (1/GPa) = 0.03484377
#
# Stress axis : x y z
#
# Youngs Moduli (GPa) = 137.87997 41.18541 31.23800
#
# Poissons Ratio (x) = 0.01982 0.15163
# Poissons Ratio (y) = 0.06637 0.28163
# Poissons Ratio (z) = 0.66926 0.37131
#
# Static dielectric constant tensor:
#      x y z
#    x 2.074010 0.000000 0.000000 
#    y 0.000000 1.898870 0.000000 
#    z 0.000000 0.000000 1.903950 
# 
# From -- ./inp_files/12865.got.cif
#   From: 2010.05.17/outbox.cif.g08.bks.cpg/sg40_7_cif.got.tgz:12865.got - 2010.06.03 18:35:42.
