data_PCOD9362445
_publ_section_title
;
Structure prediction by ZEFSAII (Michael W. Deem and Ramdas Pophale) SiO2 
 PCOD9362445
Probable space group: A M A 2
;
_chemical_formula_sum "Si O2"
_cell_formula_units_Z 64
_cell_length_a 15.700861
_cell_length_b 22.585067
_cell_length_c 7.390236
_cell_angle_alpha 90.000000
_cell_angle_beta 90.000000
_cell_angle_gamma 90.000000
_cell_volume 2620.614619
_symmetry_space_group_name_H-M "A M A 2"
_symmetry_group_IT_number 40
_symmetry_cell_setting 'orthorhombic'
loop_
_space_group_symop_operation_xyz
x,y,z
-x,-y,z
1/2-x,y,z
1/2+x,-y,z
x,1/2+y,1/2+z
-x,1/2-y,1/2+z
1/2-x,1/2+y,1/2+z
1/2+x,1/2-y,1/2+z
loop_
_atom_site_type_symbol
_atom_site_label
_atom_site_fract_x
_atom_site_fract_y
_atom_site_fract_z
Si Si1 0.400058 0.132812 0.800440
Si Si2 0.652729 0.732659 0.352106
Si Si3 0.908293 0.610821 0.300036
Si Si4 0.853998 0.485327 0.917355
Si Si5 0.654078 0.359311 0.910123
Si Si6 0.349268 0.887628 0.394883
Si Si7 0.149568 0.010935 0.847390
Si Si8 0.651183 0.740104 0.919487
O O1 0.495337 0.119042 0.738410
O O2 0.340196 0.133123 0.625763
O O3 0.373623 0.076024 0.919854
O O4 0.395189 0.198479 0.879748
O O5 0.750000 0.734421 0.419878
O O6 0.614659 0.670035 0.409193
O O7 0.609717 0.795567 0.395123
O O8 0.652902 0.732602 0.135060
O O9 0.852583 0.609041 0.116047
O O10 0.895364 0.549647 0.406055
O O11 0.750000 0.484455 0.901131
O O12 0.884697 0.421603 0.845603
O O13 0.885061 0.548064 0.838922
O O14 0.873014 0.486252 0.132434
O O15 0.750000 0.353886 0.830346
O O16 0.250000 0.886364 0.340815
O O17 0.384714 0.822623 0.346145
O O18 0.250000 0.002353 0.869670
O O19 0.750000 0.746590 0.860320
#
# Coordination Sequence:
#
# PCOD9362445 Si02
#       8
#     8   8   8   8   8   8   8   8
#     4  11  20  28  45  74 102 119 141 190 250 287
#     4   9  18  32  49  66  88 126 170 196 215 264
#     4  10  18  28  45  69  95 121 154 192 234 275
#     4   7  11  22  43  68  88 107 139 188 231 255
#     4   9  17  30  48  70  95 122 153 193 237 275
#     4   8  14  27  47  67  89 122 162 194 220 265
#     4   9  16  29  47  67  92 121 155 193 228 269
#     4   9  17  30  46  65  91 126 162 190 221 272
#
# _framework density 24.421752000000001
#
# number of rings (size 3 to 8) (size 9 to 14) (size 15 to 20)
#    0.000    3.000    0.000    4.875    0.000    2.000 
#    0.000    0.000    0.000    1.500    0.000   14.000 
#    0.000    0.000    0.000    0.000    0.000    0.000 
#
# Total GULP energy -178294.485378 kJ/mol
# GULP energy per Si atom -5571.702668 kJ/mol
# Density = 2.436617 g / cm^3
# Si number density = 24.421752 Si / 1000 Ang^3
#
#
#
# Elastic Constant Matrix: (Units=GPa)
#
#
# Indices 1 2 3 4 5 6 
#
# 1 39.8205 14.5204 -11.0979 0.0000 0.0000 0.0000
# 2 14.5204 306.9835 5.4455 0.0000 0.0000 0.0000
# 3 -11.0979 5.4455 58.2066 0.0000 0.0000 0.0000
# 4 0.0000 0.0000 0.0000 13.0823 0.0000 0.0000
# 5 0.0000 0.0000 0.0000 0.0000 -4.8446 0.0000
# 6 0.0000 0.0000 0.0000 0.0000 0.0000 0.8818
#
#
#
# Elastic Compliance Matrix: (Units=1/GPa)
#
#
# Indices 1 2 3 4 5 6 
#
# 1 0.027089 -0.001375 0.005294 0.000000 0.000000 0.000000
# 2 -0.001375 0.003333 -0.000574 0.000000 0.000000 0.000000
# 3 0.005294 -0.000574 0.018243 0.000000 0.000000 0.000000
# 4 0.000000 0.000000 0.000000 0.076439 0.000000 0.000000
# 5 0.000000 0.000000 0.000000 0.000000 -0.206415 0.000000
# 6 0.000000 0.000000 0.000000 0.000000 0.000000 1.134063
#
#
# Mechanical properties :
#
#
# Convention : Reuss Voigt Hill
#
# Bulk Modulus (GPa) = 18.06547 46.97185 32.51866
# Shear Modulus (GPa) = 4.69697 28.23340 16.46519
#
# Velocity S-wave (km/s) = 1.38833 3.40380 2.59936
# Velocity P-wave (km/s) = 3.15963 5.89264 4.72792
#
# Compressibility (1/GPa) = 0.05535422
#
# Stress axis : x y z
#
# Youngs Moduli (GPa) = 36.91468 300.05380 54.81494
#
# Poissons Ratio (x) = 0.41265 -0.29017
# Poissons Ratio (y) = 0.05077 0.03146
# Poissons Ratio (z) = -0.19541 0.17223
#
# Static dielectric constant tensor:
#      x y z
#    x 1.893340 0.000000 0.000000 
#    y 0.000000 2.098870 0.000000 
#    z 0.000000 0.000000 1.976870 
# 
# From -- ./inp_files/13263.got.cif
#   From: 2010.05.17/outbox.cif.g08.bks.cpg/sg40_7_cif.got.tgz:13263.got - 2010.06.03 18:35:42.
