data_PCOD9362386
_publ_section_title
;
Structure prediction by ZEFSAII (Michael W. Deem and Ramdas Pophale) SiO2 
 PCOD9362386
Probable space group: A M A 2
;
_chemical_formula_sum "Si O2"
_cell_formula_units_Z 64
_cell_length_a 8.609398
_cell_length_b 19.059504
_cell_length_c 27.304567
_cell_angle_alpha 90.000000
_cell_angle_beta 90.000000
_cell_angle_gamma 90.000000
_cell_volume 4480.429761
_symmetry_space_group_name_H-M "A M A 2"
_symmetry_group_IT_number 40
_symmetry_cell_setting 'orthorhombic'
loop_
_space_group_symop_operation_xyz
x,y,z
-x,-y,z
1/2-x,y,z
1/2+x,-y,z
x,1/2+y,1/2+z
-x,1/2-y,1/2+z
1/2-x,1/2+y,1/2+z
1/2+x,1/2-y,1/2+z
loop_
_atom_site_type_symbol
_atom_site_label
_atom_site_fract_x
_atom_site_fract_y
_atom_site_fract_z
Si Si1 0.937279 0.788431 0.191870
Si Si2 0.064234 0.577664 0.638469
Si Si3 0.064519 0.578290 0.452798
Si Si4 0.937502 0.078213 0.845914
Si Si5 0.564492 0.578033 0.152549
Si Si6 0.438270 0.838992 0.750830
Si Si7 0.063086 0.838548 0.044186
Si Si8 0.934417 0.795591 0.598930
O O1 0.750000 0.781586 0.185774
O O2 0.974418 0.869947 0.183732
O O3 0.980598 0.741781 0.238915
O O4 0.018773 0.748867 0.146964
O O5 0.250000 0.574960 0.633415
O O6 0.000000 0.500000 0.644619
O O7 0.996315 0.613714 0.589436
O O8 0.250000 0.575221 0.451952
O O9 0.000000 0.500000 0.463325
O O10 0.001161 0.598555 0.399213
O O11 0.006148 0.630470 0.494647
O O12 0.750000 0.076399 0.847658
O O13 0.990818 0.128943 0.802088
O O14 0.000000 0.000000 0.835635
O O15 0.500000 0.500000 0.148188
O O16 0.750000 0.576166 0.153623
O O17 0.511511 0.613520 0.204232
O O18 0.511896 0.629421 0.108643
O O19 0.250000 0.842216 0.751597
O O20 0.250000 0.842243 0.043107
O O21 0.017896 0.757516 0.055481
O O22 0.750000 0.804960 0.596724
#
# Coordination Sequence:
#
# PCOD9362386 Si02
#       8
#     8   8   8   8   8   8   8   8
#     4   8  15  28  42  57  79 108 138 167 201 241
#     4  10  18  27  41  60  84 111 139 170 203 241
#     4  11  21  32  44  59  81 107 138 172 207 243
#     4  10  18  29  43  59  81 106 135 170 205 238
#     4  10  18  28  42  61  86 113 142 171 201 239
#     4   8  15  27  43  60  79 107 140 171 202 239
#     4  10  19  31  45  60  80 107 140 172 205 245
#     4   9  17  28  42  60  81 105 134 169 205 242
#
# _framework density 14.284343
#
# number of rings (size 3 to 8) (size 9 to 14) (size 15 to 20)
#    0.000    2.500    0.000    5.250    0.000    2.000 
#    0.000    5.625    0.000    0.000    0.000    0.000 
#    0.000    1.000    0.000    6.000    0.000    3.000 
#
# Total GULP energy -178202.428284 kJ/mol
# GULP energy per Si atom -5568.825884 kJ/mol
# Density = 1.425183 g / cm^3
# Si number density = 14.284343 Si / 1000 Ang^3
#
#
#
# Elastic Constant Matrix: (Units=GPa)
#
#
# Indices 1 2 3 4 5 6 
#
# 1 53.9080 35.8459 28.9132 0.0000 0.0000 0.0000
# 2 35.8459 120.2646 64.9616 0.0000 0.0000 0.0000
# 3 28.9132 64.9616 94.8068 0.0000 0.0000 0.0000
# 4 0.0000 0.0000 0.0000 25.6762 0.0000 0.0000
# 5 0.0000 0.0000 0.0000 0.0000 14.9782 0.0000
# 6 0.0000 0.0000 0.0000 0.0000 0.0000 14.5674
#
#
#
# Elastic Compliance Matrix: (Units=1/GPa)
#
#
# Indices 1 2 3 4 5 6 
#
# 1 0.023983 -0.005076 -0.003836 0.000000 0.000000 0.000000
# 2 -0.005076 0.014275 -0.008233 0.000000 0.000000 0.000000
# 3 -0.003836 -0.008233 0.017359 0.000000 0.000000 0.000000
# 4 0.000000 0.000000 0.000000 0.038947 0.000000 0.000000
# 5 0.000000 0.000000 0.000000 0.000000 0.066764 0.000000
# 6 0.000000 0.000000 0.000000 0.000000 0.000000 0.068647
#
#
# Mechanical properties :
#
#
# Convention : Reuss Voigt Hill
#
# Bulk Modulus (GPa) = 46.89024 58.71342 52.80183
# Shear Modulus (GPa) = 18.42477 20.32826 19.37651
#
# Velocity S-wave (km/s) = 3.59535 3.77651 3.68705
# Velocity P-wave (km/s) = 7.08047 7.75942 7.42771
#
# Compressibility (1/GPa) = 0.02132640
#
# Stress axis : x y z
#
# Youngs Moduli (GPa) = 41.69628 70.05087 57.60703
#
# Poissons Ratio (x) = 0.35561 0.22096
# Poissons Ratio (y) = 0.21167 0.47430
# Poissons Ratio (z) = 0.15993 0.57675
#
# Static dielectric constant tensor:
#      x y z
#    x 1.482440 0.000000 0.000000 
#    y 0.000000 1.488050 0.000000 
#    z 0.000000 0.000000 1.464370 
# 
# From -- ./inp_files/25534.got.cif
#   From: 2010.05.17/outbox.cif.g08.bks.cpg/sg40_13_cif.got.tgz:25534.got - 2010.06.03 18:35:42.
