data_PCOD9362492
_publ_section_title
;
Structure prediction by ZEFSAII (Michael W. Deem and Ramdas Pophale) SiO2 
 PCOD9362492
Probable space group: A M A 2
;
_chemical_formula_sum "Si O2"
_cell_formula_units_Z 56
_cell_length_a 8.760920
_cell_length_b 18.840713
_cell_length_c 21.288417
_cell_angle_alpha 90.000000
_cell_angle_beta 90.000000
_cell_angle_gamma 90.000000
_cell_volume 3513.908247
_symmetry_space_group_name_H-M "A M A 2"
_symmetry_group_IT_number 40
_symmetry_cell_setting 'orthorhombic'
loop_
_space_group_symop_operation_xyz
x,y,z
-x,-y,z
1/2-x,y,z
1/2+x,-y,z
x,1/2+y,1/2+z
-x,1/2-y,1/2+z
1/2-x,1/2+y,1/2+z
1/2+x,1/2-y,1/2+z
loop_
_atom_site_type_symbol
_atom_site_label
_atom_site_fract_x
_atom_site_fract_y
_atom_site_fract_z
Si Si1 0.933468 0.077789 0.262900
Si Si2 0.065154 0.422112 0.270675
Si Si3 0.932686 0.151174 0.393369
Si Si4 0.074784 0.285792 0.339345
Si Si5 0.426440 0.711082 0.701892
Si Si6 0.434432 0.420758 0.023604
Si Si7 0.932454 0.347088 0.146543
O O1 0.750000 0.076550 0.261278
O O2 0.983361 0.105848 0.332303
O O3 0.995753 0.135375 0.213364
O O4 0.000000 0.000000 0.252322
O O5 0.250000 0.422369 0.267413
O O6 0.018789 0.365182 0.324434
O O7 0.000000 0.500000 0.282045
O O8 0.000380 0.392650 0.204663
O O9 0.750000 0.150119 0.392719
O O10 0.983551 0.116073 0.458272
O O11 0.985535 0.232096 0.383833
O O12 0.250000 0.289277 0.360294
O O13 0.071824 0.248759 0.270534
O O14 0.250000 0.704102 0.682734
O O15 0.515164 0.765940 0.657722
O O16 0.500000 0.500000 0.025802
O O17 0.250000 0.422648 0.026223
O O18 0.498858 0.377665 0.082608
O O19 0.750000 0.352468 0.147149
#
# Coordination Sequence:
#
# PCOD9362492 Si02
#       7
#     8   8   8   8   8   8   8
#     4  10  18  29  46  71  98 125 156 193 235 279
#     4  10  19  31  47  70  96 124 154 191 235 278
#     4   9  19  32  47  66  92 125 160 193 229 272
#     4   8  16  29  46  66  90 118 151 188 231 277
#     4   9  17  31  48  67  91 121 154 192 234 280
#     4  11  22  35  48  67  94 126 161 195 228 269
#     4  11  21  33  48  67  92 125 159 194 232 277
#
# _framework density 15.936671
#
# number of rings (size 3 to 8) (size 9 to 14) (size 15 to 20)
#    0.000    2.286    0.000    4.714    0.000    5.714 
#    0.000    0.000    0.000    0.000    0.000    1.000 
#    0.000    4.571    0.000    0.000    0.000    0.000 
#
# Total GULP energy -156125.994502 kJ/mol
# GULP energy per Si atom -5575.928375 kJ/mol
# Density = 1.590040 g / cm^3
# Si number density = 15.936671 Si / 1000 Ang^3
#
#
#
# Elastic Constant Matrix: (Units=GPa)
#
#
# Indices 1 2 3 4 5 6 
#
# 1 73.7459 49.7455 31.0375 0.0000 0.0000 0.0000
# 2 49.7455 166.2881 60.8292 0.0000 0.0000 0.0000
# 3 31.0375 60.8292 70.0616 0.0000 0.0000 0.0000
# 4 0.0000 0.0000 0.0000 25.2175 0.0000 0.0000
# 5 0.0000 0.0000 0.0000 0.0000 17.4401 0.0000
# 6 0.0000 0.0000 0.0000 0.0000 0.0000 32.1520
#
#
#
# Elastic Compliance Matrix: (Units=1/GPa)
#
#
# Indices 1 2 3 4 5 6 
#
# 1 0.018045 -0.003625 -0.004846 0.000000 0.000000 0.000000
# 2 -0.003625 0.009541 -0.006678 0.000000 0.000000 0.000000
# 3 -0.004846 -0.006678 0.022218 0.000000 0.000000 0.000000
# 4 0.000000 0.000000 0.000000 0.039655 0.000000 0.000000
# 5 0.000000 0.000000 0.000000 0.000000 0.057339 0.000000
# 6 0.000000 0.000000 0.000000 0.000000 0.000000 0.031102
#
#
# Mechanical properties :
#
#
# Convention : Reuss Voigt Hill
#
# Bulk Modulus (GPa) = 51.26858 65.92444 58.59651
# Shear Modulus (GPa) = 23.28821 26.19416 24.74119
#
# Velocity S-wave (km/s) = 3.82684 4.05858 3.94441
# Velocity P-wave (km/s) = 7.19488 7.96361 7.58899
#
# Compressibility (1/GPa) = 0.01950512
#
# Stress axis : x y z
#
# Youngs Moduli (GPa) = 55.41594 104.81159 45.00904
#
# Poissons Ratio (x) = 0.37999 0.21813
# Poissons Ratio (y) = 0.20091 0.30055
# Poissons Ratio (z) = 0.26857 0.69989
#
# Static dielectric constant tensor:
#      x y z
#    x 1.539490 0.000000 0.000000 
#    y 0.000000 1.536330 0.000000 
#    z 0.000000 0.000000 1.515510 
# 
# From -- ./inp_files/22307.got.cif
#   From: 2010.05.17/outbox.cif.g08.bks.cpg/sg40_12_cif.got.tgz:22307.got - 2010.06.03 18:35:42.
