data_PCOD9362158
_publ_section_title
;
Structure prediction by ZEFSAII (Michael W. Deem and Ramdas Pophale) SiO2 
 PCOD9362158
Probable space group: A B M 2
;
_chemical_formula_sum "Si O2"
_cell_formula_units_Z 28
_cell_length_a 5.140671
_cell_length_b 15.428426
_cell_length_c 13.877348
_cell_angle_alpha 90.000000
_cell_angle_beta 90.000000
_cell_angle_gamma 90.000000
_cell_volume 1100.646637
_symmetry_space_group_name_H-M "A B M 2"
_symmetry_group_IT_number 39
_symmetry_cell_setting 'orthorhombic'
loop_
_space_group_symop_operation_xyz
x,y,z
-x,-y,z
-x,1/2+y,z
x,1/2-y,z
x,1/2+y,1/2+z
-x,1/2-y,1/2+z
-x,y,1/2+z
x,-y,1/2+z
loop_
_atom_site_type_symbol
_atom_site_label
_atom_site_fract_x
_atom_site_fract_y
_atom_site_fract_z
Si Si1 0.951111 0.145223 0.891680
Si Si2 0.209249 0.750000 0.530768
Si Si3 0.569477 0.353388 0.268366
Si Si4 0.402582 0.093874 0.551281
O O1 0.017726 0.250000 0.926396
O O2 0.199616 0.112230 0.836918
O O3 0.705069 0.136719 0.823350
O O4 0.866687 0.108744 0.994275
O O5 0.400616 0.830834 0.516430
O O6 0.603157 0.250000 0.261838
O O7 0.594527 0.397793 0.165754
O O8 0.941290 0.250000 0.625698
O O9 0.500000 0.000000 0.522673
#
# Coordination Sequence:
#
# PCOD9362158 Si02
#       4
#     8   4   8   8
#     4  12  25  50  80 118 153 217 266 329 399 475
#     4  12  24  52  84 110 166 216 268 330 404 474
#     4  12  25  46  82 118 160 207 274 327 402 477
#     4  12  30  53  82 126 164 214 269 340 407 489
#
# _framework density 25.439591
#
# number of rings (size 3 to 8) (size 9 to 14) (size 15 to 20)
#    0.000    0.000    7.143    0.857    4.000    2.286 
#    5.143    0.000    0.000    0.000    0.000    0.000 
#    0.000    0.000    0.000    0.000    0.000    0.000 
#
# Total GULP energy -78160.009074 kJ/mol
# GULP energy per Si atom -5582.857791 kJ/mol
# Density = 2.538169 g / cm^3
# Si number density = 25.439591 Si / 1000 Ang^3
#
#
#
# Elastic Constant Matrix: (Units=GPa)
#
#
# Indices 1 2 3 4 5 6 
#
# 1 186.8062 38.1738 92.2116 0.0000 0.0000 0.0000
# 2 38.1738 117.1748 35.3418 0.0000 0.0000 0.0000
# 3 92.2116 35.3418 174.4981 0.0000 0.0000 0.0000
# 4 0.0000 0.0000 0.0000 15.3900 0.0000 0.0000
# 5 0.0000 0.0000 0.0000 0.0000 52.0825 0.0000
# 6 0.0000 0.0000 0.0000 0.0000 0.0000 20.1428
#
#
#
# Elastic Compliance Matrix: (Units=1/GPa)
#
#
# Indices 1 2 3 4 5 6 
#
# 1 0.007428 -0.001316 -0.003659 0.000000 0.000000 0.000000
# 2 -0.001316 0.009323 -0.001193 0.000000 0.000000 0.000000
# 3 -0.003659 -0.001193 0.007906 0.000000 0.000000 0.000000
# 4 0.000000 0.000000 0.000000 0.064977 0.000000 0.000000
# 5 0.000000 0.000000 0.000000 0.000000 0.019200 0.000000
# 6 0.000000 0.000000 0.000000 0.000000 0.000000 0.049645
#
#
# Mechanical properties :
#
#
# Convention : Reuss Voigt Hill
#
# Bulk Modulus (GPa) = 81.16046 89.99262 85.57654
# Shear Modulus (GPa) = 28.58414 38.37320 33.47867
#
# Velocity S-wave (km/s) = 3.35566 3.88803 3.63162
# Velocity P-wave (km/s) = 6.85467 7.45705 7.16219
#
# Compressibility (1/GPa) = 0.01232127
#
# Stress axis : x y z
#
# Youngs Moduli (GPa) = 134.62248 107.26360 126.49180
#
# Poissons Ratio (x) = 0.14121 0.46280
# Poissons Ratio (y) = 0.17723 0.15084
# Poissons Ratio (z) = 0.49254 0.12791
#
# Static dielectric constant tensor:
#      x y z
#    x 2.492720 0.000000 0.000000 
#    y 0.000000 2.446270 0.000000 
#    z 0.000000 0.000000 2.091140 
# 
# From -- ./inp_files/10783.got.cif
#   From: 2010.05.17/outbox.cif.g08.bks.cpg/sg39_6_cif.got.tgz:10783.got - 2010.06.03 18:22:40.
