data_PCOD9362719
_publ_section_title
;
Structure prediction by ZEFSAII (Michael W. Deem and Ramdas Pophale) SiO2 
 PCOD9362719
Probable space group: A M A 2
;
_chemical_formula_sum "Si O2"
_cell_formula_units_Z 64
_cell_length_a 23.942054
_cell_length_b 15.476974
_cell_length_c 7.252212
_cell_angle_alpha 90.000000
_cell_angle_beta 90.000000
_cell_angle_gamma 90.000000
_cell_volume 2687.311125
_symmetry_space_group_name_H-M "A M A 2"
_symmetry_group_IT_number 40
_symmetry_cell_setting 'orthorhombic'
loop_
_space_group_symop_operation_xyz
x,y,z
-x,-y,z
1/2-x,y,z
1/2+x,-y,z
x,1/2+y,1/2+z
-x,1/2-y,1/2+z
1/2-x,1/2+y,1/2+z
1/2+x,1/2-y,1/2+z
loop_
_atom_site_type_symbol
_atom_site_label
_atom_site_fract_x
_atom_site_fract_y
_atom_site_fract_z
Si Si1 0.621349 0.210350 0.922430
Si Si2 0.313516 0.262856 0.774815
Si Si3 0.686473 0.547131 0.292711
Si Si4 0.970160 0.640150 0.982903
Si Si5 0.389280 0.609532 0.347107
Si Si6 0.148372 0.945344 0.396171
Si Si7 0.503340 0.664615 0.411269
Si Si8 0.911624 0.392990 0.897207
O O1 0.653054 0.136231 0.815331
O O2 0.563793 0.170835 0.012034
O O3 0.600506 0.296863 0.822974
O O4 0.666558 0.245826 0.065548
O O5 0.250000 0.237181 0.807989
O O6 0.355257 0.198397 0.881609
O O7 0.320656 0.365517 0.803264
O O8 0.750000 0.552345 0.359066
O O9 0.650666 0.471142 0.383488
O O10 0.684359 0.530317 0.074664
O O11 0.978656 0.641269 0.203343
O O12 0.911519 0.596600 0.946733
O O13 0.977321 0.739368 0.920278
O O14 0.022228 0.592941 0.885980
O O15 0.449222 0.605690 0.448671
O O16 0.402180 0.607303 0.123231
O O17 0.128860 0.036026 0.310711
#
# Coordination Sequence:
#
# PCOD9362719 Si02
#       8
#     8   8   8   8   8   8   8   8
#     4  10  21  39  59  85 117 156 195 244 298 357
#     4  11  22  39  59  83 119 162 201 240 298 361
#     4  11  22  38  59  86 115 151 202 248 291 351
#     4  10  18  33  58  89 121 152 187 243 294 362
#     4   9  19  36  60  85 112 150 196 244 295 352
#     4  11  20  36  59  88 115 151 199 246 291 341
#     4  10  19  35  59  91 120 152 194 239 305 360
#     4   8  19  34  58  84 116 148 192 233 294 357
#
# _framework density 23.815626000000002
#
# number of rings (size 3 to 8) (size 9 to 14) (size 15 to 20)
#    0.000    2.000    2.500    2.250    0.000    0.500 
#    0.000    5.625    2.750    0.000    0.000    0.000 
#    0.000    0.000    0.000    0.000    0.000    0.000 
#
# Total GULP energy -178621.445819 kJ/mol
# GULP energy per Si atom -5581.920182 kJ/mol
# Density = 2.376142 g / cm^3
# Si number density = 23.815626 Si / 1000 Ang^3
#
#
#
# Elastic Constant Matrix: (Units=GPa)
#
#
# Indices 1 2 3 4 5 6 
#
# 1 170.5198 37.2036 7.0762 0.0000 0.0000 0.0000
# 2 37.2036 87.0016 -12.6476 0.0000 0.0000 0.0000
# 3 7.0762 -12.6476 35.2564 0.0000 0.0000 0.0000
# 4 0.0000 0.0000 0.0000 21.2624 0.0000 0.0000
# 5 0.0000 0.0000 0.0000 0.0000 21.1623 0.0000
# 6 0.0000 0.0000 0.0000 0.0000 0.0000 27.6097
#
#
#
# Elastic Compliance Matrix: (Units=1/GPa)
#
#
# Indices 1 2 3 4 5 6 
#
# 1 0.006669 -0.003214 -0.002491 0.000000 0.000000 0.000000
# 2 -0.003214 0.013675 0.005551 0.000000 0.000000 0.000000
# 3 -0.002491 0.005551 0.030855 0.000000 0.000000 0.000000
# 4 0.000000 0.000000 0.000000 0.047031 0.000000 0.000000
# 5 0.000000 0.000000 0.000000 0.000000 0.047254 0.000000
# 6 0.000000 0.000000 0.000000 0.000000 0.000000 0.036219
#
#
# Mechanical properties :
#
#
# Convention : Reuss Voigt Hill
#
# Bulk Modulus (GPa) = 19.65019 39.56023 29.60521
# Shear Modulus (GPa) = 25.12862 31.41659 28.27261
#
# Velocity S-wave (km/s) = 3.25180 3.63596 3.44924
# Velocity P-wave (km/s) = 4.72947 5.85441 5.32174
#
# Compressibility (1/GPa) = 0.05089009
#
# Stress axis : x y z
#
# Youngs Moduli (GPa) = 149.94671 73.12430 32.40970
#
# Poissons Ratio (x) = 0.23502 0.08075
# Poissons Ratio (y) = 0.48193 -0.17990
# Poissons Ratio (z) = 0.37359 -0.40590
#
# Static dielectric constant tensor:
#      x y z
#    x 1.888760 0.000000 0.000000 
#    y 0.000000 1.935500 0.000000 
#    z 0.000000 0.000000 2.007070 
# 
# From -- ./inp_files/8947.got.cif
#   From: 2010.05.17/outbox.cif.g08.bks.cpg/sg40_5_cif.got.tgz:8947.got - 2010.06.03 18:35:42.
