data_PCOD9362064
_publ_section_title
;
Structure prediction by ZEFSAII (Michael W. Deem and Ramdas Pophale) SiO2 
 PCOD9362064
Probable space group: A B M 2
;
_chemical_formula_sum "Si O2"
_cell_formula_units_Z 56
_cell_length_a 12.485814
_cell_length_b 15.900490
_cell_length_c 12.611037
_cell_angle_alpha 90.000000
_cell_angle_beta 90.000000
_cell_angle_gamma 90.000000
_cell_volume 2503.676246
_symmetry_space_group_name_H-M "A B M 2"
_symmetry_group_IT_number 39
_symmetry_cell_setting 'orthorhombic'
loop_
_space_group_symop_operation_xyz
x,y,z
-x,-y,z
-x,1/2+y,z
x,1/2-y,z
x,1/2+y,1/2+z
-x,1/2-y,1/2+z
-x,y,1/2+z
x,-y,1/2+z
loop_
_atom_site_type_symbol
_atom_site_label
_atom_site_fract_x
_atom_site_fract_y
_atom_site_fract_z
Si Si1 0.625611 0.347680 0.826290
Si Si2 0.770977 0.923196 0.508321
Si Si3 0.318917 0.983152 0.219502
Si Si4 0.037237 0.343415 0.424019
Si Si5 0.812219 0.382442 0.513624
Si Si6 0.613348 0.157793 0.381983
Si Si7 0.095226 0.055215 0.217644
O O1 0.641108 0.250000 0.789737
O O2 0.714744 0.377499 0.909949
O O3 0.627987 0.423944 0.738341
O O4 0.514465 0.347690 0.892859
O O5 0.686318 0.938711 0.604026
O O6 0.883054 0.872858 0.518836
O O7 0.806473 0.018623 0.487637
O O8 0.363079 0.918545 0.303926
O O9 0.193233 0.994087 0.242100
O O10 0.069483 0.250000 0.393854
O O11 0.054303 0.402965 0.323899
O O12 0.912450 0.344698 0.452471
O O13 0.695441 0.349176 0.480580
O O14 0.849809 0.379706 0.635954
O O15 0.635150 0.250000 0.333272
O O16 0.000000 0.000000 0.168734
#
# Coordination Sequence:
#
# PCOD9362064 Si02
#       7
#     8   8   8   8   8   8   8
#     4  11  24  47  73 102 139 184 244 305 364 427
#     4  11  23  43  71  98 135 185 234 288 353 430
#     4  11  23  43  72 100 137 186 233 295 356 429
#     4  12  24  40  67 101 145 186 231 292 359 433
#     4  11  23  42  66  99 137 191 236 293 355 437
#     4  11  24  44  68 100 142 182 234 303 365 432
#     4  11  23  41  68 100 138 186 242 293 357 430
#
# _framework density 22.367108000000002
#
# number of rings (size 3 to 8) (size 9 to 14) (size 15 to 20)
#    0.000    0.857    2.857    5.143    0.000    2.286 
#   10.286    4.286    0.000    0.000    0.000    0.000 
#    0.000    0.000    0.000    0.000    0.000    0.000 
#
# Total GULP energy -156124.785571 kJ/mol
# GULP energy per Si atom -5575.885199 kJ/mol
# Density = 2.231620 g / cm^3
# Si number density = 22.367108 Si / 1000 Ang^3
#
#
#
# Elastic Constant Matrix: (Units=GPa)
#
#
# Indices 1 2 3 4 5 6 
#
# 1 114.8352 15.5151 4.1911 0.0000 0.0000 0.0000
# 2 15.5151 109.3069 0.0369 0.0000 0.0000 0.0000
# 3 4.1911 0.0369 65.9928 0.0000 0.0000 0.0000
# 4 0.0000 0.0000 0.0000 5.5878 0.0000 0.0000
# 5 0.0000 0.0000 0.0000 0.0000 29.6634 0.0000
# 6 0.0000 0.0000 0.0000 0.0000 0.0000 25.9014
#
#
#
# Elastic Compliance Matrix: (Units=1/GPa)
#
#
# Indices 1 2 3 4 5 6 
#
# 1 0.008899 -0.001263 -0.000564 0.000000 0.000000 0.000000
# 2 -0.001263 0.009328 0.000075 0.000000 0.000000 0.000000
# 3 -0.000564 0.000075 0.015189 0.000000 0.000000 0.000000
# 4 0.000000 0.000000 0.000000 0.178960 0.000000 0.000000
# 5 0.000000 0.000000 0.000000 0.000000 0.033712 0.000000
# 6 0.000000 0.000000 0.000000 0.000000 0.000000 0.038608
#
#
# Mechanical properties :
#
#
# Convention : Reuss Voigt Hill
#
# Bulk Modulus (GPa) = 33.43231 36.62457 35.02844
# Shear Modulus (GPa) = 16.76891 30.25665 23.51278
#
# Velocity S-wave (km/s) = 2.74106 3.68194 3.24577
# Velocity P-wave (km/s) = 4.99974 5.87243 5.45357
#
# Compressibility (1/GPa) = 0.02991119
#
# Stress axis : x y z
#
# Youngs Moduli (GPa) = 112.36753 107.20647 65.83726
#
# Poissons Ratio (x) = 0.13540 0.03716
# Poissons Ratio (y) = 0.14192 -0.00494
# Poissons Ratio (z) = 0.06343 -0.00804
#
# Static dielectric constant tensor:
#      x y z
#    x 1.859190 0.000000 0.000000 
#    y 0.000000 1.819570 0.000000 
#    z 0.000000 0.000000 1.901010 
# 
# From -- ./inp_files/9274.got.cif
#   From: 2010.05.17/outbox.cif.g08.bks.cpg/sg39_5_cif.got.tgz:9274.got - 2010.06.03 18:22:40.
