data_PCOD9362605
_publ_section_title
;
Structure prediction by ZEFSAII (Michael W. Deem and Ramdas Pophale) SiO2 
 PCOD9362605
Probable space group: A M A 2
;
_chemical_formula_sum "Si O2"
_cell_formula_units_Z 48
_cell_length_a 8.616686
_cell_length_b 9.427333
_cell_length_c 31.945581
_cell_angle_alpha 90.000000
_cell_angle_beta 90.000000
_cell_angle_gamma 90.000000
_cell_volume 2595.015201
_symmetry_space_group_name_H-M "A M A 2"
_symmetry_group_IT_number 40
_symmetry_cell_setting 'orthorhombic'
loop_
_space_group_symop_operation_xyz
x,y,z
-x,-y,z
1/2-x,y,z
1/2+x,-y,z
x,1/2+y,1/2+z
-x,1/2-y,1/2+z
1/2-x,1/2+y,1/2+z
1/2+x,1/2-y,1/2+z
loop_
_atom_site_type_symbol
_atom_site_label
_atom_site_fract_x
_atom_site_fract_y
_atom_site_fract_z
Si Si1 0.064405 0.659206 0.911240
Si Si2 0.064106 0.340650 0.821281
Si Si3 0.063773 0.158796 0.987848
Si Si4 0.935815 0.659729 0.070168
Si Si5 0.435321 0.661306 0.157357
Si Si6 0.435616 0.839636 0.744402
O O1 0.250000 0.653519 0.909011
O O2 0.000000 0.500000 0.918350
O O3 0.996921 0.709272 0.866605
O O4 0.009144 0.759378 0.948545
O O5 0.250000 0.341597 0.821097
O O6 0.000000 0.500000 0.816249
O O7 0.999216 0.246650 0.783698
O O8 0.250000 0.157048 0.983486
O O9 0.025458 0.245156 0.030135
O O10 0.000000 0.000000 0.990158
O O11 0.750000 0.651202 0.074645
O O12 0.000000 0.500000 0.064072
O O13 0.006706 0.721644 0.113162
O O14 0.500000 0.500000 0.156554
O O15 0.250000 0.659389 0.159119
O O16 0.503384 0.723646 0.200264
O O17 0.250000 0.842568 0.744121
O O18 0.500000 0.000000 0.747152
#
# Coordination Sequence:
#
# PCOD9362605 Si02
#       6
#     8   8   8   8   8   8
#     4  11  22  39  62  86 112 146 188 231 276 329
#     4  11  22  39  60  85 115 148 187 230 279 332
#     4  11  24  40  58  83 115 149 185 230 284 337
#     4  10  20  35  57  83 110 144 187 231 277 330
#     4  10  18  31  53  81 111 145 186 231 278 327
#     4  11  21  36  57  84 116 150 189 233 281 331
#
# _framework density 18.497001999999998
#
# number of rings (size 3 to 8) (size 9 to 14) (size 15 to 20)
#    0.000    1.333    0.000   10.500    0.000    4.667 
#    0.000    4.167    0.000    2.000    0.000    0.000 
#    0.000    0.000    0.000    0.000    0.000    0.000 
#
# Total GULP energy -134127.096784 kJ/mol
# GULP energy per Si atom -5588.629033 kJ/mol
# Density = 1.845490 g / cm^3
# Si number density = 18.497002 Si / 1000 Ang^3
#
#
#
# Elastic Constant Matrix: (Units=GPa)
#
#
# Indices 1 2 3 4 5 6 
#
# 1 184.8746 50.7739 106.6320 0.0000 0.0000 0.0000
# 2 50.7739 67.8814 88.0691 0.0000 0.0000 0.0000
# 3 106.6320 88.0691 217.7333 0.0000 0.0000 0.0000
# 4 0.0000 0.0000 0.0000 29.5001 0.0000 0.0000
# 5 0.0000 0.0000 0.0000 0.0000 37.8727 0.0000
# 6 0.0000 0.0000 0.0000 0.0000 0.0000 24.3612
#
#
#
# Elastic Compliance Matrix: (Units=1/GPa)
#
#
# Indices 1 2 3 4 5 6 
#
# 1 0.007643 -0.001811 -0.003011 0.000000 0.000000 0.000000
# 2 -0.001811 0.031428 -0.011825 0.000000 0.000000 0.000000
# 3 -0.003011 -0.011825 0.010850 0.000000 0.000000 0.000000
# 4 0.000000 0.000000 0.000000 0.033898 0.000000 0.000000
# 5 0.000000 0.000000 0.000000 0.000000 0.026404 0.000000
# 6 0.000000 0.000000 0.000000 0.000000 0.000000 0.041049
#
#
# Mechanical properties :
#
#
# Convention : Reuss Voigt Hill
#
# Bulk Modulus (GPa) = 60.13980 106.82658 83.48319
# Shear Modulus (GPa) = 26.30082 33.34776 29.82429
#
# Velocity S-wave (km/s) = 3.77489 4.25063 4.01981
# Velocity P-wave (km/s) = 7.18217 9.05369 8.17169
#
# Compressibility (1/GPa) = 0.01662792
#
# Stress axis : x y z
#
# Youngs Moduli (GPa) = 130.84214 31.81872 92.16405
#
# Poissons Ratio (x) = 0.05762 0.27746
# Poissons Ratio (y) = 0.23693 1.08986
# Poissons Ratio (z) = 0.39390 0.37626
#
# Static dielectric constant tensor:
#      x y z
#    x 1.615540 0.000000 0.000000 
#    y 0.000000 1.717930 0.000000 
#    z 0.000000 0.000000 1.661460 
# 
# From -- ./inp_files/26149.got.cif
#   From: 2010.05.17/outbox.cif.g08.bks.cpg/sg40_14_cif.got.tgz:26149.got - 2010.06.03 18:35:42.
