data_PCOD9362230
_publ_section_title
;
Structure prediction by ZEFSAII (Michael W. Deem and Ramdas Pophale) SiO2 
 PCOD9362230
Probable space group: A B M 2
;
_chemical_formula_sum "Si O2"
_cell_formula_units_Z 24
_cell_length_a 15.000000
_cell_length_b 18.000000
_cell_length_c 9.000000
_cell_angle_alpha 90.000000
_cell_angle_beta 90.000000
_cell_angle_gamma 90.000000
_cell_volume 2430.000000
_symmetry_space_group_name_H-M "A B M 2"
_symmetry_group_IT_number 39
_symmetry_cell_setting 'orthorhombic'
loop_
_space_group_symop_operation_xyz
x,y,z
-x,-y,z
-x,1/2+y,z
x,1/2-y,z
x,1/2+y,1/2+z
-x,1/2-y,1/2+z
-x,y,1/2+z
x,-y,1/2+z
loop_
_atom_site_type_symbol
_atom_site_label
_atom_site_fract_x
_atom_site_fract_y
_atom_site_fract_z
Si Si1 0.232516 0.919252 0.627450
Si Si2 0.392129 0.838804 0.471869
Si Si3 0.894606 0.161672 0.035099
Si Si4 0.458575 0.083441 0.665895
Si Si5 0.033550 0.914322 0.738004
Si Si6 0.721231 0.924962 0.477297
O O1 0.294333 0.862176 0.534575
O O2 0.126086 0.905532 0.644004
O O3 0.271263 0.924281 0.797229
O O4 0.244185 0.996986 0.542266
O O5 0.396946 0.750000 0.448600
O O6 0.463084 0.865743 0.596872
O O7 0.419341 0.883468 0.320648
O O8 0.901043 0.250000 0.013876
O O9 0.952640 0.134735 0.174747
O O10 0.938351 0.115881 0.898993
O O11 0.791078 0.136617 0.037345
O O12 0.377715 0.083104 0.545345
O O13 0.500000 0.000000 0.685241
O O14 0.000000 0.000000 0.740860
#
# Coordination Sequence:
#
# PCOD9362230 Si02
#       6
#     8   8   8   8   8   8
#     4  11  24  42  70 100 135 183 232 282 340 410
#     4  12  27  45  69 105 142 179 227 288 350 407
#     4  11  25  42  67 103 140 178 227 287 346 399
#     4  12  25  45  74 101 136 184 232 281 342 419
#     4  11  23  43  71  97 137 182 234 279 336 413
#     4  11  24  43  69 100 136 180 234 283 342 408
#
# _framework density 9.8765429999999999
#
# number of rings (size 3 to 8) (size 9 to 14) (size 15 to 20)
#    0.000    0.667    3.333    4.000    2.333    6.000 
#    0.000    0.000    0.000    0.000    0.000    0.000 
#    0.000    0.000    0.000    0.000    0.000    0.000 
#
# Total GULP energy -134265.488870 kJ/mol
# GULP energy per Si atom -5594.395370 kJ/mol
# Density = 0.985406 g / cm^3
# Si number density = 9.876543 Si / 1000 Ang^3
#
#
#
# Elastic Constant Matrix: (Units=GPa)
#
#
# Indices 1 2 3 4 5 6 
#
# 1 110.0694 52.6161 23.3911 0.0000 0.0000 0.0000
# 2 52.6161 144.8531 32.2605 0.0000 0.0000 0.0000
# 3 23.3911 32.2605 79.6467 0.0000 0.0000 0.0000
# 4 0.0000 0.0000 0.0000 27.8177 0.0000 0.0000
# 5 0.0000 0.0000 0.0000 0.0000 44.9079 0.0000
# 6 0.0000 0.0000 0.0000 0.0000 0.0000 38.4709
#
#
#
# Elastic Compliance Matrix: (Units=1/GPa)
#
#
# Indices 1 2 3 4 5 6 
#
# 1 0.011226 -0.003675 -0.001808 0.000000 0.000000 0.000000
# 2 -0.003675 0.008791 -0.002481 0.000000 0.000000 0.000000
# 3 -0.001808 -0.002481 0.014092 0.000000 0.000000 0.000000
# 4 0.000000 0.000000 0.000000 0.035948 0.000000 0.000000
# 5 0.000000 0.000000 0.000000 0.000000 0.022268 0.000000
# 6 0.000000 0.000000 0.000000 0.000000 0.000000 0.025994
#
#
# Mechanical properties :
#
#
# Convention : Reuss Voigt Hill
#
# Bulk Modulus (GPa) = 55.00816 61.23385 58.12101
# Shear Modulus (GPa) = 35.63574 37.32605 36.48090
#
# Velocity S-wave (km/s) = 4.25203 4.35170 4.30216
# Velocity P-wave (km/s) = 7.21212 7.50445 7.35974
#
# Compressibility (1/GPa) = 0.01817912
#
# Stress axis : x y z
#
# Youngs Moduli (GPa) = 89.07691 113.75117 70.96387
#
# Poissons Ratio (x) = 0.41804 0.12833
# Poissons Ratio (y) = 0.32736 0.17610
# Poissons Ratio (z) = 0.16109 0.28227
#
# Static dielectric constant tensor:
#      x y z
#    x 1.711130 0.000000 0.000000 
#    y 0.000000 1.662500 0.000000 
#    z 0.000000 0.000000 1.704100 
# 
# From -- ./inp_files/3226.got.cif
#   From: 2010.05.17/outbox.ucp.g08.bks.cvg/sg39_2_cif.got.tgz:3226.got - 2010.06.11 10:41:16.
