data_PCOD9362285
_publ_section_title
;
Structure prediction by ZEFSAII (Michael W. Deem and Ramdas Pophale) SiO2 
 PCOD9362285
Probable space group: A M A 2
;
_chemical_formula_sum "Si O2"
_cell_formula_units_Z 64
_cell_length_a 8.056547
_cell_length_b 13.839731
_cell_length_c 23.999818
_cell_angle_alpha 90.000000
_cell_angle_beta 90.000000
_cell_angle_gamma 90.000000
_cell_volume 2675.990345
_symmetry_space_group_name_H-M "A M A 2"
_symmetry_group_IT_number 40
_symmetry_cell_setting 'orthorhombic'
loop_
_space_group_symop_operation_xyz
x,y,z
-x,-y,z
1/2-x,y,z
1/2+x,-y,z
x,1/2+y,1/2+z
-x,1/2-y,1/2+z
1/2-x,1/2+y,1/2+z
1/2+x,1/2-y,1/2+z
loop_
_atom_site_type_symbol
_atom_site_label
_atom_site_fract_x
_atom_site_fract_y
_atom_site_fract_z
Si Si1 0.552833 0.688178 0.152370
Si Si2 0.565736 0.342367 0.797982
Si Si3 0.952570 0.679453 0.032153
Si Si4 0.950461 0.399189 0.508539
Si Si5 0.059334 0.861985 0.412066
Si Si6 0.445272 0.902021 0.185188
Si Si7 0.055782 0.630924 0.389211
Si Si8 0.438266 0.639749 0.270870
O O1 0.750000 0.697384 0.149185
O O2 0.494905 0.643628 0.093340
O O3 0.485150 0.797907 0.158197
O O4 0.513473 0.631470 0.209511
O O5 0.750000 0.299041 0.800377
O O6 0.533123 0.394859 0.856278
O O7 0.549345 0.404011 0.742629
O O8 0.440274 0.254938 0.784258
O O9 0.750000 0.675653 0.028327
O O10 0.000559 0.793512 0.030624
O O11 0.010664 0.627937 0.974842
O O12 0.750000 0.395649 0.506205
O O13 0.024783 0.404728 0.445841
O O14 0.000000 0.500000 0.535955
O O15 0.250000 0.895735 0.410744
O O16 0.058207 0.746220 0.400851
O O17 0.250000 0.904850 0.195432
O O18 0.500000 0.000000 0.154711
O O19 0.250000 0.602192 0.386840
O O20 0.980890 0.604905 0.329050
O O21 0.250000 0.604727 0.267310
#
# Coordination Sequence:
#
# PCOD9362285 Si02
#       8
#     8   8   8   8   8   8   8   8
#     4  10  18  29  43  62  85 111 141 176 209 242
#     4  10  17  26  41  63  84 102 127 169 216 254
#     4   8  16  29  44  58  81 115 146 169 200 244
#     4   9  16  28  41  56  77 106 139 170 198 234
#     4   8  13  26  44  59  75 104 138 166 199 246
#     4  11  21  33  45  59  81 113 147 179 210 248
#     4   7  12  23  40  55  72  98 130 162 199 243
#     4   9  15  26  42  58  75 103 136 167 205 253
#
# _framework density 23.91638
#
# number of rings (size 3 to 8) (size 9 to 14) (size 15 to 20)
#    0.000    3.000    0.000    6.750    0.000    0.500 
#    0.000   10.000    0.000    0.000    0.000    0.000 
#    0.000    1.000    0.000    6.750    0.000    4.000 
#
# Total GULP energy -178203.672626 kJ/mol
# GULP energy per Si atom -5568.864770 kJ/mol
# Density = 2.386195 g / cm^3
# Si number density = 23.916380 Si / 1000 Ang^3
#
#
#
# Elastic Constant Matrix: (Units=GPa)
#
#
# Indices 1 2 3 4 5 6 
#
# 1 63.3158 -7.6779 23.4771 0.0000 0.0000 0.0000
# 2 -7.6779 37.3867 -8.4070 0.0000 0.0000 0.0000
# 3 23.4771 -8.4070 238.2049 0.0000 0.0000 0.0000
# 4 0.0000 0.0000 0.0000 -15.2539 0.0000 0.0000
# 5 0.0000 0.0000 0.0000 0.0000 21.4310 0.0000
# 6 0.0000 0.0000 0.0000 0.0000 0.0000 -36.0549
#
#
#
# Elastic Compliance Matrix: (Units=1/GPa)
#
#
# Indices 1 2 3 4 5 6 
#
# 1 0.016740 0.003091 -0.001541 0.000000 0.000000 0.000000
# 2 0.003091 0.027532 0.000667 0.000000 0.000000 0.000000
# 3 -0.001541 0.000667 0.004373 0.000000 0.000000 0.000000
# 4 0.000000 0.000000 0.000000 -0.065557 0.000000 0.000000
# 5 0.000000 0.000000 0.000000 0.000000 0.046661 0.000000
# 6 0.000000 0.000000 0.000000 0.000000 0.000000 -0.027736
#
#
# Mechanical properties :
#
#
# Convention : Reuss Voigt Hill
#
# Bulk Modulus (GPa) = 18.83917 39.29912 29.06915
# Shear Modulus (GPa) = 327.37532 16.12547 171.75039
#
# Velocity S-wave (km/s) = 11.71241 2.59944 8.48344
# Velocity P-wave (km/s) = 13.81309 5.04747 10.39900
#
# Compressibility (1/GPa) = 0.05308088
#
# Stress axis : x y z
#
# Youngs Moduli (GPa) = 59.73715 36.32100 228.65172
#
# Poissons Ratio (x) = -0.11228 0.35230
# Poissons Ratio (y) = -0.18467 -0.15252
# Poissons Ratio (z) = 0.09204 -0.02423
#
# Static dielectric constant tensor:
#      x y z
#    x 1.852070 0.000000 0.000000 
#    y 0.000000 1.954590 0.000000 
#    z 0.000000 0.000000 2.020680 
# 
# From -- ./inp_files/24424.got.cif
#   From: 2010.05.17/outbox.cif.g08.bks.cpg/sg40_13_cif.got.tgz:24424.got - 2010.06.03 18:35:42.
