data_PCOD9362152
_publ_section_title
;
Structure prediction by ZEFSAII (Michael W. Deem and Ramdas Pophale) SiO2 
 PCOD9362152
Probable space group: A B M 2
;
_chemical_formula_sum "Si O2"
_cell_formula_units_Z 32
_cell_length_a 12.399496
_cell_length_b 20.964595
_cell_length_c 4.901532
_cell_angle_alpha 90.000000
_cell_angle_beta 90.000000
_cell_angle_gamma 90.000000
_cell_volume 1274.155262
_symmetry_space_group_name_H-M "A B M 2"
_symmetry_group_IT_number 39
_symmetry_cell_setting 'orthorhombic'
loop_
_space_group_symop_operation_xyz
x,y,z
-x,-y,z
-x,1/2+y,z
x,1/2-y,z
x,1/2+y,1/2+z
-x,1/2-y,1/2+z
-x,y,1/2+z
x,-y,1/2+z
loop_
_atom_site_type_symbol
_atom_site_label
_atom_site_fract_x
_atom_site_fract_y
_atom_site_fract_z
Si Si1 0.569655 0.649054 0.114290
Si Si2 0.064158 0.606630 0.367714
Si Si3 0.270287 0.250000 0.371682
Si Si4 0.128838 0.750000 0.383688
Si Si5 0.729708 0.458636 0.635408
O O1 0.466856 0.662517 0.306977
O O2 0.662641 0.690269 0.257461
O O3 0.616811 0.578025 0.106438
O O4 0.071151 0.683074 0.334351
O O5 0.174426 0.584212 0.509352
O O6 0.031591 0.583990 0.067964
O O7 0.235041 0.250000 0.685890
O O8 0.160974 0.250000 0.199803
O O9 0.736436 0.521823 0.450063
#
# Coordination Sequence:
#
# PCOD9362152 Si02
#       5
#     8   8   4   4   8
#     4  12  26  46  74 107 143 188 239 297 366 435
#     4  12  26  46  74 107 143 188 239 297 366 435
#     4  12  24  44  76 105 147 186 230 298 374 433
#     4  12  24  44  76 105 147 186 230 298 374 433
#     4  12  28  47  72 103 144 194 246 300 352 424
#
# _framework density 25.114677
#
# number of rings (size 3 to 8) (size 9 to 14) (size 15 to 20)
#    0.000    0.000    2.500    7.500    3.500    6.000 
#    0.000    0.000    0.000    0.000    0.000    0.000 
#    0.000    0.000    0.000    0.000    0.000    0.000 
#
# Total GULP energy -89548.211207 kJ/mol
# GULP energy per Si atom -5596.763200 kJ/mol
# Density = 2.505751 g / cm^3
# Si number density = 25.114677 Si / 1000 Ang^3
#
#
#
# Elastic Constant Matrix: (Units=GPa)
#
#
# Indices 1 2 3 4 5 6 
#
# 1 56.9711 10.1708 17.4492 0.0000 0.0000 0.0000
# 2 10.1708 50.1269 7.7118 0.0000 0.0000 0.0000
# 3 17.4492 7.7118 118.8198 0.0000 0.0000 0.0000
# 4 0.0000 0.0000 0.0000 25.9383 0.0000 0.0000
# 5 0.0000 0.0000 0.0000 0.0000 49.3722 0.0000
# 6 0.0000 0.0000 0.0000 0.0000 0.0000 37.2565
#
#
#
# Elastic Compliance Matrix: (Units=1/GPa)
#
#
# Indices 1 2 3 4 5 6 
#
# 1 0.018953 -0.003452 -0.002559 0.000000 0.000000 0.000000
# 2 -0.003452 0.020779 -0.000842 0.000000 0.000000 0.000000
# 3 -0.002559 -0.000842 0.008847 0.000000 0.000000 0.000000
# 4 0.000000 0.000000 0.000000 0.038553 0.000000 0.000000
# 5 0.000000 0.000000 0.000000 0.000000 0.020254 0.000000
# 6 0.000000 0.000000 0.000000 0.000000 0.000000 0.026841
#
#
# Mechanical properties :
#
#
# Convention : Reuss Voigt Hill
#
# Bulk Modulus (GPa) = 28.67545 32.95349 30.81447
# Shear Modulus (GPa) = 31.33678 35.21914 33.27796
#
# Velocity S-wave (km/s) = 3.53618 3.74884 3.64406
# Velocity P-wave (km/s) = 5.30239 5.64695 5.47738
#
# Compressibility (1/GPa) = 0.03487303
#
# Stress axis : x y z
#
# Youngs Moduli (GPa) = 52.76246 48.12501 113.03806
#
# Poissons Ratio (x) = 0.16612 0.28930
# Poissons Ratio (y) = 0.18213 0.09515
# Poissons Ratio (z) = 0.13503 0.04051
#
# Static dielectric constant tensor:
#      x y z
#    x 1.975280 0.000000 0.000000 
#    y 0.000000 2.007510 0.000000 
#    z 0.000000 0.000000 1.858910 
# 
# From -- ./inp_files/263.got.cif
#   From: 2010.05.17/outbox.cif.g08.bks.cpg/sg39_1_cif.got.tgz:263.got - 2010.06.03 18:22:40.
