data_PCOD9362865
_publ_section_title
;
Structure prediction by ZEFSAII (Michael W. Deem and Ramdas Pophale) SiO2 
 PCOD9362865
Probable space group: A M A 2
;
_chemical_formula_sum "Si O2"
_cell_formula_units_Z 48
_cell_length_a 8.417146
_cell_length_b 14.277135
_cell_length_c 24.632416
_cell_angle_alpha 90.000000
_cell_angle_beta 90.000000
_cell_angle_gamma 90.000000
_cell_volume 2960.144671
_symmetry_space_group_name_H-M "A M A 2"
_symmetry_group_IT_number 40
_symmetry_cell_setting 'orthorhombic'
loop_
_space_group_symop_operation_xyz
x,y,z
-x,-y,z
1/2-x,y,z
1/2+x,-y,z
x,1/2+y,1/2+z
-x,1/2-y,1/2+z
1/2-x,1/2+y,1/2+z
1/2+x,1/2-y,1/2+z
loop_
_atom_site_type_symbol
_atom_site_label
_atom_site_fract_x
_atom_site_fract_y
_atom_site_fract_z
Si Si1 0.439869 0.395317 0.477920
Si Si2 0.058496 0.104211 0.188298
Si Si3 0.057795 0.395087 0.354897
Si Si4 0.441383 0.895794 0.642308
Si Si5 0.556248 0.213354 0.750033
Si Si6 0.941667 0.787087 0.080438
O O1 0.500000 0.500000 0.491023
O O2 0.250000 0.397212 0.477983
O O3 0.494683 0.372627 0.416423
O O4 0.497390 0.323446 0.523228
O O5 0.250000 0.103773 0.188388
O O6 0.005739 0.182834 0.231702
O O7 0.007606 0.142666 0.129019
O O8 0.000000 0.000000 0.198446
O O9 0.250000 0.395318 0.354516
O O10 0.002099 0.324401 0.308153
O O11 0.000000 0.500000 0.342246
O O12 0.250000 0.896397 0.642257
O O13 0.492030 0.857279 0.701609
O O14 0.493040 0.816808 0.599006
O O15 0.500000 0.000000 0.632062
O O16 0.750000 0.213809 0.750491
O O17 0.750000 0.787860 0.079527
#
# Coordination Sequence:
#
# PCOD9362865 Si02
#       6
#     8   8   8   8   8   8
#     4  10  19  29  44  66  89 115 146 178 214 256
#     4   9  17  29  45  64  86 113 143 175 213 255
#     4   9  17  29  45  65  88 114 142 173 211 254
#     4   9  17  29  46  67  89 114 143 176 216 258
#     4   8  15  29  46  63  87 116 141 170 213 259
#     4   9  18  31  45  63  89 118 145 176 215 256
#
# _framework density 16.215425
#
# number of rings (size 3 to 8) (size 9 to 14) (size 15 to 20)
#    0.000    3.000    0.000    3.500    0.000    3.333 
#    0.000    3.333    0.000    1.000    0.000    4.667 
#    0.000    0.000    0.000    0.000    0.000    0.000 
#
# Total GULP energy -133715.732266 kJ/mol
# GULP energy per Si atom -5571.488844 kJ/mol
# Density = 1.617852 g / cm^3
# Si number density = 16.215425 Si / 1000 Ang^3
#
#
#
# Elastic Constant Matrix: (Units=GPa)
#
#
# Indices 1 2 3 4 5 6 
#
# 1 6.7704 18.0049 18.0963 0.0000 0.0000 0.0000
# 2 18.0049 152.6614 96.3019 0.0000 0.0000 0.0000
# 3 18.0963 96.3019 126.9161 0.0000 0.0000 0.0000
# 4 0.0000 0.0000 0.0000 24.7421 0.0000 0.0000
# 5 0.0000 0.0000 0.0000 0.0000 21.1586 0.0000
# 6 0.0000 0.0000 0.0000 0.0000 0.0000 26.7787
#
#
#
# Elastic Compliance Matrix: (Units=1/GPa)
#
#
# Indices 1 2 3 4 5 6 
#
# 1 0.252481 -0.013558 -0.025713 0.000000 0.000000 0.000000
# 2 -0.013558 0.013293 -0.008153 0.000000 0.000000 0.000000
# 3 -0.025713 -0.008153 0.017732 0.000000 0.000000 0.000000
# 4 0.000000 0.000000 0.000000 0.040417 0.000000 0.000000
# 5 0.000000 0.000000 0.000000 0.000000 0.047262 0.000000
# 6 0.000000 0.000000 0.000000 0.000000 0.000000 0.037343
#
#
# Mechanical properties :
#
#
# Convention : Reuss Voigt Hill
#
# Bulk Modulus (GPa) = 5.30057 61.23937 33.26997
# Shear Modulus (GPa) = 8.82985 24.79885 16.81435
#
# Velocity S-wave (km/s) = 2.33606 3.91492 3.22364
# Velocity P-wave (km/s) = 3.24841 7.63437 5.86667
#
# Compressibility (1/GPa) = 0.18865894
#
# Stress axis : x y z
#
# Youngs Moduli (GPa) = 3.96069 75.23003 56.39560
#
# Poissons Ratio (x) = 1.01994 1.45008
# Poissons Ratio (y) = 0.05370 0.45980
# Poissons Ratio (z) = 0.10184 0.61336
#
# Static dielectric constant tensor:
#      x y z
#    x 1.562450 0.000000 0.000000 
#    y 0.000000 1.525480 0.000000 
#    z 0.000000 0.000000 1.553200 
# 
# From -- ./inp_files/21994.got.cif
#   From: 2010.05.17/outbox.cif.g08.bks.cpg/sg40_11_cif.got.tgz:21994.got - 2010.06.03 18:35:42.
