data_PCOD9362287
_publ_section_title
;
Structure prediction by ZEFSAII (Michael W. Deem and Ramdas Pophale) SiO2 
 PCOD9362287
Probable space group: A M A 2
;
_chemical_formula_sum "Si O2"
_cell_formula_units_Z 56
_cell_length_a 8.677760
_cell_length_b 22.680271
_cell_length_c 18.436742
_cell_angle_alpha 90.000000
_cell_angle_beta 90.000000
_cell_angle_gamma 90.000000
_cell_volume 3628.607990
_symmetry_space_group_name_H-M "A M A 2"
_symmetry_group_IT_number 40
_symmetry_cell_setting 'orthorhombic'
loop_
_space_group_symop_operation_xyz
x,y,z
-x,-y,z
1/2-x,y,z
1/2+x,-y,z
x,1/2+y,1/2+z
-x,1/2-y,1/2+z
1/2-x,1/2+y,1/2+z
1/2+x,1/2-y,1/2+z
loop_
_atom_site_type_symbol
_atom_site_label
_atom_site_fract_x
_atom_site_fract_y
_atom_site_fract_z
Si Si1 0.435738 0.716696 0.313160
Si Si2 0.428841 0.816317 0.503617
Si Si3 0.937287 0.351583 0.617297
Si Si4 0.928695 0.823101 0.962788
Si Si5 0.066292 0.934403 0.241314
Si Si6 0.932478 0.844668 0.355871
Si Si7 0.064048 0.283037 0.159280
O O1 0.250000 0.719186 0.316107
O O2 0.493008 0.677058 0.381250
O O3 0.499589 0.782643 0.326729
O O4 0.491324 0.696712 0.234476
O O5 0.250000 0.835071 0.498894
O O6 0.430206 0.746264 0.484761
O O7 0.525557 0.847361 0.440995
O O8 0.482451 0.818720 0.586930
O O9 0.750000 0.355070 0.617766
O O10 0.993550 0.355562 0.533647
O O11 0.977238 0.285933 0.646314
O O12 0.006139 0.399788 0.670405
O O13 0.750000 0.841424 0.957532
O O14 0.250000 0.935722 0.241252
O O15 0.006756 0.896971 0.309954
O O16 0.000000 0.000000 0.242890
O O17 0.750000 0.844361 0.344961
O O18 0.250000 0.285447 0.163406
#
# Coordination Sequence:
#
# PCOD9362287 Si02
#       7
#     8   8   8   8   8   8   8
#     4  10  17  26  42  65  91 121 153 182 216 264
#     4   8  15  28  43  61  85 117 150 180 218 266
#     4   9  16  30  47  61  84 117 150 185 225 265
#     4   7  13  25  41  60  84 116 147 177 216 262
#     4  12  24  36  49  66  86 114 152 194 231 271
#     4  11  20  31  45  62  86 117 150 188 229 265
#     4   9  16  26  43  65  92 122 150 181 221 265
#
# _framework density 15.432916000000001
#
# number of rings (size 3 to 8) (size 9 to 14) (size 15 to 20)
#    0.000    2.571    1.429    5.571    0.000    0.571 
#    0.000    6.429    0.000    0.000    0.000    0.000 
#    0.000    1.143    0.000    8.857    0.000    5.429 
#
# Total GULP energy -155926.091287 kJ/mol
# GULP energy per Si atom -5568.788975 kJ/mol
# Density = 1.539779 g / cm^3
# Si number density = 15.432916 Si / 1000 Ang^3
#
#
#
# Elastic Constant Matrix: (Units=GPa)
#
#
# Indices 1 2 3 4 5 6 
#
# 1 54.4554 21.4794 39.3531 0.0000 0.0000 0.0000
# 2 21.4794 46.9933 39.4396 0.0000 0.0000 0.0000
# 3 39.3531 39.4396 166.0528 0.0000 0.0000 0.0000
# 4 0.0000 0.0000 0.0000 12.4270 0.0000 0.0000
# 5 0.0000 0.0000 0.0000 0.0000 19.1456 0.0000
# 6 0.0000 0.0000 0.0000 0.0000 0.0000 -0.9047
#
#
#
# Elastic Compliance Matrix: (Units=1/GPa)
#
#
# Indices 1 2 3 4 5 6 
#
# 1 0.024262 -0.007823 -0.003892 0.000000 0.000000 0.000000
# 2 -0.007823 0.029100 -0.005058 0.000000 0.000000 0.000000
# 3 -0.003892 -0.005058 0.008146 0.000000 0.000000 0.000000
# 4 0.000000 0.000000 0.000000 0.080470 0.000000 0.000000
# 5 0.000000 0.000000 0.000000 0.000000 0.052231 0.000000
# 6 0.000000 0.000000 0.000000 0.000000 0.000000 -1.105352
#
#
# Mechanical properties :
#
#
# Convention : Reuss Voigt Hill
#
# Bulk Modulus (GPa) = 35.76219 52.00509 43.88364
# Shear Modulus (GPa) = -5.75853 17.28219 5.76183
#
# Velocity S-wave (km/s) = -1.93376 3.35001 1.93431
# Velocity P-wave (km/s) = 4.27049 6.98098 5.78667
#
# Compressibility (1/GPa) = 0.02796249
#
# Stress axis : x y z
#
# Youngs Moduli (GPa) = 41.21689 34.36412 122.76367
#
# Poissons Ratio (x) = 0.26884 0.47776
# Poissons Ratio (y) = 0.32245 0.62089
# Poissons Ratio (z) = 0.16041 0.17380
#
# Static dielectric constant tensor:
#      x y z
#    x 1.519930 0.000000 0.000000 
#    y 0.000000 1.469360 0.000000 
#    z 0.000000 0.000000 1.575880 
# 
# From -- ./inp_files/19659.got.cif
#   From: 2010.05.17/outbox.cif.g08.bks.cpg/sg40_10_cif.got.tgz:19659.got - 2010.06.03 18:35:42.
