data_PCOD9362384
_publ_section_title
;
Structure prediction by ZEFSAII (Michael W. Deem and Ramdas Pophale) SiO2 
 PCOD9362384
Probable space group: A M A 2
;
_chemical_formula_sum "Si O2"
_cell_formula_units_Z 64
_cell_length_a 9.084837
_cell_length_b 26.762744
_cell_length_c 18.866969
_cell_angle_alpha 90.000000
_cell_angle_beta 90.000000
_cell_angle_gamma 90.000000
_cell_volume 4587.223657
_symmetry_space_group_name_H-M "A M A 2"
_symmetry_group_IT_number 40
_symmetry_cell_setting 'orthorhombic'
loop_
_space_group_symop_operation_xyz
x,y,z
-x,-y,z
1/2-x,y,z
1/2+x,-y,z
x,1/2+y,1/2+z
-x,1/2-y,1/2+z
1/2-x,1/2+y,1/2+z
1/2+x,1/2-y,1/2+z
loop_
_atom_site_type_symbol
_atom_site_label
_atom_site_fract_x
_atom_site_fract_y
_atom_site_fract_z
Si Si1 0.573170 0.652576 0.979720
Si Si2 0.919184 0.301705 0.849905
Si Si3 0.573948 0.052183 0.560227
Si Si4 0.081020 0.805840 0.929860
Si Si5 0.573598 0.552954 0.226198
Si Si6 0.074970 0.645258 0.303731
Si Si7 0.572310 0.755071 0.560806
Si Si8 0.925822 0.750260 0.725331
O O1 0.750000 0.656532 0.978894
O O2 0.509045 0.661871 0.901406
O O3 0.530275 0.599187 0.012413
O O4 0.507016 0.696146 0.029527
O O5 0.750000 0.317412 0.843098
O O6 0.920673 0.248160 0.890684
O O7 0.992599 0.289686 0.774736
O O8 0.750000 0.046774 0.555820
O O9 0.537940 0.062343 0.642959
O O10 0.500000 0.000000 0.539806
O O11 0.250000 0.823873 0.929239
O O12 0.979572 0.841220 0.882753
O O13 0.035172 0.791682 0.009675
O O14 0.500000 0.500000 0.245087
O O15 0.750000 0.550271 0.233290
O O16 0.508174 0.597744 0.272239
O O17 0.250000 0.637649 0.302065
O O18 0.040472 0.694256 0.255648
O O19 0.750000 0.762205 0.555075
O O20 0.534975 0.747267 0.642768
O O21 0.750000 0.743480 0.732551
#
# Coordination Sequence:
#
# PCOD9362384 Si02
#       8
#     8   8   8   8   8   8   8   8
#     4  10  18  28  42  60  82 109 141 173 207 244
#     4   9  17  28  41  58  80 108 140 171 205 244
#     4   9  19  31  43  60  81 107 138 172 207 242
#     4   8  15  27  40  55  78 107 137 168 200 238
#     4  10  19  31  44  59  81 107 137 172 207 241
#     4  10  18  27  41  60  81 108 140 170 204 242
#     4   9  17  28  42  61  84 111 141 170 205 246
#     4   9  17  28  42  61  85 111 139 172 206 243
#
# _framework density 13.951794
#
# number of rings (size 3 to 8) (size 9 to 14) (size 15 to 20)
#    0.000    2.750    0.000    3.000    0.000    5.500 
#    0.000    0.000    0.000    0.000    0.000    0.000 
#    0.000    1.000    0.000    6.500    0.000    4.875 
#
# Total GULP energy -178284.140089 kJ/mol
# GULP energy per Si atom -5571.379378 kJ/mol
# Density = 1.392004 g / cm^3
# Si number density = 13.951794 Si / 1000 Ang^3
#
#
#
# Elastic Constant Matrix: (Units=GPa)
#
#
# Indices 1 2 3 4 5 6 
#
# 1 52.7009 47.0904 48.4918 0.0000 0.0000 0.0000
# 2 47.0904 83.6822 58.4363 0.0000 0.0000 0.0000
# 3 48.4918 58.4363 117.8855 0.0000 0.0000 0.0000
# 4 0.0000 0.0000 0.0000 24.2780 0.0000 0.0000
# 5 0.0000 0.0000 0.0000 0.0000 21.3622 0.0000
# 6 0.0000 0.0000 0.0000 0.0000 0.0000 21.6303
#
#
#
# Elastic Compliance Matrix: (Units=1/GPa)
#
#
# Indices 1 2 3 4 5 6 
#
# 1 0.043401 -0.018286 -0.008788 0.000000 0.000000 0.000000
# 2 -0.018286 0.025981 -0.005357 0.000000 0.000000 0.000000
# 3 -0.008788 -0.005357 0.014753 0.000000 0.000000 0.000000
# 4 0.000000 0.000000 0.000000 0.041190 0.000000 0.000000
# 5 0.000000 0.000000 0.000000 0.000000 0.046812 0.000000
# 6 0.000000 0.000000 0.000000 0.000000 0.000000 0.046231
#
#
# Mechanical properties :
#
#
# Convention : Reuss Voigt Hill
#
# Bulk Modulus (GPa) = 51.88746 62.47840 57.18293
# Shear Modulus (GPa) = 17.26199 20.13743 18.69971
#
# Velocity S-wave (km/s) = 3.52129 3.80328 3.66499
# Velocity P-wave (km/s) = 7.33511 8.01033 7.68015
#
# Compressibility (1/GPa) = 0.01927248
#
# Stress axis : x y z
#
# Youngs Moduli (GPa) = 23.04119 38.49000 67.78118
#
# Poissons Ratio (x) = 0.70382 0.59568
# Poissons Ratio (y) = 0.42133 0.36310
# Poissons Ratio (z) = 0.20249 0.20619
#
# Static dielectric constant tensor:
#      x y z
#    x 1.467080 0.000000 0.000000 
#    y 0.000000 1.430330 0.000000 
#    z 0.000000 0.000000 1.463910 
# 
# From -- ./inp_files/19712.got.cif
#   From: 2010.05.17/outbox.cif.g08.bks.cpg/sg40_10_cif.got.tgz:19712.got - 2010.06.03 18:35:42.
