data_PCOD9362181
_publ_section_title
;
Structure prediction by ZEFSAII (Michael W. Deem and Ramdas Pophale) SiO2 
 PCOD9362181
Probable space group: A B M 2
;
_chemical_formula_sum "Si O2"
_cell_formula_units_Z 28
_cell_length_a 15.000000
_cell_length_b 9.000000
_cell_length_c 21.000000
_cell_angle_alpha 90.000000
_cell_angle_beta 90.000000
_cell_angle_gamma 90.000000
_cell_volume 2835.000000
_symmetry_space_group_name_H-M "A B M 2"
_symmetry_group_IT_number 39
_symmetry_cell_setting 'orthorhombic'
loop_
_space_group_symop_operation_xyz
x,y,z
-x,-y,z
-x,1/2+y,z
x,1/2-y,z
x,1/2+y,1/2+z
-x,1/2-y,1/2+z
-x,y,1/2+z
x,-y,1/2+z
loop_
_atom_site_type_symbol
_atom_site_label
_atom_site_fract_x
_atom_site_fract_y
_atom_site_fract_z
Si Si1 0.411865 0.421012 0.225790
Si Si2 0.788892 0.929925 0.194516
Si Si3 0.410460 0.071732 0.999741
Si Si4 0.911397 0.071892 0.449985
Si Si5 0.774950 0.069911 0.554964
Si Si6 0.646346 0.924033 0.368201
Si Si7 0.170863 0.427836 0.820915
O O1 0.500000 0.500000 0.201818
O O2 0.415565 0.250000 0.206077
O O3 0.314814 0.476857 0.204141
O O4 0.410201 0.427901 0.303001
O O5 0.792295 0.750000 0.200765
O O6 0.813352 0.975886 0.123086
O O7 0.843563 0.001838 0.251856
O O8 0.416312 0.250000 0.996014
O O9 0.500000 0.000000 0.025046
O O10 0.393927 0.006825 0.928892
O O11 0.327047 0.028513 0.043468
O O12 0.915239 0.250000 0.453372
O O13 0.830210 0.019847 0.493893
O O14 0.898036 0.031852 0.376286
O O15 0.000000 0.000000 0.475872
O O16 0.776702 0.250000 0.555212
O O17 0.661419 0.750000 0.383198
O O18 0.737191 0.005517 0.348271
O O19 0.177230 0.250000 0.816343
#
# Coordination Sequence:
#
# PCOD9362181 Si02
#       7
#     8   8   8   8   8   8   8
#     4   9  18  29  44  70 101 138 185 232 275 323
#     4   9  19  36  57  78 107 152 196 230 280 344
#     4  11  21  34  52  79 115 156 198 241 288 338
#     4  10  21  39  63  90 114 147 187 233 292 348
#     4   9  19  39  60  79 114 158 193 233 288 343
#     4  10  19  32  51  77 108 146 193 239 287 339
#     4  10  19  35  58  85 115 143 180 234 293 343
#
# _framework density 9.8765429999999999
#
# number of rings (size 3 to 8) (size 9 to 14) (size 15 to 20)
#    0.000    2.286    1.429    2.571    0.000    5.714 
#    0.000    2.857    0.000    3.429    0.000    0.000 
#    0.000    0.000    0.000    0.000    0.000    0.000 
#
# Total GULP energy -156114.253253 kJ/mol
# GULP energy per Si atom -5575.509045 kJ/mol
# Density = 0.985406 g / cm^3
# Si number density = 9.876543 Si / 1000 Ang^3
#
#
#
# Elastic Constant Matrix: (Units=GPa)
#
#
# Indices 1 2 3 4 5 6 
#
# 1 61.8178 15.0036 30.4535 0.0000 0.0000 0.0000
# 2 15.0036 28.1444 29.1677 0.0000 0.0000 0.0000
# 3 30.4535 29.1677 116.1950 0.0000 0.0000 0.0000
# 4 0.0000 0.0000 0.0000 0.2408 0.0000 0.0000
# 5 0.0000 0.0000 0.0000 0.0000 -5.7036 0.0000
# 6 0.0000 0.0000 0.0000 0.0000 0.0000 20.5485
#
#
#
# Elastic Compliance Matrix: (Units=1/GPa)
#
#
# Indices 1 2 3 4 5 6 
#
# 1 0.019518 -0.006898 -0.003384 0.000000 0.000000 0.000000
# 2 -0.006898 0.050463 -0.010859 0.000000 0.000000 0.000000
# 3 -0.003384 -0.010859 0.012219 0.000000 0.000000 0.000000
# 4 0.000000 0.000000 0.000000 4.152318 0.000000 0.000000
# 5 0.000000 0.000000 0.000000 0.000000 -0.175329 0.000000
# 6 0.000000 0.000000 0.000000 0.000000 0.000000 0.048665
#
#
# Mechanical properties :
#
#
# Convention : Reuss Voigt Hill
#
# Bulk Modulus (GPa) = 25.05199 39.48965 32.27082
# Shear Modulus (GPa) = 1.20093 11.78598 6.49345
#
# Velocity S-wave (km/s) = 0.78057 2.44532 1.81506
# Velocity P-wave (km/s) = 3.67729 5.29224 4.55688
#
# Compressibility (1/GPa) = 0.03991699
#
# Stress axis : x y z
#
# Youngs Moduli (GPa) = 51.23539 19.81665 81.83921
#
# Poissons Ratio (x) = 0.13669 0.27693
# Poissons Ratio (y) = 0.35342 0.88873
# Poissons Ratio (z) = 0.17337 0.21520
#
# Static dielectric constant tensor:
#      x y z
#    x 1.782100 0.000000 0.000000 
#    y 0.000000 1.664150 0.000000 
#    z 0.000000 0.000000 1.710240 
# 
# From -- ./inp_files/14735.got.cif
#   From: 2010.05.17/outbox.ucp.g08.bks.cvg/sg39_8_cif.got.tgz:14735.got - 2010.06.11 10:41:16.
