data_PCOD9362117
_publ_section_title
;
Structure prediction by ZEFSAII (Michael W. Deem and Ramdas Pophale) SiO2 
 PCOD9362117
Probable space group: A B M 2
;
_chemical_formula_sum "Si O2"
_cell_formula_units_Z 56
_cell_length_a 8.251544
_cell_length_b 22.485077
_cell_length_c 14.461387
_cell_angle_alpha 90.000000
_cell_angle_beta 90.000000
_cell_angle_gamma 90.000000
_cell_volume 2683.116607
_symmetry_space_group_name_H-M "A B M 2"
_symmetry_group_IT_number 39
_symmetry_cell_setting 'orthorhombic'
loop_
_space_group_symop_operation_xyz
x,y,z
-x,-y,z
-x,1/2+y,z
x,1/2-y,z
x,1/2+y,1/2+z
-x,1/2-y,1/2+z
-x,y,1/2+z
x,-y,1/2+z
loop_
_atom_site_type_symbol
_atom_site_label
_atom_site_fract_x
_atom_site_fract_y
_atom_site_fract_z
Si Si1 0.882517 0.111226 0.653120
Si Si2 0.619369 0.890263 0.424423
Si Si3 0.157690 0.604359 0.297361
Si Si4 0.664098 0.480419 0.765634
Si Si5 0.029204 0.431932 0.470840
Si Si6 0.598087 0.180627 0.570060
Si Si7 0.472984 0.317778 0.777574
O O1 0.760900 0.069909 0.711244
O O2 0.956809 0.072495 0.571642
O O3 0.779639 0.161899 0.600555
O O4 0.030051 0.127170 0.721061
O O5 0.600081 0.949447 0.360701
O O6 0.486983 0.865492 0.498111
O O7 0.617687 0.839843 0.344286
O O8 0.789523 0.905680 0.472119
O O9 0.219363 0.536971 0.277569
O O10 0.068820 0.605345 0.395292
O O11 0.319032 0.642592 0.300532
O O12 0.500000 0.500000 0.714240
O O13 0.000000 0.500000 0.440501
O O14 0.589886 0.250000 0.538923
O O15 0.507471 0.176309 0.668896
O O16 0.438707 0.250000 0.798151
#
# Coordination Sequence:
#
# PCOD9362117 Si02
#       7
#     8   8   8   8   8   8   8
#     4  12  25  43  68 103 144 185 229 294 361 417
#     4  12  23  45  67 101 139 190 234 287 355 414
#     4  12  22  44  65 103 144 176 233 294 353 427
#     4  12  23  43  69 100 144 187 229 290 356 432
#     4  12  24  39  66 100 141 186 224 286 356 419
#     4  11  25  46  69  99 138 186 248 291 337 426
#     4  11  24  45  71  98 135 185 237 292 344 414
#
# _framework density 20.87125
#
# number of rings (size 3 to 8) (size 9 to 14) (size 15 to 20)
#    0.000    0.286    5.714    3.429    0.000    1.714 
#    0.000    2.857    0.000    0.000    0.000    0.000 
#    0.000    0.000    0.000    0.000    0.000    0.000 
#
# Total GULP energy -156290.008411 kJ/mol
# GULP energy per Si atom -5581.786015 kJ/mol
# Density = 2.082375 g / cm^3
# Si number density = 20.871250 Si / 1000 Ang^3
#
#
#
# Elastic Constant Matrix: (Units=GPa)
#
#
# Indices 1 2 3 4 5 6 
#
# 1 102.0460 40.2823 34.3876 0.0000 0.0000 0.0000
# 2 40.2823 102.0162 32.4975 0.0000 0.0000 0.0000
# 3 34.3876 32.4975 98.1920 0.0000 0.0000 0.0000
# 4 0.0000 0.0000 0.0000 -0.7879 0.0000 0.0000
# 5 0.0000 0.0000 0.0000 0.0000 38.1440 0.0000
# 6 0.0000 0.0000 0.0000 0.0000 0.0000 19.1560
#
#
#
# Elastic Compliance Matrix: (Units=1/GPa)
#
#
# Indices 1 2 3 4 5 6 
#
# 1 0.012369 -0.003917 -0.003035 0.000000 0.000000 0.000000
# 2 -0.003917 0.012198 -0.002665 0.000000 0.000000 0.000000
# 3 -0.003035 -0.002665 0.012129 0.000000 0.000000 0.000000
# 4 0.000000 0.000000 0.000000 -1.269172 0.000000 0.000000
# 5 0.000000 0.000000 0.000000 0.000000 0.026216 0.000000
# 6 0.000000 0.000000 0.000000 0.000000 0.000000 0.052203
#
#
# Mechanical properties :
#
#
# Convention : Reuss Voigt Hill
#
# Bulk Modulus (GPa) = 57.27107 57.39876 57.33492
# Shear Modulus (GPa) = -4.42869 24.30822 9.93977
#
# Velocity S-wave (km/s) = -1.45826 3.41644 2.18466
# Velocity P-wave (km/s) = 4.96633 6.56687 5.82186
#
# Compressibility (1/GPa) = 0.01746082
#
# Stress axis : x y z
#
# Youngs Moduli (GPa) = 80.85044 81.98025 82.44577
#
# Poissons Ratio (x) = 0.32112 0.25024
# Poissons Ratio (y) = 0.31669 0.21974
# Poissons Ratio (z) = 0.24540 0.21850
#
# Static dielectric constant tensor:
#      x y z
#    x 1.777880 0.000000 0.000000 
#    y 0.000000 1.756970 0.000000 
#    z 0.000000 0.000000 1.771250 
# 
# From -- ./inp_files/8611.got.cif
#   From: 2010.05.17/outbox.cif.g08.bks.cpg/sg39_5_cif.got.tgz:8611.got - 2010.06.03 18:22:40.
