data_PCOD9362590
_publ_section_title
;
Structure prediction by ZEFSAII (Michael W. Deem and Ramdas Pophale) SiO2 
 PCOD9362590
Probable space group: A M A 2
;
_chemical_formula_sum "Si O2"
_cell_formula_units_Z 64
_cell_length_a 7.657601
_cell_length_b 34.423513
_cell_length_c 12.362241
_cell_angle_alpha 90.000000
_cell_angle_beta 90.000000
_cell_angle_gamma 90.000000
_cell_volume 3258.705612
_symmetry_space_group_name_H-M "A M A 2"
_symmetry_group_IT_number 40
_symmetry_cell_setting 'orthorhombic'
loop_
_space_group_symop_operation_xyz
x,y,z
-x,-y,z
1/2-x,y,z
1/2+x,-y,z
x,1/2+y,1/2+z
-x,1/2-y,1/2+z
1/2-x,1/2+y,1/2+z
1/2+x,1/2-y,1/2+z
loop_
_atom_site_type_symbol
_atom_site_label
_atom_site_fract_x
_atom_site_fract_y
_atom_site_fract_z
Si Si1 0.050665 0.311438 0.759570
Si Si2 0.042484 0.543713 0.244680
Si Si3 0.041742 0.872171 0.829082
Si Si4 0.453740 0.323277 0.524054
Si Si5 0.540573 0.956961 0.498038
Si Si6 0.538038 0.669211 0.110851
Si Si7 0.453948 0.619667 0.901599
Si Si8 0.462436 0.761611 0.460880
O O1 0.250000 0.297820 0.742874
O O2 0.965658 0.316402 0.642592
O O3 0.974827 0.282996 0.851304
O O4 0.050398 0.353219 0.817088
O O5 0.250000 0.545742 0.238588
O O6 0.971261 0.546789 0.121216
O O7 0.000000 0.500000 0.284803
O O8 0.985611 0.582046 0.309058
O O9 0.250000 0.865767 0.830915
O O10 0.975906 0.846645 0.726645
O O11 0.971121 0.855147 0.941829
O O12 0.250000 0.333673 0.542438
O O13 0.466242 0.281480 0.467416
O O14 0.750000 0.952115 0.503863
O O15 0.475222 0.923388 0.419748
O O16 0.500000 0.000000 0.460032
O O17 0.750000 0.668088 0.110087
O O18 0.472172 0.639808 0.018891
O O19 0.487160 0.711718 0.064803
O O20 0.250000 0.619025 0.871179
O O21 0.250000 0.760615 0.459331
#
# Coordination Sequence:
#
# PCOD9362590 Si02
#       8
#     8   8   8   8   8   8   8   8
#     4   9  20  38  53  71 101 138 174 211 260 314
#     4  10  19  33  52  78 111 143 174 215 268 322
#     4  10  20  34  53  78 107 142 180 220 265 317
#     4  10  22  37  54  76 103 138 180 220 261 312
#     4   9  18  29  45  74 107 133 162 201 250 308
#     4   9  18  32  50  73 104 138 170 208 260 316
#     4  10  18  31  51  76 101 130 170 214 252 301
#     4   9  19  34  52  74 102 136 174 217 264 310
#
# _framework density 19.639700000000001
#
# number of rings (size 3 to 8) (size 9 to 14) (size 15 to 20)
#    0.000    2.500    1.250    1.500    1.750    4.500 
#    0.000    0.000    0.000    0.750    0.000    1.750 
#    0.000    0.000    0.000    0.000    0.000    0.000 
#
# Total GULP energy -178418.973563 kJ/mol
# GULP energy per Si atom -5575.592924 kJ/mol
# Density = 1.959500 g / cm^3
# Si number density = 19.639700 Si / 1000 Ang^3
#
#
#
# Elastic Constant Matrix: (Units=GPa)
#
#
# Indices 1 2 3 4 5 6 
#
# 1 39.3554 -15.2997 0.9604 0.0000 0.0000 0.0000
# 2 -15.2997 98.0081 40.5107 0.0000 0.0000 0.0000
# 3 0.9604 40.5107 109.4990 0.0000 0.0000 0.0000
# 4 0.0000 0.0000 0.0000 18.2943 0.0000 0.0000
# 5 0.0000 0.0000 0.0000 0.0000 5.4764 0.0000
# 6 0.0000 0.0000 0.0000 0.0000 0.0000 21.0835
#
#
#
# Elastic Compliance Matrix: (Units=1/GPa)
#
#
# Indices 1 2 3 4 5 6 
#
# 1 0.027476 0.005181 -0.002158 0.000000 0.000000 0.000000
# 2 0.005181 0.013022 -0.004863 0.000000 0.000000 0.000000
# 3 -0.002158 -0.004863 0.010951 0.000000 0.000000 0.000000
# 4 0.000000 0.000000 0.000000 0.054662 0.000000 0.000000
# 5 0.000000 0.000000 0.000000 0.000000 0.182602 0.000000
# 6 0.000000 0.000000 0.000000 0.000000 0.000000 0.047430
#
#
# Mechanical properties :
#
#
# Convention : Reuss Voigt Hill
#
# Bulk Modulus (GPa) = 20.93389 33.24503 27.08946
# Shear Modulus (GPa) = 14.05497 23.68359 18.86928
#
# Velocity S-wave (km/s) = 2.67805 3.47638 3.10300
# Velocity P-wave (km/s) = 4.49941 5.75133 5.16345
#
# Compressibility (1/GPa) = 0.04776944
#
# Stress axis : x y z
#
# Youngs Moduli (GPa) = 36.39496 76.79198 91.31898
#
# Poissons Ratio (x) = -0.39787 0.19705
# Poissons Ratio (y) = -0.18857 0.44410
# Poissons Ratio (z) = 0.07853 0.37345
#
# Static dielectric constant tensor:
#      x y z
#    x 1.718200 0.000000 0.000000 
#    y 0.000000 1.700000 0.000000 
#    z 0.000000 0.000000 1.708650 
# 
# From -- ./inp_files/10655.got.cif
#   From: 2010.05.17/outbox.cif.g08.bks.cpg/sg40_6_cif.got.tgz:10655.got - 2010.06.03 18:35:42.
