data_PCOD9362615
_publ_section_title
;
Structure prediction by ZEFSAII (Michael W. Deem and Ramdas Pophale) SiO2 
 PCOD9362615
Probable space group: A M A 2
;
_chemical_formula_sum "Si O2"
_cell_formula_units_Z 40
_cell_length_a 16.130645
_cell_length_b 12.272457
_cell_length_c 8.664187
_cell_angle_alpha 90.000000
_cell_angle_beta 90.000000
_cell_angle_gamma 90.000000
_cell_volume 1715.185394
_symmetry_space_group_name_H-M "A M A 2"
_symmetry_group_IT_number 40
_symmetry_cell_setting 'orthorhombic'
loop_
_space_group_symop_operation_xyz
x,y,z
-x,-y,z
1/2-x,y,z
1/2+x,-y,z
x,1/2+y,1/2+z
-x,1/2-y,1/2+z
1/2-x,1/2+y,1/2+z
1/2+x,1/2-y,1/2+z
loop_
_atom_site_type_symbol
_atom_site_label
_atom_site_fract_x
_atom_site_fract_y
_atom_site_fract_z
Si Si1 0.420290 0.434336 0.696170
Si Si2 0.659987 0.402241 0.144390
Si Si3 0.025273 0.735301 0.006205
Si Si4 0.339764 0.787386 0.407368
Si Si5 0.586317 0.061849 0.854165
O O1 0.500000 0.500000 0.752860
O O2 0.388857 0.476174 0.528863
O O3 0.348947 0.401010 0.812325
O O4 0.460509 0.318622 0.647304
O O5 0.750000 0.393195 0.068559
O O6 0.583516 0.367654 0.037155
O O7 0.660127 0.314304 0.286042
O O8 0.646766 0.518940 0.223999
O O9 0.927983 0.716903 0.992000
O O10 0.065240 0.811084 0.871086
O O11 0.250000 0.783717 0.487127
O O12 0.500000 0.000000 0.824377
#
# Coordination Sequence:
#
# PCOD9362615 Si02
#       5
#     8   8   8   8   8
#     4   8  16  31  53  77 104 152 193 235 304 363
#     4  10  19  31  55  89 117 152 204 250 298 366
#     4   9  18  33  54  81 119 155 195 241 304 357
#     4  10  18  31  55  85 112 150 202 253 305 366
#     4   9  16  31  53  80 115 153 192 237 303 357
#
# _framework density 23.321093000000001
#
# number of rings (size 3 to 8) (size 9 to 14) (size 15 to 20)
#    1.200    1.600    2.000    0.000    0.000    1.600 
#    0.000    2.000    0.000   10.800    0.000    0.000 
#    0.000    0.000    0.000    0.000    0.000    0.000 
#
# Total GULP energy -111378.116316 kJ/mol
# GULP energy per Si atom -5568.905816 kJ/mol
# Density = 2.326801 g / cm^3
# Si number density = 23.321093 Si / 1000 Ang^3
#
#
#
# Elastic Constant Matrix: (Units=GPa)
#
#
# Indices 1 2 3 4 5 6 
#
# 1 184.2246 39.7715 38.2994 0.0000 0.0000 0.0000
# 2 39.7715 67.7909 30.3592 0.0000 0.0000 0.0000
# 3 38.2994 30.3592 31.6490 0.0000 0.0000 0.0000
# 4 0.0000 0.0000 0.0000 18.7855 0.0000 0.0000
# 5 0.0000 0.0000 0.0000 0.0000 24.5771 0.0000
# 6 0.0000 0.0000 0.0000 0.0000 0.0000 5.2692
#
#
#
# Elastic Compliance Matrix: (Units=1/GPa)
#
#
# Indices 1 2 3 4 5 6 
#
# 1 0.007265 -0.000570 -0.008245 0.000000 0.000000 0.000000
# 2 -0.000570 0.025905 -0.024160 0.000000 0.000000 0.000000
# 3 -0.008245 -0.024160 0.064750 0.000000 0.000000 0.000000
# 4 0.000000 0.000000 0.000000 0.053233 0.000000 0.000000
# 5 0.000000 0.000000 0.000000 0.000000 0.040688 0.000000
# 6 0.000000 0.000000 0.000000 0.000000 0.000000 0.189781
#
#
# Mechanical properties :
#
#
# Convention : Reuss Voigt Hill
#
# Bulk Modulus (GPa) = 31.27914 55.61388 43.44651
# Shear Modulus (GPa) = 10.91155 21.40865 16.16010
#
# Velocity S-wave (km/s) = 2.16541 3.03313 2.63523
# Velocity P-wave (km/s) = 4.43773 6.01376 5.28483
#
# Compressibility (1/GPa) = 0.03197019
#
# Stress axis : x y z
#
# Youngs Moduli (GPa) = 137.63938 38.60216 15.44398
#
# Poissons Ratio (x) = 0.02200 0.12734
# Poissons Ratio (y) = 0.07843 0.37313
# Poissons Ratio (z) = 1.13490 0.93263
#
# Static dielectric constant tensor:
#      x y z
#    x 1.850970 0.000000 0.000000 
#    y 0.000000 1.928900 0.000000 
#    z 0.000000 0.000000 2.030180 
# 
# From -- ./inp_files/12039.got.cif
#   From: 2010.05.17/outbox.cif.g08.bks.cpg/sg40_7_cif.got.tgz:12039.got - 2010.06.03 18:35:42.
