data_PCOD9362395
_publ_section_title
;
Structure prediction by ZEFSAII (Michael W. Deem and Ramdas Pophale) SiO2 
 PCOD9362395
Probable space group: A M A 2
;
_chemical_formula_sum "Si O2"
_cell_formula_units_Z 64
_cell_length_a 8.801246
_cell_length_b 18.853330
_cell_length_c 27.084186
_cell_angle_alpha 90.000000
_cell_angle_beta 90.000000
_cell_angle_gamma 90.000000
_cell_volume 4494.154690
_symmetry_space_group_name_H-M "A M A 2"
_symmetry_group_IT_number 40
_symmetry_cell_setting 'orthorhombic'
loop_
_space_group_symop_operation_xyz
x,y,z
-x,-y,z
1/2-x,y,z
1/2+x,-y,z
x,1/2+y,1/2+z
-x,1/2-y,1/2+z
1/2-x,1/2+y,1/2+z
1/2+x,1/2-y,1/2+z
loop_
_atom_site_type_symbol
_atom_site_label
_atom_site_fract_x
_atom_site_fract_y
_atom_site_fract_z
Si Si1 0.924707 0.292828 0.315980
Si Si2 0.934083 0.421788 0.254350
Si Si3 0.068218 0.335105 0.161916
Si Si4 0.432973 0.577188 0.959620
Si Si5 0.432542 0.578339 0.768720
Si Si6 0.432810 0.078164 0.573567
Si Si7 0.426151 0.795021 0.212833
Si Si8 0.567898 0.334697 0.866753
O O1 0.750000 0.297699 0.331622
O O2 0.979435 0.370680 0.300089
O O3 0.929593 0.249499 0.264205
O O4 0.013202 0.244286 0.354372
O O5 0.750000 0.422006 0.251310
O O6 0.000000 0.500000 0.259334
O O7 0.999989 0.385643 0.204898
O O8 0.250000 0.337971 0.163334
O O9 0.004293 0.365596 0.110852
O O10 0.010647 0.255758 0.174147
O O11 0.500000 0.500000 0.948063
O O12 0.250000 0.572707 0.956992
O O13 0.485895 0.633046 0.918560
O O14 0.471708 0.594427 0.016377
O O15 0.500000 0.500000 0.764708
O O16 0.250000 0.576111 0.767107
O O17 0.494414 0.631066 0.726409
O O18 0.479168 0.613792 0.821351
O O19 0.250000 0.076410 0.578831
O O20 0.500000 0.000000 0.584663
O O21 0.250000 0.804950 0.199309
O O22 0.750000 0.334422 0.866943
#
# Coordination Sequence:
#
# PCOD9362395 Si02
#       8
#     8   8   8   8   8   8   8   8
#     4   8  16  28  41  58  80 106 135 168 204 244
#     4  10  19  30  43  61  84 110 141 172 206 246
#     4  11  20  30  44  61  82 109 141 173 209 250
#     4   9  18  30  43  60  82 109 141 176 209 242
#     4  10  18  27  41  62  87 114 143 174 208 246
#     4  10  19  31  44  59  82 110 141 176 211 244
#     4   9  17  30  44  59  81 108 139 173 208 246
#     4   9  17  28  42  60  82 110 143 174 206 244
#
# _framework density 14.240719
#
# number of rings (size 3 to 8) (size 9 to 14) (size 15 to 20)
#    0.000    2.500    0.000    4.125    0.000    5.000 
#    0.000    0.000    0.000    0.000    0.000    0.000 
#    0.000    1.000    0.000    6.500    0.000    5.500 
#
# Total GULP energy -178322.777447 kJ/mol
# GULP energy per Si atom -5572.586795 kJ/mol
# Density = 1.420831 g / cm^3
# Si number density = 14.240719 Si / 1000 Ang^3
#
#
#
# Elastic Constant Matrix: (Units=GPa)
#
#
# Indices 1 2 3 4 5 6 
#
# 1 59.7338 39.6412 32.7809 0.0000 0.0000 0.0000
# 2 39.6412 109.0960 50.8136 0.0000 0.0000 0.0000
# 3 32.7809 50.8136 76.1610 0.0000 0.0000 0.0000
# 4 0.0000 0.0000 0.0000 27.6251 0.0000 0.0000
# 5 0.0000 0.0000 0.0000 0.0000 15.0212 0.0000
# 6 0.0000 0.0000 0.0000 0.0000 0.0000 25.8882
#
#
#
# Elastic Compliance Matrix: (Units=1/GPa)
#
#
# Indices 1 2 3 4 5 6 
#
# 1 0.024140 -0.005705 -0.006584 0.000000 0.000000 0.000000
# 2 -0.005705 0.014647 -0.007317 0.000000 0.000000 0.000000
# 3 -0.006584 -0.007317 0.020846 0.000000 0.000000 0.000000
# 4 0.000000 0.000000 0.000000 0.036199 0.000000 0.000000
# 5 0.000000 0.000000 0.000000 0.000000 0.066572 0.000000
# 6 0.000000 0.000000 0.000000 0.000000 0.000000 0.038628
#
#
# Mechanical properties :
#
#
# Convention : Reuss Voigt Hill
#
# Bulk Modulus (GPa) = 48.96859 54.60689 51.78774
# Shear Modulus (GPa) = 20.23875 21.82391 21.03133
#
# Velocity S-wave (km/s) = 3.77396 3.91896 3.84714
# Velocity P-wave (km/s) = 7.31104 7.67506 7.49526
#
# Compressibility (1/GPa) = 0.02042126
#
# Stress axis : x y z
#
# Youngs Moduli (GPa) = 41.42483 68.27254 47.97154
#
# Poissons Ratio (x) = 0.38949 0.31585
# Poissons Ratio (y) = 0.23633 0.35100
# Poissons Ratio (z) = 0.27274 0.49954
#
# Static dielectric constant tensor:
#      x y z
#    x 1.481880 0.000000 0.000000 
#    y 0.000000 1.462710 0.000000 
#    z 0.000000 0.000000 1.464150 
# 
# From -- ./inp_files/24390.got.cif
#   From: 2010.05.17/outbox.cif.g08.bks.cpg/sg40_13_cif.got.tgz:24390.got - 2010.06.03 18:35:42.
