data_PCOD9362646
_publ_section_title
;
Structure prediction by ZEFSAII (Michael W. Deem and Ramdas Pophale) SiO2 
 PCOD9362646
Probable space group: A M A 2
;
_chemical_formula_sum "Si O2"
_cell_formula_units_Z 64
_cell_length_a 8.435225
_cell_length_b 16.724818
_cell_length_c 22.884897
_cell_angle_alpha 90.000000
_cell_angle_beta 90.000000
_cell_angle_gamma 90.000000
_cell_volume 3228.546412
_symmetry_space_group_name_H-M "A M A 2"
_symmetry_group_IT_number 40
_symmetry_cell_setting 'orthorhombic'
loop_
_space_group_symop_operation_xyz
x,y,z
-x,-y,z
1/2-x,y,z
1/2+x,-y,z
x,1/2+y,1/2+z
-x,1/2-y,1/2+z
1/2-x,1/2+y,1/2+z
1/2+x,1/2-y,1/2+z
loop_
_atom_site_type_symbol
_atom_site_label
_atom_site_fract_x
_atom_site_fract_y
_atom_site_fract_z
Si Si1 0.060588 0.754372 0.491990
Si Si2 0.933642 0.205254 0.617550
Si Si3 0.437843 0.734882 0.868119
Si Si4 0.436570 0.587120 0.342726
Si Si5 0.566493 0.889232 0.151755
Si Si6 0.558372 0.583159 0.210788
Si Si7 0.442035 0.087000 0.285807
Si Si8 0.434435 0.416235 0.526576
O O1 0.250000 0.763801 0.488159
O O2 0.998266 0.792824 0.552458
O O3 0.980995 0.788560 0.434255
O O4 0.025113 0.659921 0.500508
O O5 0.750000 0.179758 0.610698
O O6 0.931169 0.294165 0.642940
O O7 0.003424 0.150187 0.667151
O O8 0.250000 0.739910 0.859761
O O9 0.501207 0.826111 0.863393
O O10 0.495475 0.665599 0.822821
O O11 0.500000 0.500000 0.364305
O O12 0.250000 0.585845 0.351846
O O13 0.481798 0.589283 0.274279
O O14 0.750000 0.917476 0.145039
O O15 0.509485 0.907162 0.217239
O O16 0.463394 0.917043 0.096742
O O17 0.500000 0.500000 0.185085
O O18 0.750000 0.586571 0.217588
O O19 0.250000 0.087674 0.286530
O O20 0.500000 0.000000 0.307892
O O21 0.500000 0.500000 0.503824
O O22 0.250000 0.407597 0.513696
#
# Coordination Sequence:
#
# PCOD9362646 Si02
#       8
#     8   8   8   8   8   8   8   8
#     4  10  21  39  58  78 103 139 185 231 274 326
#     4   8  16  32  55  77 105 141 176 215 271 329
#     4  11  23  41  60  82 112 150 192 239 286 332
#     4  11  22  37  58  87 118 151 186 228 278 338
#     4   9  17  33  55  81 109 142 179 221 272 329
#     4  10  18  32  53  80 111 143 176 220 273 329
#     4  10  22  38  59  84 115 151 191 236 285 335
#     4  11  21  34  53  81 113 145 176 216 267 326
#
# _framework density 19.823160999999999
#
# number of rings (size 3 to 8) (size 9 to 14) (size 15 to 20)
#    0.000    2.000    0.000    6.000    0.000    5.000 
#    0.000   11.875    0.000    3.000    0.000    0.000 
#    0.000    0.000    0.000    0.000    0.000    0.000 
#
# Total GULP energy -178461.493619 kJ/mol
# GULP energy per Si atom -5576.921676 kJ/mol
# Density = 1.977804 g / cm^3
# Si number density = 19.823161 Si / 1000 Ang^3
#
#
#
# Elastic Constant Matrix: (Units=GPa)
#
#
# Indices 1 2 3 4 5 6 
#
# 1 53.1739 18.6036 4.9570 0.0000 0.0000 0.0000
# 2 18.6036 70.0922 43.0031 0.0000 0.0000 0.0000
# 3 4.9570 43.0031 94.3214 0.0000 0.0000 0.0000
# 4 0.0000 0.0000 0.0000 -2.9751 0.0000 0.0000
# 5 0.0000 0.0000 0.0000 0.0000 29.1714 0.0000
# 6 0.0000 0.0000 0.0000 0.0000 0.0000 49.8787
#
#
#
# Elastic Compliance Matrix: (Units=1/GPa)
#
#
# Indices 1 2 3 4 5 6 
#
# 1 0.020998 -0.006798 0.001996 0.000000 0.000000 0.000000
# 2 -0.006798 0.022008 -0.009677 0.000000 0.000000 0.000000
# 3 0.001996 -0.009677 0.014909 0.000000 0.000000 0.000000
# 4 0.000000 0.000000 0.000000 -0.336127 0.000000 0.000000
# 5 0.000000 0.000000 0.000000 0.000000 0.034280 0.000000
# 6 0.000000 0.000000 0.000000 0.000000 0.000000 0.020049
#
#
# Mechanical properties :
#
#
# Convention : Reuss Voigt Hill
#
# Bulk Modulus (GPa) = 34.53278 38.96832 36.75055
# Shear Modulus (GPa) = -26.98725 25.28326 -0.85200
#
# Velocity S-wave (km/s) = -3.69372 3.57520 -0.65630
# Velocity P-wave (km/s) = 0.85625 6.06164 4.24325
#
# Compressibility (1/GPa) = 0.02895800
#
# Stress axis : x y z
#
# Youngs Moduli (GPa) = 47.62249 45.43798 67.07375
#
# Poissons Ratio (x) = 0.30888 -0.13386
# Poissons Ratio (y) = 0.32373 0.64905
# Poissons Ratio (z) = -0.09504 0.43969
#
# Static dielectric constant tensor:
#      x y z
#    x 1.689080 0.000000 0.000000 
#    y 0.000000 1.737160 0.000000 
#    z 0.000000 0.000000 1.725680 
# 
# From -- ./inp_files/24328.got.cif
#   From: 2010.05.17/outbox.cif.g08.bks.cpg/sg40_13_cif.got.tgz:24328.got - 2010.06.03 18:35:42.
