data_PCOD9362219
_publ_section_title
;
Structure prediction by ZEFSAII (Michael W. Deem and Ramdas Pophale) SiO2 
 PCOD9362219
Probable space group: A B M 2
;
_chemical_formula_sum "Si O2"
_cell_formula_units_Z 32
_cell_length_a 15.000000
_cell_length_b 9.000000
_cell_length_c 24.000000
_cell_angle_alpha 90.000000
_cell_angle_beta 90.000000
_cell_angle_gamma 90.000000
_cell_volume 3240.000000
_symmetry_space_group_name_H-M "A B M 2"
_symmetry_group_IT_number 39
_symmetry_cell_setting 'orthorhombic'
loop_
_space_group_symop_operation_xyz
x,y,z
-x,-y,z
-x,1/2+y,z
x,1/2-y,z
x,1/2+y,1/2+z
-x,1/2-y,1/2+z
-x,y,1/2+z
x,-y,1/2+z
loop_
_atom_site_type_symbol
_atom_site_label
_atom_site_fract_x
_atom_site_fract_y
_atom_site_fract_z
Si Si1 0.090415 0.571455 0.623490
Si Si2 0.862899 0.425740 0.005712
Si Si3 0.083961 0.924716 0.392222
Si Si4 0.255862 0.569546 0.700405
Si Si5 0.416024 0.078118 0.401012
Si Si6 0.677036 0.922045 0.999971
Si Si7 0.592907 0.421733 0.622163
Si Si8 0.238817 0.577077 0.828248
O O1 0.085204 0.750000 0.620085
O O2 0.107155 0.505394 0.562207
O O3 0.170934 0.527498 0.663713
O O4 0.000000 0.500000 0.645223
O O5 0.878054 0.250000 0.008581
O O6 0.908026 0.497143 0.952077
O O7 0.759613 0.466406 0.997040
O O8 0.073093 0.750000 0.398115
O O9 0.171716 0.969049 0.359180
O O10 0.000000 0.000000 0.362448
O O11 0.259416 0.750000 0.698248
O O12 0.342972 0.511838 0.669088
O O13 0.249178 0.530081 0.764518
O O14 0.433382 0.250000 0.415559
O O15 0.331798 0.073487 0.360526
O O16 0.500000 0.000000 0.373066
O O17 0.393606 0.981416 0.455622
O O18 0.703083 0.750000 0.987805
O O19 0.641390 0.926779 0.062636
O O20 0.500000 0.500000 0.617952
O O21 0.577320 0.250000 0.635688
O O22 0.206687 0.750000 0.830566
#
# Coordination Sequence:
#
# PCOD9362219 Si02
#       8
#     8   8   8   8   8   8   8   8
#     4  11  22  40  63  90 123 161 202 248 303 362
#     4  12  23  38  62  93 126 159 199 246 304 368
#     4  12  25  42  65  92 125 161 202 250 304 366
#     4   9  20  41  64  85 120 164 204 250 306 359
#     4  11  23  38  60  90 125 163 207 252 307 365
#     4  11  21  37  62  90 124 160 200 247 309 371
#     4  10  21  38  60  89 121 160 201 245 300 359
#     4  10  22  42  65  89 120 162 209 257 306 359
#
# _framework density 9.8765429999999999
#
# number of rings (size 3 to 8) (size 9 to 14) (size 15 to 20)
#    0.000    1.250    2.500    4.125    0.000    3.500 
#    0.000    3.125    0.000    0.000    0.000    0.000 
#    0.000    0.000    0.000    0.000    0.000    0.000 
#
# Total GULP energy -178753.742480 kJ/mol
# GULP energy per Si atom -5586.054453 kJ/mol
# Density = 0.985406 g / cm^3
# Si number density = 9.876543 Si / 1000 Ang^3
#
#
#
# Elastic Constant Matrix: (Units=GPa)
#
#
# Indices 1 2 3 4 5 6 
#
# 1 55.2478 22.4507 -18.1309 0.0000 0.0000 0.0000
# 2 22.4507 97.7639 17.8900 0.0000 0.0000 0.0000
# 3 -18.1309 17.8900 53.7259 0.0000 0.0000 0.0000
# 4 0.0000 0.0000 0.0000 22.4876 0.0000 0.0000
# 5 0.0000 0.0000 0.0000 0.0000 -88.4466 0.0000
# 6 0.0000 0.0000 0.0000 0.0000 0.0000 21.4748
#
#
#
# Elastic Compliance Matrix: (Units=1/GPa)
#
#
# Indices 1 2 3 4 5 6 
#
# 1 0.024821 -0.007702 0.010941 0.000000 0.000000 0.000000
# 2 -0.007702 0.013282 -0.007022 0.000000 0.000000 0.000000
# 3 0.010941 -0.007022 0.024643 0.000000 0.000000 0.000000
# 4 0.000000 0.000000 0.000000 0.044469 0.000000 0.000000
# 5 0.000000 0.000000 0.000000 0.000000 -0.011306 0.000000
# 6 0.000000 0.000000 0.000000 0.000000 0.000000 0.046566
#
#
# Mechanical properties :
#
#
# Convention : Reuss Voigt Hill
#
# Bulk Modulus (GPa) = 18.12246 27.90635 23.01440
# Shear Modulus (GPa) = 29.68508 3.40504 16.54506
#
# Velocity S-wave (km/s) = 3.88081 1.31436 2.89726
# Velocity P-wave (km/s) = 5.41067 4.05730 4.78210
#
# Compressibility (1/GPa) = 0.05518015
#
# Stress axis : x y z
#
# Youngs Moduli (GPa) = 40.28922 75.28774 40.57877
#
# Poissons Ratio (x) = 0.57986 -0.44397
# Poissons Ratio (y) = 0.31030 0.28494
# Poissons Ratio (z) = -0.44080 0.52867
#
# Static dielectric constant tensor:
#      x y z
#    x 1.860240 0.000000 0.000000 
#    y 0.000000 1.655350 0.000000 
#    z 0.000000 0.000000 1.681540 
# 
# From -- ./inp_files/16168.got.cif
#   From: 2010.05.17/outbox.ucp.g08.bks.cvg/sg39_9_cif.got.tgz:16168.got - 2010.06.11 10:41:16.
