data_PCOD9362206
_publ_section_title
;
Structure prediction by ZEFSAII (Michael W. Deem and Ramdas Pophale) SiO2 
 PCOD9362206
Probable space group: A B M 2
;
_chemical_formula_sum "Si O2"
_cell_formula_units_Z 24
_cell_length_a 15.000000
_cell_length_b 9.000000
_cell_length_c 18.000000
_cell_angle_alpha 90.000000
_cell_angle_beta 90.000000
_cell_angle_gamma 90.000000
_cell_volume 2430.000000
_symmetry_space_group_name_H-M "A B M 2"
_symmetry_group_IT_number 39
_symmetry_cell_setting 'orthorhombic'
loop_
_space_group_symop_operation_xyz
x,y,z
-x,-y,z
-x,1/2+y,z
x,1/2-y,z
x,1/2+y,1/2+z
-x,1/2-y,1/2+z
-x,y,1/2+z
x,-y,1/2+z
loop_
_atom_site_type_symbol
_atom_site_label
_atom_site_fract_x
_atom_site_fract_y
_atom_site_fract_z
Si Si1 0.403840 0.926602 0.307190
Si Si2 0.708846 0.573240 0.434208
Si Si3 0.277268 0.920797 0.692547
Si Si4 0.403100 0.920541 0.553604
Si Si5 0.094888 0.568843 0.206900
Si Si6 0.906745 0.930696 0.372950
O O1 0.414374 0.750000 0.308481
O O2 0.500000 0.000000 0.290081
O O3 0.364225 0.991827 0.382936
O O4 0.323817 0.975500 0.253161
O O5 0.699948 0.750000 0.425732
O O6 0.672647 0.516822 0.512383
O O7 0.812850 0.538035 0.415470
O O8 0.258193 0.750000 0.718472
O O9 0.357101 0.909120 0.633611
O O10 0.183496 0.997328 0.669446
O O11 0.412221 0.750000 0.524775
O O12 0.500000 0.000000 0.553090
O O13 0.094098 0.750000 0.203979
O O14 0.102185 0.508641 0.292099
O O15 0.000000 0.500000 0.179410
O O16 0.915643 0.750000 0.366289
O O17 0.000000 0.000000 0.404435
#
# Coordination Sequence:
#
# PCOD9362206 Si02
#       6
#     8   8   8   8   8   8
#     4  12  24  38  60  88 119 155 199 253 306 360
#     4  11  23  40  62  88 122 160 202 251 300 361
#     4  11  23  41  62  89 122 158 203 253 304 362
#     4  11  25  43  64  87 120 162 204 251 304 367
#     4  11  21  35  60  91 124 161 199 249 303 362
#     4  10  20  35  59  89 123 158 197 247 301 360
#
# _framework density 9.8765429999999999
#
# number of rings (size 3 to 8) (size 9 to 14) (size 15 to 20)
#    0.000    1.000    1.667    7.000    0.000    6.000 
#    0.000    0.833    0.000    2.000    0.000    0.000 
#    0.000    0.000    0.000    0.000    0.000    0.000 
#
# Total GULP energy -133862.031176 kJ/mol
# GULP energy per Si atom -5577.584632 kJ/mol
# Density = 0.985406 g / cm^3
# Si number density = 9.876543 Si / 1000 Ang^3
#
#
#
# Elastic Constant Matrix: (Units=GPa)
#
#
# Indices 1 2 3 4 5 6 
#
# 1 163.8114 60.7013 -3.0421 0.0000 0.0000 0.0000
# 2 60.7013 172.1866 4.8727 0.0000 0.0000 0.0000
# 3 -3.0421 4.8727 16.2325 0.0000 0.0000 0.0000
# 4 0.0000 0.0000 0.0000 20.0116 0.0000 0.0000
# 5 0.0000 0.0000 0.0000 0.0000 26.8808 0.0000
# 6 0.0000 0.0000 0.0000 0.0000 0.0000 19.7092
#
#
#
# Elastic Compliance Matrix: (Units=1/GPa)
#
#
# Indices 1 2 3 4 5 6 
#
# 1 0.007092 -0.002559 0.002097 0.000000 0.000000 0.000000
# 2 -0.002559 0.006781 -0.002515 0.000000 0.000000 0.000000
# 3 0.002097 -0.002515 0.062753 0.000000 0.000000 0.000000
# 4 0.000000 0.000000 0.000000 0.049971 0.000000 0.000000
# 5 0.000000 0.000000 0.000000 0.000000 0.037201 0.000000
# 6 0.000000 0.000000 0.000000 0.000000 0.000000 0.050738
#
#
# Mechanical properties :
#
#
# Convention : Reuss Voigt Hill
#
# Bulk Modulus (GPa) = 14.15005 53.03271 33.59138
# Shear Modulus (GPa) = 20.48782 32.63358 26.56070
#
# Velocity S-wave (km/s) = 3.22405 4.06898 3.67091
# Velocity P-wave (km/s) = 4.58675 6.99868 5.91692
#
# Compressibility (1/GPa) = 0.07067114
#
# Stress axis : x y z
#
# Youngs Moduli (GPa) = 141.00460 147.46794 15.93557
#
# Poissons Ratio (x) = 0.37744 -0.03342
# Poissons Ratio (y) = 0.36090 0.04008
# Poissons Ratio (z) = -0.29574 0.37091
#
# Static dielectric constant tensor:
#      x y z
#    x 1.684030 0.000000 0.000000 
#    y 0.000000 1.690440 0.000000 
#    z 0.000000 0.000000 1.839340 
# 
# From -- ./inp_files/12633.got.cif
#   From: 2010.05.17/outbox.ucp.g08.bks.cvg/sg39_7_cif.got.tgz:12633.got - 2010.06.11 10:41:16.
