data_PCOD9362461
_publ_section_title
;
Structure prediction by ZEFSAII (Michael W. Deem and Ramdas Pophale) SiO2 
 PCOD9362461
Probable space group: A M A 2
;
_chemical_formula_sum "Si O2"
_cell_formula_units_Z 64
_cell_length_a 8.994629
_cell_length_b 34.201196
_cell_length_c 11.964301
_cell_angle_alpha 90.000000
_cell_angle_beta 90.000000
_cell_angle_gamma 90.000000
_cell_volume 3680.542854
_symmetry_space_group_name_H-M "A M A 2"
_symmetry_group_IT_number 40
_symmetry_cell_setting 'orthorhombic'
loop_
_space_group_symop_operation_xyz
x,y,z
-x,-y,z
1/2-x,y,z
1/2+x,-y,z
x,1/2+y,1/2+z
-x,1/2-y,1/2+z
1/2-x,1/2+y,1/2+z
1/2+x,1/2-y,1/2+z
loop_
_atom_site_type_symbol
_atom_site_label
_atom_site_fract_x
_atom_site_fract_y
_atom_site_fract_z
Si Si1 0.575504 0.539202 0.976230
Si Si2 0.072065 0.372385 0.301454
Si Si3 0.428233 0.767193 0.433762
Si Si4 0.925989 0.317140 0.735830
Si Si5 0.072455 0.813034 0.993980
Si Si6 0.570827 0.540960 0.236816
Si Si7 0.417500 0.611622 0.892714
Si Si8 0.423408 0.673115 0.096673
O O1 0.500000 0.500000 0.933671
O O2 0.750000 0.533820 0.977806
O O3 0.530916 0.576769 0.906187
O O4 0.527235 0.545347 0.105719
O O5 0.250000 0.371288 0.279363
O O6 0.044836 0.351627 0.419815
O O7 0.026478 0.418031 0.294342
O O8 0.993004 0.346313 0.206450
O O9 0.250000 0.767351 0.432524
O O10 0.493869 0.789255 0.325611
O O11 0.494475 0.723875 0.435754
O O12 0.487956 0.790379 0.543721
O O13 0.750000 0.307448 0.730052
O O14 0.938835 0.360621 0.786823
O O15 0.002657 0.315361 0.616500
O O16 0.250000 0.806810 0.999640
O O17 0.500000 0.500000 0.276869
O O18 0.750000 0.537569 0.243455
O O19 0.250000 0.595499 0.892034
O O20 0.429844 0.640144 0.999798
O O21 0.250000 0.683595 0.113612
#
# Coordination Sequence:
#
# PCOD9362461 Si02
#       8
#     8   8   8   8   8   8   8   8
#     4  10  18  28  48  77 112 145 178 220 273 334
#     4  10  21  37  56  82 116 151 190 234 283 339
#     4  11  23  39  60  82 111 148 186 232 285 336
#     4  10  22  41  60  81 110 144 187 233 280 336
#     4  11  24  40  59  82 111 148 192 238 282 335
#     4   9  18  32  51  79 113 149 184 227 281 339
#     4   9  18  33  53  77 106 141 178 224 273 326
#     4  10  20  34  55  82 112 144 185 228 276 335
#
# _framework density 17.388738
#
# number of rings (size 3 to 8) (size 9 to 14) (size 15 to 20)
#    0.000    2.000    1.250    3.375    1.750    4.500 
#    0.000    0.000    0.000    0.750    0.000    3.500 
#    0.000    0.000    0.000    0.000    0.000    0.000 
#
# Total GULP energy -178587.905437 kJ/mol
# GULP energy per Si atom -5580.872045 kJ/mol
# Density = 1.734916 g / cm^3
# Si number density = 17.388738 Si / 1000 Ang^3
#
#
#
# Elastic Constant Matrix: (Units=GPa)
#
#
# Indices 1 2 3 4 5 6 
#
# 1 90.9991 55.3136 42.6349 0.0000 0.0000 0.0000
# 2 55.3136 98.4586 37.8690 0.0000 0.0000 0.0000
# 3 42.6349 37.8690 80.2574 0.0000 0.0000 0.0000
# 4 0.0000 0.0000 0.0000 14.0943 0.0000 0.0000
# 5 0.0000 0.0000 0.0000 0.0000 9.6443 0.0000
# 6 0.0000 0.0000 0.0000 0.0000 0.0000 31.5380
#
#
#
# Elastic Compliance Matrix: (Units=1/GPa)
#
#
# Indices 1 2 3 4 5 6 
#
# 1 0.018875 -0.008244 -0.006137 0.000000 0.000000 0.000000
# 2 -0.008244 0.016009 -0.003174 0.000000 0.000000 0.000000
# 3 -0.006137 -0.003174 0.017218 0.000000 0.000000 0.000000
# 4 0.000000 0.000000 0.000000 0.070951 0.000000 0.000000
# 5 0.000000 0.000000 0.000000 0.000000 0.103688 0.000000
# 6 0.000000 0.000000 0.000000 0.000000 0.000000 0.031708
#
#
# Mechanical properties :
#
#
# Convention : Reuss Voigt Hill
#
# Bulk Modulus (GPa) = 58.85333 60.15000 59.50166
# Shear Modulus (GPa) = 16.70992 19.98182 18.34587
#
# Velocity S-wave (km/s) = 3.10330 3.39355 3.25167
# Velocity P-wave (km/s) = 6.83811 7.07258 6.95633
#
# Compressibility (1/GPa) = 0.01699139
#
# Stress axis : x y z
#
# Youngs Moduli (GPa) = 52.97880 62.46610 58.07826
#
# Poissons Ratio (x) = 0.51494 0.35645
# Poissons Ratio (y) = 0.43673 0.18436
# Poissons Ratio (z) = 0.32516 0.19829
#
# Static dielectric constant tensor:
#      x y z
#    x 1.593020 0.000000 0.000000 
#    y 0.000000 1.591320 0.000000 
#    z 0.000000 0.000000 1.576610 
# 
# From -- ./inp_files/10677.got.cif
#   From: 2010.05.17/outbox.cif.g08.bks.cpg/sg40_6_cif.got.tgz:10677.got - 2010.06.03 18:35:42.
