data_PCOD9362375
_publ_section_title
;
Structure prediction by ZEFSAII (Michael W. Deem and Ramdas Pophale) SiO2 
 PCOD9362375
Probable space group: A M A 2
;
_chemical_formula_sum "Si O2"
_cell_formula_units_Z 56
_cell_length_a 9.126462
_cell_length_b 22.566278
_cell_length_c 18.171955
_cell_angle_alpha 90.000000
_cell_angle_beta 90.000000
_cell_angle_gamma 90.000000
_cell_volume 3742.519196
_symmetry_space_group_name_H-M "A M A 2"
_symmetry_group_IT_number 40
_symmetry_cell_setting 'orthorhombic'
loop_
_space_group_symop_operation_xyz
x,y,z
-x,-y,z
1/2-x,y,z
1/2+x,-y,z
x,1/2+y,1/2+z
-x,1/2-y,1/2+z
1/2-x,1/2+y,1/2+z
1/2+x,1/2-y,1/2+z
loop_
_atom_site_type_symbol
_atom_site_label
_atom_site_fract_x
_atom_site_fract_y
_atom_site_fract_z
Si Si1 0.076618 0.285634 0.073320
Si Si2 0.924731 0.150614 0.285623
Si Si3 0.422716 0.716870 0.224515
Si Si4 0.577965 0.353573 0.536771
Si Si5 0.424991 0.936321 0.152891
Si Si6 0.924048 0.813661 0.427834
Si Si7 0.076418 0.191718 0.884222
O O1 0.250000 0.294960 0.067783
O O2 0.050052 0.214922 0.060141
O O3 0.016028 0.300009 0.153875
O O4 0.994871 0.320692 0.008296
O O5 0.750000 0.149245 0.299502
O O6 0.955467 0.214974 0.248527
O O7 0.963157 0.100442 0.226737
O O8 0.009571 0.146431 0.362577
O O9 0.250000 0.714447 0.206211
O O10 0.448186 0.678492 0.298522
O O11 0.750000 0.365564 0.550467
O O12 0.481141 0.397340 0.584446
O O13 0.551879 0.355546 0.448705
O O14 0.250000 0.942015 0.149935
O O15 0.500000 0.000000 0.152685
O O16 0.750000 0.817889 0.430800
O O17 0.976491 0.747780 0.403950
O O18 0.250000 0.209543 0.890546
#
# Coordination Sequence:
#
# PCOD9362375 Si02
#       7
#     8   8   8   8   8   8   8
#     4  10  18  27  41  62  90 119 147 178 216 260
#     4   9  18  32  45  58  84 116 145 182 227 263
#     4   9  15  26  43  63  88 115 147 178 213 260
#     4   9  17  30  45  60  84 116 149 183 221 261
#     4  11  22  34  48  65  86 115 152 192 228 263
#     4  10  18  26  41  62  83 111 148 181 214 261
#     4   8  16  29  42  60  86 115 143 177 219 262
#
# _framework density 14.963183000000001
#
# number of rings (size 3 to 8) (size 9 to 14) (size 15 to 20)
#    0.000    2.571    1.429    3.857    0.000    5.714 
#    0.000    0.000    0.000    0.000    0.000    0.000 
#    0.000    1.143    0.000    8.286    0.000    4.000 
#
# Total GULP energy -155947.078154 kJ/mol
# GULP energy per Si atom -5569.538506 kJ/mol
# Density = 1.492913 g / cm^3
# Si number density = 14.963183 Si / 1000 Ang^3
#
#
#
# Elastic Constant Matrix: (Units=GPa)
#
#
# Indices 1 2 3 4 5 6 
#
# 1 65.3407 30.7737 73.0050 0.0000 0.0000 0.0000
# 2 30.7737 42.4385 39.7458 0.0000 0.0000 0.0000
# 3 73.0050 39.7458 154.7007 0.0000 0.0000 0.0000
# 4 0.0000 0.0000 0.0000 9.5105 0.0000 0.0000
# 5 0.0000 0.0000 0.0000 0.0000 30.7059 0.0000
# 6 0.0000 0.0000 0.0000 0.0000 0.0000 4.1425
#
#
#
# Elastic Compliance Matrix: (Units=1/GPa)
#
#
# Indices 1 2 3 4 5 6 
#
# 1 0.037868 -0.014121 -0.014242 0.000000 0.000000 0.000000
# 2 -0.014121 0.036295 -0.002661 0.000000 0.000000 0.000000
# 3 -0.014242 -0.002661 0.013869 0.000000 0.000000 0.000000
# 4 0.000000 0.000000 0.000000 0.105147 0.000000 0.000000
# 5 0.000000 0.000000 0.000000 0.000000 0.032567 0.000000
# 6 0.000000 0.000000 0.000000 0.000000 0.000000 0.241401
#
#
# Mechanical properties :
#
#
# Convention : Reuss Voigt Hill
#
# Bulk Modulus (GPa) = 38.48595 61.05876 49.77235
# Shear Modulus (GPa) = 9.29615 16.80212 13.04913
#
# Velocity S-wave (km/s) = 2.49523 3.35460 2.95631
# Velocity P-wave (km/s) = 5.83762 7.47657 6.70734
#
# Compressibility (1/GPa) = 0.02598351
#
# Stress axis : x y z
#
# Youngs Moduli (GPa) = 26.40766 27.55170 72.10326
#
# Poissons Ratio (x) = 0.38905 1.02692
# Poissons Ratio (y) = 0.37289 0.19189
# Poissons Ratio (z) = 0.37611 0.07333
#
# Static dielectric constant tensor:
#      x y z
#    x 1.494630 0.000000 0.000000 
#    y 0.000000 1.460950 0.000000 
#    z 0.000000 0.000000 1.532920 
# 
# From -- ./inp_files/19475.got.cif
#   From: 2010.05.17/outbox.cif.g08.bks.cpg/sg40_10_cif.got.tgz:19475.got - 2010.06.03 18:35:42.
