data_PCOD9362894
_publ_section_title
;
Structure prediction by ZEFSAII (Michael W. Deem and Ramdas Pophale) SiO2 
 PCOD9362894
Probable space group: A M A 2
;
_chemical_formula_sum "Si O2"
_cell_formula_units_Z 64
_cell_length_a 8.722734
_cell_length_b 16.808045
_cell_length_c 23.104976
_cell_angle_alpha 90.000000
_cell_angle_beta 90.000000
_cell_angle_gamma 90.000000
_cell_volume 3387.469181
_symmetry_space_group_name_H-M "A M A 2"
_symmetry_group_IT_number 40
_symmetry_cell_setting 'orthorhombic'
loop_
_space_group_symop_operation_xyz
x,y,z
-x,-y,z
1/2-x,y,z
1/2+x,-y,z
x,1/2+y,1/2+z
-x,1/2-y,1/2+z
1/2-x,1/2+y,1/2+z
1/2+x,1/2-y,1/2+z
loop_
_atom_site_type_symbol
_atom_site_label
_atom_site_fract_x
_atom_site_fract_y
_atom_site_fract_z
Si Si1 0.069489 0.580006 0.056610
Si Si2 0.926942 0.612352 0.935321
Si Si3 0.935871 0.585878 0.801877
Si Si4 0.934560 0.917868 0.881457
Si Si5 0.434999 0.085777 0.746754
Si Si6 0.934232 0.746539 0.591812
Si Si7 0.563461 0.232363 0.218835
Si Si8 0.573094 0.794482 0.973150
O O1 0.250000 0.577966 0.064337
O O2 0.009575 0.661947 0.084293
O O3 0.000000 0.500000 0.081954
O O4 0.029087 0.582044 0.988332
O O5 0.750000 0.584149 0.942118
O O6 0.978811 0.595026 0.869983
O O7 0.926985 0.706566 0.946354
O O8 0.750000 0.583797 0.799684
O O9 0.985931 0.664087 0.764722
O O10 0.000000 0.500000 0.781706
O O11 0.750000 0.917079 0.881817
O O12 0.978972 0.909785 0.814644
O O13 0.992956 0.849952 0.923505
O O14 0.000000 0.000000 0.903722
O O15 0.250000 0.081664 0.740343
O O16 0.483126 0.174216 0.725190
O O17 0.500000 0.000000 0.725254
O O18 0.750000 0.749438 0.591824
O O19 0.982175 0.710613 0.653167
O O20 0.988134 0.703320 0.534021
O O21 0.750000 0.233664 0.223153
O O22 0.750000 0.816197 0.984083
#
# Coordination Sequence:
#
# PCOD9362894 Si02
#       8
#     8   8   8   8   8   8   8   8
#     4  10  19  30  46  70  99 128 156 189 233 285
#     4   9  17  30  50  74  98 124 155 194 242 293
#     4  10  20  34  53  75  98 128 166 206 248 293
#     4   9  17  29  47  72  99 124 153 192 239 290
#     4   9  17  31  52  77 103 130 161 197 240 294
#     4   9  19  34  50  68  91 124 165 201 234 280
#     4   9  18  35  55  71  95 134 171 201 241 294
#     4   9  17  31  50  71  95 124 158 196 239 287
#
# _framework density 18.893160999999999
#
# number of rings (size 3 to 8) (size 9 to 14) (size 15 to 20)
#    0.000    2.750    0.000    1.500    0.000    6.000 
#    0.000    2.500    0.000    6.000    0.000    0.000 
#    0.000    0.000    0.000    0.000    0.000    0.000 
#
# Total GULP energy -178200.228971 kJ/mol
# GULP energy per Si atom -5568.757155 kJ/mol
# Density = 1.885016 g / cm^3
# Si number density = 18.893161 Si / 1000 Ang^3
#
#
#
# Elastic Constant Matrix: (Units=GPa)
#
#
# Indices 1 2 3 4 5 6 
#
# 1 1.2562 7.9571 11.0644 0.0000 0.0000 0.0000
# 2 7.9571 70.3613 38.3853 0.0000 0.0000 0.0000
# 3 11.0644 38.3853 94.3276 0.0000 0.0000 0.0000
# 4 0.0000 0.0000 0.0000 3.5882 0.0000 0.0000
# 5 0.0000 0.0000 0.0000 0.0000 12.5518 0.0000
# 6 0.0000 0.0000 0.0000 0.0000 0.0000 21.0119
#
#
#
# Elastic Compliance Matrix: (Units=1/GPa)
#
#
# Indices 1 2 3 4 5 6 
#
# 1 -3.851602 0.243069 0.352868 0.000000 0.000000 0.000000
# 2 0.243069 0.002928 -0.029703 0.000000 0.000000 0.000000
# 3 0.352868 -0.029703 -0.018702 0.000000 0.000000 0.000000
# 4 0.000000 0.000000 0.000000 0.278691 0.000000 0.000000
# 5 0.000000 0.000000 0.000000 0.000000 0.079670 0.000000
# 6 0.000000 0.000000 0.000000 0.000000 0.000000 0.047592
#
#
# Mechanical properties :
#
#
# Convention : Reuss Voigt Hill
#
# Bulk Modulus (GPa) = -0.36564 31.19541 15.41488
# Shear Modulus (GPa) = -0.90818 14.66629 6.87905
#
# Velocity S-wave (km/s) = -0.69407 2.78919 1.91022
# Velocity P-wave (km/s) = 0.91448 5.18846 3.61136
#
# Compressibility (1/GPa) = -2.73490634
#
# Stress axis : x y z
#
# Youngs Moduli (GPa) = -0.25963 341.51979 -53.47029
#
# Poissons Ratio (x) = -83.01293 18.86798
# Poissons Ratio (y) = 0.06311 -1.58822
# Poissons Ratio (z) = 0.09162 10.14412
#
# Static dielectric constant tensor:
#      x y z
#    x 1.663790 0.000000 0.000000 
#    y 0.000000 1.691310 0.000000 
#    z 0.000000 0.000000 1.666820 
# 
# From -- ./inp_files/22360.got.cif
#   From: 2010.05.17/outbox.cif.g08.bks.cpg/sg40_12_cif.got.tgz:22360.got - 2010.06.03 18:35:42.
