data_PCOD9362177
_publ_section_title
;
Structure prediction by ZEFSAII (Michael W. Deem and Ramdas Pophale) SiO2 
 PCOD9362177
Probable space group: A B M 2
;
_chemical_formula_sum "Si O2"
_cell_formula_units_Z 32
_cell_length_a 21.000000
_cell_length_b 9.000000
_cell_length_c 21.000000
_cell_angle_alpha 90.000000
_cell_angle_beta 90.000000
_cell_angle_gamma 90.000000
_cell_volume 3969.000000
_symmetry_space_group_name_H-M "A B M 2"
_symmetry_group_IT_number 39
_symmetry_cell_setting 'orthorhombic'
loop_
_space_group_symop_operation_xyz
x,y,z
-x,-y,z
-x,1/2+y,z
x,1/2-y,z
x,1/2+y,1/2+z
-x,1/2-y,1/2+z
-x,y,1/2+z
x,-y,1/2+z
loop_
_atom_site_type_symbol
_atom_site_label
_atom_site_fract_x
_atom_site_fract_y
_atom_site_fract_z
Si Si1 0.430938 0.571425 0.822490
Si Si2 0.805416 0.419725 0.425345
Si Si3 0.934798 0.078667 0.925860
Si Si4 0.803887 0.920711 0.079897
Si Si5 0.669574 0.071290 0.077261
Si Si6 0.430048 0.571038 0.675505
Si Si7 0.934287 0.422131 0.081171
Si Si8 0.327811 0.428830 0.428004
O O1 0.500000 0.500000 0.833102
O O2 0.436812 0.750000 0.826339
O O3 0.411164 0.536773 0.749289
O O4 0.381209 0.523856 0.877054
O O5 0.803242 0.250000 0.403447
O O6 0.870391 0.498314 0.403921
O O7 0.807464 0.418717 0.502679
O O8 0.740562 0.504571 0.409149
O O9 0.934587 0.250000 0.906756
O O10 0.934330 0.074371 0.003507
O O11 0.000000 0.000000 0.905310
O O12 0.798352 0.750000 0.101460
O O13 0.740264 0.012949 0.094903
O O14 0.869909 0.994634 0.102169
O O15 0.666833 0.250000 0.082027
O O16 0.618643 0.996978 0.124368
O O17 0.658394 0.030568 0.002230
O O18 0.500000 0.500000 0.666015
O O19 0.433038 0.750000 0.668853
O O20 0.933123 0.250000 0.100207
O O21 0.000000 0.500000 0.101661
O O22 0.323584 0.250000 0.426452
#
# Coordination Sequence:
#
# PCOD9362177 Si02
#       8
#     8   8   8   8   8   8   8   8
#     4   9  19  35  53  71  92 120 153 189 229 273
#     4   9  16  25  38  58  84 115 150 187 228 273
#     4   9  15  22  33  50  76 112 151 189 227 270
#     4   9  16  26  39  57  84 117 152 189 229 273
#     4  10  19  31  48  70  96 124 154 190 232 278
#     4  10  20  35  53  71  93 121 153 189 229 274
#     4   9  15  22  33  51  77 112 152 190 229 273
#     4   9  18  32  48  68  94 123 154 189 231 276
#
# _framework density 8.0624839999999995
#
# number of rings (size 3 to 8) (size 9 to 14) (size 15 to 20)
#    0.000    2.750    0.000    2.250    0.000    8.000 
#    0.000    1.250    0.000    0.000    0.000    0.000 
#    0.000    1.000    0.000    8.000    0.000   13.500 
#
# Total GULP energy -178271.780380 kJ/mol
# GULP energy per Si atom -5570.993137 kJ/mol
# Density = 0.804413 g / cm^3
# Si number density = 8.062484 Si / 1000 Ang^3
#
#
#
# Elastic Constant Matrix: (Units=GPa)
#
#
# Indices 1 2 3 4 5 6 
#
# 1 161.1947 69.7559 68.3788 0.0000 0.0000 0.0000
# 2 69.7559 87.1267 38.4832 0.0000 0.0000 0.0000
# 3 68.3788 38.4832 55.1494 0.0000 0.0000 0.0000
# 4 0.0000 0.0000 0.0000 13.2427 0.0000 0.0000
# 5 0.0000 0.0000 0.0000 0.0000 4.7651 0.0000
# 6 0.0000 0.0000 0.0000 0.0000 0.0000 36.5248
#
#
#
# Elastic Compliance Matrix: (Units=1/GPa)
#
#
# Indices 1 2 3 4 5 6 
#
# 1 0.014630 -0.005350 -0.014406 0.000000 0.000000 0.000000
# 2 -0.005350 0.018548 -0.006309 0.000000 0.000000 0.000000
# 3 -0.014406 -0.006309 0.040397 0.000000 0.000000 0.000000
# 4 0.000000 0.000000 0.000000 0.075513 0.000000 0.000000
# 5 0.000000 0.000000 0.000000 0.000000 0.209858 0.000000
# 6 0.000000 0.000000 0.000000 0.000000 0.000000 0.027379
#
#
# Mechanical properties :
#
#
# Convention : Reuss Voigt Hill
#
# Bulk Modulus (GPa) = 46.63318 72.96740 59.80029
# Shear Modulus (GPa) = 11.22074 19.36339 15.29207
#
# Velocity S-wave (km/s) = 2.64078 3.46906 3.08287
# Velocity P-wave (km/s) = 6.18716 7.83551 7.05961
#
# Compressibility (1/GPa) = 0.02144396
#
# Stress axis : x y z
#
# Youngs Moduli (GPa) = 68.35287 53.91539 24.75427
#
# Poissons Ratio (x) = 0.28845 0.35662
# Poissons Ratio (y) = 0.36569 0.15618
# Poissons Ratio (z) = 0.98471 0.34016
#
# Static dielectric constant tensor:
#      x y z
#    x 1.528690 0.000000 0.000000 
#    y 0.000000 1.545750 0.000000 
#    z 0.000000 0.000000 1.517770 
# 
# From -- ./inp_files/13167.got.cif
#   From: 2010.05.17/outbox.ucp.g08.bks.cvg/sg39_7_cif.got.tgz:13167.got - 2010.06.11 10:41:16.
