data_PCOD9362153
_publ_section_title
;
Structure prediction by ZEFSAII (Michael W. Deem and Ramdas Pophale) SiO2 
 PCOD9362153
Probable space group: A B M 2
;
_chemical_formula_sum "Si O2"
_cell_formula_units_Z 40
_cell_length_a 4.898288
_cell_length_b 27.622912
_cell_length_c 11.669913
_cell_angle_alpha 90.000000
_cell_angle_beta 90.000000
_cell_angle_gamma 90.000000
_cell_volume 1578.997326
_symmetry_space_group_name_H-M "A B M 2"
_symmetry_group_IT_number 39
_symmetry_cell_setting 'orthorhombic'
loop_
_space_group_symop_operation_xyz
x,y,z
-x,-y,z
-x,1/2+y,z
x,1/2-y,z
x,1/2+y,1/2+z
-x,1/2-y,1/2+z
-x,y,1/2+z
x,-y,1/2+z
loop_
_atom_site_type_symbol
_atom_site_label
_atom_site_fract_x
_atom_site_fract_y
_atom_site_fract_z
Si Si1 0.055651 0.854420 0.844320
Si Si2 0.390884 0.250000 0.585308
Si Si3 0.500000 0.500000 0.836314
Si Si4 0.274170 0.921318 0.172448
Si Si5 0.000000 0.500000 0.010210
Si Si6 0.550851 0.353423 0.490246
Si Si7 0.110458 0.250000 0.235377
O O1 0.925778 0.889154 0.750232
O O2 0.863861 0.858350 0.956103
O O3 0.044832 0.799200 0.801257
O O4 0.361518 0.866522 0.881710
O O5 0.473994 0.298286 0.519470
O O6 0.075445 0.250000 0.621008
O O7 0.572603 0.250000 0.700787
O O8 0.466563 0.455144 0.750143
O O9 0.249147 0.493377 0.922822
O O10 0.458740 0.886799 0.094106
O O11 0.092067 0.956195 0.091881
#
# Coordination Sequence:
#
# PCOD9362153 Si02
#       7
#     8   4   4   8   4   8   4
#     4  12  27  47  77 115 155 204 256 310 382 456
#     4  12  24  48  76 109 159 204 246 312 382 452
#     4  12  28  52  78 110 152 202 258 322 400 460
#     4  12  28  51  82 112 160 201 264 330 384 466
#     4  12  28  52  78 110 152 202 258 322 400 460
#     4  12  27  47  77 115 155 204 256 310 382 456
#     4  12  24  48  76 109 159 204 246 312 382 452
#
# _framework density 25.332533000000002
#
# number of rings (size 3 to 8) (size 9 to 14) (size 15 to 20)
#    0.000    0.000    2.000    7.200    0.000    6.400 
#    0.000    0.000    0.000    0.000    0.000    0.000 
#    0.000    0.000    0.000    0.000    0.000    0.000 
#
# Total GULP energy -112403.061012 kJ/mol
# GULP energy per Si atom -5620.153051 kJ/mol
# Density = 2.527487 g / cm^3
# Si number density = 25.332533 Si / 1000 Ang^3
#
#
#
# Elastic Constant Matrix: (Units=GPa)
#
#
# Indices 1 2 3 4 5 6 
#
# 1 78.1865 11.5929 7.0231 0.0000 0.0000 0.0000
# 2 11.5929 179.4404 78.9514 0.0000 0.0000 0.0000
# 3 7.0231 78.9514 109.7776 0.0000 0.0000 0.0000
# 4 0.0000 0.0000 0.0000 41.8025 0.0000 0.0000
# 5 0.0000 0.0000 0.0000 0.0000 43.4894 0.0000
# 6 0.0000 0.0000 0.0000 0.0000 0.0000 28.6837
#
#
#
# Elastic Compliance Matrix: (Units=1/GPa)
#
#
# Indices 1 2 3 4 5 6 
#
# 1 0.012922 -0.000689 -0.000331 0.000000 0.000000 0.000000
# 2 -0.000689 0.008189 -0.005846 0.000000 0.000000 0.000000
# 3 -0.000331 -0.005846 0.013335 0.000000 0.000000 0.000000
# 4 0.000000 0.000000 0.000000 0.023922 0.000000 0.000000
# 5 0.000000 0.000000 0.000000 0.000000 0.022994 0.000000
# 6 0.000000 0.000000 0.000000 0.000000 0.000000 0.034863
#
#
# Mechanical properties :
#
#
# Convention : Reuss Voigt Hill
#
# Bulk Modulus (GPa) = 48.27613 62.50436 55.39025
# Shear Modulus (GPa) = 36.53324 40.78426 38.65875
#
# Velocity S-wave (km/s) = 3.80168 4.01678 3.91071
# Velocity P-wave (km/s) = 6.19425 6.79999 6.50417
#
# Compressibility (1/GPa) = 0.02071417
#
# Stress axis : x y z
#
# Youngs Moduli (GPa) = 77.38828 122.10858 74.99238
#
# Poissons Ratio (x) = 0.08416 0.02482
# Poissons Ratio (y) = 0.05333 0.43838
# Poissons Ratio (z) = 0.02562 0.71381
#
# Static dielectric constant tensor:
#      x y z
#    x 1.911490 0.000000 0.000000 
#    y 0.000000 1.959990 0.000000 
#    z 0.000000 0.000000 1.994140 
# 
# From -- ./inp_files/4579.got.cif
#   From: 2010.05.17/outbox.cif.g08.bks.cpg/sg39_3_cif.got.tgz:4579.got - 2010.06.03 18:22:40.
