data_PCOD9362629
_publ_section_title
;
Structure prediction by ZEFSAII (Michael W. Deem and Ramdas Pophale) SiO2 
 PCOD9362629
Probable space group: A M A 2
;
_chemical_formula_sum "Si O2"
_cell_formula_units_Z 64
_cell_length_a 8.588492
_cell_length_b 20.209795
_cell_length_c 21.256796
_cell_angle_alpha 90.000000
_cell_angle_beta 90.000000
_cell_angle_gamma 90.000000
_cell_volume 3689.577425
_symmetry_space_group_name_H-M "A M A 2"
_symmetry_group_IT_number 40
_symmetry_cell_setting 'orthorhombic'
loop_
_space_group_symop_operation_xyz
x,y,z
-x,-y,z
1/2-x,y,z
1/2+x,-y,z
x,1/2+y,1/2+z
-x,1/2-y,1/2+z
1/2-x,1/2+y,1/2+z
1/2+x,1/2-y,1/2+z
loop_
_atom_site_type_symbol
_atom_site_label
_atom_site_fract_x
_atom_site_fract_y
_atom_site_fract_z
Si Si1 0.936633 0.294821 0.960150
Si Si2 0.436920 0.069952 0.890108
Si Si3 0.435545 0.429722 0.008539
Si Si4 0.436242 0.570412 0.536841
Si Si5 0.938761 0.786857 0.842776
Si Si6 0.436835 0.570142 0.150663
Si Si7 0.439642 0.710487 0.202743
Si Si8 0.561919 0.207415 0.081422
O O1 0.750000 0.300128 0.961615
O O2 0.009447 0.367188 0.968415
O O3 0.990933 0.258291 0.897200
O O4 0.985962 0.250585 0.020545
O O5 0.250000 0.066815 0.888636
O O6 0.484816 0.136600 0.854781
O O7 0.500000 0.000000 0.865806
O O8 0.486395 0.076881 0.963370
O O9 0.500000 0.500000 0.984646
O O10 0.250000 0.432410 0.012310
O O11 0.503988 0.421459 0.079070
O O12 0.500000 0.500000 0.559869
O O13 0.250000 0.569937 0.538280
O O14 0.499146 0.633625 0.573581
O O15 0.750000 0.783686 0.847170
O O16 0.987396 0.767739 0.772277
O O17 0.500000 0.500000 0.174597
O O18 0.250000 0.567627 0.149527
O O19 0.486646 0.634707 0.189199
O O20 0.250000 0.710744 0.201815
O O21 0.491478 0.756394 0.145104
O O22 0.750000 0.205636 0.081764
#
# Coordination Sequence:
#
# PCOD9362629 Si02
#       8
#     8   8   8   8   8   8   8   8
#     4  11  21  35  56  81 109 140 178 224 272 319
#     4   9  18  30  47  72 103 138 176 213 254 307
#     4  11  21  34  55  82 110 141 178 223 271 320
#     4  10  19  32  51  79 107 135 171 218 266 311
#     4  10  20  36  54  76 106 144 185 222 266 320
#     4  10  18  32  50  76 109 146 185 222 266 315
#     4   9  19  35  54  74 106 147 182 219 268 320
#     4  10  19  34  55  78 104 141 180 219 264 313
#
# _framework density 17.346160000000001
#
# number of rings (size 3 to 8) (size 9 to 14) (size 15 to 20)
#    0.000    2.000    2.500    3.000    0.000    2.000 
#    0.000    1.875    0.000    0.750    0.000    3.500 
#    0.000    0.000    0.000    0.000    0.000    0.000 
#
# Total GULP energy -178614.129924 kJ/mol
# GULP energy per Si atom -5581.691560 kJ/mol
# Density = 1.730668 g / cm^3
# Si number density = 17.346160 Si / 1000 Ang^3
#
#
#
# Elastic Constant Matrix: (Units=GPa)
#
#
# Indices 1 2 3 4 5 6 
#
# 1 42.3342 32.4572 24.9017 0.0000 0.0000 0.0000
# 2 32.4572 137.3815 68.8198 0.0000 0.0000 0.0000
# 3 24.9017 68.8198 110.3056 0.0000 0.0000 0.0000
# 4 0.0000 0.0000 0.0000 22.3350 0.0000 0.0000
# 5 0.0000 0.0000 0.0000 0.0000 16.0963 0.0000
# 6 0.0000 0.0000 0.0000 0.0000 0.0000 28.9869
#
#
#
# Elastic Compliance Matrix: (Units=1/GPa)
#
#
# Indices 1 2 3 4 5 6 
#
# 1 0.029690 -0.005319 -0.003384 0.000000 0.000000 0.000000
# 2 -0.005319 0.011541 -0.006000 0.000000 0.000000 0.000000
# 3 -0.003384 -0.006000 0.013573 0.000000 0.000000 0.000000
# 4 0.000000 0.000000 0.000000 0.044773 0.000000 0.000000
# 5 0.000000 0.000000 0.000000 0.000000 0.062126 0.000000
# 6 0.000000 0.000000 0.000000 0.000000 0.000000 0.034498
#
#
# Mechanical properties :
#
#
# Convention : Reuss Voigt Hill
#
# Bulk Modulus (GPa) = 39.37247 60.26431 49.81839
# Shear Modulus (GPa) = 21.36077 24.40646 22.88361
#
# Velocity S-wave (km/s) = 3.51300 3.75510 3.63606
# Velocity P-wave (km/s) = 6.26117 7.32247 6.81252
#
# Compressibility (1/GPa) = 0.02539846
#
# Stress axis : x y z
#
# Youngs Moduli (GPa) = 33.68098 86.64571 73.67635
#
# Poissons Ratio (x) = 0.46091 0.24931
# Poissons Ratio (y) = 0.17916 0.44204
# Poissons Ratio (z) = 0.11397 0.51985
#
# Static dielectric constant tensor:
#      x y z
#    x 1.590350 0.000000 0.000000 
#    y 0.000000 1.582230 0.000000 
#    z 0.000000 0.000000 1.584900 
# 
# From -- ./inp_files/19587.got.cif
#   From: 2010.05.17/outbox.cif.g08.bks.cpg/sg40_10_cif.got.tgz:19587.got - 2010.06.03 18:35:42.
