data_PCOD9362478
_publ_section_title
;
Structure prediction by ZEFSAII (Michael W. Deem and Ramdas Pophale) SiO2 
 PCOD9362478
Probable space group: A M A 2
;
_chemical_formula_sum "Si O2"
_cell_formula_units_Z 56
_cell_length_a 9.253696
_cell_length_b 21.855307
_cell_length_c 18.179429
_cell_angle_alpha 90.000000
_cell_angle_beta 90.000000
_cell_angle_gamma 90.000000
_cell_volume 3676.650751
_symmetry_space_group_name_H-M "A M A 2"
_symmetry_group_IT_number 40
_symmetry_cell_setting 'orthorhombic'
loop_
_space_group_symop_operation_xyz
x,y,z
-x,-y,z
1/2-x,y,z
1/2+x,-y,z
x,1/2+y,1/2+z
-x,1/2-y,1/2+z
1/2-x,1/2+y,1/2+z
1/2+x,1/2-y,1/2+z
loop_
_atom_site_type_symbol
_atom_site_label
_atom_site_fract_x
_atom_site_fract_y
_atom_site_fract_z
Si Si1 0.084268 0.822817 0.484710
Si Si2 0.921165 0.656763 0.591844
Si Si3 0.416054 0.677174 0.447129
Si Si4 0.576021 0.218692 0.639887
Si Si5 0.580156 0.350687 0.842748
Si Si6 0.421609 0.935119 0.224775
Si Si7 0.080096 0.293274 0.305034
O O1 0.250000 0.843670 0.475034
O O2 0.043138 0.825057 0.570625
O O3 0.082046 0.749951 0.466590
O O4 0.980147 0.853747 0.425787
O O5 0.750000 0.667237 0.583117
O O6 0.993990 0.646424 0.512614
O O7 0.943872 0.601733 0.648696
O O8 0.994427 0.717488 0.626152
O O9 0.750000 0.342778 0.447239
O O10 0.488151 0.672948 0.367216
O O11 0.750000 0.230282 0.637959
O O12 0.540428 0.193649 0.720560
O O13 0.750000 0.364899 0.839330
O O14 0.490177 0.394097 0.789310
O O15 0.561582 0.280044 0.816735
O O16 0.250000 0.942076 0.236122
O O17 0.500000 0.000000 0.222618
O O18 0.250000 0.306219 0.315962
#
# Coordination Sequence:
#
# PCOD9362478 Si02
#       7
#     8   8   8   8   8   8   8
#     4   8  15  26  40  59  85 114 146 177 212 259
#     4  10  19  30  44  61  83 112 147 185 223 261
#     4   9  17  27  41  60  84 115 147 178 216 261
#     4   9  16  27  43  64  89 119 148 178 216 259
#     4  10  18  29  45  61  84 115 148 184 222 260
#     4  11  23  35  48  65  85 113 151 191 228 265
#     4   9  16  26  42  64  90 118 148 179 215 259
#
# _framework density 15.231254
#
# number of rings (size 3 to 8) (size 9 to 14) (size 15 to 20)
#    0.000    2.571    1.429    2.571    0.000    6.286 
#    0.000    0.000    0.000    0.000    0.000    0.000 
#    0.000    1.143    0.000    7.429    0.000    5.571 
#
# Total GULP energy -156007.328531 kJ/mol
# GULP energy per Si atom -5571.690305 kJ/mol
# Density = 1.519659 g / cm^3
# Si number density = 15.231254 Si / 1000 Ang^3
#
#
#
# Elastic Constant Matrix: (Units=GPa)
#
#
# Indices 1 2 3 4 5 6 
#
# 1 92.7451 38.1340 77.0543 0.0000 0.0000 0.0000
# 2 38.1340 30.5986 27.1610 0.0000 0.0000 0.0000
# 3 77.0543 27.1610 159.0153 0.0000 0.0000 0.0000
# 4 0.0000 0.0000 0.0000 7.4347 0.0000 0.0000
# 5 0.0000 0.0000 0.0000 0.0000 28.2052 0.0000
# 6 0.0000 0.0000 0.0000 0.0000 0.0000 15.7942
#
#
#
# Elastic Compliance Matrix: (Units=1/GPa)
#
#
# Indices 1 2 3 4 5 6 
#
# 1 0.031864 -0.030653 -0.010205 0.000000 0.000000 0.000000
# 2 -0.030653 0.068009 0.003237 0.000000 0.000000 0.000000
# 3 -0.010205 0.003237 0.010681 0.000000 0.000000 0.000000
# 4 0.000000 0.000000 0.000000 0.134504 0.000000 0.000000
# 5 0.000000 0.000000 0.000000 0.000000 0.035455 0.000000
# 6 0.000000 0.000000 0.000000 0.000000 0.000000 0.063314
#
#
# Mechanical properties :
#
#
# Convention : Reuss Voigt Hill
#
# Bulk Modulus (GPa) = 28.31811 63.00641 45.66226
# Shear Modulus (GPa) = 11.60527 19.62080 15.61304
#
# Velocity S-wave (km/s) = 2.76332 3.59303 3.20514
# Velocity P-wave (km/s) = 5.36784 7.65960 6.61374
#
# Compressibility (1/GPa) = 0.03531309
#
# Stress axis : x y z
#
# Youngs Moduli (GPa) = 31.38349 14.70387 93.62696
#
# Poissons Ratio (x) = 0.45071 0.95543
# Poissons Ratio (y) = 0.96199 -0.30306
# Poissons Ratio (z) = 0.32026 -0.04760
#
# Static dielectric constant tensor:
#      x y z
#    x 1.509380 0.000000 0.000000 
#    y 0.000000 1.463850 0.000000 
#    z 0.000000 0.000000 1.532480 
# 
# From -- ./inp_files/19485.got.cif
#   From: 2010.05.17/outbox.cif.g08.bks.cpg/sg40_10_cif.got.tgz:19485.got - 2010.06.03 18:35:42.
