data_PCOD9362070
_publ_section_title
;
Structure prediction by ZEFSAII (Michael W. Deem and Ramdas Pophale) SiO2 
 PCOD9362070
Probable space group: A B M 2
;
_chemical_formula_sum "Si O2"
_cell_formula_units_Z 64
_cell_length_a 11.669095
_cell_length_b 17.405746
_cell_length_c 14.619790
_cell_angle_alpha 90.000000
_cell_angle_beta 90.000000
_cell_angle_gamma 90.000000
_cell_volume 2969.415366
_symmetry_space_group_name_H-M "A B M 2"
_symmetry_group_IT_number 39
_symmetry_cell_setting 'orthorhombic'
loop_
_space_group_symop_operation_xyz
x,y,z
-x,-y,z
-x,1/2+y,z
x,1/2-y,z
x,1/2+y,1/2+z
-x,1/2-y,1/2+z
-x,y,1/2+z
x,-y,1/2+z
loop_
_atom_site_type_symbol
_atom_site_label
_atom_site_fract_x
_atom_site_fract_y
_atom_site_fract_z
Si Si1 0.556067 0.663182 0.908730
Si Si2 0.276871 0.838903 0.585161
Si Si3 0.348409 0.551366 0.958987
Si Si4 0.987998 0.910488 0.829095
Si Si5 0.035955 0.912069 0.618226
Si Si6 0.375068 0.980491 0.658410
Si Si7 0.273703 0.925858 0.308906
Si Si8 0.134927 0.838104 0.986349
O O1 0.510868 0.750000 0.902560
O O2 0.457290 0.600930 0.926462
O O3 0.630764 0.639337 0.820881
O O4 0.646915 0.661159 0.993158
O O5 0.256710 0.750000 0.610785
O O6 0.156699 0.884461 0.575811
O O7 0.346459 0.890418 0.658288
O O8 0.307921 0.490088 0.883873
O O9 0.244881 0.608853 0.977480
O O10 0.373478 0.508419 0.053870
O O11 0.852896 0.894675 0.824593
O O12 0.040632 0.903866 0.727707
O O13 0.052629 0.858098 0.901114
O O14 0.000000 0.000000 0.857590
O O15 0.937380 0.859343 0.576042
O O16 0.000000 0.000000 0.597146
O O17 0.500000 0.000000 0.697672
O O18 0.282235 0.029595 0.713401
O O19 0.167902 0.750000 0.986184
#
# Coordination Sequence:
#
# PCOD9362070 Si02
#       8
#     8   8   8   8   8   8   8   8
#     4  11  24  45  69 100 140 181 224 286 348 400
#     4  11  23  42  70 102 135 175 226 287 349 403
#     4  12  23  46  67  97 137 178 231 281 336 411
#     4  11  23  45  67  98 132 171 226 278 334 399
#     4  11  24  44  70  96 133 176 228 281 338 413
#     4  12  23  43  70 104 133 180 232 278 344 414
#     4  12  24  43  72 100 133 178 233 278 333 417
#     4  12  26  41  65  98 133 177 222 275 344 403
#
# _framework density 21.553065
#
# number of rings (size 3 to 8) (size 9 to 14) (size 15 to 20)
#    0.000    0.500    3.750    6.000    0.000    2.500 
#    0.000    5.000    0.000    0.000    0.000    0.000 
#    0.000    0.000    0.000    0.000    0.000    0.000 
#
# Total GULP energy -179158.772095 kJ/mol
# GULP energy per Si atom -5598.711628 kJ/mol
# Density = 2.150401 g / cm^3
# Si number density = 21.553065 Si / 1000 Ang^3
#
#
#
# Elastic Constant Matrix: (Units=GPa)
#
#
# Indices 1 2 3 4 5 6 
#
# 1 102.9922 22.0761 -12.0655 0.0000 0.0000 0.0000
# 2 22.0761 96.7910 9.0432 0.0000 0.0000 0.0000
# 3 -12.0655 9.0432 48.1256 0.0000 0.0000 0.0000
# 4 0.0000 0.0000 0.0000 17.6006 0.0000 0.0000
# 5 0.0000 0.0000 0.0000 0.0000 -47.8127 0.0000
# 6 0.0000 0.0000 0.0000 0.0000 0.0000 21.5976
#
#
#
# Elastic Compliance Matrix: (Units=1/GPa)
#
#
# Indices 1 2 3 4 5 6 
#
# 1 0.010668 -0.002731 0.003188 0.000000 0.000000 0.000000
# 2 -0.002731 0.011215 -0.002792 0.000000 0.000000 0.000000
# 3 0.003188 -0.002792 0.022103 0.000000 0.000000 0.000000
# 4 0.000000 0.000000 0.000000 0.056816 0.000000 0.000000
# 5 0.000000 0.000000 0.000000 0.000000 -0.020915 0.000000
# 6 0.000000 0.000000 0.000000 0.000000 0.000000 0.046302
#
#
# Mechanical properties :
#
#
# Convention : Reuss Voigt Hill
#
# Bulk Modulus (GPa) = 25.43514 31.77961 28.60737
# Shear Modulus (GPa) = 34.73061 13.53410 24.13235
#
# Velocity S-wave (km/s) = 4.01858 2.50860 3.34978
# Velocity P-wave (km/s) = 5.77570 4.81327 5.31631
#
# Compressibility (1/GPa) = 0.03931569
#
# Stress axis : x y z
#
# Youngs Moduli (GPa) = 93.73538 89.16382 45.24304
#
# Poissons Ratio (x) = 0.24351 -0.14423
# Poissons Ratio (y) = 0.25600 0.12633
# Poissons Ratio (z) = -0.29881 0.24896
#
# Static dielectric constant tensor:
#      x y z
#    x 1.827510 0.000000 0.000000 
#    y 0.000000 1.764870 0.000000 
#    z 0.000000 0.000000 1.782130 
# 
# From -- ./inp_files/9435.got.cif
#   From: 2010.05.17/outbox.cif.g08.bks.cpg/sg39_5_cif.got.tgz:9435.got - 2010.06.03 18:22:40.
