data_PCOD9362034
_publ_section_title
;
Structure prediction by ZEFSAII (Michael W. Deem and Ramdas Pophale) SiO2 
 PCOD9362034
Probable space group: A B M 2
;
_chemical_formula_sum "Si O2"
_cell_formula_units_Z 56
_cell_length_a 11.178493
_cell_length_b 16.068293
_cell_length_c 14.303896
_cell_angle_alpha 90.000000
_cell_angle_beta 90.000000
_cell_angle_gamma 90.000000
_cell_volume 2569.255799
_symmetry_space_group_name_H-M "A B M 2"
_symmetry_group_IT_number 39
_symmetry_cell_setting 'orthorhombic'
loop_
_space_group_symop_operation_xyz
x,y,z
-x,-y,z
-x,1/2+y,z
x,1/2-y,z
x,1/2+y,1/2+z
-x,1/2-y,1/2+z
-x,y,1/2+z
x,-y,1/2+z
loop_
_atom_site_type_symbol
_atom_site_label
_atom_site_fract_x
_atom_site_fract_y
_atom_site_fract_z
Si Si1 0.481797 0.845884 0.038530
Si Si2 0.384831 0.843460 0.351463
Si Si3 0.042447 0.347704 0.056696
Si Si4 0.221371 0.911953 0.064543
Si Si5 0.820144 0.050506 0.718252
Si Si6 0.832617 0.039045 0.401142
Si Si7 0.440450 0.087021 0.218655
O O1 0.513292 0.750000 0.056712
O O2 0.342870 0.861118 0.057141
O O3 0.557325 0.903913 0.107248
O O4 0.521216 0.864294 0.933469
O O5 0.339462 0.750000 0.364988
O O6 0.274822 0.905415 0.360127
O O7 0.464543 0.848270 0.258952
O O8 0.075107 0.250000 0.050907
O O9 0.102012 0.391920 0.148326
O O10 0.899813 0.358512 0.065266
O O11 0.084122 0.400176 0.964667
O O12 0.218406 0.971385 0.155101
O O13 0.215419 0.973037 0.976025
O O14 0.696308 0.094978 0.748366
O O15 0.877541 0.014479 0.812522
O O16 0.500000 0.000000 0.247289
#
# Coordination Sequence:
#
# PCOD9362034 Si02
#       7
#     8   8   8   8   8   8   8
#     4  11  23  38  61  92 129 169 209 260 322 378
#     4  11  24  39  62  97 134 166 207 265 326 386
#     4  11  26  46  67  95 134 172 219 278 332 378
#     4  11  23  41  65  92 130 171 223 272 318 385
#     4  11  23  41  68  96 126 172 222 267 319 393
#     4  11  22  41  69  95 126 170 223 266 321 398
#     4  12  22  38  63  95 128 165 209 258 317 393
#
# _framework density 21.796194
#
# number of rings (size 3 to 8) (size 9 to 14) (size 15 to 20)
#    0.000    0.857    2.857    5.571    0.000    4.571 
#    0.000    5.000    0.000    0.000    0.000    0.000 
#    0.000    0.000    0.000    0.000    0.000    0.000 
#
# Total GULP energy -156519.534158 kJ/mol
# GULP energy per Si atom -5589.983363 kJ/mol
# Density = 2.174659 g / cm^3
# Si number density = 21.796194 Si / 1000 Ang^3
#
#
#
# Elastic Constant Matrix: (Units=GPa)
#
#
# Indices 1 2 3 4 5 6 
#
# 1 112.3179 20.4069 10.8825 0.0000 0.0000 0.0000
# 2 20.4069 80.5773 21.5531 0.0000 0.0000 0.0000
# 3 10.8825 21.5531 111.0917 0.0000 0.0000 0.0000
# 4 0.0000 0.0000 0.0000 26.3845 0.0000 0.0000
# 5 0.0000 0.0000 0.0000 0.0000 2.0312 0.0000
# 6 0.0000 0.0000 0.0000 0.0000 0.0000 20.4720
#
#
#
# Elastic Compliance Matrix: (Units=1/GPa)
#
#
# Indices 1 2 3 4 5 6 
#
# 1 0.009357 -0.002241 -0.000482 0.000000 0.000000 0.000000
# 2 -0.002241 0.013626 -0.002424 0.000000 0.000000 0.000000
# 3 -0.000482 -0.002424 0.009519 0.000000 0.000000 0.000000
# 4 0.000000 0.000000 0.000000 0.037901 0.000000 0.000000
# 5 0.000000 0.000000 0.000000 0.000000 0.492321 0.000000
# 6 0.000000 0.000000 0.000000 0.000000 0.000000 0.048847
#
#
# Mechanical properties :
#
#
# Convention : Reuss Voigt Hill
#
# Bulk Modulus (GPa) = 45.02721 45.51909 45.27315
# Shear Modulus (GPa) = 7.94573 26.52050 17.23312
#
# Velocity S-wave (km/s) = 1.91138 3.49198 2.81490
# Velocity P-wave (km/s) = 5.05710 6.09818 5.60188
#
# Compressibility (1/GPa) = 0.02220880
#
# Stress axis : x y z
#
# Youngs Moduli (GPa) = 106.87038 73.38702 105.05208
#
# Poissons Ratio (x) = 0.16445 0.05062
# Poissons Ratio (y) = 0.23948 0.25466
# Poissons Ratio (z) = 0.05150 0.17790
#
# Static dielectric constant tensor:
#      x y z
#    x 1.786400 0.000000 0.000000 
#    y 0.000000 1.759160 0.000000 
#    z 0.000000 0.000000 1.785850 
# 
# From -- ./inp_files/9261.got.cif
#   From: 2010.05.17/outbox.cif.g08.bks.cpg/sg39_5_cif.got.tgz:9261.got - 2010.06.03 18:22:40.
