data_PCOD9362990
_publ_section_title
;
Structure prediction by ZEFSAII (Michael W. Deem and Ramdas Pophale) SiO2 
 PCOD9362990
Probable space group: A M A 2
;
_chemical_formula_sum "Si O2"
_cell_formula_units_Z 56
_cell_length_a 27.130172
_cell_length_b 18.924204
_cell_length_c 5.326422
_cell_angle_alpha 90.000000
_cell_angle_beta 90.000000
_cell_angle_gamma 90.000000
_cell_volume 2734.675122
_symmetry_space_group_name_H-M "A M A 2"
_symmetry_group_IT_number 40
_symmetry_cell_setting 'orthorhombic'
loop_
_space_group_symop_operation_xyz
x,y,z
-x,-y,z
1/2-x,y,z
1/2+x,-y,z
x,1/2+y,1/2+z
-x,1/2-y,1/2+z
1/2-x,1/2+y,1/2+z
1/2+x,1/2-y,1/2+z
loop_
_atom_site_type_symbol
_atom_site_label
_atom_site_fract_x
_atom_site_fract_y
_atom_site_fract_z
Si Si1 0.305910 0.592075 0.164560
Si Si2 0.057396 0.480891 0.522162
Si Si3 0.862843 0.909215 0.165899
Si Si4 0.193116 0.264042 0.663129
Si Si5 0.535871 0.066637 0.520071
Si Si6 0.018968 0.786103 0.668617
Si Si7 0.365804 0.261608 0.164349
O O1 0.250000 0.567787 0.126705
O O2 0.326325 0.572142 0.437044
O O3 0.305410 0.677994 0.159711
O O4 0.340535 0.569698 0.934461
O O5 0.087274 0.549377 0.606561
O O6 0.072042 0.451437 0.250221
O O7 0.000000 0.500000 0.486597
O O8 0.060979 0.424862 0.749038
O O9 0.868979 0.824452 0.165316
O O10 0.250000 0.288174 0.666410
O O11 0.164169 0.284630 0.411138
O O12 0.163336 0.283656 0.913759
O O13 0.504087 0.134179 0.599294
O O14 0.500000 0.000000 0.483595
O O15 0.078130 0.786795 0.667687
O O16 0.000334 0.737459 0.439863
#
# Coordination Sequence:
#
# PCOD9362990 Si02
#       7
#     8   8   8   8   8   8   8
#     4   9  17  30  49  80 117 145 182 235 304 353
#     4  10  21  36  56  79 111 149 205 237 276 343
#     4  10  19  31  54  82 111 150 189 242 290 345
#     4   9  17  33  54  82 116 152 187 241 298 358
#     4  10  23  39  59  80 112 162 202 241 282 349
#     4  12  26  40  60  87 125 164 199 254 305 348
#     4  10  21  33  54  86 118 150 194 242 299 354
#
# _framework density 20.477751999999999
#
# number of rings (size 3 to 8) (size 9 to 14) (size 15 to 20)
#    0.000    2.000    0.000    3.429    8.000    3.429 
#    0.000    0.000    0.000    0.000    0.000   20.000 
#    0.000    0.000    0.000    0.000    0.000    0.000 
#
# Total GULP energy -156291.052843 kJ/mol
# GULP energy per Si atom -5581.823316 kJ/mol
# Density = 2.043114 g / cm^3
# Si number density = 20.477752 Si / 1000 Ang^3
#
#
#
# Elastic Constant Matrix: (Units=GPa)
#
#
# Indices 1 2 3 4 5 6 
#
# 1 115.9218 0.4824 31.9031 0.0000 0.0000 0.0000
# 2 0.4824 29.4629 -9.9901 0.0000 0.0000 0.0000
# 3 31.9031 -9.9901 143.8673 0.0000 0.0000 0.0000
# 4 0.0000 0.0000 0.0000 14.4544 0.0000 0.0000
# 5 0.0000 0.0000 0.0000 0.0000 34.7803 0.0000
# 6 0.0000 0.0000 0.0000 0.0000 0.0000 19.6373
#
#
#
# Elastic Compliance Matrix: (Units=1/GPa)
#
#
# Indices 1 2 3 4 5 6 
#
# 1 0.009209 -0.000864 -0.002102 0.000000 0.000000 0.000000
# 2 -0.000864 0.034840 0.002611 0.000000 0.000000 0.000000
# 3 -0.002102 0.002611 0.007598 0.000000 0.000000 0.000000
# 4 0.000000 0.000000 0.000000 0.069183 0.000000 0.000000
# 5 0.000000 0.000000 0.000000 0.000000 0.028752 0.000000
# 6 0.000000 0.000000 0.000000 0.000000 0.000000 0.050923
#
#
# Mechanical properties :
#
#
# Convention : Reuss Voigt Hill
#
# Bulk Modulus (GPa) = 19.63180 37.11587 28.37383
# Shear Modulus (GPa) = 22.91533 31.56484 27.24009
#
# Velocity S-wave (km/s) = 3.34883 3.93035 3.65119
# Velocity P-wave (km/s) = 4.95586 6.22585 5.62680
#
# Compressibility (1/GPa) = 0.05093777
#
# Stress axis : x y z
#
# Youngs Moduli (GPa) = 108.59421 28.70235 131.60892
#
# Poissons Ratio (x) = 0.02478 0.27664
# Poissons Ratio (y) = 0.09377 -0.34360
# Poissons Ratio (z) = 0.22827 -0.07494
#
# Static dielectric constant tensor:
#      x y z
#    x 2.072550 0.000000 0.000000 
#    y 0.000000 1.745270 0.000000 
#    z 0.000000 0.000000 1.781880 
# 
# From -- ./inp_files/3199.got.cif
#   From: 2010.05.17/outbox.cif.g08.bks.cpg/sg40_2_cif.got.tgz:3199.got - 2010.06.03 18:35:42.
