data_PCOD9362921
_publ_section_title
;
Structure prediction by ZEFSAII (Michael W. Deem and Ramdas Pophale) SiO2 
 PCOD9362921
Probable space group: A M A 2
;
_chemical_formula_sum "Si O2"
_cell_formula_units_Z 56
_cell_length_a 8.701820
_cell_length_b 13.913070
_cell_length_c 30.259162
_cell_angle_alpha 90.000000
_cell_angle_beta 90.000000
_cell_angle_gamma 90.000000
_cell_volume 3663.447416
_symmetry_space_group_name_H-M "A M A 2"
_symmetry_group_IT_number 40
_symmetry_cell_setting 'orthorhombic'
loop_
_space_group_symop_operation_xyz
x,y,z
-x,-y,z
1/2-x,y,z
1/2+x,-y,z
x,1/2+y,1/2+z
-x,1/2-y,1/2+z
1/2-x,1/2+y,1/2+z
1/2+x,1/2-y,1/2+z
loop_
_atom_site_type_symbol
_atom_site_label
_atom_site_fract_x
_atom_site_fract_y
_atom_site_fract_z
Si Si1 0.566653 0.891485 0.494270
Si Si2 0.064689 0.297994 0.715110
Si Si3 0.565431 0.608454 0.902941
Si Si4 0.433446 0.102738 0.129405
Si Si5 0.565544 0.200919 0.581595
Si Si6 0.434238 0.602605 0.168022
Si Si7 0.064677 0.392128 0.805737
O O1 0.250000 0.102899 0.493947
O O2 0.506757 0.849609 0.447509
O O3 0.507151 0.830310 0.535492
O O4 0.500000 0.000000 0.498644
O O5 0.250000 0.305229 0.713057
O O6 0.023197 0.189534 0.701074
O O7 0.014092 0.329629 0.763839
O O8 0.996475 0.367373 0.677600
O O9 0.500000 0.500000 0.901582
O O10 0.750000 0.606463 0.907300
O O11 0.524154 0.648583 0.854418
O O12 0.250000 0.097410 0.131482
O O13 0.475291 0.190742 0.096850
O O14 0.500000 0.000000 0.116166
O O15 0.750000 0.192939 0.579470
O O16 0.503076 0.132207 0.620486
O O17 0.500000 0.500000 0.181639
O O18 0.250000 0.598367 0.164736
O O19 0.250000 0.398639 0.804703
O O20 0.000000 0.500000 0.801496
#
# Coordination Sequence:
#
# PCOD9362921 Si02
#       7
#     8   8   8   8   8   8   8
#     4  11  20  30  45  65  90 118 147 180 219 262
#     4   9  18  31  46  65  89 118 151 182 216 258
#     4   9  16  27  42  61  87 115 144 177 215 260
#     4  10  20  32  47  66  90 118 147 181 217 256
#     4  10  20  33  47  65  88 116 150 181 215 259
#     4  10  19  31  46  64  89 118 148 184 221 258
#     4   9  17  28  43  64  89 117 146 177 214 257
#
# _framework density 15.286148000000001
#
# number of rings (size 3 to 8) (size 9 to 14) (size 15 to 20)
#    0.000    2.286    0.000    4.714    0.000    4.571 
#    0.000    0.000    0.000    0.000    0.000    1.000 
#    0.000    2.286    0.000    0.000    0.000    0.000 
#
# Total GULP energy -156104.139865 kJ/mol
# GULP energy per Si atom -5575.147852 kJ/mol
# Density = 1.525136 g / cm^3
# Si number density = 15.286148 Si / 1000 Ang^3
#
#
#
# Elastic Constant Matrix: (Units=GPa)
#
#
# Indices 1 2 3 4 5 6 
#
# 1 55.8029 27.9449 43.9113 0.0000 0.0000 0.0000
# 2 27.9449 74.6455 51.3991 0.0000 0.0000 0.0000
# 3 43.9113 51.3991 156.5872 0.0000 0.0000 0.0000
# 4 0.0000 0.0000 0.0000 18.9546 0.0000 0.0000
# 5 0.0000 0.0000 0.0000 0.0000 22.5684 0.0000
# 6 0.0000 0.0000 0.0000 0.0000 0.0000 21.8283
#
#
#
# Elastic Compliance Matrix: (Units=1/GPa)
#
#
# Indices 1 2 3 4 5 6 
#
# 1 0.024802 -0.005809 -0.005048 0.000000 0.000000 0.000000
# 2 -0.005809 0.018669 -0.004499 0.000000 0.000000 0.000000
# 3 -0.005048 -0.004499 0.009279 0.000000 0.000000 0.000000
# 4 0.000000 0.000000 0.000000 0.052758 0.000000 0.000000
# 5 0.000000 0.000000 0.000000 0.000000 0.044310 0.000000
# 6 0.000000 0.000000 0.000000 0.000000 0.000000 0.045812
#
#
# Mechanical properties :
#
#
# Convention : Reuss Voigt Hill
#
# Bulk Modulus (GPa) = 45.37803 59.28290 52.33046
# Shear Modulus (GPa) = 21.39608 23.58894 22.49251
#
# Velocity S-wave (km/s) = 3.74532 3.93257 3.84009
# Velocity P-wave (km/s) = 6.96085 7.71274 7.34642
#
# Compressibility (1/GPa) = 0.02203710
#
# Stress axis : x y z
#
# Youngs Moduli (GPa) = 40.31982 53.56385 107.77322
#
# Poissons Ratio (x) = 0.31114 0.54408
# Poissons Ratio (y) = 0.23421 0.48489
# Poissons Ratio (z) = 0.20355 0.24099
#
# Static dielectric constant tensor:
#      x y z
#    x 1.511450 0.000000 0.000000 
#    y 0.000000 1.494890 0.000000 
#    z 0.000000 0.000000 1.529850 
# 
# From -- ./inp_files/26393.got.cif
#   From: 2010.05.17/outbox.cif.g08.bks.cpg/sg40_14_cif.got.tgz:26393.got - 2010.06.03 18:35:42.
