data_PCOD9362254
_publ_section_title
;
Structure prediction by ZEFSAII (Michael W. Deem and Ramdas Pophale) SiO2 
 PCOD9362254
Probable space group: A M A 2
;
_chemical_formula_sum "Si O2"
_cell_formula_units_Z 28
_cell_length_a 5.578868
_cell_length_b 12.233404
_cell_length_c 19.981766
_cell_angle_alpha 90.000000
_cell_angle_beta 90.000000
_cell_angle_gamma 90.000000
_cell_volume 1363.726478
_symmetry_space_group_name_H-M "A M A 2"
_symmetry_group_IT_number 40
_symmetry_cell_setting 'orthorhombic'
loop_
_space_group_symop_operation_xyz
x,y,z
-x,-y,z
1/2-x,y,z
1/2+x,-y,z
x,1/2+y,1/2+z
-x,1/2-y,1/2+z
1/2-x,1/2+y,1/2+z
1/2+x,1/2-y,1/2+z
loop_
_atom_site_type_symbol
_atom_site_label
_atom_site_fract_x
_atom_site_fract_y
_atom_site_fract_z
Si Si1 0.750000 0.236136 0.602941
Si Si2 0.250000 0.890137 0.986831
Si Si3 0.250000 0.139749 0.647062
Si Si4 0.250000 0.013522 0.126613
Si Si5 0.750000 0.027266 0.519027
Si Si6 0.250000 0.563469 0.299347
Si Si7 0.250000 0.139636 0.936097
O O1 0.498442 0.205754 0.638805
O O2 0.750000 0.365691 0.595042
O O3 0.750000 0.152817 0.540982
O O4 0.492814 0.828023 0.967045
O O5 0.250000 0.006974 0.948611
O O6 0.250000 0.928505 0.064226
O O7 0.250000 0.093233 0.721461
O O8 0.250000 0.047125 0.588136
O O9 0.500000 0.000000 0.164178
O O10 0.500000 0.000000 0.484163
O O11 0.500000 0.500000 0.310636
O O12 0.250000 0.656670 0.356420
#
# Coordination Sequence:
#
# PCOD9362254 Si02
#       7
#     4   4   4   4   4   4   4
#     4  10  20  32  43  64  87 119 166 199 214 270
#     4  10  16  30  40  60  90 116 157 193 208 266
#     4  10  19  31  44  64  93 122 155 186 228 278
#     4  12  21  32  50  63  86 130 170 192 240 260
#     4   8  14  27  42  56  82 113 141 182 221 256
#     4  12  18  25  44  68  91 126 157 166 229 294
#     4  10  16  27  41  63  91 114 156 180 214 276
#
# _framework density 20.531974999999999
#
# number of rings (size 3 to 8) (size 9 to 14) (size 15 to 20)
#    0.000    1.714    5.714    4.286    0.000    0.000 
#    0.000    0.000    0.000    0.000    0.000    0.000 
#    0.000    0.000    0.000   23.143   10.286    0.000 
#
# Total GULP energy -78042.817042 kJ/mol
# GULP energy per Si atom -5574.486932 kJ/mol
# Density = 2.048524 g / cm^3
# Si number density = 20.531975 Si / 1000 Ang^3
#
#
#
# Elastic Constant Matrix: (Units=GPa)
#
#
# Indices 1 2 3 4 5 6 
#
# 1 263.8191 40.4669 20.7219 0.0000 0.0000 0.0000
# 2 40.4669 47.4364 4.1784 0.0000 0.0000 0.0000
# 3 20.7219 4.1784 34.7689 0.0000 0.0000 0.0000
# 4 0.0000 0.0000 0.0000 9.5313 0.0000 0.0000
# 5 0.0000 0.0000 0.0000 0.0000 22.6866 0.0000
# 6 0.0000 0.0000 0.0000 0.0000 0.0000 24.1354
#
#
#
# Elastic Compliance Matrix: (Units=1/GPa)
#
#
# Indices 1 2 3 4 5 6 
#
# 1 0.004530 -0.003666 -0.002259 0.000000 0.000000 0.000000
# 2 -0.003666 0.024272 -0.000732 0.000000 0.000000 0.000000
# 3 -0.002259 -0.000732 0.030196 0.000000 0.000000 0.000000
# 4 0.000000 0.000000 0.000000 0.104917 0.000000 0.000000
# 5 0.000000 0.000000 0.000000 0.000000 0.044079 0.000000
# 6 0.000000 0.000000 0.000000 0.000000 0.000000 0.041433
#
#
# Mechanical properties :
#
#
# Convention : Reuss Voigt Hill
#
# Bulk Modulus (GPa) = 21.88955 52.97320 37.43138
# Shear Modulus (GPa) = 17.98752 29.98114 23.98433
#
# Velocity S-wave (km/s) = 2.96306 3.82542 3.42152
# Velocity P-wave (km/s) = 4.73188 6.73559 5.82060
#
# Compressibility (1/GPa) = 0.04568390
#
# Stress axis : x y z
#
# Youngs Moduli (GPa) = 220.74045 41.19904 33.11699
#
# Poissons Ratio (x) = 0.15102 0.07483
# Poissons Ratio (y) = 0.80915 0.02425
# Poissons Ratio (z) = 0.49875 0.03017
#
# Static dielectric constant tensor:
#      x y z
#    x 1.858660 0.000000 0.000000 
#    y 0.000000 1.753810 0.000000 
#    z 0.000000 0.000000 1.729480 
# 
# From -- ./inp_files/21701.got.cif
#   From: 2010.05.17/outbox.cif.g08.bks.cpg/sg40_11_cif.got.tgz:21701.got - 2010.06.03 18:35:42.
