data_PCOD9362106
_publ_section_title
;
Structure prediction by ZEFSAII (Michael W. Deem and Ramdas Pophale) SiO2 
 PCOD9362106
Probable space group: A B M 2
;
_chemical_formula_sum "Si O2"
_cell_formula_units_Z 64
_cell_length_a 5.123599
_cell_length_b 23.903220
_cell_length_c 21.496527
_cell_angle_alpha 90.000000
_cell_angle_beta 90.000000
_cell_angle_gamma 90.000000
_cell_volume 2632.690713
_symmetry_space_group_name_H-M "A B M 2"
_symmetry_group_IT_number 39
_symmetry_cell_setting 'orthorhombic'
loop_
_space_group_symop_operation_xyz
x,y,z
-x,-y,z
-x,1/2+y,z
x,1/2-y,z
x,1/2+y,1/2+z
-x,1/2-y,1/2+z
-x,y,1/2+z
x,-y,1/2+z
loop_
_atom_site_type_symbol
_atom_site_label
_atom_site_fract_x
_atom_site_fract_y
_atom_site_fract_z
Si Si1 0.683304 0.648204 0.108130
Si Si2 0.717891 0.686735 0.693776
Si Si3 0.765467 0.346911 0.330457
Si Si4 0.374593 0.443865 0.307280
Si Si5 0.181408 0.153082 0.523134
Si Si6 0.250778 0.036089 0.452137
Si Si7 0.948737 0.067746 0.685986
Si Si8 0.738306 0.190379 0.891113
O O1 0.582445 0.680063 0.170257
O O2 0.435017 0.658207 0.065057
O O3 0.741332 0.585586 0.132816
O O4 0.930358 0.663794 0.065761
O O5 0.806006 0.750000 0.671313
O O6 0.743084 0.688059 0.767817
O O7 0.854334 0.623830 0.679356
O O8 0.623516 0.404275 0.314331
O O9 0.564704 0.323621 0.382396
O O10 0.055624 0.349216 0.356696
O O11 0.500000 0.500000 0.280660
O O12 0.277079 0.454825 0.377506
O O13 0.170551 0.425538 0.254971
O O14 0.208457 0.092202 0.490953
O O15 0.190681 0.191229 0.462830
O O16 0.500000 0.000000 0.471739
O O17 0.000000 0.000000 0.463232
O O18 0.000000 0.000000 0.679009
O O19 0.787201 0.250000 0.861037
#
# Coordination Sequence:
#
# PCOD9362106 Si02
#       8
#     8   8   8   8   8   8   8   8
#     4  12  28  51  74 113 151 209 266 323 381 467
#     4  12  28  52  81 117 158 208 264 333 405 480
#     4  12  25  47  78 111 153 190 251 323 400 475
#     4  11  24  43  78 116 158 194 254 321 410 476
#     4  12  27  49  75 107 150 208 259 314 382 462
#     4  11  25  44  72 112 151 194 244 312 383 461
#     4  12  27  52  84 117 163 206 269 332 409 476
#     4  12  27  47  75 110 147 196 253 320 390 468
#
# _framework density 24.309732
#
# number of rings (size 3 to 8) (size 9 to 14) (size 15 to 20)
#    0.000    0.250    3.750    4.500    3.500    3.000 
#    2.250    0.000    0.000    0.000    0.000    0.000 
#    0.000    0.000    0.000    0.000    0.000    0.000 
#
# Total GULP energy -178574.518519 kJ/mol
# GULP energy per Si atom -5580.453704 kJ/mol
# Density = 2.425440 g / cm^3
# Si number density = 24.309732 Si / 1000 Ang^3
#
#
#
# Elastic Constant Matrix: (Units=GPa)
#
#
# Indices 1 2 3 4 5 6 
#
# 1 115.2204 31.1759 12.2086 0.0000 0.0000 0.0000
# 2 31.1759 157.3762 -6.5968 0.0000 0.0000 0.0000
# 3 12.2086 -6.5968 75.8279 0.0000 0.0000 0.0000
# 4 0.0000 0.0000 0.0000 11.4540 0.0000 0.0000
# 5 0.0000 0.0000 0.0000 0.0000 42.1491 0.0000
# 6 0.0000 0.0000 0.0000 0.0000 0.0000 0.2700
#
#
#
# Elastic Compliance Matrix: (Units=1/GPa)
#
#
# Indices 1 2 3 4 5 6 
#
# 1 0.009379 -0.001928 -0.001678 0.000000 0.000000 0.000000
# 2 -0.001928 0.006774 0.000900 0.000000 0.000000 0.000000
# 3 -0.001678 0.000900 0.013536 0.000000 0.000000 0.000000
# 4 0.000000 0.000000 0.000000 0.087306 0.000000 0.000000
# 5 0.000000 0.000000 0.000000 0.000000 0.023725 0.000000
# 6 0.000000 0.000000 0.000000 0.000000 0.000000 3.703928
#
#
# Mechanical properties :
#
#
# Convention : Reuss Voigt Hill
#
# Bulk Modulus (GPa) = 41.19257 46.88889 44.04073
# Shear Modulus (GPa) = 1.29596 31.55041 16.42318
#
# Velocity S-wave (km/s) = 0.73093 3.60648 2.60201
# Velocity P-wave (km/s) = 4.20643 6.05576 5.21374
#
# Compressibility (1/GPa) = 0.02427623
#
# Stress axis : x y z
#
# Youngs Moduli (GPa) = 106.62677 147.62573 73.87625
#
# Poissons Ratio (x) = 0.28465 0.12394
# Poissons Ratio (y) = 0.20560 -0.06647
# Poissons Ratio (z) = 0.17889 -0.13283
#
# Static dielectric constant tensor:
#      x y z
#    x 1.956100 0.000000 0.000000 
#    y 0.000000 2.015070 0.000000 
#    z 0.000000 0.000000 1.993580 
# 
# From -- ./inp_files/13663.got.cif
#   From: 2010.05.17/outbox.cif.g08.bks.cpg/sg39_7_cif.got.tgz:13663.got - 2010.06.03 18:22:40.
