data_PCOD9362558
_publ_section_title
;
Structure prediction by ZEFSAII (Michael W. Deem and Ramdas Pophale) SiO2 
 PCOD9362558
Probable space group: A M A 2
;
_chemical_formula_sum "Si O2"
_cell_formula_units_Z 56
_cell_length_a 15.583309
_cell_length_b 12.258322
_cell_length_c 12.736878
_cell_angle_alpha 90.000000
_cell_angle_beta 90.000000
_cell_angle_gamma 90.000000
_cell_volume 2433.064916
_symmetry_space_group_name_H-M "A M A 2"
_symmetry_group_IT_number 40
_symmetry_cell_setting 'orthorhombic'
loop_
_space_group_symop_operation_xyz
x,y,z
-x,-y,z
1/2-x,y,z
1/2+x,-y,z
x,1/2+y,1/2+z
-x,1/2-y,1/2+z
1/2-x,1/2+y,1/2+z
1/2+x,1/2-y,1/2+z
loop_
_atom_site_type_symbol
_atom_site_label
_atom_site_fract_x
_atom_site_fract_y
_atom_site_fract_z
Si Si1 0.840997 0.730728 0.980120
Si Si2 0.549074 0.899837 0.926058
Si Si3 0.602408 0.987304 0.520431
Si Si4 0.029613 0.768762 0.744095
Si Si5 0.152779 0.817333 0.233731
Si Si6 0.849146 0.427718 0.790742
Si Si7 0.149196 0.477293 0.237368
O O1 0.750000 0.760553 0.024794
O O2 0.904622 0.825479 0.010052
O O3 0.839388 0.729951 0.852756
O O4 0.860626 0.608213 0.006241
O O5 0.492123 0.813339 0.861586
O O6 0.390845 0.039546 0.837988
O O7 0.500000 0.000000 0.976150
O O8 0.637556 0.949548 0.632915
O O9 0.500000 0.000000 0.520725
O O10 0.633530 0.926617 0.416661
O O11 0.085931 0.660942 0.747136
O O12 0.088826 0.872143 0.711352
O O13 0.936594 0.737175 0.693906
O O14 0.250000 0.802356 0.186952
O O15 0.137981 0.947923 0.249338
O O16 0.750000 0.399625 0.771687
O O17 0.250000 0.452440 0.252898
#
# Coordination Sequence:
#
# PCOD9362558 Si02
#       7
#     8   8   8   8   8   8   8
#     4   9  16  29  49  72  96 129 170 207 247 302
#     4   9  18  31  48  70  99 135 173 209 251 301
#     4  11  20  33  52  77 106 135 169 214 260 307
#     4  10  18  31  48  73 102 136 173 212 253 305
#     4   8  15  27  47  74 100 127 167 215 257 298
#     4  10  18  30  51  79 107 136 170 212 259 307
#     4  11  22  35  50  75 110 140 169 213 265 310
#
# _framework density 23.016235999999999
#
# number of rings (size 3 to 8) (size 9 to 14) (size 15 to 20)
#    0.000    2.286    0.000    7.286    0.000    0.571 
#    0.000    0.000    0.000    1.714    0.000    6.000 
#    0.000    4.571    0.000    0.000    0.000    0.000 
#
# Total GULP energy -156131.223858 kJ/mol
# GULP energy per Si atom -5576.115138 kJ/mol
# Density = 2.296385 g / cm^3
# Si number density = 23.016236 Si / 1000 Ang^3
#
#
#
# Elastic Constant Matrix: (Units=GPa)
#
#
# Indices 1 2 3 4 5 6 
#
# 1 136.0244 46.8819 17.1739 0.0000 0.0000 0.0000
# 2 46.8819 114.6058 8.8776 0.0000 0.0000 0.0000
# 3 17.1739 8.8776 48.1722 0.0000 0.0000 0.0000
# 4 0.0000 0.0000 0.0000 -0.4292 0.0000 0.0000
# 5 0.0000 0.0000 0.0000 0.0000 19.8467 0.0000
# 6 0.0000 0.0000 0.0000 0.0000 0.0000 22.4420
#
#
#
# Elastic Compliance Matrix: (Units=1/GPa)
#
#
# Indices 1 2 3 4 5 6 
#
# 1 0.008851 -0.003425 -0.002524 0.000000 0.000000 0.000000
# 2 -0.003425 0.010177 -0.000654 0.000000 0.000000 0.000000
# 3 -0.002524 -0.000654 0.021779 0.000000 0.000000 0.000000
# 4 0.000000 0.000000 0.000000 -2.329821 0.000000 0.000000
# 5 0.000000 0.000000 0.000000 0.000000 0.050386 0.000000
# 6 0.000000 0.000000 0.000000 0.000000 0.000000 0.044559
#
#
# Mechanical properties :
#
#
# Convention : Reuss Voigt Hill
#
# Bulk Modulus (GPa) = 36.23187 49.40767 42.81977
# Shear Modulus (GPa) = -2.30239 23.42983 10.56372
#
# Velocity S-wave (km/s) = -1.00125 3.19402 2.14468
# Velocity P-wave (km/s) = 3.79992 5.92583 4.97769
#
# Compressibility (1/GPa) = 0.02760001
#
# Stress axis : x y z
#
# Youngs Moduli (GPa) = 112.98412 98.25729 45.91496
#
# Poissons Ratio (x) = 0.33654 0.11590
# Poissons Ratio (y) = 0.38698 0.03005
# Poissons Ratio (z) = 0.28519 0.06431
#
# Static dielectric constant tensor:
#      x y z
#    x 1.947920 0.000000 0.000000 
#    y 0.000000 1.858320 0.000000 
#    z 0.000000 0.000000 1.929440 
# 
# From -- ./inp_files/17164.got.cif
#   From: 2010.05.17/outbox.cif.g08.bks.cpg/sg40_9_cif.got.tgz:17164.got - 2010.06.03 18:35:42.
