data_PCOD9362557
_publ_section_title
;
Structure prediction by ZEFSAII (Michael W. Deem and Ramdas Pophale) SiO2 
 PCOD9362557
Probable space group: A M A 2
;
_chemical_formula_sum "Si O2"
_cell_formula_units_Z 56
_cell_length_a 20.723644
_cell_length_b 10.473672
_cell_length_c 12.242394
_cell_angle_alpha 90.000000
_cell_angle_beta 90.000000
_cell_angle_gamma 90.000000
_cell_volume 2657.244059
_symmetry_space_group_name_H-M "A M A 2"
_symmetry_group_IT_number 40
_symmetry_cell_setting 'orthorhombic'
loop_
_space_group_symop_operation_xyz
x,y,z
-x,-y,z
1/2-x,y,z
1/2+x,-y,z
x,1/2+y,1/2+z
-x,1/2-y,1/2+z
1/2-x,1/2+y,1/2+z
1/2+x,1/2-y,1/2+z
loop_
_atom_site_type_symbol
_atom_site_label
_atom_site_fract_x
_atom_site_fract_y
_atom_site_fract_z
Si Si1 0.321252 0.677665 0.559500
Si Si2 0.583440 0.114378 0.492690
Si Si3 0.678968 0.171853 0.791898
Si Si4 0.957595 0.614137 0.233347
Si Si5 0.678955 0.923440 0.419061
Si Si6 0.324372 0.923709 0.186971
Si Si7 0.535420 0.627629 0.751478
O O1 0.250000 0.690615 0.509369
O O2 0.373934 0.755674 0.492516
O O3 0.319593 0.750095 0.677071
O O4 0.332102 0.530553 0.591955
O O5 0.543429 0.112772 0.602097
O O6 0.548079 0.104089 0.379055
O O7 0.629422 0.991026 0.497434
O O8 0.750000 0.112013 0.805671
O O9 0.614113 0.093498 0.780245
O O10 0.669350 0.276942 0.886663
O O11 0.000000 0.500000 0.277596
O O12 0.987092 0.753389 0.253262
O O13 0.750000 0.938480 0.466042
O O14 0.676990 0.000515 0.303512
O O15 0.250000 0.869498 0.175438
O O16 0.393476 0.850311 0.195944
O O17 0.500000 0.500000 0.705949
#
# Coordination Sequence:
#
# PCOD9362557 Si02
#       7
#     8   8   8   8   8   8   8
#     4   8  13  24  46  78 108 133 172 226 275 317
#     4  10  18  30  51  78 107 144 183 226 268 318
#     4   8  15  30  51  73 103 142 177 214 269 331
#     4  11  23  37  52  79 114 146 180 226 275 323
#     4   8  13  24  49  83 107 129 175 232 272 309
#     4   8  15  29  50  76 107 141 177 220 270 325
#     4  11  21  36  56  79 108 145 186 228 273 325
#
# _framework density 21.074466999999999
#
# number of rings (size 3 to 8) (size 9 to 14) (size 15 to 20)
#    0.000    2.857    0.000    6.000    0.000    1.143 
#    0.000    2.857    0.000    0.000    0.000    6.000 
#    0.000    0.000    0.000    0.000    0.000    0.000 
#
# Total GULP energy -155949.560169 kJ/mol
# GULP energy per Si atom -5569.627149 kJ/mol
# Density = 2.102650 g / cm^3
# Si number density = 21.074467 Si / 1000 Ang^3
#
#
#
# Elastic Constant Matrix: (Units=GPa)
#
#
# Indices 1 2 3 4 5 6 
#
# 1 129.6646 41.9936 22.0079 0.0000 0.0000 0.0000
# 2 41.9936 45.1582 1.8157 0.0000 0.0000 0.0000
# 3 22.0079 1.8157 11.3170 0.0000 0.0000 0.0000
# 4 0.0000 0.0000 0.0000 3.6820 0.0000 0.0000
# 5 0.0000 0.0000 0.0000 0.0000 -24.1736 0.0000
# 6 0.0000 0.0000 0.0000 0.0000 0.0000 18.5660
#
#
#
# Elastic Compliance Matrix: (Units=1/GPa)
#
#
# Indices 1 2 3 4 5 6 
#
# 1 0.018555 -0.015907 -0.033532 0.000000 0.000000 0.000000
# 2 -0.015907 0.035924 0.025170 0.000000 0.000000 0.000000
# 3 -0.033532 0.025170 0.149533 0.000000 0.000000 0.000000
# 4 0.000000 0.000000 0.000000 0.271594 0.000000 0.000000
# 5 0.000000 0.000000 0.000000 0.000000 -0.041367 0.000000
# 6 0.000000 0.000000 0.000000 0.000000 0.000000 0.053862
#
#
# Mechanical properties :
#
#
# Convention : Reuss Voigt Hill
#
# Bulk Modulus (GPa) = 6.43188 35.30826 20.87007
# Shear Modulus (GPa) = 8.49669 7.63636 8.06652
#
# Velocity S-wave (km/s) = 2.01010 1.90562 1.95856
# Velocity P-wave (km/s) = 2.90619 4.65105 3.87803
#
# Compressibility (1/GPa) = 0.15547542
#
# Stress axis : x y z
#
# Youngs Moduli (GPa) = 53.89345 27.83629 6.68747
#
# Poissons Ratio (x) = 0.44278 0.22424
# Poissons Ratio (y) = 0.85726 -0.16832
# Poissons Ratio (z) = 1.80715 -0.70063
#
# Static dielectric constant tensor:
#      x y z
#    x 1.861800 0.000000 0.000000 
#    y 0.000000 1.836920 0.000000 
#    z 0.000000 0.000000 1.729350 
# 
# From -- ./inp_files/13581.got.cif
#   From: 2010.05.17/outbox.cif.g08.bks.cpg/sg40_7_cif.got.tgz:13581.got - 2010.06.03 18:35:42.
