data_PCOD9362721
_publ_section_title
;
Structure prediction by ZEFSAII (Michael W. Deem and Ramdas Pophale) SiO2 
 PCOD9362721
Probable space group: A M A 2
;
_chemical_formula_sum "Si O2"
_cell_formula_units_Z 64
_cell_length_a 17.107018
_cell_length_b 11.568546
_cell_length_c 15.559963
_cell_angle_alpha 90.000000
_cell_angle_beta 90.000000
_cell_angle_gamma 90.000000
_cell_volume 3079.368409
_symmetry_space_group_name_H-M "A M A 2"
_symmetry_group_IT_number 40
_symmetry_cell_setting 'orthorhombic'
loop_
_space_group_symop_operation_xyz
x,y,z
-x,-y,z
1/2-x,y,z
1/2+x,-y,z
x,1/2+y,1/2+z
-x,1/2-y,1/2+z
1/2-x,1/2+y,1/2+z
1/2+x,1/2-y,1/2+z
loop_
_atom_site_type_symbol
_atom_site_label
_atom_site_fract_x
_atom_site_fract_y
_atom_site_fract_z
Si Si1 0.660749 0.366714 0.032250
Si Si2 0.568869 0.074812 0.594335
Si Si3 0.475052 0.681345 0.531497
Si Si4 0.159978 0.312434 0.692323
Si Si5 0.880207 0.656713 0.422856
Si Si6 0.832642 0.979718 0.062375
Si Si7 0.342919 0.787865 0.738369
Si Si8 0.999748 0.367446 0.726754
O O1 0.750000 0.401857 0.030450
O O2 0.609345 0.479937 0.035909
O O3 0.650555 0.285031 0.117255
O O4 0.642660 0.285838 0.951609
O O5 0.533582 0.181621 0.541087
O O6 0.630768 0.132089 0.658965
O O7 0.500000 0.000000 0.639837
O O8 0.529689 0.646101 0.452662
O O9 0.394334 0.615113 0.535412
O O10 0.509790 0.639131 0.622789
O O11 0.250000 0.298929 0.725801
O O12 0.158109 0.440206 0.647122
O O13 0.082730 0.307604 0.753159
O O14 0.834550 0.571986 0.485792
O O15 0.857199 0.640792 0.325518
O O16 0.750000 0.919797 0.070956
O O17 0.250000 0.754253 0.734334
O O18 0.414782 0.692455 0.742264
O O19 0.000000 0.500000 0.755700
#
# Coordination Sequence:
#
# PCOD9362721 Si02
#       8
#     8   8   8   8   8   8   8   8
#     4  10  18  33  59  84 112 154 207 255 301 370
#     4  11  22  40  59  89 126 166 215 263 325 387
#     4  11  20  35  62  89 121 155 212 261 311 386
#     4   9  17  31  57  90 117 153 203 254 306 378
#     4  11  20  40  61  87 120 165 212 261 318 393
#     4  10  19  32  59  92 121 150 196 263 327 378
#     4  11  26  41  60  93 133 172 216 272 339 398
#     4  11  19  37  58  88 123 160 204 261 322 385
#
# _framework density 20.783481999999999
#
# number of rings (size 3 to 8) (size 9 to 14) (size 15 to 20)
#    0.000    1.500    5.000    3.375    0.000    4.000 
#    2.250    0.000    0.000    0.750    0.000    0.000 
#    0.000    0.000    0.000    0.000    0.000    0.000 
#
# Total GULP energy -178264.316744 kJ/mol
# GULP energy per Si atom -5570.759898 kJ/mol
# Density = 2.073618 g / cm^3
# Si number density = 20.783482 Si / 1000 Ang^3
#
#
#
# Elastic Constant Matrix: (Units=GPa)
#
#
# Indices 1 2 3 4 5 6 
#
# 1 178.5943 28.3497 2.9511 0.0000 0.0000 0.0000
# 2 28.3497 79.6264 -8.2042 0.0000 0.0000 0.0000
# 3 2.9511 -8.2042 22.4072 0.0000 0.0000 0.0000
# 4 0.0000 0.0000 0.0000 5.6445 0.0000 0.0000
# 5 0.0000 0.0000 0.0000 0.0000 12.6456 0.0000
# 6 0.0000 0.0000 0.0000 0.0000 0.0000 -8.7120
#
#
#
# Elastic Compliance Matrix: (Units=1/GPa)
#
#
# Indices 1 2 3 4 5 6 
#
# 1 0.005992 -0.002301 -0.001632 0.000000 0.000000 0.000000
# 2 -0.002301 0.013935 0.005405 0.000000 0.000000 0.000000
# 3 -0.001632 0.005405 0.046822 0.000000 0.000000 0.000000
# 4 0.000000 0.000000 0.000000 0.177165 0.000000 0.000000
# 5 0.000000 0.000000 0.000000 0.000000 0.079079 0.000000
# 6 0.000000 0.000000 0.000000 0.000000 0.000000 -0.114784
#
#
# Mechanical properties :
#
#
# Convention : Reuss Voigt Hill
#
# Bulk Modulus (GPa) = 14.34859 36.31345 25.33102
# Shear Modulus (GPa) = 21.88233 19.08438 20.48335
#
# Velocity S-wave (km/s) = 3.24832 3.03355 3.14277
# Velocity P-wave (km/s) = 4.58122 5.45711 5.03824
#
# Compressibility (1/GPa) = 0.06969326
#
# Stress axis : x y z
#
# Youngs Moduli (GPa) = 166.90167 71.76220 21.35730
#
# Poissons Ratio (x) = 0.16515 0.03485
# Poissons Ratio (y) = 0.38409 -0.11544
# Poissons Ratio (z) = 0.27234 -0.38789
#
# Static dielectric constant tensor:
#      x y z
#    x 1.902460 0.000000 0.000000 
#    y 0.000000 1.747120 0.000000 
#    z 0.000000 0.000000 1.726730 
# 
# From -- ./inp_files/20816.got.cif
#   From: 2010.05.17/outbox.cif.g08.bks.cpg/sg40_11_cif.got.tgz:20816.got - 2010.06.03 18:35:42.
