data_PCOD9362893
_publ_section_title
;
Structure prediction by ZEFSAII (Michael W. Deem and Ramdas Pophale) SiO2 
 PCOD9362893
Probable space group: A M A 2
;
_chemical_formula_sum "Si O2"
_cell_formula_units_Z 56
_cell_length_a 8.685730
_cell_length_b 13.959163
_cell_length_c 30.034014
_cell_angle_alpha 90.000000
_cell_angle_beta 90.000000
_cell_angle_gamma 90.000000
_cell_volume 3641.489670
_symmetry_space_group_name_H-M "A M A 2"
_symmetry_group_IT_number 40
_symmetry_cell_setting 'orthorhombic'
loop_
_space_group_symop_operation_xyz
x,y,z
-x,-y,z
1/2-x,y,z
1/2+x,-y,z
x,1/2+y,1/2+z
-x,1/2-y,1/2+z
1/2-x,1/2+y,1/2+z
1/2+x,1/2-y,1/2+z
loop_
_atom_site_type_symbol
_atom_site_label
_atom_site_fract_x
_atom_site_fract_y
_atom_site_fract_z
Si Si1 0.435092 0.213232 0.665340
Si Si2 0.935519 0.701631 0.529526
Si Si3 0.934619 0.608139 0.250415
Si Si4 0.066218 0.108330 0.941339
Si Si5 0.565851 0.395886 0.617570
Si Si6 0.934372 0.396237 0.076149
Si Si7 0.434224 0.892168 0.849563
O O1 0.250000 0.220885 0.665080
O O2 0.494195 0.172491 0.711813
O O3 0.507008 0.314830 0.651634
O O4 0.480592 0.139888 0.625542
O O5 0.250000 0.305708 0.529392
O O6 0.002831 0.667932 0.482817
O O7 0.000582 0.635710 0.569288
O O8 0.978990 0.810494 0.542762
O O9 0.750000 0.603678 0.245899
O O10 0.969830 0.646933 0.300289
O O11 0.000000 0.500000 0.246696
O O12 0.250000 0.103627 0.942049
O O13 0.008949 0.150473 0.893994
O O14 0.000000 0.000000 0.945043
O O15 0.500000 0.500000 0.628754
O O16 0.750000 0.397512 0.616226
O O17 0.750000 0.401980 0.075729
O O18 0.000000 0.500000 0.065937
O O19 0.250000 0.894870 0.854927
O O20 0.500000 0.000000 0.848130
#
# Coordination Sequence:
#
# PCOD9362893 Si02
#       7
#     8   8   8   8   8   8   8
#     4  10  20  33  48  69  95 125 159 192 230 275
#     4  10  20  34  48  67  94 124 157 190 229 275
#     4  10  19  30  46  69  96 127 159 192 232 277
#     4  11  20  30  46  68  93 123 156 191 232 277
#     4  11  21  34  50  69  94 123 156 194 233 274
#     4   9  19  32  47  66  91 121 152 188 226 266
#     4   9  17  29  44  64  92 123 154 189 230 276
#
# _framework density 15.378322000000001
#
# number of rings (size 3 to 8) (size 9 to 14) (size 15 to 20)
#    0.000    2.000    0.000    6.857    0.000    6.286 
#    0.000    0.000    0.000    0.000    0.000    1.000 
#    0.000    4.571    0.000    0.000    0.000    0.000 
#
# Total GULP energy -156199.667543 kJ/mol
# GULP energy per Si atom -5578.559555 kJ/mol
# Density = 1.534332 g / cm^3
# Si number density = 15.378322 Si / 1000 Ang^3
#
#
#
# Elastic Constant Matrix: (Units=GPa)
#
#
# Indices 1 2 3 4 5 6 
#
# 1 99.0179 40.7305 60.9741 0.0000 0.0000 0.0000
# 2 40.7305 91.4763 62.0007 0.0000 0.0000 0.0000
# 3 60.9741 62.0007 151.4215 0.0000 0.0000 0.0000
# 4 0.0000 0.0000 0.0000 21.9246 0.0000 0.0000
# 5 0.0000 0.0000 0.0000 0.0000 28.8150 0.0000
# 6 0.0000 0.0000 0.0000 0.0000 0.0000 25.5048
#
#
#
# Elastic Compliance Matrix: (Units=1/GPa)
#
#
# Indices 1 2 3 4 5 6 
#
# 1 0.014143 -0.003374 -0.004314 0.000000 0.000000 0.000000
# 2 -0.003374 0.015936 -0.005167 0.000000 0.000000 0.000000
# 3 -0.004314 -0.005167 0.010457 0.000000 0.000000 0.000000
# 4 0.000000 0.000000 0.000000 0.045611 0.000000 0.000000
# 5 0.000000 0.000000 0.000000 0.000000 0.034704 0.000000
# 6 0.000000 0.000000 0.000000 0.000000 0.000000 0.039208
#
#
# Mechanical properties :
#
#
# Convention : Reuss Voigt Hill
#
# Bulk Modulus (GPa) = 67.44127 74.36960 70.90544
# Shear Modulus (GPa) = 26.21789 27.12956 26.67372
#
# Velocity S-wave (km/s) = 4.13347 4.20473 4.16925
# Velocity P-wave (km/s) = 8.16889 8.48752 8.32973
#
# Compressibility (1/GPa) = 0.01482772
#
# Stress axis : x y z
#
# Youngs Moduli (GPa) = 70.70475 62.75235 95.63286
#
# Poissons Ratio (x) = 0.21170 0.41255
# Poissons Ratio (y) = 0.23853 0.49409
# Poissons Ratio (z) = 0.30501 0.32421
#
# Static dielectric constant tensor:
#      x y z
#    x 1.513110 0.000000 0.000000 
#    y 0.000000 1.487630 0.000000 
#    z 0.000000 0.000000 1.528180 
# 
# From -- ./inp_files/26406.got.cif
#   From: 2010.05.17/outbox.cif.g08.bks.cpg/sg40_14_cif.got.tgz:26406.got - 2010.06.03 18:35:42.
