data_PCOD9362780
_publ_section_title
;
Structure prediction by ZEFSAII (Michael W. Deem and Ramdas Pophale) SiO2 
 PCOD9362780
Probable space group: A M A 2
;
_chemical_formula_sum "Si O2"
_cell_formula_units_Z 64
_cell_length_a 13.671808
_cell_length_b 12.339981
_cell_length_c 15.755942
_cell_angle_alpha 90.000000
_cell_angle_beta 90.000000
_cell_angle_gamma 90.000000
_cell_volume 2658.182626
_symmetry_space_group_name_H-M "A M A 2"
_symmetry_group_IT_number 40
_symmetry_cell_setting 'orthorhombic'
loop_
_space_group_symop_operation_xyz
x,y,z
-x,-y,z
1/2-x,y,z
1/2+x,-y,z
x,1/2+y,1/2+z
-x,1/2-y,1/2+z
1/2-x,1/2+y,1/2+z
1/2+x,1/2-y,1/2+z
loop_
_atom_site_type_symbol
_atom_site_label
_atom_site_fract_x
_atom_site_fract_y
_atom_site_fract_z
Si Si1 0.913730 0.086960 0.597390
Si Si2 0.863029 0.569061 0.289972
Si Si3 0.631947 0.307560 0.527445
Si Si4 0.368929 0.947539 0.074587
Si Si5 0.369580 0.888408 0.262084
Si Si6 0.867889 0.831045 0.830586
Si Si7 0.630557 0.228298 0.933857
Si Si8 0.362816 0.027393 0.423542
O O1 0.863838 0.084929 0.689413
O O2 0.865405 0.039711 0.511113
O O3 0.924943 0.213931 0.577020
O O4 0.000000 0.000000 0.608421
O O5 0.750000 0.562368 0.318405
O O6 0.905413 0.450681 0.311264
O O7 0.900873 0.668410 0.346920
O O8 0.750000 0.294169 0.544534
O O9 0.604525 0.431132 0.547524
O O10 0.617145 0.295640 0.427086
O O11 0.250000 0.944993 0.073090
O O12 0.400541 0.930502 0.170945
O O13 0.399067 0.852645 0.009757
O O14 0.250000 0.887636 0.263112
O O15 0.400621 0.958704 0.343562
O O16 0.403888 0.764824 0.271116
O O17 0.750000 0.835824 0.818464
O O18 0.750000 0.234326 0.938217
O O19 0.593793 0.352299 0.937773
O O20 0.250000 0.046033 0.401928
#
# Coordination Sequence:
#
# PCOD9362780 Si02
#       8
#     8   8   8   8   8   8   8   8
#     4  12  26  40  54  79 115 157 199 239 279 331
#     4  10  20  36  60  88 114 147 186 232 286 342
#     4  10  18  35  61  82 107 147 192 235 278 334
#     4   9  17  29  52  87 117 138 172 229 289 339
#     4   9  17  28  49  85 118 140 171 222 280 332
#     4   9  16  30  55  86 114 141 180 226 275 334
#     4   9  18  32  55  90 122 141 173 231 292 341
#     4  10  20  36  58  84 115 148 183 232 288 338
#
# _framework density 24.076599999999999
#
# number of rings (size 3 to 8) (size 9 to 14) (size 15 to 20)
#    0.000    2.250    2.500    1.125    3.500    0.000 
#    0.000    1.250    0.000    0.000    0.000    0.000 
#    0.000    0.000    0.000    0.000    0.000    0.000 
#
# Total GULP energy -178918.493626 kJ/mol
# GULP energy per Si atom -5591.202926 kJ/mol
# Density = 2.402180 g / cm^3
# Si number density = 24.076600 Si / 1000 Ang^3
#
#
#
# Elastic Constant Matrix: (Units=GPa)
#
#
# Indices 1 2 3 4 5 6 
#
# 1 71.3156 14.5610 3.8801 0.0000 0.0000 0.0000
# 2 14.5610 167.6263 60.5855 0.0000 0.0000 0.0000
# 3 3.8801 60.5855 118.2860 0.0000 0.0000 0.0000
# 4 0.0000 0.0000 0.0000 39.1000 0.0000 0.0000
# 5 0.0000 0.0000 0.0000 0.0000 -3.0621 0.0000
# 6 0.0000 0.0000 0.0000 0.0000 0.0000 26.2226
#
#
#
# Elastic Compliance Matrix: (Units=1/GPa)
#
#
# Indices 1 2 3 4 5 6 
#
# 1 0.014279 -0.001314 0.000205 0.000000 0.000000 0.000000
# 2 -0.001314 0.007442 -0.003769 0.000000 0.000000 0.000000
# 3 0.000205 -0.003769 0.010378 0.000000 0.000000 0.000000
# 4 0.000000 0.000000 0.000000 0.025575 0.000000 0.000000
# 5 0.000000 0.000000 0.000000 0.000000 -0.326576 0.000000
# 6 0.000000 0.000000 0.000000 0.000000 0.000000 0.038135
#
#
# Mechanical properties :
#
#
# Convention : Reuss Voigt Hill
#
# Bulk Modulus (GPa) = 44.75757 57.25344 51.00551
# Shear Modulus (GPa) = -23.41239 30.99886 3.79324
#
# Velocity S-wave (km/s) = -3.12174 3.59208 1.25655
# Velocity P-wave (km/s) = 2.37410 6.40589 4.83072
#
# Compressibility (1/GPa) = 0.02234259
#
# Stress axis : x y z
#
# Youngs Moduli (GPa) = 70.03088 134.37396 96.36116
#
# Poissons Ratio (x) = 0.17662 -0.01974
# Poissons Ratio (y) = 0.09205 0.36315
# Poissons Ratio (z) = -0.01434 0.50640
#
# Static dielectric constant tensor:
#      x y z
#    x 2.043550 0.000000 0.000000 
#    y 0.000000 1.888650 0.000000 
#    z 0.000000 0.000000 1.836160 
# 
# From -- ./inp_files/17864.got.cif
#   From: 2010.05.17/outbox.cif.g08.bks.cpg/sg40_9_cif.got.tgz:17864.got - 2010.06.03 18:35:42.
