data_PCOD9362888
_publ_section_title
;
Structure prediction by ZEFSAII (Michael W. Deem and Ramdas Pophale) SiO2 
 PCOD9362888
Probable space group: A M A 2
;
_chemical_formula_sum "Si O2"
_cell_formula_units_Z 56
_cell_length_a 8.285830
_cell_length_b 14.108045
_cell_length_c 30.662970
_cell_angle_alpha 90.000000
_cell_angle_beta 90.000000
_cell_angle_gamma 90.000000
_cell_volume 3584.404988
_symmetry_space_group_name_H-M "A M A 2"
_symmetry_group_IT_number 40
_symmetry_cell_setting 'orthorhombic'
loop_
_space_group_symop_operation_xyz
x,y,z
-x,-y,z
1/2-x,y,z
1/2+x,-y,z
x,1/2+y,1/2+z
-x,1/2-y,1/2+z
1/2-x,1/2+y,1/2+z
1/2+x,1/2-y,1/2+z
loop_
_atom_site_type_symbol
_atom_site_label
_atom_site_fract_x
_atom_site_fract_y
_atom_site_fract_z
Si Si1 0.053016 0.292402 0.564430
Si Si2 0.945542 0.609229 0.286240
Si Si3 0.943034 0.708765 0.198628
Si Si4 0.944638 0.609249 0.381403
Si Si5 0.554450 0.609206 0.476510
Si Si6 0.557397 0.105489 0.152545
Si Si7 0.942876 0.894554 0.612114
O O1 0.250000 0.293079 0.563760
O O2 0.996591 0.330519 0.517859
O O3 0.001432 0.360819 0.604246
O O4 0.001644 0.186653 0.578206
O O5 0.750000 0.609602 0.285811
O O6 0.003073 0.670240 0.245133
O O7 0.999305 0.646513 0.334087
O O8 0.000000 0.500000 0.281579
O O9 0.750000 0.708038 0.199286
O O10 0.999624 0.813851 0.185864
O O11 0.999318 0.639701 0.159709
O O12 0.750000 0.612986 0.381415
O O13 0.999190 0.646740 0.428713
O O14 0.000000 0.500000 0.381458
O O15 0.500000 0.500000 0.481029
O O16 0.750000 0.609786 0.477010
O O17 0.750000 0.107028 0.152099
O O18 0.500000 0.000000 0.162286
O O19 0.750000 0.893272 0.612546
O O20 0.000000 0.000000 0.602276
#
# Coordination Sequence:
#
# PCOD9362888 Si02
#       7
#     8   8   8   8   8   8   8
#     4   8  16  28  42  61  83 108 137 168 201 241
#     4   9  17  27  40  60  85 111 138 169 203 242
#     4  10  19  30  44  62  84 111 143 173 205 245
#     4   8  14  24  38  57  81 107 134 163 198 240
#     4   9  15  25  41  60  83 109 135 163 198 240
#     4  10  19  31  45  62  86 112 140 173 207 243
#     4  10  19  31  44  60  84 110 140 175 210 247
#
# _framework density 15.623236
#
# number of rings (size 3 to 8) (size 9 to 14) (size 15 to 20)
#    0.000    2.857    0.000    3.000    0.000    2.286 
#    0.000    3.571    0.000    0.000    0.000    1.000 
#    0.000    2.286    0.000    0.000    0.000    0.571 
#
# Total GULP energy -155901.163328 kJ/mol
# GULP energy per Si atom -5567.898690 kJ/mol
# Density = 1.558768 g / cm^3
# Si number density = 15.623236 Si / 1000 Ang^3
#
#
#
# Elastic Constant Matrix: (Units=GPa)
#
#
# Indices 1 2 3 4 5 6 
#
# 1 18.7035 11.8709 15.6557 0.0000 0.0000 0.0000
# 2 11.8709 96.8896 73.0093 0.0000 0.0000 0.0000
# 3 15.6557 73.0093 174.7594 0.0000 0.0000 0.0000
# 4 0.0000 0.0000 0.0000 23.6902 0.0000 0.0000
# 5 0.0000 0.0000 0.0000 0.0000 37.8949 0.0000
# 6 0.0000 0.0000 0.0000 0.0000 0.0000 20.7470
#
#
#
# Elastic Compliance Matrix: (Units=1/GPa)
#
#
# Indices 1 2 3 4 5 6 
#
# 1 0.059266 -0.004759 -0.003321 0.000000 0.000000 0.000000
# 2 -0.004759 0.015445 -0.006026 0.000000 0.000000 0.000000
# 3 -0.003321 -0.006026 0.008537 0.000000 0.000000 0.000000
# 4 0.000000 0.000000 0.000000 0.042212 0.000000 0.000000
# 5 0.000000 0.000000 0.000000 0.000000 0.026389 0.000000
# 6 0.000000 0.000000 0.000000 0.000000 0.000000 0.048200
#
#
# Mechanical properties :
#
#
# Convention : Reuss Voigt Hill
#
# Bulk Modulus (GPa) = 18.16980 54.60270 36.38625
# Shear Modulus (GPa) = 20.27524 29.12086 24.69805
#
# Velocity S-wave (km/s) = 3.60635 4.32203 3.98031
# Velocity P-wave (km/s) = 5.38482 7.74158 6.66815
#
# Compressibility (1/GPa) = 0.05503639
#
# Stress axis : x y z
#
# Youngs Moduli (GPa) = 16.87297 64.74621 117.13393
#
# Poissons Ratio (x) = 0.30810 0.38904
# Poissons Ratio (y) = 0.08029 0.70586
# Poissons Ratio (z) = 0.05604 0.39017
#
# Static dielectric constant tensor:
#      x y z
#    x 1.518400 0.000000 0.000000 
#    y 0.000000 1.485010 0.000000 
#    z 0.000000 0.000000 1.566700 
# 
# From -- ./inp_files/26391.got.cif
#   From: 2010.05.17/outbox.cif.g08.bks.cpg/sg40_14_cif.got.tgz:26391.got - 2010.06.03 18:35:42.
