data_PCOD9362912
_publ_section_title
;
Structure prediction by ZEFSAII (Michael W. Deem and Ramdas Pophale) SiO2 
 PCOD9362912
Probable space group: A M A 2
;
_chemical_formula_sum "Si O2"
_cell_formula_units_Z 64
_cell_length_a 15.103696
_cell_length_b 22.687421
_cell_length_c 7.305682
_cell_angle_alpha 90.000000
_cell_angle_beta 90.000000
_cell_angle_gamma 90.000000
_cell_volume 2503.393558
_symmetry_space_group_name_H-M "A M A 2"
_symmetry_group_IT_number 40
_symmetry_cell_setting 'orthorhombic'
loop_
_space_group_symop_operation_xyz
x,y,z
-x,-y,z
1/2-x,y,z
1/2+x,-y,z
x,1/2+y,1/2+z
-x,1/2-y,1/2+z
1/2-x,1/2+y,1/2+z
1/2+x,1/2-y,1/2+z
loop_
_atom_site_type_symbol
_atom_site_label
_atom_site_fract_x
_atom_site_fract_y
_atom_site_fract_z
Si Si1 0.391394 0.939991 0.592740
Si Si2 0.857409 0.559606 0.530115
Si Si3 0.143563 0.566169 0.509057
Si Si4 0.352026 0.192091 0.183605
Si Si5 0.422654 0.692528 0.059298
Si Si6 0.122248 0.816695 0.649557
Si Si7 0.849381 0.183059 0.084875
Si Si8 0.404188 0.065725 0.597627
O O1 0.384425 0.940293 0.815792
O O2 0.348491 0.876718 0.548949
O O3 0.494108 0.937225 0.533083
O O4 0.357255 0.004923 0.536495
O O5 0.750000 0.564120 0.535008
O O6 0.881543 0.495196 0.607732
O O7 0.893394 0.619311 0.622685
O O8 0.250000 0.563525 0.477346
O O9 0.126777 0.629610 0.595066
O O10 0.094945 0.563647 0.316716
O O11 0.250000 0.189004 0.252069
O O12 0.423535 0.202350 0.341929
O O13 0.354870 0.252694 0.068394
O O14 0.389479 0.754290 0.137502
O O15 0.516219 0.679455 0.148452
O O16 0.367165 0.631256 0.064315
O O17 0.154149 0.816506 0.860273
O O18 0.750000 0.182718 0.155644
#
# Coordination Sequence:
#
# PCOD9362912 Si02
#       8
#     8   8   8   8   8   8   8   8
#     4   8  15  28  47  71  98 123 156 204 249 280
#     4   8  14  27  48  71  92 120 163 207 240 279
#     4   9  18  31  49  73  98 126 162 204 247 293
#     4  10  21  36  52  72 104 139 166 199 253 311
#     4  10  19  30  50  76 101 132 168 206 247 301
#     4   9  17  29  49  71  95 127 168 209 242 286
#     4   9  17  31  51  75 103 132 166 209 255 297
#     4   9  17  30  50  73  99 127 161 206 249 289
#
# _framework density 25.565299
#
# number of rings (size 3 to 8) (size 9 to 14) (size 15 to 20)
#    0.000    3.000    0.000    1.500    0.000    6.500 
#    0.000    0.000    0.000   25.500    0.000    3.500 
#    0.000    1.000    0.000    0.000    0.000    0.000 
#
# Total GULP energy -178334.941783 kJ/mol
# GULP energy per Si atom -5572.966931 kJ/mol
# Density = 2.550711 g / cm^3
# Si number density = 25.565299 Si / 1000 Ang^3
#
#
#
# Elastic Constant Matrix: (Units=GPa)
#
#
# Indices 1 2 3 4 5 6 
#
# 1 63.1275 28.3861 5.6667 0.0000 0.0000 0.0000
# 2 28.3861 334.6868 7.4438 0.0000 0.0000 0.0000
# 3 5.6667 7.4438 60.9772 0.0000 0.0000 0.0000
# 4 0.0000 0.0000 0.0000 19.2372 0.0000 0.0000
# 5 0.0000 0.0000 0.0000 0.0000 13.9460 0.0000
# 6 0.0000 0.0000 0.0000 0.0000 0.0000 18.6375
#
#
#
# Elastic Compliance Matrix: (Units=1/GPa)
#
#
# Indices 1 2 3 4 5 6 
#
# 1 0.016583 -0.001376 -0.001373 0.000000 0.000000 0.000000
# 2 -0.001376 0.003110 -0.000252 0.000000 0.000000 0.000000
# 3 -0.001373 -0.000252 0.016558 0.000000 0.000000 0.000000
# 4 0.000000 0.000000 0.000000 0.051983 0.000000 0.000000
# 5 0.000000 0.000000 0.000000 0.000000 0.071705 0.000000
# 6 0.000000 0.000000 0.000000 0.000000 0.000000 0.053655
#
#
# Mechanical properties :
#
#
# Convention : Reuss Voigt Hill
#
# Bulk Modulus (GPa) = 33.05859 60.19831 46.62845
# Shear Modulus (GPa) = 21.76952 38.18379 29.97666
#
# Velocity S-wave (km/s) = 2.92126 3.86888 3.42797
# Velocity P-wave (km/s) = 4.93330 6.59967 5.82637
#
# Compressibility (1/GPa) = 0.03024932
#
# Stress axis : x y z
#
# Youngs Moduli (GPa) = 60.30303 321.52620 60.39409
#
# Poissons Ratio (x) = 0.44240 0.08293
# Poissons Ratio (y) = 0.08297 0.01521
# Poissons Ratio (z) = 0.08280 0.08096
#
# Static dielectric constant tensor:
#      x y z
#    x 1.983440 0.000000 0.000000 
#    y 0.000000 2.197520 0.000000 
#    z 0.000000 0.000000 2.063160 
# 
# From -- ./inp_files/7874.got.cif
#   From: 2010.05.17/outbox.cif.g08.bks.cpg/sg40_4_cif.got.tgz:7874.got - 2010.06.03 18:35:42.
