data_PCOD9362975
_publ_section_title
;
Structure prediction by ZEFSAII (Michael W. Deem and Ramdas Pophale) SiO2 
 PCOD9362975
Probable space group: A M A 2
;
_chemical_formula_sum "Si O2"
_cell_formula_units_Z 64
_cell_length_a 8.975188
_cell_length_b 13.454939
_cell_length_c 29.731384
_cell_angle_alpha 90.000000
_cell_angle_beta 90.000000
_cell_angle_gamma 90.000000
_cell_volume 3590.379980
_symmetry_space_group_name_H-M "A M A 2"
_symmetry_group_IT_number 40
_symmetry_cell_setting 'orthorhombic'
loop_
_space_group_symop_operation_xyz
x,y,z
-x,-y,z
1/2-x,y,z
1/2+x,-y,z
x,1/2+y,1/2+z
-x,1/2-y,1/2+z
1/2-x,1/2+y,1/2+z
1/2+x,1/2-y,1/2+z
loop_
_atom_site_type_symbol
_atom_site_label
_atom_site_fract_x
_atom_site_fract_y
_atom_site_fract_z
Si Si1 0.428521 0.101678 0.033670
Si Si2 0.426176 0.706545 0.167228
Si Si3 0.571868 0.103870 0.480006
Si Si4 0.574111 0.209106 0.757088
Si Si5 0.574175 0.686482 0.077827
Si Si6 0.574670 0.893394 0.203000
Si Si7 0.070655 0.805292 0.946436
Si Si8 0.929513 0.608194 0.349116
O O1 0.250000 0.092474 0.030170
O O2 0.461144 0.199800 0.063104
O O3 0.500000 0.000000 0.051364
O O4 0.498418 0.125065 0.984719
O O5 0.250000 0.710717 0.168588
O O6 0.483723 0.656762 0.121837
O O7 0.496017 0.818346 0.168075
O O8 0.750000 0.105834 0.473214
O O9 0.544449 0.122464 0.533264
O O10 0.495115 0.196039 0.455074
O O11 0.500000 0.000000 0.466390
O O12 0.750000 0.188118 0.752042
O O13 0.489050 0.162859 0.714165
O O14 0.556592 0.327853 0.748715
O O15 0.523770 0.171447 0.805375
O O16 0.750000 0.681802 0.087902
O O17 0.750000 0.901516 0.193122
O O18 0.500000 0.000000 0.204867
O O19 0.250000 0.805345 0.951406
O O20 0.030918 0.842412 0.896671
O O21 0.750000 0.600662 0.348051
O O22 0.000000 0.500000 0.346259
#
# Coordination Sequence:
#
# PCOD9362975 Si02
#       8
#     8   8   8   8   8   8   8   8
#     4  10  20  33  50  75 109 145 183 222 269 323
#     4  10  19  31  51  77 105 137 178 221 266 314
#     4  10  21  38  60  83 110 144 183 223 269 323
#     4   8  18  36  53  71 106 144 177 222 272 319
#     4   9  19  35  52  74 107 145 181 223 269 316
#     4   9  17  31  52  73 102 139 176 218 264 317
#     4  10  20  35  57  82 112 143 177 221 271 323
#     4  10  21  37  58  84 110 143 180 221 272 324
#
# _framework density 17.825412
#
# number of rings (size 3 to 8) (size 9 to 14) (size 15 to 20)
#    0.750    1.750    0.000    3.375    0.000    6.000 
#    0.000    2.500    0.000    1.500    0.000    0.000 
#    0.000    0.000    0.000    0.000    0.000    0.000 
#
# Total GULP energy -178306.678220 kJ/mol
# GULP energy per Si atom -5572.083694 kJ/mol
# Density = 1.778484 g / cm^3
# Si number density = 17.825412 Si / 1000 Ang^3
#
#
#
# Elastic Constant Matrix: (Units=GPa)
#
#
# Indices 1 2 3 4 5 6 
#
# 1 45.8306 4.1214 27.1481 0.0000 0.0000 0.0000
# 2 4.1214 31.2455 -10.6667 0.0000 0.0000 0.0000
# 3 27.1481 -10.6667 83.3795 0.0000 0.0000 0.0000
# 4 0.0000 0.0000 0.0000 7.5137 0.0000 0.0000
# 5 0.0000 0.0000 0.0000 0.0000 19.8443 0.0000
# 6 0.0000 0.0000 0.0000 0.0000 0.0000 27.2558
#
#
#
# Elastic Compliance Matrix: (Units=1/GPa)
#
#
# Indices 1 2 3 4 5 6 
#
# 1 0.028522 -0.007249 -0.010214 0.000000 0.000000 0.000000
# 2 -0.007249 0.035309 0.006877 0.000000 0.000000 0.000000
# 3 -0.010214 0.006877 0.016199 0.000000 0.000000 0.000000
# 4 0.000000 0.000000 0.000000 0.133090 0.000000 0.000000
# 5 0.000000 0.000000 0.000000 0.000000 0.050392 0.000000
# 6 0.000000 0.000000 0.000000 0.000000 0.000000 0.036689
#
#
# Mechanical properties :
#
#
# Convention : Reuss Voigt Hill
#
# Bulk Modulus (GPa) = 16.99012 22.40679 19.69846
# Shear Modulus (GPa) = 14.66314 20.24629 17.45471
#
# Velocity S-wave (km/s) = 2.87121 3.37384 3.13262
# Velocity P-wave (km/s) = 4.53253 5.27015 4.91520
#
# Compressibility (1/GPa) = 0.05885772
#
# Stress axis : x y z
#
# Youngs Moduli (GPa) = 35.06105 28.32175 61.73302
#
# Poissons Ratio (x) = 0.20530 0.63054
# Poissons Ratio (y) = 0.25416 -0.42455
# Poissons Ratio (z) = 0.35811 -0.19478
#
# Static dielectric constant tensor:
#      x y z
#    x 1.590780 0.000000 0.000000 
#    y 0.000000 1.601150 0.000000 
#    z 0.000000 0.000000 1.614550 
# 
# From -- ./inp_files/24255.got.cif
#   From: 2010.05.17/outbox.cif.g08.bks.cpg/sg40_13_cif.got.tgz:24255.got - 2010.06.03 18:35:42.
