data_PCOD9362218
_publ_section_title
;
Structure prediction by ZEFSAII (Michael W. Deem and Ramdas Pophale) SiO2 
 PCOD9362218
Probable space group: A B M 2
;
_chemical_formula_sum "Si O2"
_cell_formula_units_Z 32
_cell_length_a 15.000000
_cell_length_b 9.000000
_cell_length_c 24.000000
_cell_angle_alpha 90.000000
_cell_angle_beta 90.000000
_cell_angle_gamma 90.000000
_cell_volume 3240.000000
_symmetry_space_group_name_H-M "A B M 2"
_symmetry_group_IT_number 39
_symmetry_cell_setting 'orthorhombic'
loop_
_space_group_symop_operation_xyz
x,y,z
-x,-y,z
-x,1/2+y,z
x,1/2-y,z
x,1/2+y,1/2+z
-x,1/2-y,1/2+z
-x,y,1/2+z
x,-y,1/2+z
loop_
_atom_site_type_symbol
_atom_site_label
_atom_site_fract_x
_atom_site_fract_y
_atom_site_fract_z
Si Si1 0.869367 0.575546 0.891240
Si Si2 0.088039 0.427076 0.765384
Si Si3 0.749976 0.572727 0.071068
Si Si4 0.595076 0.576041 0.266579
Si Si5 0.088594 0.426180 0.504974
Si Si6 0.258370 0.571659 0.191486
Si Si7 0.405714 0.923339 0.003422
Si Si8 0.310348 0.418263 0.385832
O O1 0.888488 0.750000 0.901203
O O2 0.901798 0.529865 0.830077
O O3 0.764089 0.543809 0.890442
O O4 0.905794 0.474054 0.940456
O O5 0.079652 0.250000 0.764091
O O6 0.175465 0.467642 0.731320
O O7 0.000000 0.500000 0.741247
O O8 0.756045 0.750000 0.070398
O O9 0.828396 0.499536 0.035320
O O10 0.753488 0.508238 0.132933
O O11 0.661029 0.514821 0.041788
O O12 0.500000 0.500000 0.268728
O O13 0.589325 0.750000 0.251901
O O14 0.655114 0.489216 0.222499
O O15 0.638840 0.566077 0.327808
O O16 0.088807 0.250000 0.510616
O O17 0.000000 0.500000 0.529026
O O18 0.261605 0.750000 0.184828
O O19 0.406772 0.750000 0.019950
O O20 0.500000 0.000000 0.007594
O O21 0.372911 0.929283 0.939466
O O22 0.270079 0.250000 0.387209
#
# Coordination Sequence:
#
# PCOD9362218 Si02
#       8
#     8   8   8   8   8   8   8   8
#     4  11  21  37  63  96 130 169 208 254 313 377
#     4  10  23  40  63  94 127 165 206 252 310 369
#     4  12  26  45  67  94 124 165 214 267 320 377
#     4  11  23  40  64  96 129 168 211 259 315 377
#     4  12  25  43  66  96 130 169 211 260 316 377
#     4  11  24  45  66  90 124 166 213 267 317 372
#     4  11  23  41  65  96 130 169 210 258 314 377
#     4  10  21  37  62  94 130 169 207 253 315 378
#
# _framework density 9.8765429999999999
#
# number of rings (size 3 to 8) (size 9 to 14) (size 15 to 20)
#    0.000    1.000    2.500    4.500    0.000    5.000 
#    0.000    3.750    0.000    0.000    0.000    0.000 
#    0.000    0.000    0.000    0.000    0.000    0.000 
#
# Total GULP energy -178902.324928 kJ/mol
# GULP energy per Si atom -5590.697654 kJ/mol
# Density = 0.985406 g / cm^3
# Si number density = 9.876543 Si / 1000 Ang^3
#
#
#
# Elastic Constant Matrix: (Units=GPa)
#
#
# Indices 1 2 3 4 5 6 
#
# 1 89.1568 43.4605 15.5650 0.0000 0.0000 0.0000
# 2 43.4605 125.4949 46.6130 0.0000 0.0000 0.0000
# 3 15.5650 46.6130 89.3182 0.0000 0.0000 0.0000
# 4 0.0000 0.0000 0.0000 34.4784 0.0000 0.0000
# 5 0.0000 0.0000 0.0000 0.0000 -115.3262 0.0000
# 6 0.0000 0.0000 0.0000 0.0000 0.0000 -982.3885
#
#
#
# Elastic Compliance Matrix: (Units=1/GPa)
#
#
# Indices 1 2 3 4 5 6 
#
# 1 0.013495 -0.004714 0.000108 0.000000 0.000000 0.000000
# 2 -0.004714 0.011531 -0.005196 0.000000 0.000000 0.000000
# 3 0.000108 -0.005196 0.013889 0.000000 0.000000 0.000000
# 4 0.000000 0.000000 0.000000 0.029004 0.000000 0.000000
# 5 0.000000 0.000000 0.000000 0.000000 -0.008671 0.000000
# 6 0.000000 0.000000 0.000000 0.000000 0.000000 -0.001018
#
#
# Mechanical properties :
#
#
# Convention : Reuss Voigt Hill
#
# Bulk Modulus (GPa) = 51.78293 57.24967 54.51630
# Shear Modulus (GPa) = 59.33300 -199.42516 -70.04608
#
# Velocity S-wave (km/s) = 5.48658 -10.05874 -5.96136
# Velocity P-wave (km/s) = 8.14916 10.28876 4.44128
#
# Compressibility (1/GPa) = 0.01931138
#
# Stress axis : x y z
#
# Youngs Moduli (GPa) = 74.10127 86.72311 72.00010
#
# Poissons Ratio (x) = 0.40879 -0.00780
# Poissons Ratio (y) = 0.34929 0.37413
# Poissons Ratio (z) = -0.00802 0.45064
#
# Static dielectric constant tensor:
#      x y z
#    x 1.648780 0.000000 0.000000 
#    y 0.000000 1.657430 0.000000 
#    z 0.000000 0.000000 1.684270 
# 
# From -- ./inp_files/16200.got.cif
#   From: 2010.05.17/outbox.ucp.g08.bks.cvg/sg39_9_cif.got.tgz:16200.got - 2010.06.11 10:41:16.
