data_PCOD9362816
_publ_section_title
;
Structure prediction by ZEFSAII (Michael W. Deem and Ramdas Pophale) SiO2 
 PCOD9362816
Probable space group: A M A 2
;
_chemical_formula_sum "Si O2"
_cell_formula_units_Z 36
_cell_length_a 14.369819
_cell_length_b 13.144627
_cell_length_c 8.382156
_cell_angle_alpha 90.000000
_cell_angle_beta 90.000000
_cell_angle_gamma 90.000000
_cell_volume 1583.271171
_symmetry_space_group_name_H-M "A M A 2"
_symmetry_group_IT_number 40
_symmetry_cell_setting 'orthorhombic'
loop_
_space_group_symop_operation_xyz
x,y,z
-x,-y,z
1/2-x,y,z
1/2+x,-y,z
x,1/2+y,1/2+z
-x,1/2-y,1/2+z
1/2-x,1/2+y,1/2+z
1/2+x,1/2-y,1/2+z
loop_
_atom_site_type_symbol
_atom_site_label
_atom_site_fract_x
_atom_site_fract_y
_atom_site_fract_z
Si Si1 0.250000 0.947769 0.437810
Si Si2 0.750000 0.627061 0.586705
Si Si3 0.042792 0.887327 0.070933
Si Si4 0.250000 0.133294 0.662589
Si Si5 0.543713 0.114153 0.437833
Si Si6 0.046050 0.612362 0.259186
O O1 0.250000 0.941138 0.246792
O O2 0.347165 0.894983 0.486181
O O3 0.250000 0.061707 0.506128
O O4 0.850181 0.607175 0.511091
O O5 0.750000 0.747078 0.627143
O O6 0.041646 0.847216 0.253902
O O7 0.000000 0.000000 0.085952
O O8 0.986045 0.838594 0.925145
O O9 0.156635 0.107390 0.755998
O O10 0.487065 0.157404 0.589060
O O11 0.500000 0.000000 0.424430
O O12 0.000000 0.500000 0.259539
#
# Coordination Sequence:
#
# PCOD9362816 Si02
#       6
#     4   4   8   4   8   8
#     4  10  18  37  64  87 127 184 219 282 372 417
#     4  10  24  42  62 104 140 174 245 305 352 451
#     4   9  20  38  61  92 125 172 224 282 346 429
#     4  12  22  41  64 101 143 174 244 313 350 434
#     4   9  16  32  59  91 115 165 231 258 338 448
#     4  10  20  36  62  94 121 176 226 279 350 432
#
# _framework density 22.737735000000001
#
# number of rings (size 3 to 8) (size 9 to 14) (size 15 to 20)
#    0.000    2.222    4.444    0.000    0.000    4.444 
#    8.000    2.222    0.000    5.333    0.000    0.000 
#    0.000    0.000    0.000    0.000    0.000    0.000 
#
# Total GULP energy -100395.874156 kJ/mol
# GULP energy per Si atom -5577.548564 kJ/mol
# Density = 2.268598 g / cm^3
# Si number density = 22.737735 Si / 1000 Ang^3
#
#
#
# Elastic Constant Matrix: (Units=GPa)
#
#
# Indices 1 2 3 4 5 6 
#
# 1 224.5428 29.1060 63.5101 0.0000 0.0000 0.0000
# 2 29.1060 81.8199 48.2083 0.0000 0.0000 0.0000
# 3 63.5101 48.2083 182.1997 0.0000 0.0000 0.0000
# 4 0.0000 0.0000 0.0000 32.1571 0.0000 0.0000
# 5 0.0000 0.0000 0.0000 0.0000 87.8121 0.0000
# 6 0.0000 0.0000 0.0000 0.0000 0.0000 -36.6830
#
#
#
# Elastic Compliance Matrix: (Units=1/GPa)
#
#
# Indices 1 2 3 4 5 6 
#
# 1 0.004995 -0.000890 -0.001506 0.000000 0.000000 0.000000
# 2 -0.000890 0.014638 -0.003563 0.000000 0.000000 0.000000
# 3 -0.001506 -0.003563 0.006956 0.000000 0.000000 0.000000
# 4 0.000000 0.000000 0.000000 0.031097 0.000000 0.000000
# 5 0.000000 0.000000 0.000000 0.000000 0.011388 0.000000
# 6 0.000000 0.000000 0.000000 0.000000 0.000000 -0.027261
#
#
# Mechanical properties :
#
#
# Convention : Reuss Voigt Hill
#
# Bulk Modulus (GPa) = 68.15679 85.57902 76.86791
# Shear Modulus (GPa) = 85.29512 39.83979 62.56746
#
# Velocity S-wave (km/s) = 6.13140 4.19040 5.25136
# Velocity P-wave (km/s) = 8.95353 7.81868 8.40528
#
# Compressibility (1/GPa) = 0.01467205
#
# Stress axis : x y z
#
# Youngs Moduli (GPa) = 200.21359 68.31680 143.76064
#
# Poissons Ratio (x) = 0.06078 0.21645
# Poissons Ratio (y) = 0.17812 0.51220
# Poissons Ratio (z) = 0.30144 0.24340
#
# Static dielectric constant tensor:
#      x y z
#    x 1.828320 0.000000 0.000000 
#    y 0.000000 1.988900 0.000000 
#    z 0.000000 0.000000 1.893300 
# 
# From -- ./inp_files/10949.got.cif
#   From: 2010.05.17/outbox.cif.g08.bks.cpg/sg40_6_cif.got.tgz:10949.got - 2010.06.03 18:35:42.
