data_PCOD9362913
_publ_section_title
;
Structure prediction by ZEFSAII (Michael W. Deem and Ramdas Pophale) SiO2 
 PCOD9362913
Probable space group: A M A 2
;
_chemical_formula_sum "Si O2"
_cell_formula_units_Z 52
_cell_length_a 9.328987
_cell_length_b 17.154711
_cell_length_c 14.240122
_cell_angle_alpha 90.000000
_cell_angle_beta 90.000000
_cell_angle_gamma 90.000000
_cell_volume 2278.933245
_symmetry_space_group_name_H-M "A M A 2"
_symmetry_group_IT_number 40
_symmetry_cell_setting 'orthorhombic'
loop_
_space_group_symop_operation_xyz
x,y,z
-x,-y,z
1/2-x,y,z
1/2+x,-y,z
x,1/2+y,1/2+z
-x,1/2-y,1/2+z
1/2-x,1/2+y,1/2+z
1/2+x,1/2-y,1/2+z
loop_
_atom_site_type_symbol
_atom_site_label
_atom_site_fract_x
_atom_site_fract_y
_atom_site_fract_z
Si Si1 0.500000 0.500000 0.767091
Si Si2 0.081946 0.731678 0.340620
Si Si3 0.077877 0.921223 0.798325
Si Si4 0.409312 0.894047 0.434129
Si Si5 0.908390 0.428671 0.581021
Si Si6 0.411200 0.606853 0.106221
Si Si7 0.911374 0.212130 0.134223
O O1 0.421632 0.440429 0.836468
O O2 0.594678 0.451722 0.692526
O O3 0.250000 0.707383 0.331722
O O4 0.073698 0.801810 0.413912
O O5 0.042454 0.773214 0.241726
O O6 0.984023 0.655596 0.350660
O O7 0.250000 0.925071 0.803162
O O8 0.019821 0.911280 0.690788
O O9 0.000000 0.000000 0.831190
O O10 0.250000 0.906212 0.473851
O O11 0.530147 0.920052 0.506592
O O12 0.750000 0.424969 0.541612
O O13 0.000000 0.500000 0.540142
O O14 0.987369 0.346423 0.579410
O O15 0.250000 0.579038 0.128307
O O16 0.405508 0.700437 0.096911
O O17 0.750000 0.178303 0.134905
#
# Coordination Sequence:
#
# PCOD9362913 Si02
#       7
#     4   8   8   8   8   8   8
#     4  10  22  34  52  80 118 148 180 220 278 324
#     4   9  18  36  58  80 110 146 185 232 282 328
#     4  11  22  38  60  86 112 145 190 235 284 337
#     4  11  22  38  57  81 116 155 188 226 278 336
#     4  10  19  30  50  78 107 138 178 222 270 322
#     4  10  23  39  55  79 114 152 186 229 278 332
#     4   9  17  34  54  73 105 144 183 225 274 322
#
# _framework density 22.817695000000001
#
# number of rings (size 3 to 8) (size 9 to 14) (size 15 to 20)
#    0.462    1.538    1.538    3.692    1.077    4.923 
#    0.000    0.000    0.000    0.923    0.000    6.462 
#    0.000    0.000    0.000    0.000    0.000    0.000 
#
# Total GULP energy -145232.974631 kJ/mol
# GULP energy per Si atom -5585.883640 kJ/mol
# Density = 2.276576 g / cm^3
# Si number density = 22.817695 Si / 1000 Ang^3
#
#
#
# Elastic Constant Matrix: (Units=GPa)
#
#
# Indices 1 2 3 4 5 6 
#
# 1 151.5832 70.2198 13.3647 0.0000 0.0000 0.0000
# 2 70.2198 146.3930 1.7940 0.0000 0.0000 0.0000
# 3 13.3647 1.7940 70.0046 0.0000 0.0000 0.0000
# 4 0.0000 0.0000 0.0000 1.6773 0.0000 0.0000
# 5 0.0000 0.0000 0.0000 0.0000 -52.8112 0.0000
# 6 0.0000 0.0000 0.0000 0.0000 0.0000 30.5155
#
#
#
# Elastic Compliance Matrix: (Units=1/GPa)
#
#
# Indices 1 2 3 4 5 6 
#
# 1 0.008646 -0.004128 -0.001545 0.000000 0.000000 0.000000
# 2 -0.004128 0.008804 0.000562 0.000000 0.000000 0.000000
# 3 -0.001545 0.000562 0.014565 0.000000 0.000000 0.000000
# 4 0.000000 0.000000 0.000000 0.596196 0.000000 0.000000
# 5 0.000000 0.000000 0.000000 0.000000 -0.018935 0.000000
# 6 0.000000 0.000000 0.000000 0.000000 0.000000 0.032770
#
#
# Mechanical properties :
#
#
# Convention : Reuss Voigt Hill
#
# Bulk Modulus (GPa) = 45.88356 59.85974 52.87165
# Shear Modulus (GPa) = 7.58114 14.71648 11.14881
#
# Velocity S-wave (km/s) = 1.82475 2.54236 2.21284
# Velocity P-wave (km/s) = 4.95903 5.90838 5.45440
#
# Compressibility (1/GPa) = 0.02179430
#
# Stress axis : x y z
#
# Youngs Moduli (GPa) = 115.66694 113.58322 68.65646
#
# Poissons Ratio (x) = 0.46888 0.10606
# Poissons Ratio (y) = 0.47748 -0.03862
# Poissons Ratio (z) = 0.17868 -0.06389
#
# Static dielectric constant tensor:
#      x y z
#    x 1.829270 0.000000 0.000000 
#    y 0.000000 1.860910 0.000000 
#    z 0.000000 0.000000 1.863250 
# 
# From -- ./inp_files/19356.got.cif
#   From: 2010.05.17/outbox.cif.g08.bks.cpg/sg40_10_cif.got.tgz:19356.got - 2010.06.03 18:35:42.
