data_PCOD9362528
_publ_section_title
;
Structure prediction by ZEFSAII (Michael W. Deem and Ramdas Pophale) SiO2 
 PCOD9362528
Probable space group: A M A 2
;
_chemical_formula_sum "Si O2"
_cell_formula_units_Z 56
_cell_length_a 8.606267
_cell_length_b 18.908210
_cell_length_c 21.279274
_cell_angle_alpha 90.000000
_cell_angle_beta 90.000000
_cell_angle_gamma 90.000000
_cell_volume 3462.757187
_symmetry_space_group_name_H-M "A M A 2"
_symmetry_group_IT_number 40
_symmetry_cell_setting 'orthorhombic'
loop_
_space_group_symop_operation_xyz
x,y,z
-x,-y,z
1/2-x,y,z
1/2+x,-y,z
x,1/2+y,1/2+z
-x,1/2-y,1/2+z
1/2-x,1/2+y,1/2+z
1/2+x,1/2-y,1/2+z
loop_
_atom_site_type_symbol
_atom_site_label
_atom_site_fract_x
_atom_site_fract_y
_atom_site_fract_z
Si Si1 0.435331 0.922529 0.057610
Si Si2 0.564824 0.846906 0.678281
Si Si3 0.438205 0.921570 0.552939
Si Si4 0.928658 0.212077 0.484388
Si Si5 0.938280 0.353709 0.429834
Si Si6 0.064241 0.420679 0.301922
Si Si7 0.070957 0.710742 0.620765
O O1 0.250000 0.923460 0.054180
O O2 0.491072 0.864161 0.107978
O O3 0.500000 0.000000 0.072041
O O4 0.502462 0.897705 0.989996
O O5 0.750000 0.853631 0.679027
O O6 0.497620 0.892736 0.620121
O O7 0.493686 0.875851 0.742491
O O8 0.516199 0.765756 0.665510
O O9 0.250000 0.920477 0.553837
O O10 0.495241 0.864996 0.500274
O O11 0.500000 0.000000 0.542237
O O12 0.750000 0.201008 0.464718
O O13 0.995466 0.272282 0.438890
O O14 0.927822 0.250815 0.552394
O O15 0.750000 0.353797 0.431257
O O16 0.998914 0.387455 0.366080
O O17 0.250000 0.422255 0.303728
O O18 0.000000 0.500000 0.295521
O O19 0.250000 0.702073 0.639995
#
# Coordination Sequence:
#
# PCOD9362528 Si02
#       7
#     8   8   8   8   8   8   8
#     4  11  20  31  48  73 101 131 163 200 243 289
#     4  11  21  34  50  70  95 128 164 199 238 288
#     4  10  18  30  47  71  99 128 158 196 241 285
#     4   7  14  28  47  66  90 121 154 190 235 283
#     4  10  19  34  51  69  94 128 165 203 243 289
#     4  12  24  37  50  69  96 129 165 202 239 284
#     4   9  17  32  50  70  95 125 158 198 242 288
#
# _framework density 16.172084000000002
#
# number of rings (size 3 to 8) (size 9 to 14) (size 15 to 20)
#    0.000    2.000    0.000    7.714    0.000    0.000 
#    0.000    2.143    0.000    0.000    0.000    1.000 
#    0.000    2.286    0.000    0.000    0.000    0.000 
#
# Total GULP energy -156151.078675 kJ/mol
# GULP energy per Si atom -5576.824238 kJ/mol
# Density = 1.613528 g / cm^3
# Si number density = 16.172084 Si / 1000 Ang^3
#
#
#
# Elastic Constant Matrix: (Units=GPa)
#
#
# Indices 1 2 3 4 5 6 
#
# 1 118.3958 52.1330 27.8337 0.0000 0.0000 0.0000
# 2 52.1330 164.4697 55.9434 0.0000 0.0000 0.0000
# 3 27.8337 55.9434 61.8267 0.0000 0.0000 0.0000
# 4 0.0000 0.0000 0.0000 24.0124 0.0000 0.0000
# 5 0.0000 0.0000 0.0000 0.0000 17.0007 0.0000
# 6 0.0000 0.0000 0.0000 0.0000 0.0000 26.1204
#
#
#
# Elastic Compliance Matrix: (Units=1/GPa)
#
#
# Indices 1 2 3 4 5 6 
#
# 1 0.010052 -0.002379 -0.002372 0.000000 0.000000 0.000000
# 2 -0.002379 0.009347 -0.007386 0.000000 0.000000 0.000000
# 3 -0.002372 -0.007386 0.023926 0.000000 0.000000 0.000000
# 4 0.000000 0.000000 0.000000 0.041645 0.000000 0.000000
# 5 0.000000 0.000000 0.000000 0.000000 0.058821 0.000000
# 6 0.000000 0.000000 0.000000 0.000000 0.000000 0.038284
#
#
# Mechanical properties :
#
#
# Convention : Reuss Voigt Hill
#
# Bulk Modulus (GPa) = 52.49773 68.50138 60.49955
# Shear Modulus (GPa) = 23.50739 27.34551 25.42645
#
# Velocity S-wave (km/s) = 3.81672 4.11653 3.96945
# Velocity P-wave (km/s) = 7.20802 8.06499 7.64852
#
# Compressibility (1/GPa) = 0.01904844
#
# Stress axis : x y z
#
# Youngs Moduli (GPa) = 99.48684 106.99017 41.79629
#
# Poissons Ratio (x) = 0.25455 0.09915
# Poissons Ratio (y) = 0.23670 0.30871
# Poissons Ratio (z) = 0.23602 0.79025
#
# Static dielectric constant tensor:
#      x y z
#    x 1.545600 0.000000 0.000000 
#    y 0.000000 1.566560 0.000000 
#    z 0.000000 0.000000 1.514530 
# 
# From -- ./inp_files/22314.got.cif
#   From: 2010.05.17/outbox.cif.g08.bks.cpg/sg40_12_cif.got.tgz:22314.got - 2010.06.03 18:35:42.
