data_PCOD9362901
_publ_section_title
;
Structure prediction by ZEFSAII (Michael W. Deem and Ramdas Pophale) SiO2 
 PCOD9362901
Probable space group: A M A 2
;
_chemical_formula_sum "Si O2"
_cell_formula_units_Z 64
_cell_length_a 7.967800
_cell_length_b 28.418269
_cell_length_c 15.312627
_cell_angle_alpha 90.000000
_cell_angle_beta 90.000000
_cell_angle_gamma 90.000000
_cell_volume 3467.254726
_symmetry_space_group_name_H-M "A M A 2"
_symmetry_group_IT_number 40
_symmetry_cell_setting 'orthorhombic'
loop_
_space_group_symop_operation_xyz
x,y,z
-x,-y,z
1/2-x,y,z
1/2+x,-y,z
x,1/2+y,1/2+z
-x,1/2-y,1/2+z
1/2-x,1/2+y,1/2+z
1/2+x,1/2-y,1/2+z
loop_
_atom_site_type_symbol
_atom_site_label
_atom_site_fract_x
_atom_site_fract_y
_atom_site_fract_z
Si Si1 0.046943 0.554057 0.503840
Si Si2 0.052626 0.132561 0.135763
Si Si3 0.449812 0.553646 0.307429
Si Si4 0.951897 0.824788 0.309988
Si Si5 0.544945 0.717397 0.315014
Si Si6 0.451194 0.862762 0.684264
Si Si7 0.949637 0.215216 0.012693
Si Si8 0.548876 0.676313 0.005648
O O1 0.250000 0.557138 0.502291
O O2 0.981346 0.590724 0.575793
O O3 0.985551 0.565738 0.405379
O O4 0.000000 0.500000 0.522123
O O5 0.250000 0.122078 0.146258
O O6 0.981790 0.142341 0.232334
O O7 0.034798 0.181019 0.081816
O O8 0.500000 0.500000 0.289498
O O9 0.250000 0.556350 0.310524
O O10 0.509865 0.589354 0.234024
O O11 0.750000 0.823301 0.302102
O O12 0.012022 0.770808 0.297962
O O13 0.991695 0.838384 0.409207
O O14 0.750000 0.717884 0.314032
O O15 0.484632 0.680294 0.244035
O O16 0.495151 0.703499 0.413449
O O17 0.250000 0.858205 0.681459
O O18 0.511662 0.856278 0.585210
O O19 0.750000 0.208395 0.018857
O O20 0.988524 0.270362 0.024178
O O21 0.750000 0.677304 0.004764
#
# Coordination Sequence:
#
# PCOD9362901 Si02
#       8
#     8   8   8   8   8   8   8   8
#     4   9  19  34  52  76 103 129 157 193 241 296
#     4  10  19  32  51  73  98 130 168 207 248 292
#     4  10  20  34  52  75 102 128 156 194 241 293
#     4   9  18  33  50  68  96 133 170 208 248 288
#     4   8  15  28  45  67  96 129 161 193 236 289
#     4  10  19  32  51  72  96 129 166 202 244 291
#     4  10  19  30  47  73 103 134 167 201 242 294
#     4  10  20  33  49  70  99 134 170 208 247 287
#
# _framework density 18.458407999999999
#
# number of rings (size 3 to 8) (size 9 to 14) (size 15 to 20)
#    0.000    2.500    0.000    3.375    0.000    4.500 
#    0.000    2.500    0.000    0.750    0.000    3.500 
#    0.000    0.000    0.000    0.000    0.000    0.000 
#
# Total GULP energy -178524.356010 kJ/mol
# GULP energy per Si atom -5578.886125 kJ/mol
# Density = 1.841640 g / cm^3
# Si number density = 18.458408 Si / 1000 Ang^3
#
#
#
# Elastic Constant Matrix: (Units=GPa)
#
#
# Indices 1 2 3 4 5 6 
#
# 1 7.4752 -3.5615 -0.1930 0.0000 0.0000 0.0000
# 2 -3.5615 80.7107 97.0235 0.0000 0.0000 0.0000
# 3 -0.1930 97.0235 167.9486 0.0000 0.0000 0.0000
# 4 0.0000 0.0000 0.0000 27.6141 0.0000 0.0000
# 5 0.0000 0.0000 0.0000 0.0000 18.7057 0.0000
# 6 0.0000 0.0000 0.0000 0.0000 0.0000 16.8347
#
#
#
# Elastic Compliance Matrix: (Units=1/GPa)
#
#
# Indices 1 2 3 4 5 6 
#
# 1 0.143014 0.020008 -0.011394 0.000000 0.000000 0.000000
# 2 0.020008 0.043350 -0.025020 0.000000 0.000000 0.000000
# 3 -0.011394 -0.025020 0.020395 0.000000 0.000000 0.000000
# 4 0.000000 0.000000 0.000000 0.036213 0.000000 0.000000
# 5 0.000000 0.000000 0.000000 0.000000 0.053460 0.000000
# 6 0.000000 0.000000 0.000000 0.000000 0.000000 0.059401
#
#
# Mechanical properties :
#
#
# Convention : Reuss Voigt Hill
#
# Bulk Modulus (GPa) = 5.74892 49.18582 27.46737
# Shear Modulus (GPa) = 11.19501 23.48861 17.34181
#
# Velocity S-wave (km/s) = 2.46539 3.57110 3.06846
# Velocity P-wave (km/s) = 3.35045 6.61123 5.24089
#
# Compressibility (1/GPa) = 0.17394571
#
# Stress axis : x y z
#
# Youngs Moduli (GPa) = 6.99234 23.06819 49.03132
#
# Poissons Ratio (x) = -0.46154 0.55866
# Poissons Ratio (y) = -0.13990 1.22677
# Poissons Ratio (z) = 0.07967 0.57717
#
# Static dielectric constant tensor:
#      x y z
#    x 1.655790 0.000000 0.000000 
#    y 0.000000 1.609730 0.000000 
#    z 0.000000 0.000000 1.675200 
# 
# From -- ./inp_files/15921.got.cif
#   From: 2010.05.17/outbox.cif.g08.bks.cpg/sg40_8_cif.got.tgz:15921.got - 2010.06.03 18:35:42.
