data_PCOD9362227
_publ_section_title
;
Structure prediction by ZEFSAII (Michael W. Deem and Ramdas Pophale) SiO2 
 PCOD9362227
Probable space group: A B M 2
;
_chemical_formula_sum "Si O2"
_cell_formula_units_Z 30
_cell_length_a 9.000000
_cell_length_b 18.000000
_cell_length_c 18.000000
_cell_angle_alpha 90.000000
_cell_angle_beta 90.000000
_cell_angle_gamma 90.000000
_cell_volume 2916.000000
_symmetry_space_group_name_H-M "A B M 2"
_symmetry_group_IT_number 39
_symmetry_cell_setting 'orthorhombic'
loop_
_space_group_symop_operation_xyz
x,y,z
-x,-y,z
-x,1/2+y,z
x,1/2-y,z
x,1/2+y,1/2+z
-x,1/2-y,1/2+z
-x,y,1/2+z
x,-y,1/2+z
loop_
_atom_site_type_symbol
_atom_site_label
_atom_site_fract_x
_atom_site_fract_y
_atom_site_fract_z
Si Si1 0.046394 0.415598 0.625000
Si Si2 0.582513 0.612760 0.993589
Si Si3 0.426676 0.664316 0.329983
Si Si4 0.760892 0.332345 0.622810
Si Si5 0.370514 0.446558 0.240472
Si Si6 0.841877 0.080427 0.283821
Si Si7 0.729244 0.451527 0.012459
Si Si8 0.000000 0.500000 0.410284
O O1 0.055494 0.407130 0.713048
O O2 0.207258 0.414920 0.587541
O O3 0.000000 0.500000 0.609560
O O4 0.922286 0.359994 0.594814
O O5 0.642548 0.666454 0.056600
O O6 0.659360 0.534170 0.015021
O O7 0.406902 0.599534 0.988708
O O8 0.621979 0.642127 0.912749
O O9 0.471845 0.750000 0.324430
O O10 0.550695 0.606382 0.301030
O O11 0.277919 0.645948 0.284346
O O12 0.771825 0.250000 0.655098
O O13 0.704577 0.393543 0.680839
O O14 0.500000 0.500000 0.207698
O O15 0.251610 0.503969 0.273063
O O16 0.932864 0.064350 0.357913
O O17 0.869813 0.462725 0.958642
#
# Coordination Sequence:
#
# PCOD9362227 Si02
#       8
#     8   8   8   8   8   8   8   4
#     4  12  22  42  63  98 130 169 215 268 322 384
#     4  11  23  40  64  96 129 171 219 269 323 384
#     4  11  24  41  61  93 136 169 208 270 334 388
#     4  12  25  42  67  98 135 175 215 270 335 391
#     4  10  22  40  65  96 123 168 221 271 319 382
#     4  11  22  37  68  94 126 165 221 266 315 390
#     4  11  23  37  68  95 125 166 225 275 312 380
#     4  12  18  36  60 100 120 158 212 272 322 370
#
# _framework density 10.288066000000001
#
# number of rings (size 3 to 8) (size 9 to 14) (size 15 to 20)
#    0.000    0.800    5.333    1.600    9.333    0.533 
#    0.000    1.333    0.000    1.600    0.000    0.000 
#    0.000    0.000    0.000    0.000    0.000    0.000 
#
# Total GULP energy -167472.781968 kJ/mol
# GULP energy per Si atom -5582.426066 kJ/mol
# Density = 1.026465 g / cm^3
# Si number density = 10.288066 Si / 1000 Ang^3
#
#
#
# Elastic Constant Matrix: (Units=GPa)
#
#
# Indices 1 2 3 4 5 6 
#
# 1 102.3056 24.9675 30.0154 0.0000 0.0000 0.0000
# 2 24.9675 93.8515 13.4234 0.0000 0.0000 0.0000
# 3 30.0154 13.4234 67.6151 0.0000 0.0000 0.0000
# 4 0.0000 0.0000 0.0000 -958.5302 0.0000 0.0000
# 5 0.0000 0.0000 0.0000 0.0000 30.1654 0.0000
# 6 0.0000 0.0000 0.0000 0.0000 0.0000 7.5267
#
#
#
# Elastic Compliance Matrix: (Units=1/GPa)
#
#
# Indices 1 2 3 4 5 6 
#
# 1 0.011762 -0.002452 -0.004735 0.000000 0.000000 0.000000
# 2 -0.002452 0.011478 -0.001190 0.000000 0.000000 0.000000
# 3 -0.004735 -0.001190 0.017128 0.000000 0.000000 0.000000
# 4 0.000000 0.000000 0.000000 -0.001043 0.000000 0.000000
# 5 0.000000 0.000000 0.000000 0.000000 0.033151 0.000000
# 6 0.000000 0.000000 0.000000 0.000000 0.000000 0.132860
#
#
# Mechanical properties :
#
#
# Convention : Reuss Voigt Hill
#
# Bulk Modulus (GPa) = 42.34776 44.50942 43.42859
# Shear Modulus (GPa) = 21.74299 -171.14322 -74.70011
#
# Velocity S-wave (km/s) = 3.25423 -9.12996 -6.03184
# Velocity P-wave (km/s) = 5.89455 9.45849 5.23055
#
# Compressibility (1/GPa) = 0.02361400
#
# Stress axis : x y z
#
# Youngs Moduli (GPa) = 85.01872 87.12593 58.38508
#
# Poissons Ratio (x) = 0.21363 0.27643
# Poissons Ratio (y) = 0.20846 0.06949
# Poissons Ratio (z) = 0.40253 0.10369
#
# Static dielectric constant tensor:
#      x y z
#    x 1.837180 0.000000 0.000000 
#    y 0.000000 1.713710 0.000000 
#    z 0.000000 0.000000 1.765910 
# 
# From -- ./inp_files/11811.got.cif
#   From: 2010.05.17/outbox.ucp.g08.bks.cvg/sg39_6_cif.got.tgz:11811.got - 2010.06.11 10:41:16.
