data_PCOD9362996
_publ_section_title
;
Structure prediction by ZEFSAII (Michael W. Deem and Ramdas Pophale) SiO2 
 PCOD9362996
Probable space group: A M A 2
;
_chemical_formula_sum "Si O2"
_cell_formula_units_Z 64
_cell_length_a 20.320437
_cell_length_b 9.808365
_cell_length_c 16.266592
_cell_angle_alpha 90.000000
_cell_angle_beta 90.000000
_cell_angle_gamma 90.000000
_cell_volume 3242.098731
_symmetry_space_group_name_H-M "A M A 2"
_symmetry_group_IT_number 40
_symmetry_cell_setting 'orthorhombic'
loop_
_space_group_symop_operation_xyz
x,y,z
-x,-y,z
1/2-x,y,z
1/2+x,-y,z
x,1/2+y,1/2+z
-x,1/2-y,1/2+z
1/2-x,1/2+y,1/2+z
1/2+x,1/2-y,1/2+z
loop_
_atom_site_type_symbol
_atom_site_label
_atom_site_fract_x
_atom_site_fract_y
_atom_site_fract_z
Si Si1 0.173177 0.674327 0.234130
Si Si2 0.324437 0.885539 0.796235
Si Si3 0.052713 0.375396 0.002622
Si Si4 0.419804 0.380549 0.813450
Si Si5 0.322149 0.806921 0.986377
Si Si6 0.463268 0.357196 0.482615
Si Si7 0.061624 0.200130 0.308032
Si Si8 0.674785 0.469732 0.061129
O O1 0.250000 0.695254 0.246892
O O2 0.153175 0.541053 0.286203
O O3 0.136337 0.806733 0.263622
O O4 0.163622 0.623911 0.141170
O O5 0.250000 0.871519 0.760146
O O6 0.318195 0.853587 0.892389
O O7 0.381894 0.787148 0.763283
O O8 0.078268 0.344038 0.910309
O O9 0.000000 0.500000 0.997968
O O10 0.011318 0.244825 0.031671
O O11 0.116585 0.422575 0.052655
O O12 0.415427 0.543778 0.814626
O O13 0.487834 0.321629 0.775243
O O14 0.250000 0.837038 0.025236
O O15 0.389962 0.869676 0.020693
O O16 0.329786 0.642695 0.988952
O O17 0.500000 0.500000 0.470290
O O18 0.449843 0.278114 0.395645
O O19 0.750000 0.523005 0.063274
#
# Coordination Sequence:
#
# PCOD9362996 Si02
#       8
#     8   8   8   8   8   8   8   8
#     4  10  23  39  59  89 125 155 197 255 306 362
#     4   9  18  33  54  83 113 148 197 242 288 356
#     4  11  18  36  61  88 121 154 206 257 302 367
#     4  10  19  35  57  88 119 150 201 252 291 358
#     4   9  17  32  57  81 107 152 201 238 288 365
#     4  10  19  31  54  89 123 151 193 259 319 350
#     4   9  18  32  53  83 117 154 184 241 305 357
#     4  10  21  40  62  87 123 165 202 247 311 374
#
# _framework density 19.740297999999999
#
# number of rings (size 3 to 8) (size 9 to 14) (size 15 to 20)
#    0.000    2.250    3.750    0.750    7.000    1.000 
#    2.250    0.625    5.500    0.000    0.000    0.000 
#    0.000    0.000    0.000    0.000    0.000    0.000 
#
# Total GULP energy -178164.189241 kJ/mol
# GULP energy per Si atom -5567.630914 kJ/mol
# Density = 1.969537 g / cm^3
# Si number density = 19.740298 Si / 1000 Ang^3
#
#
#
# Elastic Constant Matrix: (Units=GPa)
#
#
# Indices 1 2 3 4 5 6 
#
# 1 156.7729 74.0417 18.7896 0.0000 0.0000 0.0000
# 2 74.0417 97.7504 15.2345 0.0000 0.0000 0.0000
# 3 18.7896 15.2345 18.4080 0.0000 0.0000 0.0000
# 4 0.0000 0.0000 0.0000 -0.1353 0.0000 0.0000
# 5 0.0000 0.0000 0.0000 0.0000 -15.3390 0.0000
# 6 0.0000 0.0000 0.0000 0.0000 0.0000 62.6432
#
#
#
# Elastic Compliance Matrix: (Units=1/GPa)
#
#
# Indices 1 2 3 4 5 6 
#
# 1 0.010266 -0.007052 -0.004642 0.000000 0.000000 0.000000
# 2 -0.007052 0.016590 -0.006531 0.000000 0.000000 0.000000
# 3 -0.004642 -0.006531 0.064468 0.000000 0.000000 0.000000
# 4 0.000000 0.000000 0.000000 -7.388677 0.000000 0.000000
# 5 0.000000 0.000000 0.000000 0.000000 -0.065193 0.000000
# 6 0.000000 0.000000 0.000000 0.000000 0.000000 0.015963
#
#
# Mechanical properties :
#
#
# Convention : Reuss Voigt Hill
#
# Bulk Modulus (GPa) = 18.22418 54.34033 36.28226
# Shear Modulus (GPa) = -0.68570 20.42480 9.86955
#
# Velocity S-wave (km/s) = -0.59001 3.22013 2.23843
# Velocity P-wave (km/s) = 2.96443 6.43529 5.01003
#
# Compressibility (1/GPa) = 0.05487214
#
# Stress axis : x y z
#
# Youngs Moduli (GPa) = 97.41110 60.27751 15.51162
#
# Poissons Ratio (x) = 0.42510 0.07200
# Poissons Ratio (y) = 0.68698 0.10131
# Poissons Ratio (z) = 0.45218 0.39369
#
# Static dielectric constant tensor:
#      x y z
#    x 1.778160 0.000000 0.000000 
#    y 0.000000 1.690530 0.000000 
#    z 0.000000 0.000000 1.743630 
# 
# From -- ./inp_files/23594.got.cif
#   From: 2010.05.17/outbox.cif.g08.bks.cpg/sg40_12_cif.got.tgz:23594.got - 2010.06.03 18:35:42.
