data_PCOD9362309
_publ_section_title
;
Structure prediction by ZEFSAII (Michael W. Deem and Ramdas Pophale) SiO2 
 PCOD9362309
Probable space group: A M A 2
;
_chemical_formula_sum "Si O2"
_cell_formula_units_Z 64
_cell_length_a 8.287380
_cell_length_b 31.340772
_cell_length_c 15.129827
_cell_angle_alpha 90.000000
_cell_angle_beta 90.000000
_cell_angle_gamma 90.000000
_cell_volume 3929.713647
_symmetry_space_group_name_H-M "A M A 2"
_symmetry_group_IT_number 40
_symmetry_cell_setting 'orthorhombic'
loop_
_space_group_symop_operation_xyz
x,y,z
-x,-y,z
1/2-x,y,z
1/2+x,-y,z
x,1/2+y,1/2+z
-x,1/2-y,1/2+z
1/2-x,1/2+y,1/2+z
1/2+x,1/2-y,1/2+z
loop_
_atom_site_type_symbol
_atom_site_label
_atom_site_fract_x
_atom_site_fract_y
_atom_site_fract_z
Si Si1 0.053354 0.292719 0.038710
Si Si2 0.561547 0.223203 0.342831
Si Si3 0.942696 0.547567 0.246627
Si Si4 0.941201 0.682978 0.346155
Si Si5 0.556229 0.631415 0.522444
Si Si6 0.946222 0.708179 0.646293
Si Si7 0.556873 0.132531 0.664173
Si Si8 0.059804 0.046927 0.946667
O O1 0.250000 0.292363 0.038861
O O2 0.995502 0.335343 0.089118
O O3 0.001379 0.250021 0.091609
O O4 0.994600 0.292122 0.937223
O O5 0.750000 0.211261 0.342121
O O6 0.542021 0.274084 0.344903
O O7 0.493750 0.209344 0.247593
O O8 0.750000 0.548407 0.242313
O O9 0.007182 0.584926 0.182503
O O10 0.000000 0.500000 0.225009
O O11 0.987264 0.556367 0.349157
O O12 0.750000 0.693823 0.352850
O O13 0.984209 0.654640 0.430196
O O14 0.965065 0.657168 0.256527
O O15 0.750000 0.627692 0.527515
O O16 0.502963 0.664512 0.597846
O O17 0.486310 0.584134 0.514637
O O18 0.750000 0.709438 0.646340
O O19 0.750000 0.128666 0.649201
O O20 0.250000 0.045309 0.935526
O O21 0.000000 0.000000 0.973411
#
# Coordination Sequence:
#
# PCOD9362309 Si02
#       8
#     8   8   8   8   8   8   8   8
#     4  10  19  31  47  67  92 125 163 198 231 278
#     4  10  20  31  44  68  97 121 158 207 238 266
#     4  10  18  31  47  67  94 123 156 190 232 282
#     4  10  17  28  46  65  90 127 162 190 229 278
#     4  10  19  32  47  64  92 128 161 190 229 280
#     4  10  20  32  46  67  95 126 157 196 240 278
#     4   9  17  29  45  64  89 124 159 188 225 277
#     4  11  21  32  48  70  96 122 152 189 233 279
#
# _framework density 16.286175
#
# number of rings (size 3 to 8) (size 9 to 14) (size 15 to 20)
#    0.000    2.000    3.750    2.250    0.000    1.000 
#    0.000    1.250    0.000    0.000    0.000    0.875 
#    0.000    2.000    0.000    0.000    0.000    0.500 
#
# Total GULP energy -178377.427534 kJ/mol
# GULP energy per Si atom -5574.294610 kJ/mol
# Density = 1.624911 g / cm^3
# Si number density = 16.286175 Si / 1000 Ang^3
#
#
#
# Elastic Constant Matrix: (Units=GPa)
#
#
# Indices 1 2 3 4 5 6 
#
# 1 19.2887 17.5901 15.1181 0.0000 0.0000 0.0000
# 2 17.5901 131.2688 60.7817 0.0000 0.0000 0.0000
# 3 15.1181 60.7817 111.3588 0.0000 0.0000 0.0000
# 4 0.0000 0.0000 0.0000 15.0541 0.0000 0.0000
# 5 0.0000 0.0000 0.0000 0.0000 8.8721 0.0000
# 6 0.0000 0.0000 0.0000 0.0000 0.0000 -27.4868
#
#
#
# Elastic Compliance Matrix: (Units=1/GPa)
#
#
# Indices 1 2 3 4 5 6 
#
# 1 0.061173 -0.005824 -0.005126 0.000000 0.000000 0.000000
# 2 -0.005824 0.010749 -0.005076 0.000000 0.000000 0.000000
# 3 -0.005126 -0.005076 0.012447 0.000000 0.000000 0.000000
# 4 0.000000 0.000000 0.000000 0.066427 0.000000 0.000000
# 5 0.000000 0.000000 0.000000 0.000000 0.112713 0.000000
# 6 0.000000 0.000000 0.000000 0.000000 0.000000 -0.036381
#
#
# Mechanical properties :
#
#
# Convention : Reuss Voigt Hill
#
# Bulk Modulus (GPa) = 19.11466 49.87736 34.49601
# Shear Modulus (GPa) = 18.07545 10.51629 14.29587
#
# Velocity S-wave (km/s) = 3.33508 2.54386 2.96597
# Velocity P-wave (km/s) = 5.15680 6.27059 5.74077
#
# Compressibility (1/GPa) = 0.05231587
#
# Stress axis : x y z
#
# Youngs Moduli (GPa) = 16.34720 93.03358 80.34283
#
# Poissons Ratio (x) = 0.54179 0.41186
# Poissons Ratio (y) = 0.09520 0.40784
# Poissons Ratio (z) = 0.08380 0.47227
#
# Static dielectric constant tensor:
#      x y z
#    x 1.575170 0.000000 0.000000 
#    y 0.000000 1.554210 0.000000 
#    z 0.000000 0.000000 1.557540 
# 
# From -- ./inp_files/15894.got.cif
#   From: 2010.05.17/outbox.cif.g08.bks.cpg/sg40_8_cif.got.tgz:15894.got - 2010.06.03 18:35:42.
