data_PCOD9362089
_publ_section_title
;
Structure prediction by ZEFSAII (Michael W. Deem and Ramdas Pophale) SiO2 
 PCOD9362089
Probable space group: A B M 2
;
_chemical_formula_sum "Si O2"
_cell_formula_units_Z 40
_cell_length_a 8.116152
_cell_length_b 18.532041
_cell_length_c 12.484245
_cell_angle_alpha 90.000000
_cell_angle_beta 90.000000
_cell_angle_gamma 90.000000
_cell_volume 1877.741079
_symmetry_space_group_name_H-M "A B M 2"
_symmetry_group_IT_number 39
_symmetry_cell_setting 'orthorhombic'
loop_
_space_group_symop_operation_xyz
x,y,z
-x,-y,z
-x,1/2+y,z
x,1/2-y,z
x,1/2+y,1/2+z
-x,1/2-y,1/2+z
-x,y,1/2+z
x,-y,1/2+z
loop_
_atom_site_type_symbol
_atom_site_label
_atom_site_fract_x
_atom_site_fract_y
_atom_site_fract_z
Si Si1 0.819638 0.961452 0.484440
Si Si2 0.819248 0.165616 0.343976
Si Si3 0.674290 0.400231 0.560643
Si Si4 0.890153 0.930330 0.258946
Si Si5 0.318941 0.835357 0.111293
O O1 0.777370 0.955094 0.358593
O O2 0.809866 0.885321 0.545741
O O3 0.689320 0.014144 0.540360
O O4 0.000000 0.000000 0.488042
O O5 0.847331 0.250000 0.357170
O O6 0.745882 0.134378 0.452640
O O7 0.707296 0.154803 0.238400
O O8 0.985930 0.125008 0.314238
O O9 0.791533 0.392842 0.664166
O O10 0.498324 0.365070 0.581048
O O11 0.000000 0.000000 0.224234
O O12 0.301698 0.750000 0.087260
#
# Coordination Sequence:
#
# PCOD9362089 Si02
#       5
#     8   8   8   8   8
#     4  11  23  46  73 103 137 184 239 296 349 418
#     4  11  25  44  68 101 142 185 236 292 349 424
#     4  12  24  45  74 101 145 187 235 287 361 419
#     4  11  24  44  72 103 138 181 242 298 347 414
#     4  11  27  47  69 104 148 185 232 295 359 422
#
# _framework density 21.302192000000002
#
# number of rings (size 3 to 8) (size 9 to 14) (size 15 to 20)
#    0.000    0.800    4.000    4.200    2.800    2.400 
#    0.000    0.000    0.000    0.000    0.000    0.000 
#    0.000    0.000    0.000    0.000    0.000    0.000 
#
# Total GULP energy -111840.755138 kJ/mol
# GULP energy per Si atom -5592.037757 kJ/mol
# Density = 2.125371 g / cm^3
# Si number density = 21.302192 Si / 1000 Ang^3
#
#
#
# Elastic Constant Matrix: (Units=GPa)
#
#
# Indices 1 2 3 4 5 6 
#
# 1 91.4897 46.1247 45.3917 0.0000 0.0000 0.0000
# 2 46.1247 130.7349 61.7695 0.0000 0.0000 0.0000
# 3 45.3917 61.7695 136.1003 0.0000 0.0000 0.0000
# 4 0.0000 0.0000 0.0000 39.3578 0.0000 0.0000
# 5 0.0000 0.0000 0.0000 0.0000 5.5951 0.0000
# 6 0.0000 0.0000 0.0000 0.0000 0.0000 23.5993
#
#
#
# Elastic Compliance Matrix: (Units=1/GPa)
#
#
# Indices 1 2 3 4 5 6 
#
# 1 0.014284 -0.003550 -0.003153 0.000000 0.000000 0.000000
# 2 -0.003550 0.010619 -0.003636 0.000000 0.000000 0.000000
# 3 -0.003153 -0.003636 0.010049 0.000000 0.000000 0.000000
# 4 0.000000 0.000000 0.000000 0.025408 0.000000 0.000000
# 5 0.000000 0.000000 0.000000 0.000000 0.178729 0.000000
# 6 0.000000 0.000000 0.000000 0.000000 0.000000 0.042374
#
#
# Mechanical properties :
#
#
# Convention : Reuss Voigt Hill
#
# Bulk Modulus (GPa) = 70.04920 73.87742 71.96331
# Shear Modulus (GPa) = 16.29201 27.37971 21.83586
#
# Velocity S-wave (km/s) = 2.76851 3.58900 3.20512
# Velocity P-wave (km/s) = 6.57073 7.20628 6.89583
#
# Compressibility (1/GPa) = 0.01427568
#
# Stress axis : x y z
#
# Youngs Moduli (GPa) = 70.00765 94.16835 99.51151
#
# Poissons Ratio (x) = 0.33429 0.31375
# Poissons Ratio (y) = 0.24852 0.36179
# Poissons Ratio (z) = 0.22072 0.34236
#
# Static dielectric constant tensor:
#      x y z
#    x 1.779660 0.000000 0.000000 
#    y 0.000000 1.781830 0.000000 
#    z 0.000000 0.000000 1.794970 
# 
# From -- ./inp_files/4935.got.cif
#   From: 2010.05.17/outbox.cif.g08.bks.cpg/sg39_3_cif.got.tgz:4935.got - 2010.06.03 18:22:40.
