data_PCOD9362672
_publ_section_title
;
Structure prediction by ZEFSAII (Michael W. Deem and Ramdas Pophale) SiO2 
 PCOD9362672
Probable space group: A M A 2
;
_chemical_formula_sum "Si O2"
_cell_formula_units_Z 64
_cell_length_a 19.452444
_cell_length_b 11.807812
_cell_length_c 11.385605
_cell_angle_alpha 90.000000
_cell_angle_beta 90.000000
_cell_angle_gamma 90.000000
_cell_volume 2615.168740
_symmetry_space_group_name_H-M "A M A 2"
_symmetry_group_IT_number 40
_symmetry_cell_setting 'orthorhombic'
loop_
_space_group_symop_operation_xyz
x,y,z
-x,-y,z
1/2-x,y,z
1/2+x,-y,z
x,1/2+y,1/2+z
-x,1/2-y,1/2+z
1/2-x,1/2+y,1/2+z
1/2+x,1/2-y,1/2+z
loop_
_atom_site_type_symbol
_atom_site_label
_atom_site_fract_x
_atom_site_fract_y
_atom_site_fract_z
Si Si1 0.671394 0.353409 0.080590
Si Si2 0.643190 0.375172 0.342487
Si Si3 0.174017 0.741605 0.580523
Si Si4 0.091058 0.945873 0.469691
Si Si5 0.830350 0.968727 0.235468
Si Si6 0.985839 0.208990 0.311010
Si Si7 0.557925 0.080947 0.830199
Si Si8 0.912783 0.633203 0.579237
O O1 0.750000 0.372759 0.034581
O O2 0.677674 0.339834 0.221135
O O3 0.634422 0.238622 0.040015
O O4 0.613820 0.449182 0.052501
O O5 0.676068 0.339536 0.464745
O O6 0.573055 0.301166 0.341707
O O7 0.627117 0.508129 0.327754
O O8 0.250000 0.793157 0.595415
O O9 0.122922 0.841423 0.543742
O O10 0.161074 0.659971 0.691345
O O11 0.130612 0.985912 0.350860
O O12 0.021339 0.886842 0.413035
O O13 0.750000 0.990309 0.251667
O O14 0.861234 0.041396 0.129984
O O15 0.964355 0.159954 0.185681
O O16 0.051032 0.289689 0.292335
O O17 0.500000 0.000000 0.772232
O O18 0.544885 0.092962 0.968858
#
# Coordination Sequence:
#
# PCOD9362672 Si02
#       8
#     8   8   8   8   8   8   8   8
#     4  11  22  37  57  85 123 161 186 231 303 366
#     4   9  18  34  56  82 110 144 196 243 282 348
#     4  10  18  32  56  82 108 150 198 236 286 355
#     4  10  21  38  55  82 121 160 196 238 296 369
#     4  10  19  34  58  84 114 153 196 242 289 353
#     4   8  19  35  58  80 106 152 196 233 294 350
#     4  10  19  37  59  83 111 143 192 257 300 331
#     4  10  20  37  58  84 112 148 195 243 289 357
#
# _framework density 24.472608000000001
#
# number of rings (size 3 to 8) (size 9 to 14) (size 15 to 20)
#    0.000    2.250    1.250    2.625    0.000    1.000 
#    2.250    4.375    0.000    0.000    0.000    0.000 
#    0.000    0.000    0.000    0.000    0.000    0.000 
#
# Total GULP energy -178433.198936 kJ/mol
# GULP energy per Si atom -5576.037467 kJ/mol
# Density = 2.441691 g / cm^3
# Si number density = 24.472608 Si / 1000 Ang^3
#
#
#
# Elastic Constant Matrix: (Units=GPa)
#
#
# Indices 1 2 3 4 5 6 
#
# 1 50.7288 27.6375 12.8747 0.0000 0.0000 0.0000
# 2 27.6375 51.9337 -0.4206 0.0000 0.0000 0.0000
# 3 12.8747 -0.4206 58.0304 0.0000 0.0000 0.0000
# 4 0.0000 0.0000 0.0000 43.4747 0.0000 0.0000
# 5 0.0000 0.0000 0.0000 0.0000 -26.3134 0.0000
# 6 0.0000 0.0000 0.0000 0.0000 0.0000 27.2523
#
#
#
# Elastic Compliance Matrix: (Units=1/GPa)
#
#
# Indices 1 2 3 4 5 6 
#
# 1 0.030244 -0.016150 -0.006827 0.000000 0.000000 0.000000
# 2 -0.016150 0.027881 0.003785 0.000000 0.000000 0.000000
# 3 -0.006827 0.003785 0.018774 0.000000 0.000000 0.000000
# 4 0.000000 0.000000 0.000000 0.023002 0.000000 0.000000
# 5 0.000000 0.000000 0.000000 0.000000 -0.038003 0.000000
# 6 0.000000 0.000000 0.000000 0.000000 0.000000 0.036694
#
#
# Mechanical properties :
#
#
# Convention : Reuss Voigt Hill
#
# Bulk Modulus (GPa) = 25.96391 26.76398 26.36394
# Shear Modulus (GPa) = 33.37461 16.92281 25.14871
#
# Velocity S-wave (km/s) = 3.69691 2.63249 3.20914
# Velocity P-wave (km/s) = 5.37171 4.49445 4.95254
#
# Compressibility (1/GPa) = 0.03851500
#
# Stress axis : x y z
#
# Youngs Moduli (GPa) = 33.06421 35.86715 53.26385
#
# Poissons Ratio (x) = 0.57927 0.36364
# Poissons Ratio (y) = 0.53400 -0.20162
# Poissons Ratio (z) = 0.22573 -0.13577
#
# Static dielectric constant tensor:
#      x y z
#    x 2.245450 0.000000 0.000000 
#    y 0.000000 1.980880 0.000000 
#    z 0.000000 0.000000 1.948050 
# 
# From -- ./inp_files/14027.got.cif
#   From: 2010.05.17/outbox.cif.g08.bks.cpg/sg40_8_cif.got.tgz:14027.got - 2010.06.03 18:35:42.
