data_PCOD9362542
_publ_section_title
;
Structure prediction by ZEFSAII (Michael W. Deem and Ramdas Pophale) SiO2 
 PCOD9362542
Probable space group: A M A 2
;
_chemical_formula_sum "Si O2"
_cell_formula_units_Z 64
_cell_length_a 9.453145
_cell_length_b 26.296004
_cell_length_c 14.082238
_cell_angle_alpha 90.000000
_cell_angle_beta 90.000000
_cell_angle_gamma 90.000000
_cell_volume 3500.561859
_symmetry_space_group_name_H-M "A M A 2"
_symmetry_group_IT_number 40
_symmetry_cell_setting 'orthorhombic'
loop_
_space_group_symop_operation_xyz
x,y,z
-x,-y,z
1/2-x,y,z
1/2+x,-y,z
x,1/2+y,1/2+z
-x,1/2-y,1/2+z
1/2-x,1/2+y,1/2+z
1/2+x,1/2-y,1/2+z
loop_
_atom_site_type_symbol
_atom_site_label
_atom_site_fract_x
_atom_site_fract_y
_atom_site_fract_z
Si Si1 0.589280 0.732395 0.289580
Si Si2 0.588510 0.949366 0.428432
Si Si3 0.405504 0.325347 0.776306
Si Si4 0.087319 0.088504 0.209691
Si Si5 0.591710 0.138455 0.484915
Si Si6 0.920797 0.550545 0.533496
Si Si7 0.085310 0.754213 0.563584
Si Si8 0.583181 0.163611 0.963000
O O1 0.750000 0.750329 0.314062
O O2 0.466359 0.772176 0.311749
O O3 0.582127 0.732789 0.175582
O O4 0.566004 0.682384 0.353400
O O5 0.750000 0.957381 0.455005
O O6 0.587411 0.933238 0.316681
O O7 0.517482 0.906868 0.494990
O O8 0.500000 0.000000 0.436886
O O9 0.250000 0.321330 0.731116
O O10 0.522418 0.354658 0.715056
O O11 0.390836 0.357874 0.871534
O O12 0.250000 0.088481 0.175779
O O13 0.983958 0.058530 0.139466
O O14 0.750000 0.130633 0.526001
O O15 0.535205 0.192902 0.517587
O O16 0.750000 0.544098 0.534602
O O17 0.955748 0.604626 0.482073
O O18 0.000000 0.500000 0.495121
O O19 0.250000 0.746477 0.536742
O O20 0.998302 0.705677 0.526619
O O21 0.750000 0.167257 0.985369
#
# Coordination Sequence:
#
# PCOD9362542 Si02
#       8
#     8   8   8   8   8   8   8   8
#     4  10  20  34  54  78 108 143 181 223 272 327
#     4  10  20  32  49  73 102 138 178 219 266 322
#     4  10  18  30  49  75 108 142 176 216 263 316
#     4  10  20  33  51  77 108 143 182 222 271 328
#     4   9  18  32  49  71 102 137 172 213 259 311
#     4  11  23  38  55  77 106 143 187 233 284 335
#     4  10  20  35  56  82 109 143 183 224 275 332
#     4  10  22  38  56  81 113 147 184 230 281 335
#
# _framework density 18.282778
#
# number of rings (size 3 to 8) (size 9 to 14) (size 15 to 20)
#    0.000    2.000    1.250    2.625    0.000    7.000 
#    0.000    0.000    0.000    0.750    0.000    1.750 
#    0.000    0.000    0.000    0.000    0.000    0.000 
#
# Total GULP energy -178212.128338 kJ/mol
# GULP energy per Si atom -5569.129011 kJ/mol
# Density = 1.824117 g / cm^3
# Si number density = 18.282778 Si / 1000 Ang^3
#
#
#
# Elastic Constant Matrix: (Units=GPa)
#
#
# Indices 1 2 3 4 5 6 
#
# 1 103.8010 80.2927 15.2596 0.0000 0.0000 0.0000
# 2 80.2927 147.3010 32.8302 0.0000 0.0000 0.0000
# 3 15.2596 32.8302 39.0956 0.0000 0.0000 0.0000
# 4 0.0000 0.0000 0.0000 24.2097 0.0000 0.0000
# 5 0.0000 0.0000 0.0000 0.0000 11.3742 0.0000
# 6 0.0000 0.0000 0.0000 0.0000 0.0000 32.2972
#
#
#
# Elastic Compliance Matrix: (Units=1/GPa)
#
#
# Indices 1 2 3 4 5 6 
#
# 1 0.016718 -0.009422 0.001387 0.000000 0.000000 0.000000
# 2 -0.009422 0.013662 -0.007795 0.000000 0.000000 0.000000
# 3 0.001387 -0.007795 0.031583 0.000000 0.000000 0.000000
# 4 0.000000 0.000000 0.000000 0.041306 0.000000 0.000000
# 5 0.000000 0.000000 0.000000 0.000000 0.087918 0.000000
# 6 0.000000 0.000000 0.000000 0.000000 0.000000 0.030962
#
#
# Mechanical properties :
#
#
# Convention : Reuss Voigt Hill
#
# Bulk Modulus (GPa) = 33.00067 60.77361 46.88714
# Shear Modulus (GPa) = 18.94580 24.36389 21.65484
#
# Velocity S-wave (km/s) = 3.22260 3.65446 3.44530
# Velocity P-wave (km/s) = 5.65121 7.14981 6.44422
#
# Compressibility (1/GPa) = 0.03030241
#
# Stress axis : x y z
#
# Youngs Moduli (GPa) = 59.81535 73.19558 31.66272
#
# Poissons Ratio (x) = 0.68965 -0.04391
# Poissons Ratio (y) = 0.56358 0.24681
# Poissons Ratio (z) = -0.08295 0.57056
#
# Static dielectric constant tensor:
#      x y z
#    x 1.657490 0.000000 0.000000 
#    y 0.000000 1.649490 0.000000 
#    z 0.000000 0.000000 1.673120 
# 
# From -- ./inp_files/15552.got.cif
#   From: 2010.05.17/outbox.cif.g08.bks.cpg/sg40_8_cif.got.tgz:15552.got - 2010.06.03 18:35:42.
