data_PCOD9362496
_publ_section_title
;
Structure prediction by ZEFSAII (Michael W. Deem and Ramdas Pophale) SiO2 
 PCOD9362496
Probable space group: A M A 2
;
_chemical_formula_sum "Si O2"
_cell_formula_units_Z 64
_cell_length_a 8.363896
_cell_length_b 28.656373
_cell_length_c 15.207438
_cell_angle_alpha 90.000000
_cell_angle_beta 90.000000
_cell_angle_gamma 90.000000
_cell_volume 3644.902369
_symmetry_space_group_name_H-M "A M A 2"
_symmetry_group_IT_number 40
_symmetry_cell_setting 'orthorhombic'
loop_
_space_group_symop_operation_xyz
x,y,z
-x,-y,z
1/2-x,y,z
1/2+x,-y,z
x,1/2+y,1/2+z
-x,1/2-y,1/2+z
1/2-x,1/2+y,1/2+z
1/2+x,1/2-y,1/2+z
loop_
_atom_site_type_symbol
_atom_site_label
_atom_site_fract_x
_atom_site_fract_y
_atom_site_fract_z
Si Si1 0.558279 0.552422 0.083760
Si Si2 0.558828 0.278473 0.282565
Si Si3 0.941759 0.947550 0.779312
Si Si4 0.055271 0.673655 0.584868
Si Si5 0.942687 0.135976 0.460266
Si Si6 0.554553 0.364462 0.403979
Si Si7 0.556525 0.719025 0.086899
Si Si8 0.059403 0.673612 0.782591
O O1 0.500000 0.500000 0.065648
O O2 0.750000 0.552328 0.085029
O O3 0.499930 0.565661 0.181510
O O4 0.502216 0.589914 0.011937
O O5 0.750000 0.275060 0.287874
O O6 0.505586 0.318334 0.349996
O O7 0.508733 0.292045 0.183724
O O8 0.489612 0.227243 0.300858
O O9 0.750000 0.947597 0.778204
O O10 0.998505 0.910193 0.851271
O O11 0.000000 0.000000 0.797262
O O12 0.250000 0.672507 0.585981
O O13 0.001418 0.641340 0.504684
O O14 0.010359 0.727601 0.565973
O O15 0.000261 0.662159 0.683686
O O16 0.750000 0.136121 0.461894
O O17 0.997310 0.181398 0.515523
O O18 0.996103 0.141367 0.360263
O O19 0.750000 0.365072 0.403847
O O20 0.750000 0.717766 0.090863
O O21 0.250000 0.671219 0.781493
#
# Coordination Sequence:
#
# PCOD9362496 Si02
#       8
#     8   8   8   8   8   8   8   8
#     4  10  20  34  52  74 100 128 156 192 242 294
#     4  10  18  29  47  71  99 129 161 197 236 281
#     4  10  19  32  51  74  99 126 156 194 241 292
#     4   8  15  29  46  65  91 124 160 194 230 275
#     4  10  20  33  51  72  96 129 165 202 245 290
#     4   9  17  29  48  70  92 125 164 196 233 285
#     4   9  17  30  47  68  97 129 158 193 239 288
#     4  10  20  32  48  70  97 130 166 202 239 283
#
# _framework density 17.558769000000002
#
# number of rings (size 3 to 8) (size 9 to 14) (size 15 to 20)
#    0.000    2.500    0.000    4.500    0.000    3.500 
#    0.000    1.875    0.000   10.500    0.000    3.500 
#    0.000    0.000    0.000    0.000    0.000    0.000 
#
# Total GULP energy -178514.519115 kJ/mol
# GULP energy per Si atom -5578.578722 kJ/mol
# Density = 1.751880 g / cm^3
# Si number density = 17.558769 Si / 1000 Ang^3
#
#
#
# Elastic Constant Matrix: (Units=GPa)
#
#
# Indices 1 2 3 4 5 6 
#
# 1 18.3577 16.1873 17.9987 0.0000 0.0000 0.0000
# 2 16.1873 94.1447 104.1627 0.0000 0.0000 0.0000
# 3 17.9987 104.1627 160.1300 0.0000 0.0000 0.0000
# 4 0.0000 0.0000 0.0000 33.2493 0.0000 0.0000
# 5 0.0000 0.0000 0.0000 0.0000 24.0303 0.0000
# 6 0.0000 0.0000 0.0000 0.0000 0.0000 -2.5544
#
#
#
# Elastic Compliance Matrix: (Units=1/GPa)
#
#
# Indices 1 2 3 4 5 6 
#
# 1 0.064208 -0.010899 -0.000127 0.000000 0.000000 0.000000
# 2 -0.010899 0.039746 -0.024629 0.000000 0.000000 0.000000
# 3 -0.000127 -0.024629 0.022280 0.000000 0.000000 0.000000
# 4 0.000000 0.000000 0.000000 0.030076 0.000000 0.000000
# 5 0.000000 0.000000 0.000000 0.000000 0.041614 0.000000
# 6 0.000000 0.000000 0.000000 0.000000 0.000000 -0.391475
#
#
# Mechanical properties :
#
#
# Convention : Reuss Voigt Hill
#
# Bulk Modulus (GPa) = 18.20722 61.03666 39.62194
# Shear Modulus (GPa) = -48.10869 19.89728 -14.10570
#
# Velocity S-wave (km/s) = -5.24005 3.36993 -2.83740
# Velocity P-wave (km/s) = 5.12045 7.06956 3.44671
#
# Compressibility (1/GPa) = 0.05492326
#
# Stress axis : x y z
#
# Youngs Moduli (GPa) = 15.57429 25.15981 44.88283
#
# Poissons Ratio (x) = 0.27422 0.00571
# Poissons Ratio (y) = 0.16975 1.10543
# Poissons Ratio (z) = 0.00198 0.61967
#
# Static dielectric constant tensor:
#      x y z
#    x 1.606790 0.000000 0.000000 
#    y 0.000000 1.587470 0.000000 
#    z 0.000000 0.000000 1.607870 
# 
# From -- ./inp_files/15909.got.cif
#   From: 2010.05.17/outbox.cif.g08.bks.cpg/sg40_8_cif.got.tgz:15909.got - 2010.06.03 18:35:42.
