data_PCOD9362482
_publ_section_title
;
Structure prediction by ZEFSAII (Michael W. Deem and Ramdas Pophale) SiO2 
 PCOD9362482
Probable space group: A M A 2
;
_chemical_formula_sum "Si O2"
_cell_formula_units_Z 64
_cell_length_a 8.471748
_cell_length_b 19.245311
_cell_length_c 22.373474
_cell_angle_alpha 90.000000
_cell_angle_beta 90.000000
_cell_angle_gamma 90.000000
_cell_volume 3647.803083
_symmetry_space_group_name_H-M "A M A 2"
_symmetry_group_IT_number 40
_symmetry_cell_setting 'orthorhombic'
loop_
_space_group_symop_operation_xyz
x,y,z
-x,-y,z
1/2-x,y,z
1/2+x,-y,z
x,1/2+y,1/2+z
-x,1/2-y,1/2+z
1/2-x,1/2+y,1/2+z
1/2+x,1/2-y,1/2+z
loop_
_atom_site_type_symbol
_atom_site_label
_atom_site_fract_x
_atom_site_fract_y
_atom_site_fract_z
Si Si1 0.440362 0.074345 0.578910
Si Si2 0.560790 0.574118 0.496607
Si Si3 0.431316 0.566818 0.944145
Si Si4 0.942627 0.720517 0.446908
Si Si5 0.060883 0.077739 0.249760
Si Si6 0.438712 0.276480 0.074150
Si Si7 0.440111 0.367532 0.624176
Si Si8 0.066284 0.685630 0.847132
O O1 0.250000 0.075334 0.581425
O O2 0.503014 0.074734 0.509791
O O3 0.501945 0.149510 0.599946
O O4 0.500000 0.000000 0.604282
O O5 0.500000 0.500000 0.476233
O O6 0.750000 0.573285 0.496248
O O7 0.510415 0.641002 0.458561
O O8 0.510665 0.589946 0.564880
O O9 0.500000 0.500000 0.912033
O O10 0.250000 0.551498 0.955271
O O11 0.439568 0.632316 0.902534
O O12 0.750000 0.725904 0.447623
O O13 0.000007 0.747406 0.382020
O O14 0.000124 0.762730 0.505860
O O15 0.250000 0.076005 0.256935
O O16 0.998420 0.140227 0.292742
O O17 0.014312 0.098786 0.182753
O O18 0.000000 0.000000 0.263072
O O19 0.250000 0.275204 0.073660
O O20 0.504425 0.211448 0.112182
O O21 0.250000 0.368937 0.628478
O O22 0.250000 0.700578 0.831708
#
# Coordination Sequence:
#
# PCOD9362482 Si02
#       8
#     8   8   8   8   8   8   8   8
#     4  10  18  29  45  67  98 133 168 204 246 299
#     4   9  18  30  50  73  96 126 160 200 253 306
#     4   9  16  26  41  60  87 126 163 198 233 278
#     4   9  17  33  50  68  97 136 171 203 251 311
#     4  11  22  35  52  75 102 136 176 218 255 300
#     4  11  20  31  49  75 101 129 167 214 263 312
#     4  10  21  37  54  71  96 135 174 214 261 309
#     4   9  17  31  49  67  94 133 173 208 246 294
#
# _framework density 17.544806000000001
#
# number of rings (size 3 to 8) (size 9 to 14) (size 15 to 20)
#    0.000    2.250    1.250    3.750    0.000    4.000 
#    0.000    1.875    0.000    0.000    0.000    0.875 
#    0.000    4.000    0.000    0.000    0.000    0.125 
#
# Total GULP energy -178167.210964 kJ/mol
# GULP energy per Si atom -5567.725343 kJ/mol
# Density = 1.750487 g / cm^3
# Si number density = 17.544806 Si / 1000 Ang^3
#
#
#
# Elastic Constant Matrix: (Units=GPa)
#
#
# Indices 1 2 3 4 5 6 
#
# 1 28.5912 20.5108 9.8453 0.0000 0.0000 0.0000
# 2 20.5108 130.7418 34.2788 0.0000 0.0000 0.0000
# 3 9.8453 34.2788 63.7290 0.0000 0.0000 0.0000
# 4 0.0000 0.0000 0.0000 35.5402 0.0000 0.0000
# 5 0.0000 0.0000 0.0000 0.0000 13.8493 0.0000
# 6 0.0000 0.0000 0.0000 0.0000 0.0000 28.5233
#
#
#
# Elastic Compliance Matrix: (Units=1/GPa)
#
#
# Indices 1 2 3 4 5 6 
#
# 1 0.039986 -0.005417 -0.003263 0.000000 0.000000 0.000000
# 2 -0.005417 0.009638 -0.004347 0.000000 0.000000 0.000000
# 3 -0.003263 -0.004347 0.018534 0.000000 0.000000 0.000000
# 4 0.000000 0.000000 0.000000 0.028137 0.000000 0.000000
# 5 0.000000 0.000000 0.000000 0.000000 0.072206 0.000000
# 6 0.000000 0.000000 0.000000 0.000000 0.000000 0.035059
#
#
# Mechanical properties :
#
#
# Convention : Reuss Voigt Hill
#
# Bulk Modulus (GPa) = 23.75189 39.14797 31.44993
# Shear Modulus (GPa) = 20.52120 26.14437 23.33279
#
# Velocity S-wave (km/s) = 3.42372 3.86443 3.65073
# Velocity P-wave (km/s) = 5.40337 6.50180 5.97786
#
# Compressibility (1/GPa) = 0.04210191
#
# Stress axis : x y z
#
# Youngs Moduli (GPa) = 25.00884 103.75191 53.95493
#
# Poissons Ratio (x) = 0.56206 0.17607
# Poissons Ratio (y) = 0.13548 0.23456
# Poissons Ratio (z) = 0.08161 0.45105
#
# Static dielectric constant tensor:
#      x y z
#    x 1.606530 0.000000 0.000000 
#    y 0.000000 1.670930 0.000000 
#    z 0.000000 0.000000 1.601350 
# 
# From -- ./inp_files/22413.got.cif
#   From: 2010.05.17/outbox.cif.g08.bks.cpg/sg40_12_cif.got.tgz:22413.got - 2010.06.03 18:35:42.
