data_PCOD9362878
_publ_section_title
;
Structure prediction by ZEFSAII (Michael W. Deem and Ramdas Pophale) SiO2 
 PCOD9362878
Probable space group: A M A 2
;
_chemical_formula_sum "Si O2"
_cell_formula_units_Z 56
_cell_length_a 8.781380
_cell_length_b 18.730942
_cell_length_c 21.220183
_cell_angle_alpha 90.000000
_cell_angle_beta 90.000000
_cell_angle_gamma 90.000000
_cell_volume 3490.370383
_symmetry_space_group_name_H-M "A M A 2"
_symmetry_group_IT_number 40
_symmetry_cell_setting 'orthorhombic'
loop_
_space_group_symop_operation_xyz
x,y,z
-x,-y,z
1/2-x,y,z
1/2+x,-y,z
x,1/2+y,1/2+z
-x,1/2-y,1/2+z
1/2-x,1/2+y,1/2+z
1/2+x,1/2-y,1/2+z
loop_
_atom_site_type_symbol
_atom_site_label
_atom_site_fract_x
_atom_site_fract_y
_atom_site_fract_z
Si Si1 0.424632 0.707682 0.439330
Si Si2 0.065439 0.351931 0.997007
Si Si3 0.567441 0.420509 0.123372
Si Si4 0.932418 0.422098 0.870235
Si Si5 0.926214 0.709352 0.805009
Si Si6 0.932883 0.655958 0.245114
Si Si7 0.930644 0.077725 0.875933
O O1 0.250000 0.688884 0.453518
O O2 0.477748 0.768361 0.488011
O O3 0.426641 0.749929 0.372611
O O4 0.517607 0.636041 0.427344
O O5 0.250000 0.356293 0.994985
O O6 0.000329 0.384162 0.060833
O O7 0.998195 0.395070 0.937517
O O8 0.500000 0.500000 0.127887
O O9 0.750000 0.423198 0.120312
O O10 0.512413 0.377000 0.184355
O O11 0.750000 0.423660 0.872908
O O12 0.000000 0.500000 0.857556
O O13 0.989467 0.364741 0.818738
O O14 0.750000 0.698449 0.787192
O O15 0.010818 0.763657 0.758553
O O16 0.750000 0.654112 0.238665
O O17 0.975673 0.609207 0.307102
O O18 0.750000 0.072460 0.876380
O O19 0.000000 0.000000 0.885587
#
# Coordination Sequence:
#
# PCOD9362878 Si02
#       7
#     8   8   8   8   8   8   8
#     4   8  16  30  48  67  91 121 154 192 237 284
#     4  10  20  35  51  69  95 128 163 201 242 289
#     4  12  24  36  50  70  97 131 167 203 238 281
#     4  11  20  31  48  72 100 129 161 200 244 290
#     4   9  17  31  49  70  95 125 159 197 241 289
#     4  10  20  34  50  70  96 129 165 201 239 284
#     4  10  19  29  46  70  97 125 156 194 237 281
#
# _framework density 16.044142999999998
#
# number of rings (size 3 to 8) (size 9 to 14) (size 15 to 20)
#    0.000    2.000    0.000    6.000    0.000    6.857 
#    0.000    0.000    0.000    0.000    0.000    1.000 
#    0.000    4.571    0.000    0.000    0.000    0.000 
#
# Total GULP energy -156221.993552 kJ/mol
# GULP energy per Si atom -5579.356913 kJ/mol
# Density = 1.600763 g / cm^3
# Si number density = 16.044143 Si / 1000 Ang^3
#
#
#
# Elastic Constant Matrix: (Units=GPa)
#
#
# Indices 1 2 3 4 5 6 
#
# 1 104.9299 70.4843 36.4274 0.0000 0.0000 0.0000
# 2 70.4843 163.0229 62.3644 0.0000 0.0000 0.0000
# 3 36.4274 62.3644 68.4017 0.0000 0.0000 0.0000
# 4 0.0000 0.0000 0.0000 25.5747 0.0000 0.0000
# 5 0.0000 0.0000 0.0000 0.0000 17.6860 0.0000
# 6 0.0000 0.0000 0.0000 0.0000 0.0000 30.4813
#
#
#
# Elastic Compliance Matrix: (Units=1/GPa)
#
#
# Indices 1 2 3 4 5 6 
#
# 1 0.013804 -0.004846 -0.002933 0.000000 0.000000 0.000000
# 2 -0.004846 0.011121 -0.007559 0.000000 0.000000 0.000000
# 3 -0.002933 -0.007559 0.023073 0.000000 0.000000 0.000000
# 4 0.000000 0.000000 0.000000 0.039101 0.000000 0.000000
# 5 0.000000 0.000000 0.000000 0.000000 0.056542 0.000000
# 6 0.000000 0.000000 0.000000 0.000000 0.000000 0.032807
#
#
# Mechanical properties :
#
#
# Convention : Reuss Voigt Hill
#
# Bulk Modulus (GPa) = 57.72847 74.98963 66.35905
# Shear Modulus (GPa) = 23.48564 25.88697 24.68631
#
# Velocity S-wave (km/s) = 3.83013 4.02118 3.92682
# Velocity P-wave (km/s) = 7.45782 8.27048 7.87464
#
# Compressibility (1/GPa) = 0.01732248
#
# Stress axis : x y z
#
# Youngs Moduli (GPa) = 72.44492 89.92067 43.34128
#
# Poissons Ratio (x) = 0.43577 0.12710
# Poissons Ratio (y) = 0.35108 0.32760
# Poissons Ratio (z) = 0.21245 0.67967
#
# Static dielectric constant tensor:
#      x y z
#    x 1.536220 0.000000 0.000000 
#    y 0.000000 1.539060 0.000000 
#    z 0.000000 0.000000 1.518470 
# 
# From -- ./inp_files/22293.got.cif
#   From: 2010.05.17/outbox.cif.g08.bks.cpg/sg40_12_cif.got.tgz:22293.got - 2010.06.03 18:35:42.
