data_PCOD9362320
_publ_section_title
;
Structure prediction by ZEFSAII (Michael W. Deem and Ramdas Pophale) SiO2 
 PCOD9362320
Probable space group: A M A 2
;
_chemical_formula_sum "Si O2"
_cell_formula_units_Z 64
_cell_length_a 8.771165
_cell_length_b 23.746184
_cell_length_c 19.769563
_cell_angle_alpha 90.000000
_cell_angle_beta 90.000000
_cell_angle_gamma 90.000000
_cell_volume 4117.638150
_symmetry_space_group_name_H-M "A M A 2"
_symmetry_group_IT_number 40
_symmetry_cell_setting 'orthorhombic'
loop_
_space_group_symop_operation_xyz
x,y,z
-x,-y,z
1/2-x,y,z
1/2+x,-y,z
x,1/2+y,1/2+z
-x,1/2-y,1/2+z
1/2-x,1/2+y,1/2+z
1/2+x,1/2-y,1/2+z
loop_
_atom_site_type_symbol
_atom_site_label
_atom_site_fract_x
_atom_site_fract_y
_atom_site_fract_z
Si Si1 0.565790 0.838535 0.782610
Si Si2 0.932392 0.061930 0.867450
Si Si3 0.565854 0.658675 0.732524
Si Si4 0.064886 0.227353 0.653174
Si Si5 0.566118 0.118857 0.010290
Si Si6 0.066289 0.749097 0.004603
Si Si7 0.066898 0.274789 0.863407
Si Si8 0.931497 0.437852 0.644575
O O1 0.750000 0.843059 0.783580
O O2 0.493595 0.894858 0.811450
O O3 0.516783 0.819648 0.707292
O O4 0.523448 0.785841 0.831127
O O5 0.750000 0.059731 0.864688
O O6 0.975787 0.087224 0.941013
O O7 0.000000 0.000000 0.859470
O O8 0.750000 0.652945 0.729539
O O9 0.524218 0.711500 0.683949
O O10 0.522778 0.678227 0.808131
O O11 0.489018 0.603014 0.704203
O O12 0.250000 0.226363 0.652781
O O13 0.013306 0.223050 0.575948
O O14 0.750000 0.116312 0.018472
O O15 0.523310 0.184643 0.005151
O O16 0.490606 0.089641 0.074649
O O17 0.250000 0.746791 0.002401
O O18 0.002012 0.720630 0.937494
O O19 0.250000 0.275370 0.867554
O O20 0.750000 0.440697 0.643799
O O21 0.000000 0.500000 0.651189
#
# Coordination Sequence:
#
# PCOD9362320 Si02
#       8
#     8   8   8   8   8   8   8   8
#     4   9  17  31  49  69  93 125 163 201 238 285
#     4  11  22  34  48  68  94 130 168 203 240 279
#     4   9  17  34  52  68  96 131 164 200 242 288
#     4   8  15  29  50  70  93 128 162 193 241 289
#     4  10  20  34  49  68  99 135 168 200 236 281
#     4  10  17  29  50  73 100 132 162 196 237 288
#     4   9  18  30  49  73  99 129 160 198 244 289
#     4  12  24  35  50  71  96 130 170 209 244 287
#
# _framework density 15.542890999999999
#
# number of rings (size 3 to 8) (size 9 to 14) (size 15 to 20)
#    0.000    2.250    2.500    3.375    0.000    3.000 
#    0.000    2.500    0.000    0.000    0.000    0.875 
#    0.000    6.000    0.000    0.000    0.000    0.000 
#
# Total GULP energy -178489.967824 kJ/mol
# GULP energy per Si atom -5577.811494 kJ/mol
# Density = 1.550752 g / cm^3
# Si number density = 15.542891 Si / 1000 Ang^3
#
#
#
# Elastic Constant Matrix: (Units=GPa)
#
#
# Indices 1 2 3 4 5 6 
#
# 1 26.9125 32.1162 36.7531 0.0000 0.0000 0.0000
# 2 32.1162 90.6220 70.8042 0.0000 0.0000 0.0000
# 3 36.7531 70.8042 157.5674 0.0000 0.0000 0.0000
# 4 0.0000 0.0000 0.0000 20.0951 0.0000 0.0000
# 5 0.0000 0.0000 0.0000 0.0000 24.6550 0.0000
# 6 0.0000 0.0000 0.0000 0.0000 0.0000 9.0256
#
#
#
# Elastic Compliance Matrix: (Units=1/GPa)
#
#
# Indices 1 2 3 4 5 6 
#
# 1 0.070418 -0.018682 -0.008031 0.000000 0.000000 0.000000
# 2 -0.018682 0.021961 -0.005511 0.000000 0.000000 0.000000
# 3 -0.008031 -0.005511 0.010696 0.000000 0.000000 0.000000
# 4 0.000000 0.000000 0.000000 0.049763 0.000000 0.000000
# 5 0.000000 0.000000 0.000000 0.000000 0.040560 0.000000
# 6 0.000000 0.000000 0.000000 0.000000 0.000000 0.110796
#
#
# Mechanical properties :
#
#
# Convention : Reuss Voigt Hill
#
# Bulk Modulus (GPa) = 25.88703 61.60542 43.74622
# Shear Modulus (GPa) = 13.10555 19.78369 16.44462
#
# Velocity S-wave (km/s) = 2.90692 3.57157 3.25624
# Velocity P-wave (km/s) = 5.28756 7.53193 6.50723
#
# Compressibility (1/GPa) = 0.03862938
#
# Stress axis : x y z
#
# Youngs Moduli (GPa) = 14.20084 45.53450 93.49264
#
# Poissons Ratio (x) = 0.85066 0.75080
# Poissons Ratio (y) = 0.26530 0.51523
# Poissons Ratio (z) = 0.11404 0.25094
#
# Static dielectric constant tensor:
#      x y z
#    x 1.522140 0.000000 0.000000 
#    y 0.000000 1.490710 0.000000 
#    z 0.000000 0.000000 1.526950 
# 
# From -- ./inp_files/19743.got.cif
#   From: 2010.05.17/outbox.cif.g08.bks.cpg/sg40_10_cif.got.tgz:19743.got - 2010.06.03 18:35:42.
