data_PCOD9362711
_publ_section_title
;
Structure prediction by ZEFSAII (Michael W. Deem and Ramdas Pophale) SiO2 
 PCOD9362711
Probable space group: A M A 2
;
_chemical_formula_sum "Si O2"
_cell_formula_units_Z 64
_cell_length_a 15.500421
_cell_length_b 16.910865
_cell_length_c 11.600938
_cell_angle_alpha 90.000000
_cell_angle_beta 90.000000
_cell_angle_gamma 90.000000
_cell_volume 3040.901987
_symmetry_space_group_name_H-M "A M A 2"
_symmetry_group_IT_number 40
_symmetry_cell_setting 'orthorhombic'
loop_
_space_group_symop_operation_xyz
x,y,z
-x,-y,z
1/2-x,y,z
1/2+x,-y,z
x,1/2+y,1/2+z
-x,1/2-y,1/2+z
1/2-x,1/2+y,1/2+z
1/2+x,1/2-y,1/2+z
loop_
_atom_site_type_symbol
_atom_site_label
_atom_site_fract_x
_atom_site_fract_y
_atom_site_fract_z
Si Si1 0.147971 0.674249 0.701000
Si Si2 0.515659 0.587818 0.389425
Si Si3 0.400257 0.023317 0.336415
Si Si4 0.847643 0.135390 0.429295
Si Si5 0.151978 0.790408 0.899797
Si Si6 0.521154 0.089148 0.629079
Si Si7 0.155341 0.134306 0.549719
Si Si8 0.849956 0.310815 0.427699
O O1 0.250000 0.669060 0.727007
O O2 0.111217 0.588218 0.735534
O O3 0.116382 0.745174 0.784510
O O4 0.138355 0.693433 0.566963
O O5 0.500000 0.500000 0.435869
O O6 0.586585 0.643959 0.446788
O O7 0.553217 0.582648 0.259294
O O8 0.423209 0.629987 0.387153
O O9 0.363297 0.071178 0.447192
O O10 0.500000 0.000000 0.343132
O O11 0.355045 0.937575 0.340698
O O12 0.750000 0.137274 0.475479
O O13 0.913682 0.122039 0.534379
O O14 0.864595 0.222452 0.379156
O O15 0.250000 0.819925 0.878324
O O16 0.157617 0.719342 0.990360
O O17 0.429027 0.132232 0.627617
O O18 0.500000 0.000000 0.594117
O O19 0.250000 0.117317 0.600959
O O20 0.750000 0.333637 0.405640
#
# Coordination Sequence:
#
# PCOD9362711 Si02
#       8
#     8   8   8   8   8   8   8   8
#     4   9  19  37  60  87 115 154 198 242 297 358
#     4  11  25  39  58  78 111 157 202 242 280 343
#     4  11  19  31  57  93 127 146 184 238 301 360
#     4  11  20  35  60  89 123 155 187 243 307 358
#     4   9  19  36  60  87 110 140 189 244 295 349
#     4  11  21  34  52  87 117 147 190 232 286 349
#     4  10  18  33  57  83 117 149 177 232 298 352
#     4  10  23  41  59  80 117 162 203 242 291 352
#
# _framework density 21.046386999999999
#
# number of rings (size 3 to 8) (size 9 to 14) (size 15 to 20)
#    0.000    1.750    2.500    3.375    1.750    3.000 
#    0.000    2.500    2.750    0.000    0.000    0.000 
#    0.000    0.000    0.000    0.000    0.000    0.000 
#
# Total GULP energy -178500.408153 kJ/mol
# GULP energy per Si atom -5578.137755 kJ/mol
# Density = 2.099848 g / cm^3
# Si number density = 21.046387 Si / 1000 Ang^3
#
#
#
# Elastic Constant Matrix: (Units=GPa)
#
#
# Indices 1 2 3 4 5 6 
#
# 1 106.9798 57.2829 -5.4701 0.0000 0.0000 0.0000
# 2 57.2829 154.5744 4.8356 0.0000 0.0000 0.0000
# 3 -5.4701 4.8356 14.0665 0.0000 0.0000 0.0000
# 4 0.0000 0.0000 0.0000 12.3419 0.0000 0.0000
# 5 0.0000 0.0000 0.0000 0.0000 16.9747 0.0000
# 6 0.0000 0.0000 0.0000 0.0000 0.0000 8.9870
#
#
#
# Elastic Compliance Matrix: (Units=1/GPa)
#
#
# Indices 1 2 3 4 5 6 
#
# 1 0.012201 -0.004721 0.006367 0.000000 0.000000 0.000000
# 2 -0.004721 0.008366 -0.004712 0.000000 0.000000 0.000000
# 3 0.006367 -0.004712 0.075187 0.000000 0.000000 0.000000
# 4 0.000000 0.000000 0.000000 0.081025 0.000000 0.000000
# 5 0.000000 0.000000 0.000000 0.000000 0.058911 0.000000
# 6 0.000000 0.000000 0.000000 0.000000 0.000000 0.111272
#
#
# Mechanical properties :
#
#
# Convention : Reuss Voigt Hill
#
# Bulk Modulus (GPa) = 11.15777 43.21307 27.18542
# Shear Modulus (GPa) = 13.05600 22.25889 17.65745
#
# Velocity S-wave (km/s) = 2.49337 3.25562 2.89965
# Velocity P-wave (km/s) = 3.68812 5.89143 4.91483
#
# Compressibility (1/GPa) = 0.08962363
#
# Stress axis : x y z
#
# Youngs Moduli (GPa) = 81.96171 119.52907 13.30023
#
# Poissons Ratio (x) = 0.56425 -0.08469
# Poissons Ratio (y) = 0.38691 0.06267
# Poissons Ratio (z) = -0.52188 0.56319
#
# Static dielectric constant tensor:
#      x y z
#    x 1.809170 0.000000 0.000000 
#    y 0.000000 1.781530 0.000000 
#    z 0.000000 0.000000 1.786810 
# 
# From -- ./inp_files/17261.got.cif
#   From: 2010.05.17/outbox.cif.g08.bks.cpg/sg40_9_cif.got.tgz:17261.got - 2010.06.03 18:35:42.
