data_PCOD9362268
_publ_section_title
;
Structure prediction by ZEFSAII (Michael W. Deem and Ramdas Pophale) SiO2 
 PCOD9362268
Probable space group: A M A 2
;
_chemical_formula_sum "Si O2"
_cell_formula_units_Z 56
_cell_length_a 20.938224
_cell_length_b 7.039902
_cell_length_c 18.315486
_cell_angle_alpha 90.000000
_cell_angle_beta 90.000000
_cell_angle_gamma 90.000000
_cell_volume 2699.758407
_symmetry_space_group_name_H-M "A M A 2"
_symmetry_group_IT_number 40
_symmetry_cell_setting 'orthorhombic'
loop_
_space_group_symop_operation_xyz
x,y,z
-x,-y,z
1/2-x,y,z
1/2+x,-y,z
x,1/2+y,1/2+z
-x,1/2-y,1/2+z
1/2-x,1/2+y,1/2+z
1/2+x,1/2-y,1/2+z
loop_
_atom_site_type_symbol
_atom_site_label
_atom_site_fract_x
_atom_site_fract_y
_atom_site_fract_z
Si Si1 0.323484 0.635704 0.475110
Si Si2 0.374924 0.364814 0.348078
Si Si3 0.015619 0.779610 0.367037
Si Si4 0.677705 0.911351 0.449304
Si Si5 0.418431 0.673826 0.073665
Si Si6 0.445555 0.236756 0.032707
Si Si7 0.928388 0.914471 0.730125
O O1 0.250000 0.594740 0.497239
O O2 0.341215 0.513382 0.403044
O O3 0.379747 0.617122 0.536756
O O4 0.325411 0.861768 0.456394
O O5 0.449969 0.338831 0.366173
O O6 0.343968 0.164778 0.370384
O O7 0.379462 0.431350 0.264247
O O8 0.045452 0.749368 0.445703
O O9 0.058535 0.721948 0.298787
O O10 0.000000 0.000000 0.361113
O O11 0.750000 0.854461 0.462607
O O12 0.633105 0.807865 0.509326
O O13 0.433021 0.447135 0.064250
O O14 0.482232 0.798312 0.060465
O O15 0.401810 0.687678 0.158647
O O16 0.000000 0.000000 0.713606
#
# Coordination Sequence:
#
# PCOD9362268 Si02
#       7
#     8   8   8   8   8   8   8
#     4  10  21  36  57  90 119 153 208 260 299 357
#     4  11  21  34  60  87 121 159 203 248 307 371
#     4  11  19  34  58  90 117 158 202 253 304 368
#     4  10  21  38  62  88 116 159 211 257 302 369
#     4  10  18  35  59  88 118 161 195 248 314 374
#     4  10  16  32  60  80 112 151 202 244 295 357
#     4  10  21  33  55  90 128 154 196 254 313 368
#
# _framework density 20.742598000000001
#
# number of rings (size 3 to 8) (size 9 to 14) (size 15 to 20)
#    0.000    1.714    5.714    1.286    0.000    0.000 
#    0.000    2.857    0.000    0.000    0.000    0.000 
#    0.000    0.000    0.000    0.000    0.000    0.000 
#
# Total GULP energy -156032.440833 kJ/mol
# GULP energy per Si atom -5572.587173 kJ/mol
# Density = 2.069539 g / cm^3
# Si number density = 20.742598 Si / 1000 Ang^3
#
#
#
# Elastic Constant Matrix: (Units=GPa)
#
#
# Indices 1 2 3 4 5 6 
#
# 1 125.7367 9.2460 22.5862 0.0000 0.0000 0.0000
# 2 9.2460 56.7685 3.9897 0.0000 0.0000 0.0000
# 3 22.5862 3.9897 107.4395 0.0000 0.0000 0.0000
# 4 0.0000 0.0000 0.0000 26.4015 0.0000 0.0000
# 5 0.0000 0.0000 0.0000 0.0000 11.6653 0.0000
# 6 0.0000 0.0000 0.0000 0.0000 0.0000 28.7014
#
#
#
# Elastic Compliance Matrix: (Units=1/GPa)
#
#
# Indices 1 2 3 4 5 6 
#
# 1 0.008351 -0.001240 -0.001710 0.000000 0.000000 0.000000
# 2 -0.001240 0.017846 -0.000402 0.000000 0.000000 0.000000
# 3 -0.001710 -0.000402 0.009682 0.000000 0.000000 0.000000
# 4 0.000000 0.000000 0.000000 0.037877 0.000000 0.000000
# 5 0.000000 0.000000 0.000000 0.000000 0.085725 0.000000
# 6 0.000000 0.000000 0.000000 0.000000 0.000000 0.034842
#
#
# Mechanical properties :
#
#
# Convention : Reuss Voigt Hill
#
# Bulk Modulus (GPa) = 34.27519 40.17647 37.22583
# Shear Modulus (GPa) = 23.72478 30.29516 27.00997
#
# Velocity S-wave (km/s) = 3.38564 3.82583 3.61245
# Velocity P-wave (km/s) = 5.64299 6.23916 5.94855
#
# Compressibility (1/GPa) = 0.02917562
#
# Stress axis : x y z
#
# Youngs Moduli (GPa) = 119.74022 56.03614 103.28559
#
# Poissons Ratio (x) = 0.06949 0.17658
# Poissons Ratio (y) = 0.14848 0.04152
# Poissons Ratio (z) = 0.20471 0.02253
#
# Static dielectric constant tensor:
#      x y z
#    x 1.833970 0.000000 0.000000 
#    y 0.000000 1.840350 0.000000 
#    z 0.000000 0.000000 1.731990 
# 
# From -- ./inp_files/21527.got.cif
#   From: 2010.05.17/outbox.cif.g08.bks.cpg/sg40_11_cif.got.tgz:21527.got - 2010.06.03 18:35:42.
