data_PCOD9362793
_publ_section_title
;
Structure prediction by ZEFSAII (Michael W. Deem and Ramdas Pophale) SiO2 
 PCOD9362793
Probable space group: A M A 2
;
_chemical_formula_sum "Si O2"
_cell_formula_units_Z 56
_cell_length_a 14.416707
_cell_length_b 13.435647
_cell_length_c 15.037617
_cell_angle_alpha 90.000000
_cell_angle_beta 90.000000
_cell_angle_gamma 90.000000
_cell_volume 2912.753122
_symmetry_space_group_name_H-M "A M A 2"
_symmetry_group_IT_number 40
_symmetry_cell_setting 'orthorhombic'
loop_
_space_group_symop_operation_xyz
x,y,z
-x,-y,z
1/2-x,y,z
1/2+x,-y,z
x,1/2+y,1/2+z
-x,1/2-y,1/2+z
1/2-x,1/2+y,1/2+z
1/2+x,1/2-y,1/2+z
loop_
_atom_site_type_symbol
_atom_site_label
_atom_site_fract_x
_atom_site_fract_y
_atom_site_fract_z
Si Si1 0.099583 0.948395 0.322910
Si Si2 0.039254 0.158411 0.557014
Si Si3 0.524375 0.163610 0.915140
Si Si4 0.986665 0.237516 0.232398
Si Si5 0.352053 0.095393 0.168300
Si Si6 0.853523 0.043132 0.522525
Si Si7 0.141027 0.026704 0.970694
O O1 0.148064 0.937850 0.416808
O O2 0.080578 0.842877 0.277732
O O3 0.145696 0.020614 0.251366
O O4 0.000000 0.000000 0.342822
O O5 0.040218 0.243378 0.481281
O O6 0.060851 0.201334 0.654076
O O7 0.934877 0.113209 0.560227
O O8 0.109428 0.069343 0.534662
O O9 0.527693 0.198301 0.813216
O O10 0.423176 0.114875 0.932384
O O11 0.597833 0.076875 0.937254
O O12 0.068331 0.175091 0.184973
O O13 0.250000 0.141551 0.160549
O O14 0.370001 0.035271 0.077566
O O15 0.750000 0.057412 0.559107
O O16 0.250000 0.035798 0.949744
#
# Coordination Sequence:
#
# PCOD9362793 Si02
#       7
#     8   8   8   8   8   8   8
#     4  10  18  36  60  89 118 157 206 262 309 353
#     4  11  22  42  62  92 126 165 207 255 310 368
#     4  11  22  41  64  91 122 171 203 255 315 360
#     4  11  22  37  64  87 122 164 209 250 304 371
#     4  10  20  35  60  92 121 157 209 264 309 356
#     4  11  23  40  62  89 128 167 205 255 310 368
#     4  10  23  40  61  91 127 164 206 256 311 368
#
# _framework density 19.225797
#
# number of rings (size 3 to 8) (size 9 to 14) (size 15 to 20)
#    0.000    1.429    4.286    2.143    4.000    4.571 
#    0.000    3.571    0.000    0.000    0.000    0.000 
#    0.000    0.000    0.000    0.000    0.000    0.000 
#
# Total GULP energy -156390.018662 kJ/mol
# GULP energy per Si atom -5585.357809 kJ/mol
# Density = 1.918204 g / cm^3
# Si number density = 19.225797 Si / 1000 Ang^3
#
#
#
# Elastic Constant Matrix: (Units=GPa)
#
#
# Indices 1 2 3 4 5 6 
#
# 1 83.9085 5.0842 -1.2582 0.0000 0.0000 0.0000
# 2 5.0842 68.2903 18.3794 0.0000 0.0000 0.0000
# 3 -1.2582 18.3794 79.2421 0.0000 0.0000 0.0000
# 4 0.0000 0.0000 0.0000 33.8743 0.0000 0.0000
# 5 0.0000 0.0000 0.0000 0.0000 9.2078 0.0000
# 6 0.0000 0.0000 0.0000 0.0000 0.0000 2.8877
#
#
#
# Elastic Compliance Matrix: (Units=1/GPa)
#
#
# Indices 1 2 3 4 5 6 
#
# 1 0.011985 -0.001006 0.000424 0.000000 0.000000 0.000000
# 2 -0.001006 0.015703 -0.003658 0.000000 0.000000 0.000000
# 3 0.000424 -0.003658 0.013475 0.000000 0.000000 0.000000
# 4 0.000000 0.000000 0.000000 0.029521 0.000000 0.000000
# 5 0.000000 0.000000 0.000000 0.000000 0.108603 0.000000
# 6 0.000000 0.000000 0.000000 0.000000 0.000000 0.346295
#
#
# Mechanical properties :
#
#
# Convention : Reuss Voigt Hill
#
# Bulk Modulus (GPa) = 30.59860 30.65017 30.62439
# Shear Modulus (GPa) = 9.17503 23.14300 16.15901
#
# Velocity S-wave (km/s) = 2.18692 3.47327 2.90226
# Velocity P-wave (km/s) = 4.72512 5.66230 5.21480
#
# Compressibility (1/GPa) = 0.03268123
#
# Stress axis : x y z
#
# Youngs Moduli (GPa) = 83.43707 63.68291 74.21296
#
# Poissons Ratio (x) = 0.06409 -0.03144
# Poissons Ratio (y) = 0.08397 0.27148
# Poissons Ratio (z) = -0.03535 0.23296
#
# Static dielectric constant tensor:
#      x y z
#    x 1.680190 0.000000 0.000000 
#    y 0.000000 1.663180 0.000000 
#    z 0.000000 0.000000 1.657830 
# 
# From -- ./inp_files/17065.got.cif
#   From: 2010.05.17/outbox.cif.g08.bks.cpg/sg40_9_cif.got.tgz:17065.got - 2010.06.03 18:35:42.
