data_PCOD9362668
_publ_section_title
;
Structure prediction by ZEFSAII (Michael W. Deem and Ramdas Pophale) SiO2 
 PCOD9362668
Probable space group: A M A 2
;
_chemical_formula_sum "Si O2"
_cell_formula_units_Z 64
_cell_length_a 8.492150
_cell_length_b 14.451283
_cell_length_c 25.027962
_cell_angle_alpha 90.000000
_cell_angle_beta 90.000000
_cell_angle_gamma 90.000000
_cell_volume 3071.493139
_symmetry_space_group_name_H-M "A M A 2"
_symmetry_group_IT_number 40
_symmetry_cell_setting 'orthorhombic'
loop_
_space_group_symop_operation_xyz
x,y,z
-x,-y,z
1/2-x,y,z
1/2+x,-y,z
x,1/2+y,1/2+z
-x,1/2-y,1/2+z
1/2-x,1/2+y,1/2+z
1/2+x,1/2-y,1/2+z
loop_
_atom_site_type_symbol
_atom_site_label
_atom_site_fract_x
_atom_site_fract_y
_atom_site_fract_z
Si Si1 0.561849 0.718468 0.966000
Si Si2 0.062380 0.395118 0.414848
Si Si3 0.061585 0.106187 0.800603
Si Si4 0.436520 0.604767 0.866328
Si Si5 0.562742 0.605988 0.755249
Si Si6 0.558340 0.719051 0.084281
Si Si7 0.560190 0.605309 0.188556
Si Si8 0.937705 0.896490 0.142172
O O1 0.750000 0.707421 0.962001
O O2 0.517138 0.825343 0.956236
O O3 0.482279 0.660662 0.918934
O O4 0.507637 0.689599 0.025309
O O5 0.250000 0.394186 0.419763
O O6 0.000000 0.500000 0.420119
O O7 0.014367 0.359193 0.355556
O O8 0.250000 0.108344 0.805057
O O9 0.008556 0.146908 0.743756
O O10 0.000000 0.000000 0.798154
O O11 0.500000 0.500000 0.872190
O O12 0.250000 0.601900 0.859277
O O13 0.510675 0.646727 0.811997
O O14 0.500000 0.500000 0.757205
O O15 0.750000 0.606535 0.751534
O O16 0.491075 0.641794 0.700027
O O17 0.750000 0.717766 0.083796
O O18 0.509660 0.657144 0.134594
O O19 0.508797 0.823864 0.097686
O O20 0.500000 0.500000 0.184693
O O21 0.250000 0.393530 0.192415
O O22 0.750000 0.900635 0.142393
O O23 0.000000 0.000000 0.134950
#
# Coordination Sequence:
#
# PCOD9362668 Si02
#       8
#     8   8   8   8   8   8   8   8
#     4  11  23  42  61  84 115 152 198 247 288 339
#     4  11  22  39  61  88 118 154 192 237 291 347
#     4  10  18  32  55  86 117 149 185 231 284 343
#     4  11  22  39  61  88 118 154 192 237 291 347
#     4  10  18  32  55  86 117 149 185 231 284 343
#     4   9  22  40  59  80 111 150 192 235 282 335
#     4  10  19  36  58  84 114 149 186 230 283 340
#     4  10  19  36  58  84 114 149 186 230 283 340
#
# _framework density 20.836770000000001
#
# number of rings (size 3 to 8) (size 9 to 14) (size 15 to 20)
#    0.000    1.750    0.000    8.625    0.000    2.000 
#    0.000   13.750    0.000    0.000    0.000    0.000 
#    0.000    0.000    0.000    0.000    0.000    0.000 
#
# Total GULP energy -178821.131041 kJ/mol
# GULP energy per Si atom -5588.160345 kJ/mol
# Density = 2.078934 g / cm^3
# Si number density = 20.836770 Si / 1000 Ang^3
#
#
#
# Elastic Constant Matrix: (Units=GPa)
#
#
# Indices 1 2 3 4 5 6 
#
# 1 85.2885 -9.3555 -5.9266 0.0000 0.0000 0.0000
# 2 -9.3555 38.7490 -2.0617 0.0000 0.0000 0.0000
# 3 -5.9266 -2.0617 87.0103 0.0000 0.0000 0.0000
# 4 0.0000 0.0000 0.0000 29.7410 0.0000 0.0000
# 5 0.0000 0.0000 0.0000 0.0000 14.7799 0.0000
# 6 0.0000 0.0000 0.0000 0.0000 0.0000 19.0235
#
#
#
# Elastic Compliance Matrix: (Units=1/GPa)
#
#
# Indices 1 2 3 4 5 6 
#
# 1 0.012113 0.002972 0.000896 0.000000 0.000000 0.000000
# 2 0.002972 0.026569 0.000832 0.000000 0.000000 0.000000
# 3 0.000896 0.000832 0.011574 0.000000 0.000000 0.000000
# 4 0.000000 0.000000 0.000000 0.033624 0.000000 0.000000
# 5 0.000000 0.000000 0.000000 0.000000 0.067659 0.000000
# 6 0.000000 0.000000 0.000000 0.000000 0.000000 0.052566
#
#
# Mechanical properties :
#
#
# Convention : Reuss Voigt Hill
#
# Bulk Modulus (GPa) = 16.76299 19.59557 18.17928
# Shear Modulus (GPa) = 23.30016 27.93500 25.61758
#
# Velocity S-wave (km/s) = 3.34761 3.66547 3.51014
# Velocity P-wave (km/s) = 4.79629 5.22867 5.01714
#
# Compressibility (1/GPa) = 0.05965524
#
# Stress axis : x y z
#
# Youngs Moduli (GPa) = 82.55483 37.63785 86.40348
#
# Poissons Ratio (x) = -0.11187 -0.07737
# Poissons Ratio (y) = -0.24537 -0.07189
# Poissons Ratio (z) = -0.07393 -0.03132
#
# Static dielectric constant tensor:
#      x y z
#    x 1.698330 0.000000 0.000000 
#    y 0.000000 1.718300 0.000000 
#    z 0.000000 0.000000 1.770170 
# 
# From -- ./inp_files/24316.got.cif
#   From: 2010.05.17/outbox.cif.g08.bks.cpg/sg40_13_cif.got.tgz:24316.got - 2010.06.03 18:35:42.
