data_PCOD9362638
_publ_section_title
;
Structure prediction by ZEFSAII (Michael W. Deem and Ramdas Pophale) SiO2 
 PCOD9362638
Probable space group: A M A 2
;
_chemical_formula_sum "Si O2"
_cell_formula_units_Z 64
_cell_length_a 15.773544
_cell_length_b 9.249944
_cell_length_c 22.172931
_cell_angle_alpha 90.000000
_cell_angle_beta 90.000000
_cell_angle_gamma 90.000000
_cell_volume 3235.128165
_symmetry_space_group_name_H-M "A M A 2"
_symmetry_group_IT_number 40
_symmetry_cell_setting 'orthorhombic'
loop_
_space_group_symop_operation_xyz
x,y,z
-x,-y,z
1/2-x,y,z
1/2+x,-y,z
x,1/2+y,1/2+z
-x,1/2-y,1/2+z
1/2-x,1/2+y,1/2+z
1/2+x,1/2-y,1/2+z
loop_
_atom_site_type_symbol
_atom_site_label
_atom_site_fract_x
_atom_site_fract_y
_atom_site_fract_z
Si Si1 0.088713 0.078109 0.297910
Si Si2 0.921219 0.081162 0.617717
Si Si3 0.341141 0.314406 0.229700
Si Si4 0.852793 0.721354 0.407196
Si Si5 0.348538 0.790589 0.252243
Si Si6 0.960467 0.659482 0.632661
Si Si7 0.851565 0.319923 0.041302
Si Si8 0.847016 0.955954 0.837602
O O1 0.089224 0.193921 0.243304
O O2 0.115321 0.168116 0.356384
O O3 0.151544 0.950537 0.279652
O O4 0.000000 0.000000 0.305890
O O5 0.849828 0.106788 0.666612
O O6 0.963352 0.237121 0.607746
O O7 0.891498 0.972224 0.565397
O O8 0.000000 0.000000 0.649427
O O9 0.250000 0.240758 0.234112
O O10 0.345198 0.432619 0.281743
O O11 0.750000 0.715561 0.403039
O O12 0.875146 0.781044 0.472786
O O13 0.883574 0.557894 0.390552
O O14 0.250000 0.747630 0.237655
O O15 0.410359 0.794365 0.194183
O O16 0.383793 0.686231 0.305793
O O17 0.887892 0.691372 0.582888
O O18 0.000000 0.500000 0.637778
O O19 0.750000 0.329886 0.045976
O O20 0.750000 0.917577 0.854893
#
# Coordination Sequence:
#
# PCOD9362638 Si02
#       8
#     8   8   8   8   8   8   8   8
#     4  11  22  34  52  81 117 152 186 235 299 352
#     4  10  20  33  55  84 113 147 193 250 303 354
#     4  10  18  32  52  75 108 148 189 229 279 345
#     4   9  19  39  61  80 108 149 196 244 293 350
#     4  11  20  34  58  87 118 152 194 236 286 356
#     4  11  23  38  56  84 125 161 194 248 313 364
#     4  10  21  40  63  83 109 155 212 256 298 356
#     4   8  16  30  52  80 106 136 177 226 275 331
#
# _framework density 19.782834000000001
#
# number of rings (size 3 to 8) (size 9 to 14) (size 15 to 20)
#    0.000    2.000    0.000    6.000    0.000    2.500 
#    0.000    6.250    0.000    3.000    0.000    0.000 
#    0.000    0.000    0.000    0.000    0.000    0.750 
#
# Total GULP energy -178200.997930 kJ/mol
# GULP energy per Si atom -5568.781185 kJ/mol
# Density = 1.973781 g / cm^3
# Si number density = 19.782834 Si / 1000 Ang^3
#
#
#
# Elastic Constant Matrix: (Units=GPa)
#
#
# Indices 1 2 3 4 5 6 
#
# 1 61.3903 24.8000 24.3570 0.0000 0.0000 0.0000
# 2 24.8000 114.6565 50.6661 0.0000 0.0000 0.0000
# 3 24.3570 50.6661 118.9071 0.0000 0.0000 0.0000
# 4 0.0000 0.0000 0.0000 32.3564 0.0000 0.0000
# 5 0.0000 0.0000 0.0000 0.0000 20.7886 0.0000
# 6 0.0000 0.0000 0.0000 0.0000 0.0000 30.1451
#
#
#
# Elastic Compliance Matrix: (Units=1/GPa)
#
#
# Indices 1 2 3 4 5 6 
#
# 1 0.018462 -0.002861 -0.002563 0.000000 0.000000 0.000000
# 2 -0.002861 0.011188 -0.004181 0.000000 0.000000 0.000000
# 3 -0.002563 -0.004181 0.010717 0.000000 0.000000 0.000000
# 4 0.000000 0.000000 0.000000 0.030906 0.000000 0.000000
# 5 0.000000 0.000000 0.000000 0.000000 0.048103 0.000000
# 6 0.000000 0.000000 0.000000 0.000000 0.000000 0.033173
#
#
# Mechanical properties :
#
#
# Convention : Reuss Voigt Hill
#
# Bulk Modulus (GPa) = 47.26610 54.95558 51.11084
# Shear Modulus (GPa) = 27.96262 29.66673 28.81468
#
# Velocity S-wave (km/s) = 3.76371 3.87669 3.82062
# Velocity P-wave (km/s) = 6.54459 6.91940 6.73460
#
# Compressibility (1/GPa) = 0.02115681
#
# Stress axis : x y z
#
# Youngs Moduli (GPa) = 54.16631 89.38025 93.31403
#
# Poissons Ratio (x) = 0.25570 0.23914
# Poissons Ratio (y) = 0.15496 0.39017
# Poissons Ratio (z) = 0.13881 0.37372
#
# Static dielectric constant tensor:
#      x y z
#    x 1.757000 0.000000 0.000000 
#    y 0.000000 1.741270 0.000000 
#    z 0.000000 0.000000 1.707910 
# 
# From -- ./inp_files/24810.got.cif
#   From: 2010.05.17/outbox.cif.g08.bks.cpg/sg40_13_cif.got.tgz:24810.got - 2010.06.03 18:35:42.
