data_PCOD9362220
_publ_section_title
;
Structure prediction by ZEFSAII (Michael W. Deem and Ramdas Pophale) SiO2 
 PCOD9362220
Probable space group: A B M 2
;
_chemical_formula_sum "Si O2"
_cell_formula_units_Z 20
_cell_length_a 9.000000
_cell_length_b 9.000000
_cell_length_c 24.000000
_cell_angle_alpha 90.000000
_cell_angle_beta 90.000000
_cell_angle_gamma 90.000000
_cell_volume 1944.000000
_symmetry_space_group_name_H-M "A B M 2"
_symmetry_group_IT_number 39
_symmetry_cell_setting 'orthorhombic'
loop_
_space_group_symop_operation_xyz
x,y,z
-x,-y,z
-x,1/2+y,z
x,1/2-y,z
x,1/2+y,1/2+z
-x,1/2-y,1/2+z
-x,y,1/2+z
x,-y,1/2+z
loop_
_atom_site_type_symbol
_atom_site_label
_atom_site_fract_x
_atom_site_fract_y
_atom_site_fract_z
Si Si1 0.641419 0.415196 0.175280
Si Si2 0.851044 0.582134 0.781236
Si Si3 0.655900 0.426121 0.873165
Si Si4 0.152917 0.079209 0.093956
Si Si5 0.844912 0.922921 0.960715
O O1 0.500000 0.500000 0.197139
O O2 0.600334 0.250000 0.158016
O O3 0.755602 0.410562 0.225589
O O4 0.712123 0.499834 0.123728
O O5 0.875565 0.750000 0.801735
O O6 0.771030 0.486328 0.828089
O O7 0.000000 0.500000 0.766464
O O8 0.500000 0.500000 0.859562
O O9 0.645916 0.250000 0.872940
O O10 0.713424 0.487843 0.931969
O O11 0.145910 0.250000 0.110961
O O12 0.165990 0.070295 0.027372
O O13 0.000000 0.000000 0.110236
O O14 0.843372 0.750000 0.944170
O O15 0.000000 0.000000 0.944170
#
# Coordination Sequence:
#
# PCOD9362220 Si02
#       5
#     8   8   8   8   8
#     4  11  24  40  61  88 121 158 197 243 296 351
#     4  11  24  42  64  90 119 155 197 242 292 350
#     4  12  25  41  62  88 120 157 196 244 297 352
#     4  10  21  38  62  89 120 157 199 245 293 347
#     4  10  21  39  62  89 120 157 199 244 293 348
#
# _framework density 10.288066000000001
#
# number of rings (size 3 to 8) (size 9 to 14) (size 15 to 20)
#    0.000    1.200    0.000    6.000    0.000    9.600 
#    0.000    0.000    0.000    0.000    0.000    0.000 
#    0.000    0.000    0.000    0.000    0.000    0.000 
#
# Total GULP energy -111789.639940 kJ/mol
# GULP energy per Si atom -5589.481997 kJ/mol
# Density = 1.026465 g / cm^3
# Si number density = 10.288066 Si / 1000 Ang^3
#
#
#
# Elastic Constant Matrix: (Units=GPa)
#
#
# Indices 1 2 3 4 5 6 
#
# 1 87.6854 65.4441 20.2984 0.0000 0.0000 0.0000
# 2 65.4441 210.5610 44.1149 0.0000 0.0000 0.0000
# 3 20.2984 44.1149 25.5769 0.0000 0.0000 0.0000
# 4 0.0000 0.0000 0.0000 232.5125 0.0000 0.0000
# 5 0.0000 0.0000 0.0000 0.0000 -102.0849 0.0000
# 6 0.0000 0.0000 0.0000 0.0000 0.0000 22.4363
#
#
#
# Elastic Compliance Matrix: (Units=1/GPa)
#
#
# Indices 1 2 3 4 5 6 
#
# 1 0.015459 -0.003499 -0.006234 0.000000 0.000000 0.000000
# 2 -0.003499 0.008228 -0.011416 0.000000 0.000000 0.000000
# 3 -0.006234 -0.011416 0.063735 0.000000 0.000000 0.000000
# 4 0.000000 0.000000 0.000000 0.004301 0.000000 0.000000
# 5 0.000000 0.000000 0.000000 0.000000 -0.009796 0.000000
# 6 0.000000 0.000000 0.000000 0.000000 0.000000 0.044571
#
#
# Mechanical properties :
#
#
# Convention : Reuss Voigt Hill
#
# Bulk Modulus (GPa) = 22.16045 64.83758 43.49901
# Shear Modulus (GPa) = 27.19817 43.50383 35.35100
#
# Velocity S-wave (km/s) = 3.63964 4.60313 4.14944
# Velocity P-wave (km/s) = 5.33442 7.73506 6.64406
#
# Compressibility (1/GPa) = 0.04512543
#
# Stress axis : x y z
#
# Youngs Moduli (GPa) = 64.68844 121.53167 15.68999
#
# Poissons Ratio (x) = 0.42519 0.09781
# Poissons Ratio (y) = 0.22632 0.17911
# Poissons Ratio (z) = 0.40327 1.38736
#
# Static dielectric constant tensor:
#      x y z
#    x 1.705580 0.000000 0.000000 
#    y 0.000000 1.722900 0.000000 
#    z 0.000000 0.000000 1.709250 
# 
# From -- ./inp_files/15451.got.cif
#   From: 2010.05.17/outbox.ucp.g08.bks.cvg/sg39_8_cif.got.tgz:15451.got - 2010.06.11 10:41:16.
