data_PCOD9362161
_publ_section_title
;
Structure prediction by ZEFSAII (Michael W. Deem and Ramdas Pophale) SiO2 
 PCOD9362161
Probable space group: A B M 2
;
_chemical_formula_sum "Si O2"
_cell_formula_units_Z 32
_cell_length_a 11.110492
_cell_length_b 14.545803
_cell_length_c 7.963060
_cell_angle_alpha 90.000000
_cell_angle_beta 90.000000
_cell_angle_gamma 90.000000
_cell_volume 1286.918312
_symmetry_space_group_name_H-M "A B M 2"
_symmetry_group_IT_number 39
_symmetry_cell_setting 'orthorhombic'
loop_
_space_group_symop_operation_xyz
x,y,z
-x,-y,z
-x,1/2+y,z
x,1/2-y,z
x,1/2+y,1/2+z
-x,1/2-y,1/2+z
-x,y,1/2+z
x,-y,1/2+z
loop_
_atom_site_type_symbol
_atom_site_label
_atom_site_fract_x
_atom_site_fract_y
_atom_site_fract_z
Si Si1 0.237018 0.358245 0.951920
Si Si2 0.302701 0.349652 0.444062
Si Si3 0.858644 0.481442 0.143195
Si Si4 0.528397 0.607723 0.127913
O O1 0.206676 0.250000 0.948459
O O2 0.179999 0.415315 0.797445
O O3 0.191648 0.415427 0.115301
O O4 0.380589 0.368869 0.975077
O O5 0.245715 0.250000 0.423437
O O6 0.202998 0.424747 0.489499
O O7 0.394342 0.367585 0.291111
O O8 0.398854 0.347986 0.597740
O O9 0.000000 0.500000 0.138854
O O10 0.500000 0.500000 0.128231
#
# Coordination Sequence:
#
# PCOD9362161 Si02
#       4
#     8   8   8   8
#     4  12  27  50  81 117 157 209 268 331 406 481
#     4  12  25  45  79 121 165 215 270 337 412 490
#     4  12  28  52  80 113 161 218 273 336 395 474
#     4  12  25  46  77 121 167 209 261 340 421 488
#
# _framework density 24.865603
#
# number of rings (size 3 to 8) (size 9 to 14) (size 15 to 20)
#    0.000    0.000    2.500    7.500    0.000    2.000 
#    0.000    2.500    0.000    0.000    0.000    0.000 
#    0.000    0.000    0.000    0.000    0.000    0.000 
#
# Total GULP energy -89465.563829 kJ/mol
# GULP energy per Si atom -5591.597739 kJ/mol
# Density = 2.480901 g / cm^3
# Si number density = 24.865603 Si / 1000 Ang^3
#
#
#
# Elastic Constant Matrix: (Units=GPa)
#
#
# Indices 1 2 3 4 5 6 
#
# 1 173.3564 55.8634 35.8816 0.0000 0.0000 0.0000
# 2 55.8634 263.5863 44.2500 0.0000 0.0000 0.0000
# 3 35.8816 44.2500 140.0776 0.0000 0.0000 0.0000
# 4 0.0000 0.0000 0.0000 14.8179 0.0000 0.0000
# 5 0.0000 0.0000 0.0000 0.0000 25.8487 0.0000
# 6 0.0000 0.0000 0.0000 0.0000 0.0000 -20.5676
#
#
#
# Elastic Compliance Matrix: (Units=1/GPa)
#
#
# Indices 1 2 3 4 5 6 
#
# 1 0.006401 -0.001142 -0.001279 0.000000 0.000000 0.000000
# 2 -0.001142 0.004210 -0.001037 0.000000 0.000000 0.000000
# 3 -0.001279 -0.001037 0.007794 0.000000 0.000000 0.000000
# 4 0.000000 0.000000 0.000000 0.067486 0.000000 0.000000
# 5 0.000000 0.000000 0.000000 0.000000 0.038687 0.000000
# 6 0.000000 0.000000 0.000000 0.000000 0.000000 -0.048620
#
#
# Mechanical properties :
#
#
# Convention : Reuss Voigt Hill
#
# Bulk Modulus (GPa) = 87.04137 94.33447 90.68792
# Shear Modulus (GPa) = 57.66748 33.42149 45.54449
#
# Velocity S-wave (km/s) = 4.82100 3.67015 4.28439
# Velocity P-wave (km/s) = 8.12835 7.48199 7.81186
#
# Compressibility (1/GPa) = 0.01148879
#
# Stress axis : x y z
#
# Youngs Moduli (GPa) = 156.22151 237.52990 128.30005
#
# Poissons Ratio (x) = 0.27124 0.16409
# Poissons Ratio (y) = 0.17839 0.13310
# Poissons Ratio (z) = 0.19980 0.24642
#
# Static dielectric constant tensor:
#      x y z
#    x 1.953180 0.000000 0.000000 
#    y 0.000000 2.008220 0.000000 
#    z 0.000000 0.000000 2.323080 
# 
# From -- ./inp_files/2436.got.cif
#   From: 2010.05.17/outbox.cif.g08.bks.cpg/sg39_2_cif.got.tgz:2436.got - 2010.06.03 18:22:40.
