data_PCOD9362664
_publ_section_title
;
Structure prediction by ZEFSAII (Michael W. Deem and Ramdas Pophale) SiO2 
 PCOD9362664
Probable space group: A M A 2
;
_chemical_formula_sum "Si O2"
_cell_formula_units_Z 64
_cell_length_a 9.308631
_cell_length_b 19.576512
_cell_length_c 16.617229
_cell_angle_alpha 90.000000
_cell_angle_beta 90.000000
_cell_angle_gamma 90.000000
_cell_volume 3028.166389
_symmetry_space_group_name_H-M "A M A 2"
_symmetry_group_IT_number 40
_symmetry_cell_setting 'orthorhombic'
loop_
_space_group_symop_operation_xyz
x,y,z
-x,-y,z
1/2-x,y,z
1/2+x,-y,z
x,1/2+y,1/2+z
-x,1/2-y,1/2+z
1/2-x,1/2+y,1/2+z
1/2+x,1/2-y,1/2+z
loop_
_atom_site_type_symbol
_atom_site_label
_atom_site_fract_x
_atom_site_fract_y
_atom_site_fract_z
Si Si1 0.076201 0.344624 0.863050
Si Si2 0.585057 0.297839 0.432795
Si Si3 0.909862 0.062623 0.950487
Si Si4 0.423104 0.926599 0.199943
Si Si5 0.906849 0.058596 0.762882
Si Si6 0.584246 0.815019 0.115932
Si Si7 0.923189 0.177099 0.668041
Si Si8 0.423494 0.927078 0.523482
O O1 0.250000 0.339940 0.864128
O O2 0.027197 0.266806 0.882542
O O3 0.036889 0.382154 0.779979
O O4 0.034727 0.392316 0.938471
O O5 0.750000 0.313434 0.407853
O O6 0.493099 0.366523 0.440023
O O7 0.590625 0.279977 0.527974
O O8 0.750000 0.069118 0.985568
O O9 0.891329 0.043774 0.856253
O O10 0.000000 0.000000 0.987523
O O11 0.250000 0.933306 0.196455
O O12 0.486840 0.881552 0.126508
O O13 0.500000 0.000000 0.203131
O O14 0.750000 0.056279 0.724903
O O15 0.965123 0.133778 0.746320
O O16 0.000000 0.000000 0.724743
O O17 0.750000 0.833566 0.136420
O O18 0.518385 0.753312 0.167940
O O19 0.750000 0.187717 0.666086
O O20 0.960724 0.127120 0.594094
O O21 0.250000 0.935446 0.523895
O O22 0.500000 0.000000 0.532258
#
# Coordination Sequence:
#
# PCOD9362664 Si02
#       8
#     8   8   8   8   8   8   8   8
#     4   9  19  37  60  86 117 153 193 238 294 354
#     4  10  20  38  62  86 113 151 194 241 296 353
#     4  10  21  36  55  82 113 148 187 234 286 343
#     4  11  24  42  63  89 121 157 199 248 298 353
#     4   9  18  32  50  76 110 145 181 220 267 325
#     4  10  21  39  63  86 112 151 195 238 289 347
#     4   9  17  32  54  79 111 150 187 226 276 339
#     4  10  18  32  55  82 113 151 190 229 280 344
#
# _framework density 21.134900999999999
#
# number of rings (size 3 to 8) (size 9 to 14) (size 15 to 20)
#    0.000    2.250    1.250    1.500    1.750    1.500 
#    0.000    3.125    0.000    0.000    0.000    0.000 
#    0.000    0.000    0.000    0.000    0.000    0.000 
#
# Total GULP energy -178324.413085 kJ/mol
# GULP energy per Si atom -5572.637909 kJ/mol
# Density = 2.108680 g / cm^3
# Si number density = 21.134901 Si / 1000 Ang^3
#
#
#
# Elastic Constant Matrix: (Units=GPa)
#
#
# Indices 1 2 3 4 5 6 
#
# 1 69.9820 63.1294 1.6241 0.0000 0.0000 0.0000
# 2 63.1294 177.2730 9.3618 0.0000 0.0000 0.0000
# 3 1.6241 9.3618 46.4553 0.0000 0.0000 0.0000
# 4 0.0000 0.0000 0.0000 35.3979 0.0000 0.0000
# 5 0.0000 0.0000 0.0000 0.0000 12.7361 0.0000
# 6 0.0000 0.0000 0.0000 0.0000 0.0000 34.5581
#
#
#
# Elastic Compliance Matrix: (Units=1/GPa)
#
#
# Indices 1 2 3 4 5 6 
#
# 1 0.021081 -0.007548 0.000784 0.000000 0.000000 0.000000
# 2 -0.007548 0.008405 -0.001430 0.000000 0.000000 0.000000
# 3 0.000784 -0.001430 0.021787 0.000000 0.000000 0.000000
# 4 0.000000 0.000000 0.000000 0.028250 0.000000 0.000000
# 5 0.000000 0.000000 0.000000 0.000000 0.078517 0.000000
# 6 0.000000 0.000000 0.000000 0.000000 0.000000 0.028937
#
#
# Mechanical properties :
#
#
# Convention : Reuss Voigt Hill
#
# Bulk Modulus (GPa) = 28.66664 49.10456 38.88560
# Shear Modulus (GPa) = 23.25666 31.17808 27.21737
#
# Velocity S-wave (km/s) = 3.32081 3.84499 3.59248
# Velocity P-wave (km/s) = 5.31948 6.55715 5.97047
#
# Compressibility (1/GPa) = 0.03488375
#
# Stress axis : x y z
#
# Youngs Moduli (GPa) = 47.43708 118.98170 45.89936
#
# Poissons Ratio (x) = 0.89813 -0.03599
# Poissons Ratio (y) = 0.35808 0.06563
# Poissons Ratio (z) = -0.03720 0.17012
#
# Static dielectric constant tensor:
#      x y z
#    x 1.771180 0.000000 0.000000 
#    y 0.000000 1.793470 0.000000 
#    z 0.000000 0.000000 1.861530 
# 
# From -- ./inp_files/22405.got.cif
#   From: 2010.05.17/outbox.cif.g08.bks.cpg/sg40_12_cif.got.tgz:22405.got - 2010.06.03 18:35:42.
