data_PCOD9363306
_publ_section_title
;
Structure prediction by ZEFSAII (Michael W. Deem and Ramdas Pophale) SiO2 
 PCOD9363306
Probable space group: A M A 2
;
_chemical_formula_sum "Si O2"
_cell_formula_units_Z 40
_cell_length_a 8.859165
_cell_length_b 17.917553
_cell_length_c 13.020238
_cell_angle_alpha 90.000000
_cell_angle_beta 90.000000
_cell_angle_gamma 90.000000
_cell_volume 2066.761729
_symmetry_space_group_name_H-M "A M A 2"
_symmetry_group_IT_number 40
_symmetry_cell_setting 'orthorhombic'
loop_
_space_group_symop_operation_xyz
x,y,z
-x,-y,z
1/2-x,y,z
1/2+x,-y,z
x,1/2+y,1/2+z
-x,1/2-y,1/2+z
1/2-x,1/2+y,1/2+z
1/2+x,1/2-y,1/2+z
loop_
_atom_site_type_symbol
_atom_site_label
_atom_site_fract_x
_atom_site_fract_y
_atom_site_fract_z
Si Si1 0.567188 0.085157 0.209510
Si Si2 0.570850 0.581561 0.298954
Si Si3 0.074600 0.174354 0.400231
Si Si4 0.432592 0.329250 0.500336
Si Si5 0.922233 0.420733 0.104760
O O1 0.750000 0.078922 0.210144
O O2 0.512471 0.134138 0.307311
O O3 0.519446 0.132659 0.107545
O O4 0.500000 0.000000 0.210269
O O5 0.500000 0.500000 0.295272
O O6 0.750000 0.579693 0.291160
O O7 0.530342 0.615364 0.407797
O O8 0.505564 0.621796 0.197723
O O9 0.250000 0.187680 0.367601
O O10 0.012844 0.250297 0.453136
O O11 0.075406 0.119358 0.496763
O O12 0.250000 0.321005 0.509597
O O13 0.750000 0.431236 0.137253
O O14 0.000000 0.500000 0.089456
#
# Coordination Sequence:
#
# PCOD9363306 Si02
#       5
#     8   8   8   8   8
#     4  11  23  41  65  91 122 162 206 249 300 362
#     4  10  19  34  57  82 112 148 188 233 285 346
#     4  10  22  40  60  85 120 156 195 247 300 350
#     4   9  21  39  59  85 120 156 192 244 301 349
#     4  10  20  34  56  81 112 148 187 234 286 342
#
# _framework density 19.353947999999999
#
# number of rings (size 3 to 8) (size 9 to 14) (size 15 to 20)
#    0.000    2.000    0.000    4.200    2.800    3.200 
#    0.000    6.000    0.000    0.000    0.000    0.000 
#    0.000    0.000    0.000    0.000    0.000    0.000 
#
# Total GULP energy -111411.728129 kJ/mol
# GULP energy per Si atom -5570.586406 kJ/mol
# Density = 1.930990 g / cm^3
# Si number density = 19.353948 Si / 1000 Ang^3
#
#
#
# Elastic Constant Matrix: (Units=GPa)
#
#
# Indices 1 2 3 4 5 6 
#
# 1 63.1321 32.2678 45.8102 0.0000 0.0000 0.0000
# 2 32.2678 107.1672 63.6053 0.0000 0.0000 0.0000
# 3 45.8102 63.6053 164.8170 0.0000 0.0000 0.0000
# 4 0.0000 0.0000 0.0000 22.9939 0.0000 0.0000
# 5 0.0000 0.0000 0.0000 0.0000 53.8888 0.0000
# 6 0.0000 0.0000 0.0000 0.0000 0.0000 11.1730
#
#
#
# Elastic Compliance Matrix: (Units=1/GPa)
#
#
# Indices 1 2 3 4 5 6 
#
# 1 0.020910 -0.003692 -0.004387 0.000000 0.000000 0.000000
# 2 -0.003692 0.012755 -0.003896 0.000000 0.000000 0.000000
# 3 -0.004387 -0.003896 0.008790 0.000000 0.000000 0.000000
# 4 0.000000 0.000000 0.000000 0.043490 0.000000 0.000000
# 5 0.000000 0.000000 0.000000 0.000000 0.018557 0.000000
# 6 0.000000 0.000000 0.000000 0.000000 0.000000 0.089502
#
#
# Mechanical properties :
#
#
# Convention : Reuss Voigt Hill
#
# Bulk Modulus (GPa) = 54.03962 68.72031 61.37996
# Shear Modulus (GPa) = 22.30910 30.50666 26.40788
#
# Velocity S-wave (km/s) = 3.39881 3.97451 3.69788
# Velocity P-wave (km/s) = 6.58672 7.52639 7.07218
#
# Compressibility (1/GPa) = 0.01850494
#
# Stress axis : x y z
#
# Youngs Moduli (GPa) = 47.82323 78.39788 113.76162
#
# Poissons Ratio (x) = 0.28947 0.49907
# Poissons Ratio (y) = 0.17658 0.44324
# Poissons Ratio (z) = 0.20980 0.30546
#
# Static dielectric constant tensor:
#      x y z
#    x 1.674280 0.000000 0.000000 
#    y 0.000000 1.849590 0.000000 
#    z 0.000000 0.000000 1.729920 
# 
# From -- ./inp_files/10020.got.cif
#   From: 2010.05.17/outbox.cif.g08.bks.cpg/sg40_6_cif.got.tgz:10020.got - 2010.06.03 18:35:42.
