data_PCOD9363445
_publ_section_title
;
Structure prediction by ZEFSAII (Michael W. Deem and Ramdas Pophale) SiO2 
 PCOD9363445
Probable space group: A M A 2
;
_chemical_formula_sum "Si O2"
_cell_formula_units_Z 60
_cell_length_a 24.243215
_cell_length_b 8.437041
_cell_length_c 15.771716
_cell_angle_alpha 90.000000
_cell_angle_beta 90.000000
_cell_angle_gamma 90.000000
_cell_volume 3225.962545
_symmetry_space_group_name_H-M "A M A 2"
_symmetry_group_IT_number 40
_symmetry_cell_setting 'orthorhombic'
loop_
_space_group_symop_operation_xyz
x,y,z
-x,-y,z
1/2-x,y,z
1/2+x,-y,z
x,1/2+y,1/2+z
-x,1/2-y,1/2+z
1/2-x,1/2+y,1/2+z
1/2+x,1/2-y,1/2+z
loop_
_atom_site_type_symbol
_atom_site_label
_atom_site_fract_x
_atom_site_fract_y
_atom_site_fract_z
Si Si1 0.313363 0.758860 0.164450
Si Si2 0.811039 0.085746 0.978553
Si Si3 0.987142 0.686466 0.813830
Si Si4 0.390961 0.503349 0.089080
Si Si5 0.500000 0.500000 0.196919
Si Si6 0.864644 0.089137 0.328075
Si Si7 0.405159 0.202532 0.415275
Si Si8 0.188859 0.288962 0.994579
O O1 0.250000 0.721303 0.185694
O O2 0.350504 0.605118 0.148639
O O3 0.340196 0.863466 0.238145
O O4 0.313900 0.848282 0.074282
O O5 0.750000 0.134774 0.944549
O O6 0.863957 0.151671 0.929027
O O7 0.812698 0.897919 0.983303
O O8 0.923434 0.676883 0.841917
O O9 0.000000 0.500000 0.785575
O O10 0.992323 0.835429 0.749674
O O11 0.031780 0.725295 0.887087
O O12 0.446762 0.474058 0.138574
O O13 0.403158 0.603431 0.003057
O O14 0.357663 0.350687 0.057903
O O15 0.823465 0.136197 0.403018
O O16 0.878521 0.905376 0.341546
O O17 0.250000 0.338638 0.023622
#
# Coordination Sequence:
#
# PCOD9363445 Si02
#       8
#     8   8   8   8   4   8   8   8
#     4  10  19  36  58  83 116 150 190 239 292 353
#     4   9  20  37  58  87 119 150 196 245 297 361
#     4  10  23  41  60  86 124 157 198 253 295 358
#     4  10  22  38  59  85 114 155 201 241 296 358
#     4  12  24  40  64  86 120 160 202 248 304 350
#     4  10  20  36  58  85 114 153 196 239 298 352
#     4   9  21  38  61  79 120 155 197 245 298 349
#     4  10  21  37  58  86 118 152 195 246 295 355
#
# _framework density 18.5991
#
# number of rings (size 3 to 8) (size 9 to 14) (size 15 to 20)
#    0.000    2.133    1.333    0.800    6.533    5.867 
#    0.000    0.000    0.000    4.000    0.000    0.000 
#    0.000    0.000    0.000    0.000    0.000    0.000 
#
# Total GULP energy -167218.167922 kJ/mol
# GULP energy per Si atom -5573.938931 kJ/mol
# Density = 1.855677 g / cm^3
# Si number density = 18.599100 Si / 1000 Ang^3
#
#
#
# Elastic Constant Matrix: (Units=GPa)
#
#
# Indices 1 2 3 4 5 6 
#
# 1 149.4580 30.8960 41.8166 0.0000 0.0000 0.0000
# 2 30.8960 46.9746 16.3515 0.0000 0.0000 0.0000
# 3 41.8166 16.3515 46.7736 0.0000 0.0000 0.0000
# 4 0.0000 0.0000 0.0000 23.7889 0.0000 0.0000
# 5 0.0000 0.0000 0.0000 0.0000 35.5026 0.0000
# 6 0.0000 0.0000 0.0000 0.0000 0.0000 -5.0847
#
#
#
# Elastic Compliance Matrix: (Units=1/GPa)
#
#
# Indices 1 2 3 4 5 6 
#
# 1 0.009465 -0.003734 -0.007157 0.000000 0.000000 0.000000
# 2 -0.003734 0.025711 -0.005650 0.000000 0.000000 0.000000
# 3 -0.007157 -0.005650 0.029753 0.000000 0.000000 0.000000
# 4 0.000000 0.000000 0.000000 0.042036 0.000000 0.000000
# 5 0.000000 0.000000 0.000000 0.000000 0.028167 0.000000
# 6 0.000000 0.000000 0.000000 0.000000 0.000000 -0.196669
#
#
# Mechanical properties :
#
#
# Convention : Reuss Voigt Hill
#
# Bulk Modulus (GPa) = 31.39949 46.81491 39.10720
# Shear Modulus (GPa) = -280.27162 21.11749 -129.57707
#
# Velocity S-wave (km/s) = -12.28894 3.37323 -8.35582
# Velocity P-wave (km/s) = 13.58082 6.35584 8.48651
#
# Compressibility (1/GPa) = 0.03184766
#
# Stress axis : x y z
#
# Youngs Moduli (GPa) = 105.65128 38.89418 33.61029
#
# Poissons Ratio (x) = 0.14524 0.24053
# Poissons Ratio (y) = 0.39452 0.18989
# Poissons Ratio (z) = 0.75610 0.21974
#
# Static dielectric constant tensor:
#      x y z
#    x 1.660640 0.000000 0.000000 
#    y 0.000000 1.658790 0.000000 
#    z 0.000000 0.000000 1.622060 
# 
# From -- ./inp_files/18473.got.cif
#   From: 2010.05.17/outbox.cif.g08.bks.cpg/sg40_10_cif.got.tgz:18473.got - 2010.06.03 18:35:42.
