data_PCOD9363433
_publ_section_title
;
Structure prediction by ZEFSAII (Michael W. Deem and Ramdas Pophale) SiO2 
 PCOD9363433
Probable space group: A M A 2
;
_chemical_formula_sum "Si O2"
_cell_formula_units_Z 36
_cell_length_a 15.884041
_cell_length_b 12.332605
_cell_length_c 8.620288
_cell_angle_alpha 90.000000
_cell_angle_beta 90.000000
_cell_angle_gamma 90.000000
_cell_volume 1688.642039
_symmetry_space_group_name_H-M "A M A 2"
_symmetry_group_IT_number 40
_symmetry_cell_setting 'orthorhombic'
loop_
_space_group_symop_operation_xyz
x,y,z
-x,-y,z
1/2-x,y,z
1/2+x,-y,z
x,1/2+y,1/2+z
-x,1/2-y,1/2+z
1/2-x,1/2+y,1/2+z
1/2+x,1/2-y,1/2+z
loop_
_atom_site_type_symbol
_atom_site_label
_atom_site_fract_x
_atom_site_fract_y
_atom_site_fract_z
Si Si1 0.342290 0.949814 0.713690
Si Si2 0.397537 0.484326 0.863549
Si Si3 0.944216 0.188033 0.140821
Si Si4 0.393288 0.222040 0.333733
Si Si5 0.500000 0.500000 0.414696
O O1 0.250000 0.996317 0.744770
O O2 0.343290 0.824274 0.769492
O O3 0.417192 0.005555 0.809270
O O4 0.362838 0.957020 0.532103
O O5 0.500000 0.500000 0.874481
O O6 0.383452 0.385591 0.745560
O O7 0.364074 0.599708 0.802115
O O8 0.014871 0.236105 0.253288
O O9 0.901970 0.269715 0.020547
O O10 0.990244 0.102718 0.026572
#
# Coordination Sequence:
#
# PCOD9363433 Si02
#       5
#     8   8   8   8   4
#     4  11  24  40  61  93 128 165 216 264 312 380
#     4  10  19  39  62  90 122 164 205 253 318 366
#     4  10  19  35  66  96 119 162 209 253 312 385
#     4  10  20  35  62  89 124 156 206 252 318 365
#     4  10  20  40  66  88 128 166 204 266 314 370
#
# _framework density 21.318904
#
# number of rings (size 3 to 8) (size 9 to 14) (size 15 to 20)
#    0.000    1.778    4.444    2.667    3.111    0.889 
#    0.000    5.556    0.000    0.000    0.000    0.000 
#    0.000    0.000    0.000    0.000    0.000    0.000 
#
# Total GULP energy -100513.205905 kJ/mol
# GULP energy per Si atom -5584.066995 kJ/mol
# Density = 2.127038 g / cm^3
# Si number density = 21.318904 Si / 1000 Ang^3
#
#
#
# Elastic Constant Matrix: (Units=GPa)
#
#
# Indices 1 2 3 4 5 6 
#
# 1 77.9483 10.4542 26.9450 0.0000 0.0000 0.0000
# 2 10.4542 27.8692 9.5807 0.0000 0.0000 0.0000
# 3 26.9450 9.5807 114.9719 0.0000 0.0000 0.0000
# 4 0.0000 0.0000 0.0000 37.0943 0.0000 0.0000
# 5 0.0000 0.0000 0.0000 0.0000 2.0597 0.0000
# 6 0.0000 0.0000 0.0000 0.0000 0.0000 19.9328
#
#
#
# Elastic Compliance Matrix: (Units=1/GPa)
#
#
# Indices 1 2 3 4 5 6 
#
# 1 0.014463 -0.004386 -0.003024 0.000000 0.000000 0.000000
# 2 -0.004386 0.038270 -0.002161 0.000000 0.000000 0.000000
# 3 -0.003024 -0.002161 0.009587 0.000000 0.000000 0.000000
# 4 0.000000 0.000000 0.000000 0.026958 0.000000 0.000000
# 5 0.000000 0.000000 0.000000 0.000000 0.485515 0.000000
# 6 0.000000 0.000000 0.000000 0.000000 0.000000 0.050169
#
#
# Mechanical properties :
#
#
# Convention : Reuss Voigt Hill
#
# Bulk Modulus (GPa) = 23.16027 34.97212 29.06619
# Shear Modulus (GPa) = 7.59307 23.40464 15.49886
#
# Velocity S-wave (km/s) = 1.88928 3.31695 2.69922
# Velocity P-wave (km/s) = 3.95557 5.57759 4.83508
#
# Compressibility (1/GPa) = 0.04317740
#
# Stress axis : x y z
#
# Youngs Moduli (GPa) = 69.14419 26.13018 104.31237
#
# Poissons Ratio (x) = 0.11460 0.31544
# Poissons Ratio (y) = 0.30324 0.22545
# Poissons Ratio (z) = 0.20909 0.05647
#
# Static dielectric constant tensor:
#      x y z
#    x 1.776230 0.000000 0.000000 
#    y 0.000000 1.828570 0.000000 
#    z 0.000000 0.000000 1.762740 
# 
# From -- ./inp_files/7255.got.cif
#   From: 2010.05.17/outbox.cif.g08.bks.cpg/sg40_4_cif.got.tgz:7255.got - 2010.06.03 18:35:42.
