data_PCOD9363730
_publ_section_title
;
Structure prediction by ZEFSAII (Michael W. Deem and Ramdas Pophale) SiO2 
 PCOD9363730
Probable space group: A M A 2
;
_chemical_formula_sum "Si O2"
_cell_formula_units_Z 60
_cell_length_a 9.676699
_cell_length_b 15.414872
_cell_length_c 18.472189
_cell_angle_alpha 90.000000
_cell_angle_beta 90.000000
_cell_angle_gamma 90.000000
_cell_volume 2755.405485
_symmetry_space_group_name_H-M "A M A 2"
_symmetry_group_IT_number 40
_symmetry_cell_setting 'orthorhombic'
loop_
_space_group_symop_operation_xyz
x,y,z
-x,-y,z
1/2-x,y,z
1/2+x,-y,z
x,1/2+y,1/2+z
-x,1/2-y,1/2+z
1/2-x,1/2+y,1/2+z
1/2+x,1/2-y,1/2+z
loop_
_atom_site_type_symbol
_atom_site_label
_atom_site_fract_x
_atom_site_fract_y
_atom_site_fract_z
Si Si1 0.084119 0.085213 0.848410
Si Si2 0.592871 0.416417 0.113250
Si Si3 0.094185 0.419837 0.719941
Si Si4 0.917430 0.775371 0.730096
Si Si5 0.594411 0.300602 0.973710
Si Si6 0.750000 0.483065 0.561908
Si Si7 0.498411 0.385876 0.515824
Si Si8 0.404929 0.919663 0.393618
O O1 0.250000 0.072018 0.841290
O O2 0.044991 0.171607 0.802964
O O3 0.047900 0.096503 0.932854
O O4 0.000000 0.000000 0.822403
O O5 0.500000 0.500000 0.117175
O O6 0.750000 0.438152 0.134653
O O7 0.544087 0.341073 0.166854
O O8 0.594883 0.375373 0.033969
O O9 0.250000 0.432847 0.686800
O O10 0.037356 0.322548 0.711365
O O11 0.106743 0.425747 0.806960
O O12 0.000000 0.500000 0.696915
O O13 0.750000 0.765591 0.732805
O O14 0.750000 0.292645 0.943252
O O15 0.552526 0.212683 0.013353
O O16 0.482559 0.332033 0.915615
O O17 0.627973 0.407572 0.565780
O O18 0.628632 0.553703 0.538057
O O19 0.250000 0.923805 0.424247
O O20 0.500000 0.000000 0.416393
#
# Coordination Sequence:
#
# PCOD9363730 Si02
#       8
#     8   8   8   8   8   4   8   8
#     4  11  19  31  52  82 113 143 177 218 268 328
#     4  10  22  42  60  79 107 143 180 226 269 314
#     4   9  18  35  57  81 110 140 173 219 270 325
#     4   9  19  35  58  79 105 143 184 216 266 324
#     4  11  23  35  55  79 109 144 191 227 270 321
#     4  10  20  34  54  74 116 148 178 218 280 320
#     4  11  19  35  52  81 111 149 177 225 271 336
#     4  10  20  34  54  83 113 144 178 219 275 330
#
# _framework density 21.775379000000001
#
# number of rings (size 3 to 8) (size 9 to 14) (size 15 to 20)
#    0.000    1.867    2.667    2.000    0.933    3.200 
#    0.000    1.333    2.933    0.000    0.000    0.000 
#    0.000    0.000    0.000    0.000    0.000    0.000 
#
# Total GULP energy -167134.097466 kJ/mol
# GULP energy per Si atom -5571.136582 kJ/mol
# Density = 2.172582 g / cm^3
# Si number density = 21.775379 Si / 1000 Ang^3
#
#
#
# Elastic Constant Matrix: (Units=GPa)
#
#
# Indices 1 2 3 4 5 6 
#
# 1 157.2893 75.2544 20.9412 0.0000 0.0000 0.0000
# 2 75.2544 182.9957 19.1034 0.0000 0.0000 0.0000
# 3 20.9412 19.1034 43.6454 0.0000 0.0000 0.0000
# 4 0.0000 0.0000 0.0000 2.6110 0.0000 0.0000
# 5 0.0000 0.0000 0.0000 0.0000 21.2461 0.0000
# 6 0.0000 0.0000 0.0000 0.0000 0.0000 35.2287
#
#
#
# Elastic Compliance Matrix: (Units=1/GPa)
#
#
# Indices 1 2 3 4 5 6 
#
# 1 0.008181 -0.003096 -0.002570 0.000000 0.000000 0.000000
# 2 -0.003096 0.006898 -0.001534 0.000000 0.000000 0.000000
# 3 -0.002570 -0.001534 0.024816 0.000000 0.000000 0.000000
# 4 0.000000 0.000000 0.000000 0.382996 0.000000 0.000000
# 5 0.000000 0.000000 0.000000 0.000000 0.047068 0.000000
# 6 0.000000 0.000000 0.000000 0.000000 0.000000 0.028386
#
#
# Mechanical properties :
#
#
# Convention : Reuss Voigt Hill
#
# Bulk Modulus (GPa) = 39.22251 68.28094 53.75173
# Shear Modulus (GPa) = 9.59244 29.72590 19.65917
#
# Velocity S-wave (km/s) = 2.10113 3.69875 3.00795
# Velocity P-wave (km/s) = 4.89262 7.04742 6.06646
#
# Compressibility (1/GPa) = 0.02549556
#
# Stress axis : x y z
#
# Youngs Moduli (GPa) = 122.23103 144.97070 40.29589
#
# Poissons Ratio (x) = 0.44884 0.10357
# Poissons Ratio (y) = 0.37844 0.06180
# Poissons Ratio (z) = 0.31416 0.22234
#
# Static dielectric constant tensor:
#      x y z
#    x 1.771090 0.000000 0.000000 
#    y 0.000000 1.818030 0.000000 
#    z 0.000000 0.000000 1.916610 
# 
# From -- ./inp_files/24196.got.cif
#   From: 2010.05.17/outbox.cif.g08.bks.cpg/sg40_13_cif.got.tgz:24196.got - 2010.06.03 18:35:42.
