data_PCOD9363375
_publ_section_title
;
Structure prediction by ZEFSAII (Michael W. Deem and Ramdas Pophale) SiO2 
 PCOD9363375
Probable space group: A M A 2
;
_chemical_formula_sum "Si O2"
_cell_formula_units_Z 48
_cell_length_a 18.597361
_cell_length_b 15.688396
_cell_length_c 8.053352
_cell_angle_alpha 90.000000
_cell_angle_beta 90.000000
_cell_angle_gamma 90.000000
_cell_volume 2349.668238
_symmetry_space_group_name_H-M "A M A 2"
_symmetry_group_IT_number 40
_symmetry_cell_setting 'orthorhombic'
loop_
_space_group_symop_operation_xyz
x,y,z
-x,-y,z
1/2-x,y,z
1/2+x,-y,z
x,1/2+y,1/2+z
-x,1/2-y,1/2+z
1/2-x,1/2+y,1/2+z
1/2+x,1/2-y,1/2+z
loop_
_atom_site_type_symbol
_atom_site_label
_atom_site_fract_x
_atom_site_fract_y
_atom_site_fract_z
Si Si1 0.055332 0.784664 0.231030
Si Si2 0.921289 0.529990 0.714171
Si Si3 0.330945 0.122036 0.264965
Si Si4 0.333313 0.647020 0.366273
Si Si5 0.406526 0.286368 0.348662
Si Si6 0.836007 0.543137 0.371038
O O1 0.067822 0.879528 0.303849
O O2 0.112073 0.717396 0.301991
O O3 0.975303 0.749342 0.252750
O O4 0.067212 0.797183 0.036183
O O5 0.886781 0.451572 0.814348
O O6 0.866816 0.541471 0.559457
O O7 0.000000 0.500000 0.653070
O O8 0.250000 0.093355 0.297900
O O9 0.347578 0.211970 0.348343
O O10 0.338187 0.139865 0.066809
O O11 0.250000 0.666629 0.325034
O O12 0.350820 0.551529 0.301457
O O13 0.374324 0.375965 0.287691
O O14 0.750000 0.554379 0.374084
#
# Coordination Sequence:
#
# PCOD9363375 Si02
#       6
#     8   8   8   8   8   8
#     4  11  23  36  59  85 117 151 194 242 285 342
#     4  10  19  35  57  84 113 151 196 234 277 344
#     4  10  20  38  62  84 114 151 190 236 292 344
#     4   9  20  38  59  84 114 148 189 236 287 343
#     4  11  22  37  58  86 118 151 196 241 288 342
#     4   9  20  36  59  85 111 150 196 237 280 345
#
# _framework density 20.428415000000001
#
# number of rings (size 3 to 8) (size 9 to 14) (size 15 to 20)
#    0.000    2.000    1.667    3.000    7.000    4.000 
#    0.000    5.000    0.000    0.000    0.000    0.000 
#    0.000    0.000    0.000    0.000    0.000    0.000 
#
# Total GULP energy -133909.129180 kJ/mol
# GULP energy per Si atom -5579.547049 kJ/mol
# Density = 2.038192 g / cm^3
# Si number density = 20.428415 Si / 1000 Ang^3
#
#
#
# Elastic Constant Matrix: (Units=GPa)
#
#
# Indices 1 2 3 4 5 6 
#
# 1 104.5483 52.1088 2.7602 0.0000 0.0000 0.0000
# 2 52.1088 141.0638 -1.2474 0.0000 0.0000 0.0000
# 3 2.7602 -1.2474 6.5993 0.0000 0.0000 0.0000
# 4 0.0000 0.0000 0.0000 19.7362 0.0000 0.0000
# 5 0.0000 0.0000 0.0000 0.0000 25.2601 0.0000
# 6 0.0000 0.0000 0.0000 0.0000 0.0000 41.3156
#
#
#
# Elastic Compliance Matrix: (Units=1/GPa)
#
#
# Indices 1 2 3 4 5 6 
#
# 1 0.011944 -0.004464 -0.005839 0.000000 0.000000 0.000000
# 2 -0.004464 0.008769 0.003524 0.000000 0.000000 0.000000
# 3 -0.005839 0.003524 0.154639 0.000000 0.000000 0.000000
# 4 0.000000 0.000000 0.000000 0.050668 0.000000 0.000000
# 5 0.000000 0.000000 0.000000 0.000000 0.039588 0.000000
# 6 0.000000 0.000000 0.000000 0.000000 0.000000 0.024204
#
#
# Mechanical properties :
#
#
# Convention : Reuss Voigt Hill
#
# Bulk Modulus (GPa) = 6.18068 39.93940 23.06004
# Shear Modulus (GPa) = 13.99382 30.50171 22.24777
#
# Velocity S-wave (km/s) = 2.62012 3.86826 3.30367
# Velocity P-wave (km/s) = 3.49077 6.28845 5.08577
#
# Compressibility (1/GPa) = 0.16179462
#
# Stress axis : x y z
#
# Youngs Moduli (GPa) = 83.72474 114.03763 6.46669
#
# Poissons Ratio (x) = 0.50903 0.03776
# Poissons Ratio (y) = 0.37372 -0.02279
# Poissons Ratio (z) = 0.48889 -0.40192
#
# Static dielectric constant tensor:
#      x y z
#    x 1.706980 0.000000 0.000000 
#    y 0.000000 1.792920 0.000000 
#    z 0.000000 0.000000 1.738580 
# 
# From -- ./inp_files/7420.got.cif
#   From: 2010.05.17/outbox.cif.g08.bks.cpg/sg40_4_cif.got.tgz:7420.got - 2010.06.03 18:35:42.
