data_PCOD9363005
_publ_section_title
;
Structure prediction by ZEFSAII (Michael W. Deem and Ramdas Pophale) SiO2 
 PCOD9363005
Probable space group: A M A 2
;
_chemical_formula_sum "Si O2"
_cell_formula_units_Z 64
_cell_length_a 7.916417
_cell_length_b 15.352317
_cell_length_c 28.522436
_cell_angle_alpha 90.000000
_cell_angle_beta 90.000000
_cell_angle_gamma 90.000000
_cell_volume 3466.484051
_symmetry_space_group_name_H-M "A M A 2"
_symmetry_group_IT_number 40
_symmetry_cell_setting 'orthorhombic'
loop_
_space_group_symop_operation_xyz
x,y,z
-x,-y,z
1/2-x,y,z
1/2+x,-y,z
x,1/2+y,1/2+z
-x,1/2-y,1/2+z
1/2-x,1/2+y,1/2+z
1/2+x,1/2-y,1/2+z
loop_
_atom_site_type_symbol
_atom_site_label
_atom_site_fract_x
_atom_site_fract_y
_atom_site_fract_z
Si Si1 0.457379 0.778118 0.730290
Si Si2 0.546694 0.903047 0.193858
Si Si3 0.046841 0.902511 0.646664
Si Si4 0.450670 0.400951 0.312923
Si Si5 0.049330 0.599049 0.420463
Si Si6 0.046694 0.403047 0.039527
Si Si7 0.042621 0.721882 0.503095
Si Si8 0.046841 0.597489 0.586721
O O1 0.250000 0.778763 0.730940
O O2 0.511909 0.678144 0.724931
O O3 0.511249 0.831310 0.683935
O O4 0.517818 0.830796 0.775785
O O5 0.750000 0.899178 0.192061
O O6 0.483930 0.891455 0.140073
O O7 0.500000 0.000000 0.209702
O O8 0.250000 0.896435 0.645013
O O9 0.983930 0.891455 0.593312
O O10 0.000000 0.000000 0.662239
O O11 0.500000 0.500000 0.300598
O O12 0.250000 0.397408 0.310660
O O13 0.500000 0.384426 0.366693
O O14 0.250000 0.602592 0.422726
O O15 0.982182 0.669204 0.457601
O O16 0.000000 0.500000 0.432787
O O17 0.250000 0.399178 0.041325
O O18 0.000000 0.500000 0.023683
O O19 0.988091 0.321856 0.008454
O O20 0.250000 0.721237 0.502445
O O21 0.988751 0.668690 0.549450
O O22 0.250000 0.603565 0.588372
O O23 0.000000 0.500000 0.571146
#
# Coordination Sequence:
#
# PCOD9363005 Si02
#       8
#     8   8   8   8   8   8   8   8
#     4   9  17  29  47  67  88 119 153 181 215 264
#     4   9  17  30  46  65  90 119 151 184 218 257
#     4   9  16  27  44  66  92 120 148 179 216 260
#     4  10  19  32  49  69  93 118 145 179 221 266
#     4  10  19  32  49  69  93 118 145 179 221 266
#     4   9  17  30  46  65  90 119 151 184 218 257
#     4   9  17  29  47  67  88 119 153 181 215 264
#     4   9  16  27  44  66  92 120 148 179 216 260
#
# _framework density 18.462513000000001
#
# number of rings (size 3 to 8) (size 9 to 14) (size 15 to 20)
#    0.000    2.750    0.000    3.000    0.000    3.000 
#    0.000    5.000    0.000    6.750    0.000    5.250 
#    0.000    0.000    0.000    0.000    0.000    0.000 
#
# Total GULP energy -178461.117677 kJ/mol
# GULP energy per Si atom -5576.909927 kJ/mol
# Density = 1.842049 g / cm^3
# Si number density = 18.462513 Si / 1000 Ang^3
#
#
#
# Elastic Constant Matrix: (Units=GPa)
#
#
# Indices 1 2 3 4 5 6 
#
# 1 18.3738 7.7274 8.4965 0.0000 0.0000 0.0000
# 2 7.7274 193.8183 103.6465 0.0000 0.0000 0.0000
# 3 8.4965 103.6465 87.7179 0.0000 0.0000 0.0000
# 4 0.0000 0.0000 0.0000 31.1182 0.0000 0.0000
# 5 0.0000 0.0000 0.0000 0.0000 17.4778 0.0000
# 6 0.0000 0.0000 0.0000 0.0000 0.0000 21.6304
#
#
#
# Elastic Compliance Matrix: (Units=1/GPa)
#
#
# Indices 1 2 3 4 5 6 
#
# 1 0.057222 0.001854 -0.007734 0.000000 0.000000 0.000000
# 2 0.001854 0.014075 -0.016811 0.000000 0.000000 0.000000
# 3 -0.007734 -0.016811 0.032013 0.000000 0.000000 0.000000
# 4 0.000000 0.000000 0.000000 0.032136 0.000000 0.000000
# 5 0.000000 0.000000 0.000000 0.000000 0.057216 0.000000
# 6 0.000000 0.000000 0.000000 0.000000 0.000000 0.046231
#
#
# Mechanical properties :
#
#
# Convention : Reuss Voigt Hill
#
# Bulk Modulus (GPa) = 17.26239 59.96122 38.61180
# Shear Modulus (GPa) = 16.46998 26.04790 21.25894
#
# Velocity S-wave (km/s) = 2.99001 3.76021 3.39701
# Velocity P-wave (km/s) = 4.61416 7.16938 6.02870
#
# Compressibility (1/GPa) = 0.05792941
#
# Stress axis : x y z
#
# Youngs Moduli (GPa) = 17.47591 71.04611 31.23744
#
# Poissons Ratio (x) = -0.13173 0.24158
# Poissons Ratio (y) = -0.03240 0.52513
# Poissons Ratio (z) = 0.13515 1.19435
#
# Static dielectric constant tensor:
#      x y z
#    x 1.673300 0.000000 0.000000 
#    y 0.000000 1.645300 0.000000 
#    z 0.000000 0.000000 1.642820 
# 
# From -- ./inp_files/26453.got.cif
#   From: 2010.05.17/outbox.cif.g08.bks.cpg/sg40_14_cif.got.tgz:26453.got - 2010.06.03 18:35:42.
