data_PCOD9363509
_publ_section_title
;
Structure prediction by ZEFSAII (Michael W. Deem and Ramdas Pophale) SiO2 
 PCOD9363509
Probable space group: A M A 2
;
_chemical_formula_sum "Si O2"
_cell_formula_units_Z 64
_cell_length_a 18.733250
_cell_length_b 27.463051
_cell_length_c 6.012707
_cell_angle_alpha 90.000000
_cell_angle_beta 90.000000
_cell_angle_gamma 90.000000
_cell_volume 3093.370599
_symmetry_space_group_name_H-M "A M A 2"
_symmetry_group_IT_number 40
_symmetry_cell_setting 'orthorhombic'
loop_
_space_group_symop_operation_xyz
x,y,z
-x,-y,z
1/2-x,y,z
1/2+x,-y,z
x,1/2+y,1/2+z
-x,1/2-y,1/2+z
1/2-x,1/2+y,1/2+z
1/2+x,1/2-y,1/2+z
loop_
_atom_site_type_symbol
_atom_site_label
_atom_site_fract_x
_atom_site_fract_y
_atom_site_fract_z
Si Si1 0.332959 0.041597 0.101450
Si Si2 0.589005 0.218762 0.385132
Si Si3 0.832972 0.139494 0.654105
Si Si4 0.333002 0.458959 0.925951
Si Si5 0.546928 0.307028 0.151220
Si Si6 0.557172 0.899260 0.362117
Si Si7 0.066077 0.524984 0.222136
Si Si8 0.451279 0.860148 0.015631
O O1 0.250000 0.050374 0.073255
O O2 0.369596 0.077245 0.277516
O O3 0.342839 0.985861 0.189524
O O4 0.377909 0.049832 0.881997
O O5 0.643166 0.191489 0.551914
O O6 0.602275 0.270457 0.267487
O O7 0.515457 0.223471 0.526144
O O8 0.576109 0.180943 0.185345
O O9 0.750000 0.139873 0.720107
O O10 0.842063 0.098505 0.461165
O O11 0.884969 0.125099 0.858178
O O12 0.250000 0.469673 0.989001
O O13 0.387648 0.485870 0.087392
O O14 0.508194 0.337276 0.344845
O O15 0.570641 0.346369 0.968288
O O16 0.532635 0.936017 0.554164
O O17 0.496635 0.896516 0.171838
O O18 0.000000 0.500000 0.345516
#
# Coordination Sequence:
#
# PCOD9363509 Si02
#       8
#     8   8   8   8   8   8   8   8
#     4  10  22  43  65  86 122 171 211 254 317 381
#     4  10  20  35  62  88 122 162 206 257 318 379
#     4  10  23  40  61  94 133 170 212 258 314 390
#     4   9  21  41  60  85 124 167 205 245 309 388
#     4  10  19  37  60  93 120 158 207 267 319 377
#     4  10  23  39  60  92 124 160 214 271 317 376
#     4  11  24  38  60  92 125 159 207 268 316 371
#     4  10  21  37  64  87 126 162 208 259 316 366
#
# _framework density 20.689406000000002
#
# number of rings (size 3 to 8) (size 9 to 14) (size 15 to 20)
#    0.000    2.000    1.250    1.125    7.000    4.000 
#    0.000    3.125    0.000    3.750    0.000    0.000 
#    0.000    0.000    0.000    0.000    0.000    0.000 
#
# Total GULP energy -178575.555811 kJ/mol
# GULP energy per Si atom -5580.486119 kJ/mol
# Density = 2.064232 g / cm^3
# Si number density = 20.689406 Si / 1000 Ang^3
#
#
#
# Elastic Constant Matrix: (Units=GPa)
#
#
# Indices 1 2 3 4 5 6 
#
# 1 99.6983 47.6802 45.4353 0.0000 0.0000 0.0000
# 2 47.6802 89.3693 28.2257 0.0000 0.0000 0.0000
# 3 45.4353 28.2257 86.3665 0.0000 0.0000 0.0000
# 4 0.0000 0.0000 0.0000 32.8913 0.0000 0.0000
# 5 0.0000 0.0000 0.0000 0.0000 24.4364 0.0000
# 6 0.0000 0.0000 0.0000 0.0000 0.0000 20.5026
#
#
#
# Elastic Compliance Matrix: (Units=1/GPa)
#
#
# Indices 1 2 3 4 5 6 
#
# 1 0.016039 -0.006571 -0.006291 0.000000 0.000000 0.000000
# 2 -0.006571 0.015169 -0.001501 0.000000 0.000000 0.000000
# 3 -0.006291 -0.001501 0.015378 0.000000 0.000000 0.000000
# 4 0.000000 0.000000 0.000000 0.030403 0.000000 0.000000
# 5 0.000000 0.000000 0.000000 0.000000 0.040923 0.000000
# 6 0.000000 0.000000 0.000000 0.000000 0.000000 0.048774
#
#
# Mechanical properties :
#
#
# Convention : Reuss Voigt Hill
#
# Bulk Modulus (GPa) = 55.98206 57.56851 56.77528
# Shear Modulus (GPa) = 24.83052 25.83892 25.33472
#
# Velocity S-wave (km/s) = 3.46809 3.53781 3.50312
# Velocity P-wave (km/s) = 6.56916 6.67635 6.62297
#
# Compressibility (1/GPa) = 0.01786287
#
# Stress axis : x y z
#
# Youngs Moduli (GPa) = 62.34650 65.92370 65.02637
#
# Poissons Ratio (x) = 0.43316 0.40905
# Poissons Ratio (y) = 0.40965 0.09759
# Poissons Ratio (z) = 0.39220 0.09894
#
# Static dielectric constant tensor:
#      x y z
#    x 1.702140 0.000000 0.000000 
#    y 0.000000 1.774710 0.000000 
#    z 0.000000 0.000000 1.778320 
# 
# From -- ./inp_files/2484.got.cif
#   From: 2010.05.17/outbox.cif.g08.bks.cpg/sg40_2_cif.got.tgz:2484.got - 2010.06.03 18:35:42.
