data_PCOD9363105
_publ_section_title
;
Structure prediction by ZEFSAII (Michael W. Deem and Ramdas Pophale) SiO2 
 PCOD9363105
Probable space group: A M A 2
;
_chemical_formula_sum "Si O2"
_cell_formula_units_Z 56
_cell_length_a 14.768984
_cell_length_b 11.883222
_cell_length_c 15.680984
_cell_angle_alpha 90.000000
_cell_angle_beta 90.000000
_cell_angle_gamma 90.000000
_cell_volume 2752.061547
_symmetry_space_group_name_H-M "A M A 2"
_symmetry_group_IT_number 40
_symmetry_cell_setting 'orthorhombic'
loop_
_space_group_symop_operation_xyz
x,y,z
-x,-y,z
1/2-x,y,z
1/2+x,-y,z
x,1/2+y,1/2+z
-x,1/2-y,1/2+z
1/2-x,1/2+y,1/2+z
1/2+x,1/2-y,1/2+z
loop_
_atom_site_type_symbol
_atom_site_label
_atom_site_fract_x
_atom_site_fract_y
_atom_site_fract_z
Si Si1 0.644746 0.047883 0.549230
Si Si2 0.893647 0.021985 0.362856
Si Si3 0.397815 0.546006 0.681019
Si Si4 0.651850 0.667361 0.577356
Si Si5 0.050520 0.216319 0.041235
Si Si6 0.145888 0.118787 0.696526
Si Si7 0.641552 0.789682 0.867247
O O1 0.750000 0.083993 0.563565
O O2 0.644861 0.990567 0.455710
O O3 0.577540 0.153149 0.544753
O O4 0.613111 0.966640 0.624804
O O5 0.860409 0.958082 0.277458
O O6 0.877304 0.156366 0.352134
O O7 0.000000 0.000000 0.370359
O O8 0.500000 0.500000 0.690439
O O9 0.350570 0.454924 0.620429
O O10 0.409861 0.659472 0.627060
O O11 0.750000 0.683150 0.533264
O O12 0.556092 0.689386 0.531504
O O13 0.648085 0.758917 0.653028
O O14 0.100269 0.173048 0.956685
O O15 0.250000 0.084358 0.711485
O O16 0.103051 0.137718 0.788637
O O17 0.750000 0.799722 0.870695
#
# Coordination Sequence:
#
# PCOD9363105 Si02
#       7
#     8   8   8   8   8   8   8
#     4  10  22  38  59  90 125 159 201 250 302 357
#     4  10  19  32  57  88 118 150 194 246 299 349
#     4   9  19  36  57  87 120 152 196 250 303 354
#     4  10  20  35  60  88 119 159 203 246 297 362
#     4  10  21  36  62  92 122 153 206 256 302 350
#     4   9  19  36  60  86 117 161 205 238 287 362
#     4  10  20  38  62  89 119 162 208 244 290 369
#
# _framework density 20.348382000000001
#
# number of rings (size 3 to 8) (size 9 to 14) (size 15 to 20)
#    0.000    2.286    1.429    1.714    4.000    1.714 
#    0.000    0.000   12.571    0.000    0.000    1.000 
#    0.000    0.000    0.000    0.000    0.000    0.000 
#
# Total GULP energy -156028.077254 kJ/mol
# GULP energy per Si atom -5572.431331 kJ/mol
# Density = 2.030207 g / cm^3
# Si number density = 20.348382 Si / 1000 Ang^3
#
#
#
# Elastic Constant Matrix: (Units=GPa)
#
#
# Indices 1 2 3 4 5 6 
#
# 1 118.9033 25.5409 32.8675 0.0000 0.0000 0.0000
# 2 25.5409 24.3788 43.7583 0.0000 0.0000 0.0000
# 3 32.8675 43.7583 158.5988 0.0000 0.0000 0.0000
# 4 0.0000 0.0000 0.0000 33.2447 0.0000 0.0000
# 5 0.0000 0.0000 0.0000 0.0000 34.6556 0.0000
# 6 0.0000 0.0000 0.0000 0.0000 0.0000 -27.5366
#
#
#
# Elastic Compliance Matrix: (Units=1/GPa)
#
#
# Indices 1 2 3 4 5 6 
#
# 1 0.011106 -0.014867 0.001800 0.000000 0.000000 0.000000
# 2 -0.014867 0.101165 -0.024831 0.000000 0.000000 0.000000
# 3 0.001800 -0.024831 0.012783 0.000000 0.000000 0.000000
# 4 0.000000 0.000000 0.000000 0.030080 0.000000 0.000000
# 5 0.000000 0.000000 0.000000 0.000000 0.028855 0.000000
# 6 0.000000 0.000000 0.000000 0.000000 0.000000 -0.036315
#
#
# Mechanical properties :
#
#
# Convention : Reuss Voigt Hill
#
# Bulk Modulus (GPa) = 20.30092 56.24603 38.27347
# Shear Modulus (GPa) = 20.84306 21.38703 21.11504
#
# Velocity S-wave (km/s) = 3.20396 3.24550 3.22479
# Velocity P-wave (km/s) = 4.86677 6.46110 5.71976
#
# Compressibility (1/GPa) = 0.04925886
#
# Stress axis : x y z
#
# Youngs Moduli (GPa) = 90.04146 9.88489 78.22816
#
# Poissons Ratio (x) = 0.14696 -0.14083
# Poissons Ratio (y) = 1.33862 1.94248
# Poissons Ratio (z) = -0.16210 0.24545
#
# Static dielectric constant tensor:
#      x y z
#    x 1.750420 0.000000 0.000000 
#    y 0.000000 1.717140 0.000000 
#    z 0.000000 0.000000 1.765260 
# 
# From -- ./inp_files/17097.got.cif
#   From: 2010.05.17/outbox.cif.g08.bks.cpg/sg40_9_cif.got.tgz:17097.got - 2010.06.03 18:35:42.
