data_PCOD9363957
_publ_section_title
;
Structure prediction by ZEFSAII (Michael W. Deem and Ramdas Pophale) SiO2 
 PCOD9363957
Probable space group: A M A 2
;
_chemical_formula_sum "Si O2"
_cell_formula_units_Z 60
_cell_length_a 18.976149
_cell_length_b 5.232351
_cell_length_c 31.063253
_cell_angle_alpha 90.000000
_cell_angle_beta 90.000000
_cell_angle_gamma 90.000000
_cell_volume 3084.266420
_symmetry_space_group_name_H-M "A M A 2"
_symmetry_group_IT_number 40
_symmetry_cell_setting 'orthorhombic'
loop_
_space_group_symop_operation_xyz
x,y,z
-x,-y,z
1/2-x,y,z
1/2+x,-y,z
x,1/2+y,1/2+z
-x,1/2-y,1/2+z
1/2-x,1/2+y,1/2+z
1/2+x,1/2-y,1/2+z
loop_
_atom_site_type_symbol
_atom_site_label
_atom_site_fract_x
_atom_site_fract_y
_atom_site_fract_z
Si Si1 0.333055 0.115838 0.639060
Si Si2 0.414713 0.010902 0.445421
Si Si3 0.332106 0.119270 0.081715
Si Si4 0.500000 0.000000 0.793499
Si Si5 0.422617 0.627310 0.848378
Si Si6 0.085407 0.008897 0.995118
Si Si7 0.329816 0.086599 0.270040
Si Si8 0.110768 0.606938 0.230317
O O1 0.250000 0.090065 0.653135
O O2 0.340549 0.385403 0.615001
O O3 0.386611 0.096667 0.678938
O O4 0.346183 0.885066 0.605931
O O5 0.397064 0.097203 0.396954
O O6 0.391174 0.231913 0.478033
O O7 0.500000 0.000000 0.446232
O O8 0.392884 0.730495 0.461204
O O9 0.250000 0.120033 0.067846
O O10 0.381481 0.076516 0.040815
O O11 0.441022 0.900545 0.826999
O O12 0.540969 0.823505 0.758471
O O13 0.500000 0.500000 0.845682
O O14 0.366517 0.519507 0.815149
O O15 0.000000 0.000000 0.997692
O O16 0.250000 0.163974 0.277071
O O17 0.367810 0.325565 0.247003
O O18 0.335475 0.832560 0.241803
#
# Coordination Sequence:
#
# PCOD9363957 Si02
#       8
#     8   8   8   4   8   8   8   8
#     4  10  20  36  58  82 108 148 189 225 273 341
#     4   9  20  32  59  82 109 142 185 225 272 331
#     4  10  21  38  59  81 110 146 185 226 279 339
#     4  10  22  36  58  86 118 152 196 236 292 328
#     4  10  20  36  57  82 114 151 191 232 278 341
#     4  10  20  38  55  84 108 139 182 229 278 331
#     4  11  22  36  57  82 115 154 190 238 285 333
#     4  11  22  38  57  84 117 150 196 239 281 340
#
# _framework density 19.453571
#
# number of rings (size 3 to 8) (size 9 to 14) (size 15 to 20)
#    0.000    1.867    1.333    2.800    4.667    1.067 
#    2.400    1.333    0.000    0.000    0.000    0.000 
#    0.000    0.000    0.000    0.000    0.000    0.000 
#
# Total GULP energy -167163.494788 kJ/mol
# GULP energy per Si atom -5572.116493 kJ/mol
# Density = 1.940929 g / cm^3
# Si number density = 19.453571 Si / 1000 Ang^3
#
#
#
# Elastic Constant Matrix: (Units=GPa)
#
#
# Indices 1 2 3 4 5 6 
#
# 1 30.3477 -0.3749 19.5618 0.0000 0.0000 0.0000
# 2 -0.3749 61.4482 3.4667 0.0000 0.0000 0.0000
# 3 19.5618 3.4667 93.1558 0.0000 0.0000 0.0000
# 4 0.0000 0.0000 0.0000 25.8817 0.0000 0.0000
# 5 0.0000 0.0000 0.0000 0.0000 21.5911 0.0000
# 6 0.0000 0.0000 0.0000 0.0000 0.0000 121.5491
#
#
#
# Elastic Compliance Matrix: (Units=1/GPa)
#
#
# Indices 1 2 3 4 5 6 
#
# 1 0.038139 0.000686 -0.008034 0.000000 0.000000 0.000000
# 2 0.000686 0.016320 -0.000751 0.000000 0.000000 0.000000
# 3 -0.008034 -0.000751 0.012450 0.000000 0.000000 0.000000
# 4 0.000000 0.000000 0.000000 0.038637 0.000000 0.000000
# 5 0.000000 0.000000 0.000000 0.000000 0.046315 0.000000
# 6 0.000000 0.000000 0.000000 0.000000 0.000000 0.008227
#
#
# Mechanical properties :
#
#
# Convention : Reuss Voigt Hill
#
# Bulk Modulus (GPa) = 19.72016 25.58433 22.65225
# Shear Modulus (GPa) = 25.88107 44.62427 35.25267
#
# Velocity S-wave (km/s) = 3.65142 4.79465 4.26155
# Velocity P-wave (km/s) = 5.28548 6.62054 5.99032
#
# Compressibility (1/GPa) = 0.05070952
#
# Stress axis : x y z
#
# Youngs Moduli (GPa) = 26.22004 61.27281 80.32265
#
# Poissons Ratio (x) = -0.04203 0.64534
# Poissons Ratio (y) = -0.01799 0.06035
# Poissons Ratio (z) = 0.21066 0.04604
#
# Static dielectric constant tensor:
#      x y z
#    x 1.709870 0.000000 0.000000 
#    y 0.000000 1.741940 0.000000 
#    z 0.000000 0.000000 1.662390 
# 
# From -- ./inp_files/25867.got.cif
#   From: 2010.05.17/outbox.cif.g08.bks.cpg/sg40_13_cif.got.tgz:25867.got - 2010.06.03 18:35:42.
