data_PCOD9363530
_publ_section_title
;
Structure prediction by ZEFSAII (Michael W. Deem and Ramdas Pophale) SiO2 
 PCOD9363530
Probable space group: A M A 2
;
_chemical_formula_sum "Si O2"
_cell_formula_units_Z 48
_cell_length_a 17.884600
_cell_length_b 9.488925
_cell_length_c 12.102072
_cell_angle_alpha 90.000000
_cell_angle_beta 90.000000
_cell_angle_gamma 90.000000
_cell_volume 2053.789730
_symmetry_space_group_name_H-M "A M A 2"
_symmetry_group_IT_number 40
_symmetry_cell_setting 'orthorhombic'
loop_
_space_group_symop_operation_xyz
x,y,z
-x,-y,z
1/2-x,y,z
1/2+x,-y,z
x,1/2+y,1/2+z
-x,1/2-y,1/2+z
1/2-x,1/2+y,1/2+z
1/2+x,1/2-y,1/2+z
loop_
_atom_site_type_symbol
_atom_site_label
_atom_site_fract_x
_atom_site_fract_y
_atom_site_fract_z
Si Si1 0.834141 0.180973 0.719820
Si Si2 0.019154 0.334836 0.298063
Si Si3 0.909727 0.207351 0.134167
Si Si4 0.409431 0.509511 0.030151
Si Si5 0.831483 0.443806 0.558472
Si Si6 0.876496 0.727202 0.877660
O O1 0.750000 0.139070 0.747114
O O2 0.894010 0.185613 0.817136
O O3 0.832644 0.329787 0.657159
O O4 0.874234 0.072591 0.635385
O O5 0.000000 0.500000 0.287339
O O6 0.990656 0.248752 0.188284
O O7 0.964225 0.270646 0.388509
O O8 0.889774 0.329699 0.050090
O O9 0.860907 0.223041 0.247495
O O10 0.896162 0.056501 0.080845
O O11 0.500000 0.500000 0.024685
O O12 0.371934 0.427773 0.928442
O O13 0.750000 0.515528 0.558546
O O14 0.837228 0.347373 0.448822
#
# Coordination Sequence:
#
# PCOD9363530 Si02
#       6
#     8   8   8   8   8   8
#     4  10  19  37  65  93 133 175 216 275 345 401
#     4  10  19  42  63 101 127 168 238 268 331 406
#     4  10  21  41  65  96 130 173 223 282 322 402
#     4  11  19  40  64  96 129 171 225 277 329 401
#     4  10  23  41  64 102 138 179 225 275 349 406
#     4   9  23  39  66  95 131 178 221 279 331 399
#
# _framework density 23.371428999999999
#
# number of rings (size 3 to 8) (size 9 to 14) (size 15 to 20)
#    1.000    1.000    3.333    0.000    0.000    4.667 
#    0.000    4.167    0.000    7.000    0.000    0.000 
#    0.000    0.000    0.000    0.000    0.000    0.000 
#
# Total GULP energy -133898.080156 kJ/mol
# GULP energy per Si atom -5579.086673 kJ/mol
# Density = 2.331823 g / cm^3
# Si number density = 23.371429 Si / 1000 Ang^3
#
#
#
# Elastic Constant Matrix: (Units=GPa)
#
#
# Indices 1 2 3 4 5 6 
#
# 1 107.2216 30.4801 13.5226 0.0000 0.0000 0.0000
# 2 30.4801 120.0129 41.7293 0.0000 0.0000 0.0000
# 3 13.5226 41.7293 79.6553 0.0000 0.0000 0.0000
# 4 0.0000 0.0000 0.0000 5.3878 0.0000 0.0000
# 5 0.0000 0.0000 0.0000 0.0000 7.3722 0.0000
# 6 0.0000 0.0000 0.0000 0.0000 0.0000 6.1915
#
#
#
# Elastic Compliance Matrix: (Units=1/GPa)
#
#
# Indices 1 2 3 4 5 6 
#
# 1 0.010066 -0.002399 -0.000452 0.000000 0.000000 0.000000
# 2 -0.002399 0.010760 -0.005230 0.000000 0.000000 0.000000
# 3 -0.000452 -0.005230 0.015370 0.000000 0.000000 0.000000
# 4 0.000000 0.000000 0.000000 0.185604 0.000000 0.000000
# 5 0.000000 0.000000 0.000000 0.000000 0.135645 0.000000
# 6 0.000000 0.000000 0.000000 0.000000 0.000000 0.161513
#
#
# Mechanical properties :
#
#
# Convention : Reuss Voigt Hill
#
# Bulk Modulus (GPa) = 49.91360 53.15043 51.53202
# Shear Modulus (GPa) = 9.22854 18.53414 13.88134
#
# Velocity S-wave (km/s) = 1.98927 2.81913 2.43974
# Velocity P-wave (km/s) = 5.16520 5.77820 5.48028
#
# Compressibility (1/GPa) = 0.02003462
#
# Stress axis : x y z
#
# Youngs Moduli (GPa) = 99.34918 92.93527 65.05972
#
# Poissons Ratio (x) = 0.22298 0.02940
# Poissons Ratio (y) = 0.23836 0.34024
# Poissons Ratio (z) = 0.04489 0.48602
#
# Static dielectric constant tensor:
#      x y z
#    x 1.937100 0.000000 0.000000 
#    y 0.000000 1.841030 0.000000 
#    z 0.000000 0.000000 1.908760 
# 
# From -- ./inp_files/17608.got.cif
#   From: 2010.05.17/outbox.cif.g08.bks.cpg/sg40_9_cif.got.tgz:17608.got - 2010.06.03 18:35:42.
