data_PCOD9363298
_publ_section_title
;
Structure prediction by ZEFSAII (Michael W. Deem and Ramdas Pophale) SiO2 
 PCOD9363298
Probable space group: A M A 2
;
_chemical_formula_sum "Si O2"
_cell_formula_units_Z 64
_cell_length_a 8.444075
_cell_length_b 16.925411
_cell_length_c 22.695512
_cell_angle_alpha 90.000000
_cell_angle_beta 90.000000
_cell_angle_gamma 90.000000
_cell_volume 3243.629863
_symmetry_space_group_name_H-M "A M A 2"
_symmetry_group_IT_number 40
_symmetry_cell_setting 'orthorhombic'
loop_
_space_group_symop_operation_xyz
x,y,z
-x,-y,z
1/2-x,y,z
1/2+x,-y,z
x,1/2+y,1/2+z
-x,1/2-y,1/2+z
1/2-x,1/2+y,1/2+z
1/2+x,1/2-y,1/2+z
loop_
_atom_site_type_symbol
_atom_site_label
_atom_site_fract_x
_atom_site_fract_y
_atom_site_fract_z
Si Si1 0.561799 0.080735 0.310160
Si Si2 0.939839 0.079715 0.636598
Si Si3 0.437414 0.086402 0.897113
Si Si4 0.064387 0.886959 0.767036
Si Si5 0.059236 0.746555 0.599122
Si Si6 0.437991 0.764398 0.973478
Si Si7 0.940923 0.587038 0.944732
Si Si8 0.439391 0.775999 0.226547
O O1 0.750000 0.077668 0.315779
O O2 0.500791 0.089273 0.376629
O O3 0.522560 0.150680 0.267210
O O4 0.500000 0.000000 0.284329
O O5 0.750000 0.079260 0.638950
O O6 0.000024 0.081140 0.704359
O O7 0.986963 0.160354 0.604827
O O8 0.000000 0.000000 0.607689
O O9 0.250000 0.087559 0.904435
O O10 0.479366 0.090859 0.827387
O O11 0.500000 0.000000 0.918214
O O12 0.503568 0.165871 0.929161
O O13 0.250000 0.907005 0.772731
O O14 0.038900 0.794816 0.754762
O O15 0.250000 0.741804 0.598502
O O16 0.988943 0.711762 0.539611
O O17 0.991388 0.711046 0.659394
O O18 0.250000 0.759160 0.967785
O O19 0.506668 0.674603 0.966627
O O20 0.750000 0.585447 0.949397
O O21 0.000000 0.500000 0.967299
O O22 0.250000 0.758995 0.229059
#
# Coordination Sequence:
#
# PCOD9363298 Si02
#       8
#     8   8   8   8   8   8   8   8
#     4   9  19  33  53  81 113 144 180 226 280 338
#     4   9  19  33  53  81 114 147 182 224 276 335
#     4  12  25  42  63  89 120 156 197 247 301 358
#     4  10  20  35  56  86 119 153 190 232 284 346
#     4  10  22  40  57  78 109 148 193 242 289 343
#     4  12  25  42  63  87 115 155 203 252 302 356
#     4  10  20  37  60  90 125 161 198 241 292 351
#     4  10  19  34  56  84 114 148 189 236 288 345
#
# _framework density 19.730982000000001
#
# number of rings (size 3 to 8) (size 9 to 14) (size 15 to 20)
#    0.000    1.750    0.000    5.625    0.000    7.000 
#    0.000    1.875    0.000    1.500    0.000    0.000 
#    0.000    0.000    0.000    0.000    0.000    0.000 
#
# Total GULP energy -178486.502097 kJ/mol
# GULP energy per Si atom -5577.703191 kJ/mol
# Density = 1.968607 g / cm^3
# Si number density = 19.730982 Si / 1000 Ang^3
#
#
#
# Elastic Constant Matrix: (Units=GPa)
#
#
# Indices 1 2 3 4 5 6 
#
# 1 64.3634 27.9568 22.1169 0.0000 0.0000 0.0000
# 2 27.9568 86.5525 41.5042 0.0000 0.0000 0.0000
# 3 22.1169 41.5042 91.7367 0.0000 0.0000 0.0000
# 4 0.0000 0.0000 0.0000 -12.5398 0.0000 0.0000
# 5 0.0000 0.0000 0.0000 0.0000 32.0833 0.0000
# 6 0.0000 0.0000 0.0000 0.0000 0.0000 34.8070
#
#
#
# Elastic Compliance Matrix: (Units=1/GPa)
#
#
# Indices 1 2 3 4 5 6 
#
# 1 0.018424 -0.004880 -0.002234 0.000000 0.000000 0.000000
# 2 -0.004880 0.016047 -0.006084 0.000000 0.000000 0.000000
# 3 -0.002234 -0.006084 0.014192 0.000000 0.000000 0.000000
# 4 0.000000 0.000000 0.000000 -0.079746 0.000000 0.000000
# 5 0.000000 0.000000 0.000000 0.000000 0.031169 0.000000
# 6 0.000000 0.000000 0.000000 0.000000 0.000000 0.028730
#
#
# Mechanical properties :
#
#
# Convention : Reuss Voigt Hill
#
# Bulk Modulus (GPa) = 44.90774 47.31203 46.10988
# Shear Modulus (GPa) = 79.82959 20.94176 50.38567
#
# Velocity S-wave (km/s) = 6.36764 3.26139 5.05883
# Velocity P-wave (km/s) = 8.76766 6.18165 7.58567
#
# Compressibility (1/GPa) = 0.02226788
#
# Stress axis : x y z
#
# Youngs Moduli (GPa) = 54.27694 62.31646 70.46303
#
# Poissons Ratio (x) = 0.30408 0.15743
# Poissons Ratio (y) = 0.26485 0.42868
# Poissons Ratio (z) = 0.12126 0.37912
#
# Static dielectric constant tensor:
#      x y z
#    x 1.680200 0.000000 0.000000 
#    y 0.000000 1.751860 0.000000 
#    z 0.000000 0.000000 1.711160 
# 
# From -- ./inp_files/24281.got.cif
#   From: 2010.05.17/outbox.cif.g08.bks.cpg/sg40_13_cif.got.tgz:24281.got - 2010.06.03 18:35:42.
