data_PCOD9363774
_publ_section_title
;
Structure prediction by ZEFSAII (Michael W. Deem and Ramdas Pophale) SiO2 
 PCOD9363774
Probable space group: A M A 2
;
_chemical_formula_sum "Si O2"
_cell_formula_units_Z 64
_cell_length_a 9.024026
_cell_length_b 25.513812
_cell_length_c 15.070219
_cell_angle_alpha 90.000000
_cell_angle_beta 90.000000
_cell_angle_gamma 90.000000
_cell_volume 3469.726576
_symmetry_space_group_name_H-M "A M A 2"
_symmetry_group_IT_number 40
_symmetry_cell_setting 'orthorhombic'
loop_
_space_group_symop_operation_xyz
x,y,z
-x,-y,z
1/2-x,y,z
1/2+x,-y,z
x,1/2+y,1/2+z
-x,1/2-y,1/2+z
1/2-x,1/2+y,1/2+z
1/2+x,1/2-y,1/2+z
loop_
_atom_site_type_symbol
_atom_site_label
_atom_site_fract_x
_atom_site_fract_y
_atom_site_fract_z
Si Si1 0.077657 0.277434 0.752270
Si Si2 0.927175 0.859229 0.946321
Si Si3 0.071834 0.056699 0.094928
Si Si4 0.075073 0.331664 0.275425
Si Si5 0.926505 0.650997 0.067498
Si Si6 0.573563 0.386328 0.777735
Si Si7 0.576601 0.239209 0.040392
Si Si8 0.926598 0.443594 0.961989
O O1 0.250000 0.271491 0.776280
O O2 0.066283 0.276205 0.644765
O O3 0.985535 0.227518 0.784667
O O4 0.012440 0.331834 0.786698
O O5 0.750000 0.854879 0.944887
O O6 0.990540 0.866004 0.847906
O O7 0.968991 0.906157 0.012630
O O8 0.996308 0.805991 0.985644
O O9 0.250000 0.051543 0.096156
O O10 0.028236 0.085413 0.186467
O O11 0.000000 0.000000 0.088924
O O12 0.250000 0.332927 0.291794
O O13 0.047866 0.348256 0.173762
O O14 0.750000 0.651547 0.051970
O O15 0.999134 0.704425 0.030403
O O16 0.001202 0.600598 0.023964
O O17 0.750000 0.375175 0.772726
O O18 0.547561 0.423935 0.861156
O O19 0.750000 0.242709 0.016876
O O20 0.750000 0.446249 0.976362
O O21 0.000000 0.500000 0.975889
#
# Coordination Sequence:
#
# PCOD9363774 Si02
#       8
#     8   8   8   8   8   8   8   8
#     4  10  20  34  56  87 120 157 198 238 287 351
#     4  11  22  37  59  87 120 159 200 246 296 352
#     4  10  22  39  60  85 118 158 199 243 294 351
#     4  10  22  39  60  85 119 158 196 247 303 356
#     4  10  22  41  63  86 117 157 199 249 305 358
#     4  10  21  38  58  85 121 159 196 240 295 352
#     4  10  20  35  57  87 120 156 196 241 292 351
#     4  11  24  41  63  88 118 156 201 254 301 357
#
# _framework density 18.445256000000001
#
# number of rings (size 3 to 8) (size 9 to 14) (size 15 to 20)
#    0.000    1.750    1.250    2.625    1.750    5.000 
#    0.000    0.625    0.000    1.500    0.000    0.000 
#    0.000    0.000    0.000    0.000    0.000    0.000 
#
# Total GULP energy -178877.678414 kJ/mol
# GULP energy per Si atom -5589.927450 kJ/mol
# Density = 1.840327 g / cm^3
# Si number density = 18.445256 Si / 1000 Ang^3
#
#
#
# Elastic Constant Matrix: (Units=GPa)
#
#
# Indices 1 2 3 4 5 6 
#
# 1 79.6734 57.1823 49.0194 0.0000 0.0000 0.0000
# 2 57.1823 124.6456 47.3068 0.0000 0.0000 0.0000
# 3 49.0194 47.3068 67.4058 0.0000 0.0000 0.0000
# 4 0.0000 0.0000 0.0000 21.7043 0.0000 0.0000
# 5 0.0000 0.0000 0.0000 0.0000 30.4017 0.0000
# 6 0.0000 0.0000 0.0000 0.0000 0.0000 36.7126
#
#
#
# Elastic Compliance Matrix: (Units=1/GPa)
#
#
# Indices 1 2 3 4 5 6 
#
# 1 0.026075 -0.006496 -0.014404 0.000000 0.000000 0.000000
# 2 -0.006496 0.012554 -0.004087 0.000000 0.000000 0.000000
# 3 -0.014404 -0.004087 0.028179 0.000000 0.000000 0.000000
# 4 0.000000 0.000000 0.000000 0.046074 0.000000 0.000000
# 5 0.000000 0.000000 0.000000 0.000000 0.032893 0.000000
# 6 0.000000 0.000000 0.000000 0.000000 0.000000 0.027239
#
#
# Mechanical properties :
#
#
# Convention : Reuss Voigt Hill
#
# Bulk Modulus (GPa) = 59.39947 64.30464 61.85205
# Shear Modulus (GPa) = 21.87254 25.64478 23.75866
#
# Velocity S-wave (km/s) = 3.44729 3.73274 3.59285
# Velocity P-wave (km/s) = 6.93672 7.31546 7.12861
#
# Compressibility (1/GPa) = 0.01683517
#
# Stress axis : x y z
#
# Youngs Moduli (GPa) = 38.35055 79.65818 35.48787
#
# Poissons Ratio (x) = 0.51742 0.51117
# Poissons Ratio (y) = 0.24911 0.14503
# Poissons Ratio (z) = 0.55240 0.32554
#
# Static dielectric constant tensor:
#      x y z
#    x 1.612090 0.000000 0.000000 
#    y 0.000000 1.583300 0.000000 
#    z 0.000000 0.000000 1.661730 
# 
# From -- ./inp_files/15616.got.cif
#   From: 2010.05.17/outbox.cif.g08.bks.cpg/sg40_8_cif.got.tgz:15616.got - 2010.06.03 18:35:42.
