data_PCOD9363215
_publ_section_title
;
Structure prediction by ZEFSAII (Michael W. Deem and Ramdas Pophale) SiO2 
 PCOD9363215
Probable space group: A M A 2
;
_chemical_formula_sum "Si O2"
_cell_formula_units_Z 56
_cell_length_a 15.688677
_cell_length_b 5.118629
_cell_length_c 31.946085
_cell_angle_alpha 90.000000
_cell_angle_beta 90.000000
_cell_angle_gamma 90.000000
_cell_volume 2565.414928
_symmetry_space_group_name_H-M "A M A 2"
_symmetry_group_IT_number 40
_symmetry_cell_setting 'orthorhombic'
loop_
_space_group_symop_operation_xyz
x,y,z
-x,-y,z
1/2-x,y,z
1/2+x,-y,z
x,1/2+y,1/2+z
-x,1/2-y,1/2+z
1/2-x,1/2+y,1/2+z
1/2+x,1/2-y,1/2+z
loop_
_atom_site_type_symbol
_atom_site_label
_atom_site_fract_x
_atom_site_fract_y
_atom_site_fract_z
Si Si1 0.592287 0.371892 0.920440
Si Si2 0.560017 0.249372 0.290296
Si Si3 0.346667 0.132770 0.875148
Si Si4 0.854207 0.825537 0.151824
Si Si5 0.645844 0.162899 0.559563
Si Si6 0.146972 0.675336 0.201931
Si Si7 0.853282 0.162008 0.010374
O O1 0.500000 0.500000 0.918824
O O2 0.649357 0.618036 0.906158
O O3 0.600750 0.119171 0.890692
O O4 0.613417 0.261811 0.966171
O O5 0.500000 0.500000 0.290261
O O6 0.620338 0.268544 0.330550
O O7 0.611504 0.250882 0.247025
O O8 0.500000 0.000000 0.293575
O O9 0.250000 0.039596 0.872419
O O10 0.750000 0.824136 0.150580
O O11 0.883321 0.747272 0.105540
O O12 0.880731 0.608050 0.185550
O O13 0.880221 0.109066 0.167879
O O14 0.750000 0.167263 0.560329
O O15 0.618361 0.376035 0.525131
O O16 0.621221 0.874020 0.545392
O O17 0.250000 0.676327 0.203711
O O18 0.750000 0.158619 0.007871
#
# Coordination Sequence:
#
# PCOD9363215 Si02
#       7
#     8   8   8   8   8   8   8
#     4  12  25  42  64  92 128 165 202 251 315 377
#     4  12  25  42  63  89 124 159 196 243 306 369
#     4  12  25  44  68  93 121 158 208 257 305 367
#     4   9  17  31  55  86 118 153 199 253 299 342
#     4   9  17  30  53  85 117 151 198 254 300 342
#     4  10  20  36  59  87 118 155 201 247 294 353
#     4  10  19  33  55  84 118 157 203 249 296 354
#
# _framework density 21.828827
#
# number of rings (size 3 to 8) (size 9 to 14) (size 15 to 20)
#    0.000    1.429    0.000    6.857    0.000    4.571 
#    0.000    4.286    0.000    8.571    0.000    0.000 
#    0.000    0.000    0.000    0.000    0.000    0.000 
#
# Total GULP energy -156696.230160 kJ/mol
# GULP energy per Si atom -5596.293934 kJ/mol
# Density = 2.177914 g / cm^3
# Si number density = 21.828827 Si / 1000 Ang^3
#
#
#
# Elastic Constant Matrix: (Units=GPa)
#
#
# Indices 1 2 3 4 5 6 
#
# 1 34.7587 5.1747 7.2453 0.0000 0.0000 0.0000
# 2 5.1747 91.8966 -11.9703 0.0000 0.0000 0.0000
# 3 7.2453 -11.9703 75.9007 0.0000 0.0000 0.0000
# 4 0.0000 0.0000 0.0000 72.2478 0.0000 0.0000
# 5 0.0000 0.0000 0.0000 0.0000 14.2737 0.0000
# 6 0.0000 0.0000 0.0000 0.0000 0.0000 12.5058
#
#
#
# Elastic Compliance Matrix: (Units=1/GPa)
#
#
# Indices 1 2 3 4 5 6 
#
# 1 0.029741 -0.002087 -0.003168 0.000000 0.000000 0.000000
# 2 -0.002087 0.011257 0.001975 0.000000 0.000000 0.000000
# 3 -0.003168 0.001975 0.013789 0.000000 0.000000 0.000000
# 4 0.000000 0.000000 0.000000 0.013841 0.000000 0.000000
# 5 0.000000 0.000000 0.000000 0.000000 0.070059 0.000000
# 6 0.000000 0.000000 0.000000 0.000000 0.000000 0.079963
#
#
# Mechanical properties :
#
#
# Convention : Reuss Voigt Hill
#
# Bulk Modulus (GPa) = 20.73645 22.60616 21.67130
# Shear Modulus (GPa) = 20.72229 33.27922 27.00076
#
# Velocity S-wave (km/s) = 3.08443 3.90879 3.52082
# Velocity P-wave (km/s) = 4.71223 5.54528 5.14564
#
# Compressibility (1/GPa) = 0.04822426
#
# Stress axis : x y z
#
# Youngs Moduli (GPa) = 33.62368 88.83727 72.52187
#
# Poissons Ratio (x) = 0.18544 0.22976
# Poissons Ratio (y) = 0.07019 -0.14320
# Poissons Ratio (z) = 0.10653 -0.17541
#
# Static dielectric constant tensor:
#      x y z
#    x 1.809630 0.000000 0.000000 
#    y 0.000000 1.747590 0.000000 
#    z 0.000000 0.000000 1.769120 
# 
# From -- ./inp_files/26594.got.cif
#   From: 2010.05.17/outbox.cif.g08.bks.cpg/sg40_14_cif.got.tgz:26594.got - 2010.06.03 18:35:42.
