data_PCOD9363908
_publ_section_title
;
Structure prediction by ZEFSAII (Michael W. Deem and Ramdas Pophale) SiO2 
 PCOD9363908
Probable space group: A M A 2
;
_chemical_formula_sum "Si O2"
_cell_formula_units_Z 32
_cell_length_a 13.792503
_cell_length_b 12.199998
_cell_length_c 7.273016
_cell_angle_alpha 90.000000
_cell_angle_beta 90.000000
_cell_angle_gamma 90.000000
_cell_volume 1223.819558
_symmetry_space_group_name_H-M "A M A 2"
_symmetry_group_IT_number 40
_symmetry_cell_setting 'orthorhombic'
loop_
_space_group_symop_operation_xyz
x,y,z
-x,-y,z
1/2-x,y,z
1/2+x,-y,z
x,1/2+y,1/2+z
-x,1/2-y,1/2+z
1/2-x,1/2+y,1/2+z
1/2+x,1/2-y,1/2+z
loop_
_atom_site_type_symbol
_atom_site_label
_atom_site_fract_x
_atom_site_fract_y
_atom_site_fract_z
Si Si1 0.089809 0.887012 0.402100
Si Si2 0.548168 0.232819 0.733775
Si Si3 0.356878 0.587072 0.173904
Si Si4 0.106446 0.446348 0.512299
O O1 0.144288 0.917742 0.214398
O O2 0.900768 0.665398 0.394548
O O3 0.107003 0.784788 0.543860
O O4 0.107659 0.988583 0.539149
O O5 0.445484 0.171440 0.692398
O O6 0.513855 0.349561 0.809961
O O7 0.250000 0.627892 0.116057
O O8 0.346084 0.531558 0.373630
O O9 0.000000 0.500000 0.527393
#
# Coordination Sequence:
#
# PCOD9363908 Si02
#       4
#     8   8   8   8
#     4  11  19  36  63  87 110 146 199 248 289 337
#     4  10  20  35  61  87 111 146 199 250 284 340
#     4  10  23  38  52  84 123 155 189 231 298 366
#     4   9  18  35  58  81 108 146 193 244 285 334
#
# _framework density 26.147645000000001
#
# number of rings (size 3 to 8) (size 9 to 14) (size 15 to 20)
#    0.000    2.000    2.500    3.750    0.000    2.000 
#    0.000    0.000    0.000    0.000    0.000    0.000 
#    0.000    0.000    0.000    0.000    0.000    0.000 
#
# Total GULP energy -89169.412181 kJ/mol
# GULP energy per Si atom -5573.088261 kJ/mol
# Density = 2.608813 g / cm^3
# Si number density = 26.147645 Si / 1000 Ang^3
#
#
#
# Elastic Constant Matrix: (Units=GPa)
#
#
# Indices 1 2 3 4 5 6 
#
# 1 101.9176 15.7430 17.8722 0.0000 0.0000 0.0000
# 2 15.7430 56.2259 37.1677 0.0000 0.0000 0.0000
# 3 17.8722 37.1677 250.6089 0.0000 0.0000 0.0000
# 4 0.0000 0.0000 0.0000 63.8975 0.0000 0.0000
# 5 0.0000 0.0000 0.0000 0.0000 -11.3538 0.0000
# 6 0.0000 0.0000 0.0000 0.0000 0.0000 2.2984
#
#
#
# Elastic Compliance Matrix: (Units=1/GPa)
#
#
# Indices 1 2 3 4 5 6 
#
# 1 0.010281 -0.002654 -0.000340 0.000000 0.000000 0.000000
# 2 -0.002654 0.020404 -0.002837 0.000000 0.000000 0.000000
# 3 -0.000340 -0.002837 0.004435 0.000000 0.000000 0.000000
# 4 0.000000 0.000000 0.000000 0.015650 0.000000 0.000000
# 5 0.000000 0.000000 0.000000 0.000000 -0.088076 0.000000
# 6 0.000000 0.000000 0.000000 0.000000 0.000000 0.435091
#
#
# Mechanical properties :
#
#
# Convention : Reuss Voigt Hill
#
# Bulk Modulus (GPa) = 42.62724 61.14647 51.88685
# Shear Modulus (GPa) = 11.98274 33.49970 22.74122
#
# Velocity S-wave (km/s) = 2.14305 3.58323 2.95231
# Velocity P-wave (km/s) = 4.73935 6.36830 5.61323
#
# Compressibility (1/GPa) = 0.02345918
#
# Stress axis : x y z
#
# Youngs Moduli (GPa) = 97.26303 49.01039 225.46783
#
# Poissons Ratio (x) = 0.13009 0.07656
# Poissons Ratio (y) = 0.25816 0.63961
# Poissons Ratio (z) = 0.03303 0.13903
#
# Static dielectric constant tensor:
#      x y z
#    x 2.020380 0.000000 0.000000 
#    y 0.000000 2.072930 0.000000 
#    z 0.000000 0.000000 2.126330 
# 
# From -- ./inp_files/5945.got.cif
#   From: 2010.05.17/outbox.cif.g08.bks.cpg/sg40_3_cif.got.tgz:5945.got - 2010.06.03 18:35:42.
