data_PCOD9363804
_publ_section_title
;
Structure prediction by ZEFSAII (Michael W. Deem and Ramdas Pophale) SiO2 
 PCOD9363804
Probable space group: A M A 2
;
_chemical_formula_sum "Si O2"
_cell_formula_units_Z 64
_cell_length_a 8.060127
_cell_length_b 31.476481
_cell_length_c 14.730721
_cell_angle_alpha 90.000000
_cell_angle_beta 90.000000
_cell_angle_gamma 90.000000
_cell_volume 3737.249239
_symmetry_space_group_name_H-M "A M A 2"
_symmetry_group_IT_number 40
_symmetry_cell_setting 'orthorhombic'
loop_
_space_group_symop_operation_xyz
x,y,z
-x,-y,z
1/2-x,y,z
1/2+x,-y,z
x,1/2+y,1/2+z
-x,1/2-y,1/2+z
1/2-x,1/2+y,1/2+z
1/2+x,1/2-y,1/2+z
loop_
_atom_site_type_symbol
_atom_site_label
_atom_site_fract_x
_atom_site_fract_y
_atom_site_fract_z
Si Si1 0.049251 0.047574 0.998730
Si Si2 0.550419 0.452725 0.289558
Si Si3 0.440378 0.632404 0.575902
Si Si4 0.550288 0.784833 0.177085
Si Si5 0.561060 0.671918 0.398558
Si Si6 0.950697 0.866154 0.708636
Si Si7 0.943035 0.735205 0.879739
Si Si8 0.448005 0.701252 0.063229
O O1 0.250000 0.050268 0.997308
O O2 0.991092 0.054115 0.893959
O O3 0.986227 0.085245 0.063938
O O4 0.000000 0.000000 0.025484
O O5 0.500000 0.500000 0.261651
O O6 0.750000 0.451096 0.292478
O O7 0.492963 0.414637 0.224552
O O8 0.250000 0.627457 0.606478
O O9 0.514594 0.670568 0.635590
O O10 0.445849 0.650504 0.473484
O O11 0.750000 0.784179 0.168038
O O12 0.501731 0.781052 0.282140
O O13 0.485884 0.744102 0.120869
O O14 0.750000 0.659101 0.416830
O O15 0.508633 0.658385 0.298406
O O16 0.543411 0.722365 0.404038
O O17 0.750000 0.865838 0.707098
O O18 0.006984 0.839154 0.622068
O O19 0.750000 0.746917 0.872986
O O20 0.970365 0.704282 0.964560
O O21 0.250000 0.698552 0.051893
#
# Coordination Sequence:
#
# PCOD9363804 Si02
#       8
#     8   8   8   8   8   8   8   8
#     4   9  17  30  48  71 101 135 167 202 248 303
#     4   9  17  30  48  71 101 135 167 202 248 303
#     4  10  20  35  52  71 102 139 171 207 258 305
#     4  11  22  35  54  77 101 134 176 214 255 305
#     4  12  22  30  49  75 102 133 176 216 248 297
#     4  10  20  35  52  71 102 139 171 207 258 305
#     4  12  24  38  52  69 104 141 172 216 260 297
#     4  11  22  35  54  77 101 134 176 214 255 305
#
# _framework density 17.124893
#
# number of rings (size 3 to 8) (size 9 to 14) (size 15 to 20)
#    0.000    1.500    3.750    3.000    0.000    2.000 
#    0.000    0.000    0.000    0.000    0.000    0.875 
#    0.000    0.000    0.000    0.000    0.000    0.000 
#
# Total GULP energy -178562.195283 kJ/mol
# GULP energy per Si atom -5580.068603 kJ/mol
# Density = 1.708592 g / cm^3
# Si number density = 17.124893 Si / 1000 Ang^3
#
#
#
# Elastic Constant Matrix: (Units=GPa)
#
#
# Indices 1 2 3 4 5 6 
#
# 1 23.8242 2.9000 0.9931 0.0000 0.0000 0.0000
# 2 2.9000 111.4980 19.7062 0.0000 0.0000 0.0000
# 3 0.9931 19.7062 47.6726 0.0000 0.0000 0.0000
# 4 0.0000 0.0000 0.0000 21.9581 0.0000 0.0000
# 5 0.0000 0.0000 0.0000 0.0000 20.6149 0.0000
# 6 0.0000 0.0000 0.0000 0.0000 0.0000 18.1031
#
#
#
# Elastic Compliance Matrix: (Units=1/GPa)
#
#
# Indices 1 2 3 4 5 6 
#
# 1 0.042117 -0.001014 -0.000458 0.000000 0.000000 0.000000
# 2 -0.001014 0.009700 -0.003989 0.000000 0.000000 0.000000
# 3 -0.000458 -0.003989 0.022635 0.000000 0.000000 0.000000
# 4 0.000000 0.000000 0.000000 0.045541 0.000000 0.000000
# 5 0.000000 0.000000 0.000000 0.000000 0.048509 0.000000
# 6 0.000000 0.000000 0.000000 0.000000 0.000000 0.055239
#
#
# Mechanical properties :
#
#
# Convention : Reuss Voigt Hill
#
# Bulk Modulus (GPa) = 15.74070 25.57702 20.65886
# Shear Modulus (GPa) = 19.54354 22.76160 21.15257
#
# Velocity S-wave (km/s) = 3.38188 3.64971 3.51835
# Velocity P-wave (km/s) = 4.94582 5.72088 5.34741
#
# Compressibility (1/GPa) = 0.06352956
#
# Stress axis : x y z
#
# Youngs Moduli (GPa) = 23.74350 103.09182 44.17996
#
# Poissons Ratio (x) = 0.10459 0.02023
# Poissons Ratio (y) = 0.02409 0.17621
# Poissons Ratio (z) = 0.01087 0.41119
#
# Static dielectric constant tensor:
#      x y z
#    x 1.610270 0.000000 0.000000 
#    y 0.000000 1.614070 0.000000 
#    z 0.000000 0.000000 1.556950 
# 
# From -- ./inp_files/15870.got.cif
#   From: 2010.05.17/outbox.cif.g08.bks.cpg/sg40_8_cif.got.tgz:15870.got - 2010.06.03 18:35:42.
