data_PCOD9363404
_publ_section_title
;
Structure prediction by ZEFSAII (Michael W. Deem and Ramdas Pophale) SiO2 
 PCOD9363404
Probable space group: A M A 2
;
_chemical_formula_sum "Si O2"
_cell_formula_units_Z 64
_cell_length_a 17.935585
_cell_length_b 15.383841
_cell_length_c 11.452072
_cell_angle_alpha 90.000000
_cell_angle_beta 90.000000
_cell_angle_gamma 90.000000
_cell_volume 3159.834954
_symmetry_space_group_name_H-M "A M A 2"
_symmetry_group_IT_number 40
_symmetry_cell_setting 'orthorhombic'
loop_
_space_group_symop_operation_xyz
x,y,z
-x,-y,z
1/2-x,y,z
1/2+x,-y,z
x,1/2+y,1/2+z
-x,1/2-y,1/2+z
1/2-x,1/2+y,1/2+z
1/2+x,1/2-y,1/2+z
loop_
_atom_site_type_symbol
_atom_site_label
_atom_site_fract_x
_atom_site_fract_y
_atom_site_fract_z
Si Si1 0.991884 0.904596 0.733000
Si Si2 0.551563 0.255482 0.577617
Si Si3 0.166605 0.526318 0.959436
Si Si4 0.599466 0.832578 0.312508
Si Si5 0.083278 0.843383 0.944298
Si Si6 0.429536 0.871266 0.387018
Si Si7 0.833558 0.651723 0.660702
Si Si8 0.167142 0.641428 0.193537
O O1 0.016651 0.827514 0.646389
O O2 0.046877 0.901054 0.843683
O O3 0.906313 0.883391 0.766019
O O4 0.000000 0.000000 0.680478
O O5 0.594969 0.309691 0.675753
O O6 0.484448 0.311836 0.526457
O O7 0.591813 0.212480 0.466060
O O8 0.250000 0.487657 0.956813
O O9 0.154780 0.592518 0.852239
O O10 0.102320 0.454620 0.953576
O O11 0.160612 0.583994 0.076197
O O12 0.615161 0.742383 0.380028
O O13 0.517341 0.862491 0.359393
O O14 0.142332 0.882022 0.033856
O O15 0.388977 0.874132 0.262985
O O16 0.750000 0.625079 0.689810
O O17 0.836545 0.757250 0.658497
O O18 0.250000 0.626018 0.244482
#
# Coordination Sequence:
#
# PCOD9363404 Si02
#       8
#     8   8   8   8   8   8   8   8
#     4  11  21  36  58  88 119 147 186 248 298 340
#     4  10  19  35  60  84 113 144 202 239 284 340
#     4  11  22  36  55  87 122 152 192 243 298 358
#     4  10  19  35  60  83 112 152 194 240 289 351
#     4  10  19  36  57  86 112 148 200 239 273 350
#     4  11  21  36  58  90 117 147 192 252 299 340
#     4  11  20  37  61  84 116 159 198 235 290 354
#     4  10  19  35  60  84 111 153 200 235 286 356
#
# _framework density 20.254221000000001
#
# number of rings (size 3 to 8) (size 9 to 14) (size 15 to 20)
#    0.000    1.500    3.750    3.750    0.000    0.000 
#    2.250    1.875    0.000    3.000    0.000    0.000 
#    0.000    0.000    0.000    0.000    0.000    0.000 
#
# Total GULP energy -178624.155144 kJ/mol
# GULP energy per Si atom -5582.004848 kJ/mol
# Density = 2.020812 g / cm^3
# Si number density = 20.254221 Si / 1000 Ang^3
#
#
#
# Elastic Constant Matrix: (Units=GPa)
#
#
# Indices 1 2 3 4 5 6 
#
# 1 57.1440 3.4042 1.2455 0.0000 0.0000 0.0000
# 2 3.4042 36.4306 -7.5843 0.0000 0.0000 0.0000
# 3 1.2455 -7.5843 50.8842 0.0000 0.0000 0.0000
# 4 0.0000 0.0000 0.0000 24.2686 0.0000 0.0000
# 5 0.0000 0.0000 0.0000 0.0000 19.7133 0.0000
# 6 0.0000 0.0000 0.0000 0.0000 0.0000 16.3556
#
#
#
# Elastic Compliance Matrix: (Units=1/GPa)
#
#
# Indices 1 2 3 4 5 6 
#
# 1 0.017622 -0.001792 -0.000698 0.000000 0.000000 0.000000
# 2 -0.001792 0.028511 0.004293 0.000000 0.000000 0.000000
# 3 -0.000698 0.004293 0.020309 0.000000 0.000000 0.000000
# 4 0.000000 0.000000 0.000000 0.041206 0.000000 0.000000
# 5 0.000000 0.000000 0.000000 0.000000 0.050727 0.000000
# 6 0.000000 0.000000 0.000000 0.000000 0.000000 0.061141
#
#
# Mechanical properties :
#
#
# Convention : Reuss Voigt Hill
#
# Bulk Modulus (GPa) = 14.27598 15.39885 14.83741
# Shear Modulus (GPa) = 20.89785 21.89373 21.39579
#
# Velocity S-wave (km/s) = 3.21561 3.29134 3.25370
# Velocity P-wave (km/s) = 4.56625 4.69715 4.63216
#
# Compressibility (1/GPa) = 0.07004773
#
# Stress axis : x y z
#
# Youngs Moduli (GPa) = 56.74848 35.07451 49.23809
#
# Poissons Ratio (x) = 0.06285 0.03439
# Poissons Ratio (y) = 0.10169 -0.21140
# Poissons Ratio (z) = 0.03964 -0.15059
#
# Static dielectric constant tensor:
#      x y z
#    x 1.729230 0.000000 0.000000 
#    y 0.000000 1.723380 0.000000 
#    z 0.000000 0.000000 1.738180 
# 
# From -- ./inp_files/12478.got.cif
#   From: 2010.05.17/outbox.cif.g08.bks.cpg/sg40_7_cif.got.tgz:12478.got - 2010.06.03 18:35:42.
