data_PCOD9363617
_publ_section_title
;
Structure prediction by ZEFSAII (Michael W. Deem and Ramdas Pophale) SiO2 
 PCOD9363617
Probable space group: A M A 2
;
_chemical_formula_sum "Si O2"
_cell_formula_units_Z 56
_cell_length_a 7.677119
_cell_length_b 19.051375
_cell_length_c 17.876339
_cell_angle_alpha 90.000000
_cell_angle_beta 90.000000
_cell_angle_gamma 90.000000
_cell_volume 2614.587496
_symmetry_space_group_name_H-M "A M A 2"
_symmetry_group_IT_number 40
_symmetry_cell_setting 'orthorhombic'
loop_
_space_group_symop_operation_xyz
x,y,z
-x,-y,z
1/2-x,y,z
1/2+x,-y,z
x,1/2+y,1/2+z
-x,1/2-y,1/2+z
1/2-x,1/2+y,1/2+z
1/2+x,1/2-y,1/2+z
loop_
_atom_site_type_symbol
_atom_site_label
_atom_site_fract_x
_atom_site_fract_y
_atom_site_fract_z
Si Si1 0.959122 0.918263 0.905910
Si Si2 0.541025 0.809654 0.321165
Si Si3 0.959771 0.839686 0.053919
Si Si4 0.540454 0.917935 0.609147
Si Si5 0.541025 0.309654 0.990655
Si Si6 0.459546 0.582065 0.702673
Si Si7 0.040229 0.160314 0.757901
O O1 0.750000 0.910141 0.905910
O O2 0.026009 0.881107 0.830983
O O3 0.026009 0.881107 0.980837
O O4 0.000000 0.000000 0.905910
O O5 0.750000 0.814525 0.326821
O O6 0.472112 0.801469 0.405910
O O7 0.476408 0.878135 0.277000
O O8 0.502829 0.741436 0.271059
O O9 0.750000 0.845357 0.055028
O O10 0.025172 0.876032 0.129561
O O11 0.002828 0.758564 0.040761
O O12 0.750000 0.911802 0.609426
O O13 0.476408 0.878135 0.534820
O O14 0.474828 0.876032 0.682259
O O15 0.500000 0.000000 0.612259
O O16 0.750000 0.314525 0.984999
O O17 0.500000 0.500000 0.699561
O O18 0.250000 0.588198 0.702394
O O19 0.250000 0.154643 0.756792
#
# Coordination Sequence:
#
# PCOD9363617 Si02
#       7
#     8   8   8   8   8   8   8
#     4  10  20  32  50  78 109 140 175 216 265 320
#     4  10  21  37  57  82 111 144 184 227 272 325
#     4  10  20  36  56  80 110 142 182 227 271 325
#     4  10  22  38  56  81 112 145 183 228 274 323
#     4  10  21  37  57  82 111 144 184 227 272 325
#     4  10  22  38  56  81 112 145 183 228 274 323
#     4  10  20  36  56  80 110 142 182 227 271 325
#
# _framework density 21.418292999999998
#
# number of rings (size 3 to 8) (size 9 to 14) (size 15 to 20)
#    0.000    2.000    1.429    1.714    0.000    4.000 
#    0.000    0.000    0.000    0.000    0.000    0.000 
#    0.000    0.000    0.000    0.000    0.000    0.000 
#
# Total GULP energy -156446.038920 kJ/mol
# GULP energy per Si atom -5587.358533 kJ/mol
# Density = 2.136954 g / cm^3
# Si number density = 21.418293 Si / 1000 Ang^3
#
#
#
# Elastic Constant Matrix: (Units=GPa)
#
#
# Indices 1 2 3 4 5 6 
#
# 1 33.7842 -4.3182 2.2848 0.0000 0.0000 0.0000
# 2 -4.3182 160.7944 108.1262 0.0000 0.0000 0.0000
# 3 2.2848 108.1262 93.5082 0.0000 0.0000 0.0000
# 4 0.0000 0.0000 0.0000 18.1224 0.0000 0.0000
# 5 0.0000 0.0000 0.0000 0.0000 -7.5531 0.0000
# 6 0.0000 0.0000 0.0000 0.0000 0.0000 -717.1980
#
#
#
# Elastic Compliance Matrix: (Units=1/GPa)
#
#
# Indices 1 2 3 4 5 6 
#
# 1 0.030889 0.006011 -0.007706 0.000000 0.000000 0.000000
# 2 0.006011 0.029130 -0.033831 0.000000 0.000000 0.000000
# 3 -0.007706 -0.033831 0.050002 0.000000 0.000000 0.000000
# 4 0.000000 0.000000 0.000000 0.055180 0.000000 0.000000
# 5 0.000000 0.000000 0.000000 0.000000 -0.132396 0.000000
# 6 0.000000 0.000000 0.000000 0.000000 0.000000 -0.001394
#
#
# Mechanical properties :
#
#
# Convention : Reuss Voigt Hill
#
# Bulk Modulus (GPa) = 25.66032 55.58582 40.62307
# Shear Modulus (GPa) = 43.30794 -129.19281 -42.94244
#
# Velocity S-wave (km/s) = 4.50155 -7.77495 -4.48252
# Velocity P-wave (km/s) = 6.24701 7.38857 2.78978
#
# Compressibility (1/GPa) = 0.03897068
#
# Stress axis : x y z
#
# Youngs Moduli (GPa) = 32.37385 34.32878 19.99919
#
# Poissons Ratio (x) = -0.20636 0.15411
# Poissons Ratio (y) = -0.19461 0.67659
# Poissons Ratio (z) = 0.24946 1.16137
#
# Static dielectric constant tensor:
#      x y z
#    x 1.792180 0.000000 0.000000 
#    y 0.000000 1.726070 0.000000 
#    z 0.000000 0.000000 1.794010 
# 
# From -- ./inp_files/16398.got.cif
#   From: 2010.05.17/outbox.cif.g08.bks.cpg/sg40_9_cif.got.tgz:16398.got - 2010.06.03 18:35:42.
