data_PCOD9363241
_publ_section_title
;
Structure prediction by ZEFSAII (Michael W. Deem and Ramdas Pophale) SiO2 
 PCOD9363241
Probable space group: A M A 2
;
_chemical_formula_sum "Si O2"
_cell_formula_units_Z 64
_cell_length_a 14.169728
_cell_length_b 11.494978
_cell_length_c 17.944461
_cell_angle_alpha 90.000000
_cell_angle_beta 90.000000
_cell_angle_gamma 90.000000
_cell_volume 2922.806577
_symmetry_space_group_name_H-M "A M A 2"
_symmetry_group_IT_number 40
_symmetry_cell_setting 'orthorhombic'
loop_
_space_group_symop_operation_xyz
x,y,z
-x,-y,z
1/2-x,y,z
1/2+x,-y,z
x,1/2+y,1/2+z
-x,1/2-y,1/2+z
1/2-x,1/2+y,1/2+z
1/2+x,1/2-y,1/2+z
loop_
_atom_site_type_symbol
_atom_site_label
_atom_site_fract_x
_atom_site_fract_y
_atom_site_fract_z
Si Si1 0.440553 0.253195 0.862960
Si Si2 0.140712 0.670580 0.215491
Si Si3 0.142200 0.775581 0.817886
Si Si4 0.860830 0.090772 0.668446
Si Si5 0.042824 0.375558 0.005695
Si Si6 0.145196 0.037571 0.078610
Si Si7 0.646145 0.977083 0.900367
Si Si8 0.034814 0.307523 0.595569
O O1 0.378622 0.248009 0.788492
O O2 0.548160 0.290933 0.844802
O O3 0.434289 0.114960 0.880822
O O4 0.402429 0.324792 0.933941
O O5 0.250000 0.682697 0.193364
O O6 0.119231 0.531600 0.211926
O O7 0.066734 0.718994 0.157333
O O8 0.250000 0.727712 0.824988
O O9 0.125141 0.811889 0.731857
O O10 0.141476 0.895699 0.865436
O O11 0.750000 0.088845 0.652086
O O12 0.908070 0.106341 0.586958
O O13 0.000000 0.500000 0.986532
O O14 0.967760 0.271094 0.021089
O O15 0.250000 0.066432 0.105143
O O16 0.067504 0.132650 0.099695
O O17 0.108504 0.912027 0.102687
O O18 0.146586 0.024005 0.989346
O O19 0.750000 0.930409 0.874796
#
# Coordination Sequence:
#
# PCOD9363241 Si02
#       8
#     8   8   8   8   8   8   8   8
#     4  12  23  38  66  91 129 178 222 283 349 406
#     4  11  23  42  68  99 133 180 238 289 348 422
#     4  10  21  37  63  99 132 169 224 288 352 405
#     4  10  22  40  66  99 134 178 234 298 351 407
#     4  12  25  42  63  98 143 185 229 277 350 433
#     4  10  22  40  65  99 132 167 224 292 349 409
#     4  10  19  33  59  95 127 156 203 270 340 400
#     4  11  22  40  68  95 131 179 224 281 355 406
#
# _framework density 21.896763
#
# number of rings (size 3 to 8) (size 9 to 14) (size 15 to 20)
#    0.000    1.250    3.750    2.625    1.750    1.500 
#    2.250    1.875    0.000    0.000    0.000    0.000 
#    0.000    0.000    0.000    0.000    0.000    0.000 
#
# Total GULP energy -178426.775831 kJ/mol
# GULP energy per Si atom -5575.836745 kJ/mol
# Density = 2.184693 g / cm^3
# Si number density = 21.896763 Si / 1000 Ang^3
#
#
#
# Elastic Constant Matrix: (Units=GPa)
#
#
# Indices 1 2 3 4 5 6 
#
# 1 98.3776 -3.0611 28.5393 0.0000 0.0000 0.0000
# 2 -3.0611 41.7554 1.4751 0.0000 0.0000 0.0000
# 3 28.5393 1.4751 85.4230 0.0000 0.0000 0.0000
# 4 0.0000 0.0000 0.0000 36.1029 0.0000 0.0000
# 5 0.0000 0.0000 0.0000 0.0000 6.2509 0.0000
# 6 0.0000 0.0000 0.0000 0.0000 0.0000 12.0360
#
#
#
# Elastic Compliance Matrix: (Units=1/GPa)
#
#
# Indices 1 2 3 4 5 6 
#
# 1 0.011294 0.000962 -0.003790 0.000000 0.000000 0.000000
# 2 0.000962 0.024046 -0.000737 0.000000 0.000000 0.000000
# 3 -0.003790 -0.000737 0.012985 0.000000 0.000000 0.000000
# 4 0.000000 0.000000 0.000000 0.027699 0.000000 0.000000
# 5 0.000000 0.000000 0.000000 0.000000 0.159978 0.000000
# 6 0.000000 0.000000 0.000000 0.000000 0.000000 0.083084
#
#
# Mechanical properties :
#
#
# Convention : Reuss Voigt Hill
#
# Bulk Modulus (GPa) = 24.27429 31.05141 27.66285
# Shear Modulus (GPa) = 14.70816 24.11812 19.41314
#
# Velocity S-wave (km/s) = 2.59454 3.32241 2.98077
# Velocity P-wave (km/s) = 4.48167 5.37861 4.95050
#
# Compressibility (1/GPa) = 0.04119585
#
# Stress axis : x y z
#
# Youngs Moduli (GPa) = 88.54014 41.58777 77.00972
#
# Poissons Ratio (x) = -0.04000 0.29186
# Poissons Ratio (y) = -0.08516 0.05672
# Poissons Ratio (z) = 0.33556 0.03063
#
# Static dielectric constant tensor:
#      x y z
#    x 1.861820 0.000000 0.000000 
#    y 0.000000 1.841870 0.000000 
#    z 0.000000 0.000000 1.881340 
# 
# From -- ./inp_files/20803.got.cif
#   From: 2010.05.17/outbox.cif.g08.bks.cpg/sg40_11_cif.got.tgz:20803.got - 2010.06.03 18:35:42.
