data_PCOD9363481
_publ_section_title
;
Structure prediction by ZEFSAII (Michael W. Deem and Ramdas Pophale) SiO2 
 PCOD9363481
Probable space group: A M A 2
;
_chemical_formula_sum "Si O2"
_cell_formula_units_Z 40
_cell_length_a 15.764139
_cell_length_b 22.917503
_cell_length_c 5.205271
_cell_angle_alpha 90.000000
_cell_angle_beta 90.000000
_cell_angle_gamma 90.000000
_cell_volume 1880.532734
_symmetry_space_group_name_H-M "A M A 2"
_symmetry_group_IT_number 40
_symmetry_cell_setting 'orthorhombic'
loop_
_space_group_symop_operation_xyz
x,y,z
-x,-y,z
1/2-x,y,z
1/2+x,-y,z
x,1/2+y,1/2+z
-x,1/2-y,1/2+z
1/2-x,1/2+y,1/2+z
1/2+x,1/2-y,1/2+z
loop_
_atom_site_type_symbol
_atom_site_label
_atom_site_fract_x
_atom_site_fract_y
_atom_site_fract_z
Si Si1 0.909921 0.206907 0.418100
Si Si2 0.051161 0.940734 0.784278
Si Si3 0.434472 0.163715 0.707972
Si Si4 0.250000 0.179006 0.693767
Si Si5 0.349530 0.907706 0.263621
Si Si6 0.750000 0.242050 0.701689
O O1 0.924546 0.274049 0.348277
O O2 0.869227 0.161320 0.219808
O O3 0.837491 0.207895 0.641188
O O4 0.002463 0.181310 0.478514
O O5 0.102382 0.925166 0.525543
O O6 0.984154 0.888626 0.841543
O O7 0.113796 0.943058 0.024901
O O8 0.000000 0.000000 0.748347
O O9 0.338137 0.145762 0.648104
O O10 0.250000 0.230680 0.482878
O O11 0.250000 0.206849 0.980604
O O12 0.250000 0.915643 0.292320
#
# Coordination Sequence:
#
# PCOD9363481 Si02
#       6
#     8   8   8   4   8   4
#     4  10  19  36  62  98 131 168 211 265 344 395
#     4  11  25  45  69  93 137 177 232 275 333 395
#     4  10  21  38  62  94 132 172 214 267 331 397
#     4  10  22  36  54  84 126 170 214 252 317 390
#     4  11  23  43  70 102 129 172 221 285 340 408
#     4  10  20  34  56  88 130 164 204 258 315 408
#
# _framework density 21.270568999999998
#
# number of rings (size 3 to 8) (size 9 to 14) (size 15 to 20)
#    0.000    1.600    1.000    3.600    0.000    9.600 
#    3.600    0.000    0.000    0.000    0.000    0.000 
#    0.000    0.000    0.000    0.000    0.000    0.000 
#
# Total GULP energy -111618.083422 kJ/mol
# GULP energy per Si atom -5580.904171 kJ/mol
# Density = 2.122216 g / cm^3
# Si number density = 21.270569 Si / 1000 Ang^3
#
#
#
# Elastic Constant Matrix: (Units=GPa)
#
#
# Indices 1 2 3 4 5 6 
#
# 1 196.0905 47.4393 44.5149 0.0000 0.0000 0.0000
# 2 47.4393 89.9280 28.3203 0.0000 0.0000 0.0000
# 3 44.5149 28.3203 91.7947 0.0000 0.0000 0.0000
# 4 0.0000 0.0000 0.0000 15.3979 0.0000 0.0000
# 5 0.0000 0.0000 0.0000 0.0000 28.1626 0.0000
# 6 0.0000 0.0000 0.0000 0.0000 0.0000 17.9363
#
#
#
# Elastic Compliance Matrix: (Units=1/GPa)
#
#
# Indices 1 2 3 4 5 6 
#
# 1 0.006230 -0.002586 -0.002223 0.000000 0.000000 0.000000
# 2 -0.002586 0.013390 -0.002877 0.000000 0.000000 0.000000
# 3 -0.002223 -0.002877 0.012860 0.000000 0.000000 0.000000
# 4 0.000000 0.000000 0.000000 0.064944 0.000000 0.000000
# 5 0.000000 0.000000 0.000000 0.000000 0.035508 0.000000
# 6 0.000000 0.000000 0.000000 0.000000 0.000000 0.055753
#
#
# Mechanical properties :
#
#
# Convention : Reuss Voigt Hill
#
# Bulk Modulus (GPa) = 58.45586 68.70691 63.58138
# Shear Modulus (GPa) = 23.83670 29.46861 26.65266
#
# Velocity S-wave (km/s) = 3.35123 3.72616 3.54366
# Velocity P-wave (km/s) = 6.52043 7.13329 6.83374
#
# Compressibility (1/GPa) = 0.01710692
#
# Stress axis : x y z
#
# Youngs Moduli (GPa) = 160.51084 74.68043 77.76284
#
# Poissons Ratio (x) = 0.19315 0.17289
# Poissons Ratio (y) = 0.41514 0.22372
# Poissons Ratio (z) = 0.35686 0.21485
#
# Static dielectric constant tensor:
#      x y z
#    x 1.808190 0.000000 0.000000 
#    y 0.000000 1.776570 0.000000 
#    z 0.000000 0.000000 1.805060 
# 
# From -- ./inp_files/1234.got.cif
#   From: 2010.05.17/outbox.cif.g08.bks.cpg/sg40_1_cif.got.tgz:1234.got - 2010.06.03 18:35:42.
