data_PCOD9363193
_publ_section_title
;
Structure prediction by ZEFSAII (Michael W. Deem and Ramdas Pophale) SiO2 
 PCOD9363193
Probable space group: A M A 2
;
_chemical_formula_sum "Si O2"
_cell_formula_units_Z 64
_cell_length_a 8.931094
_cell_length_b 25.555065
_cell_length_c 15.178918
_cell_angle_alpha 90.000000
_cell_angle_beta 90.000000
_cell_angle_gamma 90.000000
_cell_volume 3464.355609
_symmetry_space_group_name_H-M "A M A 2"
_symmetry_group_IT_number 40
_symmetry_cell_setting 'orthorhombic'
loop_
_space_group_symop_operation_xyz
x,y,z
-x,-y,z
1/2-x,y,z
1/2+x,-y,z
x,1/2+y,1/2+z
-x,1/2-y,1/2+z
1/2-x,1/2+y,1/2+z
1/2+x,1/2-y,1/2+z
loop_
_atom_site_type_symbol
_atom_site_label
_atom_site_fract_x
_atom_site_fract_y
_atom_site_fract_z
Si Si1 0.569955 0.169839 0.934830
Si Si2 0.428845 0.610148 0.922207
Si Si3 0.929781 0.153380 0.135543
Si Si4 0.073666 0.762469 0.658519
Si Si5 0.430181 0.944213 0.256176
Si Si6 0.926380 0.219827 0.449248
Si Si7 0.430207 0.869375 0.751912
Si Si8 0.928510 0.943040 0.608670
O O1 0.750000 0.177043 0.935061
O O2 0.495054 0.225816 0.916332
O O3 0.533681 0.130653 0.855472
O O4 0.523925 0.151776 0.032573
O O5 0.250000 0.608616 0.910055
O O6 0.508612 0.573345 0.851260
O O7 0.489647 0.669040 0.913453
O O8 0.464429 0.589902 0.020520
O O9 0.750000 0.155691 0.138160
O O10 0.976145 0.102190 0.189285
O O11 0.991544 0.207726 0.174350
O O12 0.250000 0.754488 0.674353
O O13 0.054022 0.777552 0.555570
O O14 0.023916 0.812271 0.714816
O O15 0.250000 0.947625 0.257722
O O16 0.500000 0.000000 0.232052
O O17 0.750000 0.216298 0.430070
O O18 0.250000 0.873545 0.741233
O O19 0.507717 0.912927 0.693121
O O20 0.750000 0.947351 0.614689
O O21 0.000000 0.000000 0.601190
#
# Coordination Sequence:
#
# PCOD9363193 Si02
#       8
#     8   8   8   8   8   8   8   8
#     4   9  19  36  58  84 117 155 192 235 285 339
#     4  11  23  38  58  85 115 152 191 233 285 345
#     4   9  20  38  58  82 114 150 192 239 287 337
#     4   9  18  32  53  83 116 151 187 228 280 335
#     4  11  24  41  60  84 112 149 194 244 293 341
#     4  10  19  33  54  83 119 154 189 232 279 336
#     4  10  20  36  58  85 118 154 191 236 283 336
#     4  11  24  40  60  84 114 153 193 237 286 342
#
# _framework density 18.473853999999999
#
# number of rings (size 3 to 8) (size 9 to 14) (size 15 to 20)
#    0.000    2.000    1.250    1.875    1.750    5.000 
#    0.000    0.625    0.000    1.500    0.000    0.000 
#    0.000    0.000    0.000    0.000    0.000    0.000 
#
# Total GULP energy -178731.512685 kJ/mol
# GULP energy per Si atom -5585.359771 kJ/mol
# Density = 1.843181 g / cm^3
# Si number density = 18.473854 Si / 1000 Ang^3
#
#
#
# Elastic Constant Matrix: (Units=GPa)
#
#
# Indices 1 2 3 4 5 6 
#
# 1 30.1273 31.7343 24.2645 0.0000 0.0000 0.0000
# 2 31.7343 93.9081 22.3858 0.0000 0.0000 0.0000
# 3 24.2645 22.3858 49.8749 0.0000 0.0000 0.0000
# 4 0.0000 0.0000 0.0000 27.7446 0.0000 0.0000
# 5 0.0000 0.0000 0.0000 0.0000 17.2272 0.0000
# 6 0.0000 0.0000 0.0000 0.0000 0.0000 34.5869
#
#
#
# Elastic Compliance Matrix: (Units=1/GPa)
#
#
# Indices 1 2 3 4 5 6 
#
# 1 0.076093 -0.018913 -0.028531 0.000000 0.000000 0.000000
# 2 -0.018913 0.016625 0.001739 0.000000 0.000000 0.000000
# 3 -0.028531 0.001739 0.033150 0.000000 0.000000 0.000000
# 4 0.000000 0.000000 0.000000 0.036043 0.000000 0.000000
# 5 0.000000 0.000000 0.000000 0.000000 0.058048 0.000000
# 6 0.000000 0.000000 0.000000 0.000000 0.000000 0.028913
#
#
# Mechanical properties :
#
#
# Convention : Reuss Voigt Hill
#
# Bulk Modulus (GPa) = 29.01994 36.74215 32.88105
# Shear Modulus (GPa) = 14.21396 22.28011 18.24704
#
# Velocity S-wave (km/s) = 2.77683 3.47657 3.14621
# Velocity P-wave (km/s) = 5.10136 6.00394 5.57096
#
# Compressibility (1/GPa) = 0.03445906
#
# Stress axis : x y z
#
# Youngs Moduli (GPa) = 13.14187 60.14926 30.16589
#
# Poissons Ratio (x) = 1.13759 0.86066
# Poissons Ratio (y) = 0.24855 -0.05246
# Poissons Ratio (z) = 0.37495 -0.10460
#
# Static dielectric constant tensor:
#      x y z
#    x 1.619180 0.000000 0.000000 
#    y 0.000000 1.598730 0.000000 
#    z 0.000000 0.000000 1.661350 
# 
# From -- ./inp_files/15607.got.cif
#   From: 2010.05.17/outbox.cif.g08.bks.cpg/sg40_8_cif.got.tgz:15607.got - 2010.06.03 18:35:42.
