data_PCOD9363411
_publ_section_title
;
Structure prediction by ZEFSAII (Michael W. Deem and Ramdas Pophale) SiO2 
 PCOD9363411
Probable space group: A M A 2
;
_chemical_formula_sum "Si O2"
_cell_formula_units_Z 48
_cell_length_a 8.562120
_cell_length_b 29.025207
_cell_length_c 10.543201
_cell_angle_alpha 90.000000
_cell_angle_beta 90.000000
_cell_angle_gamma 90.000000
_cell_volume 2620.167902
_symmetry_space_group_name_H-M "A M A 2"
_symmetry_group_IT_number 40
_symmetry_cell_setting 'orthorhombic'
loop_
_space_group_symop_operation_xyz
x,y,z
-x,-y,z
1/2-x,y,z
1/2+x,-y,z
x,1/2+y,1/2+z
-x,1/2-y,1/2+z
1/2-x,1/2+y,1/2+z
1/2+x,1/2-y,1/2+z
loop_
_atom_site_type_symbol
_atom_site_label
_atom_site_fract_x
_atom_site_fract_y
_atom_site_fract_z
Si Si1 0.937850 0.797053 0.177950
Si Si2 0.562156 0.306523 0.185188
Si Si3 0.936004 0.145888 0.938466
Si Si4 0.940228 0.354719 0.925683
Si Si5 0.437893 0.049317 0.316754
Si Si6 0.937431 0.450087 0.519675
O O1 0.750000 0.794299 0.176765
O O2 0.986813 0.822441 0.307951
O O3 0.008232 0.746170 0.173374
O O4 0.992379 0.827164 0.058627
O O5 0.750000 0.308091 0.191810
O O6 0.492809 0.329468 0.310787
O O7 0.509605 0.334055 0.059549
O O8 0.750000 0.147695 0.946584
O O9 0.993434 0.093158 0.945325
O O10 0.750000 0.355259 0.925985
O O11 0.992913 0.406683 0.896196
O O12 0.250000 0.048314 0.320038
O O13 0.483035 0.055484 0.168617
O O14 0.500000 0.000000 0.360463
O O15 0.750000 0.449240 0.512208
O O16 0.000000 0.500000 0.478265
#
# Coordination Sequence:
#
# PCOD9363411 Si02
#       6
#     8   8   8   8   8   8
#     4  11  21  39  63  87 115 151 196 248 299 352
#     4  11  23  39  59  85 118 157 196 242 300 354
#     4  12  24  39  58  86 121 160 203 242 287 349
#     4   9  19  37  59  82 113 150 187 232 294 354
#     4   9  17  33  56  84 112 143 181 231 287 343
#     4  10  19  35  60  88 117 149 191 245 299 350
#
# _framework density 18.319437000000001
#
# number of rings (size 3 to 8) (size 9 to 14) (size 15 to 20)
#    0.000    1.667    1.667    4.000    0.000    2.000 
#    0.000    5.000    0.000    2.000    0.000    0.000 
#    0.000    0.000    0.000    0.000    0.000    0.000 
#
# Total GULP energy -134089.347638 kJ/mol
# GULP energy per Si atom -5587.056152 kJ/mol
# Density = 1.827774 g / cm^3
# Si number density = 18.319437 Si / 1000 Ang^3
#
#
#
# Elastic Constant Matrix: (Units=GPa)
#
#
# Indices 1 2 3 4 5 6 
#
# 1 23.2628 -14.6438 -16.1683 0.0000 0.0000 0.0000
# 2 -14.6438 104.4175 5.6003 0.0000 0.0000 0.0000
# 3 -16.1683 5.6003 61.4217 0.0000 0.0000 0.0000
# 4 0.0000 0.0000 0.0000 -9.8891 0.0000 0.0000
# 5 0.0000 0.0000 0.0000 0.0000 -22.8059 0.0000
# 6 0.0000 0.0000 0.0000 0.0000 0.0000 35.7001
#
#
#
# Elastic Compliance Matrix: (Units=1/GPa)
#
#
# Indices 1 2 3 4 5 6 
#
# 1 0.057678 0.007310 0.014516 0.000000 0.000000 0.000000
# 2 0.007310 0.010551 0.000962 0.000000 0.000000 0.000000
# 3 0.014516 0.000962 0.020014 0.000000 0.000000 0.000000
# 4 0.000000 0.000000 0.000000 -0.101121 0.000000 0.000000
# 5 0.000000 0.000000 0.000000 0.000000 -0.043848 0.000000
# 6 0.000000 0.000000 0.000000 0.000000 0.000000 0.028011
#
#
# Mechanical properties :
#
#
# Convention : Reuss Voigt Hill
#
# Bulk Modulus (GPa) = 7.47265 15.40871 11.44068
# Shear Modulus (GPa) = -168.42854 14.88860 -76.76997
#
# Velocity S-wave (km/s) = -9.59893 2.85392 -6.48053
# Velocity P-wave (km/s) = 10.89792 4.39195 7.05250
#
# Compressibility (1/GPa) = 0.13382128
#
# Stress axis : x y z
#
# Youngs Moduli (GPa) = 17.33757 94.78177 49.96415
#
# Poissons Ratio (x) = -0.69289 -0.72530
# Poissons Ratio (y) = -0.12674 -0.04808
# Poissons Ratio (z) = -0.25168 -0.09121
#
# Static dielectric constant tensor:
#      x y z
#    x 1.619980 0.000000 0.000000 
#    y 0.000000 1.614790 0.000000 
#    z 0.000000 0.000000 1.605720 
# 
# From -- ./inp_files/4621.got.cif
#   From: 2010.05.17/outbox.cif.g08.bks.cpg/sg40_3_cif.got.tgz:4621.got - 2010.06.03 18:35:42.
