data_PCOD9363935
_publ_section_title
;
Structure prediction by ZEFSAII (Michael W. Deem and Ramdas Pophale) SiO2 
 PCOD9363935
Probable space group: A M A 2
;
_chemical_formula_sum "Si O2"
_cell_formula_units_Z 64
_cell_length_a 8.778904
_cell_length_b 20.924138
_cell_length_c 19.726052
_cell_angle_alpha 90.000000
_cell_angle_beta 90.000000
_cell_angle_gamma 90.000000
_cell_volume 3623.498194
_symmetry_space_group_name_H-M "A M A 2"
_symmetry_group_IT_number 40
_symmetry_cell_setting 'orthorhombic'
loop_
_space_group_symop_operation_xyz
x,y,z
-x,-y,z
1/2-x,y,z
1/2+x,-y,z
x,1/2+y,1/2+z
-x,1/2-y,1/2+z
1/2-x,1/2+y,1/2+z
1/2+x,1/2-y,1/2+z
loop_
_atom_site_type_symbol
_atom_site_label
_atom_site_fract_x
_atom_site_fract_y
_atom_site_fract_z
Si Si1 0.066464 0.068156 0.959180
Si Si2 0.068308 0.431517 0.953122
Si Si3 0.431254 0.179512 0.361569
Si Si4 0.567468 0.068788 0.109092
Si Si5 0.567388 0.817792 0.701663
Si Si6 0.932632 0.068985 0.611792
Si Si7 0.932597 0.320476 0.702133
Si Si8 0.432496 0.183748 0.859926
O O1 0.250000 0.064127 0.964299
O O2 0.025583 0.124753 0.907759
O O3 0.000000 0.000000 0.936116
O O4 0.996907 0.080534 0.033438
O O5 0.250000 0.434323 0.948104
O O6 0.000000 0.500000 0.932653
O O7 0.005804 0.374878 0.907067
O O8 0.028120 0.420956 0.032339
O O9 0.250000 0.176752 0.368629
O O10 0.468931 0.170302 0.281907
O O11 0.489807 0.249975 0.380750
O O12 0.750000 0.065759 0.107593
O O13 0.509613 0.124505 0.158032
O O14 0.500000 0.000000 0.130700
O O15 0.750000 0.814734 0.695189
O O16 0.501618 0.874561 0.656490
O O17 0.495274 0.749435 0.682604
O O18 0.529502 0.828969 0.781127
O O19 0.750000 0.067890 0.618080
O O20 0.000000 0.000000 0.631710
O O21 0.750000 0.322228 0.693949
O O22 0.250000 0.192164 0.864018
#
# Coordination Sequence:
#
# PCOD9363935 Si02
#       8
#     8   8   8   8   8   8   8   8
#     4  10  20  36  56  79 109 143 178 221 267 317
#     4  10  21  37  57  79 108 142 178 220 266 316
#     4  10  21  36  57  82 108 139 178 221 266 316
#     4  11  22  37  57  81 108 141 179 222 268 318
#     4  10  20  36  57  82 110 142 180 223 268 318
#     4  10  21  37  56  80 109 144 182 223 269 318
#     4  10  21  38  57  80 109 142 179 221 267 318
#     4   9  20  37  56  79 109 143 179 219 267 317
#
# _framework density 17.662489000000001
#
# number of rings (size 3 to 8) (size 9 to 14) (size 15 to 20)
#    0.000    2.000    0.000    4.125    0.000    6.500 
#    0.000    2.500    0.000    0.000    0.000    0.000 
#    0.000    0.000    0.000    0.000    0.000    0.000 
#
# Total GULP energy -178729.474165 kJ/mol
# GULP energy per Si atom -5585.296068 kJ/mol
# Density = 1.762229 g / cm^3
# Si number density = 17.662489 Si / 1000 Ang^3
#
#
#
# Elastic Constant Matrix: (Units=GPa)
#
#
# Indices 1 2 3 4 5 6 
#
# 1 78.3944 82.2445 53.9532 0.0000 0.0000 0.0000
# 2 82.2445 205.6510 112.8833 0.0000 0.0000 0.0000
# 3 53.9532 112.8833 77.6086 0.0000 0.0000 0.0000
# 4 0.0000 0.0000 0.0000 44.0546 0.0000 0.0000
# 5 0.0000 0.0000 0.0000 0.0000 -24.0260 0.0000
# 6 0.0000 0.0000 0.0000 0.0000 0.0000 40.4981
#
#
#
# Elastic Compliance Matrix: (Units=1/GPa)
#
#
# Indices 1 2 3 4 5 6 
#
# 1 0.024665 -0.002242 -0.013886 0.000000 0.000000 0.000000
# 2 -0.002242 0.024323 -0.033820 0.000000 0.000000 0.000000
# 3 -0.013886 -0.033820 0.071731 0.000000 0.000000 0.000000
# 4 0.000000 0.000000 0.000000 0.022699 0.000000 0.000000
# 5 0.000000 0.000000 0.000000 0.000000 -0.041622 0.000000
# 6 0.000000 0.000000 0.000000 0.000000 0.000000 0.024693
#
#
# Mechanical properties :
#
#
# Convention : Reuss Voigt Hill
#
# Bulk Modulus (GPa) = 48.02436 95.53510 71.77973
# Shear Modulus (GPa) = 21.42924 19.61021 20.51973
#
# Velocity S-wave (km/s) = 3.48697 3.33569 3.41217
# Velocity P-wave (km/s) = 6.59250 8.30918 7.50012
#
# Compressibility (1/GPa) = 0.02082276
#
# Stress axis : x y z
#
# Youngs Moduli (GPa) = 40.54379 41.11269 13.94101
#
# Poissons Ratio (x) = 0.09217 0.19358
# Poissons Ratio (y) = 0.09090 0.47149
# Poissons Ratio (z) = 0.56299 1.39044
#
# Static dielectric constant tensor:
#      x y z
#    x 1.589110 0.000000 0.000000 
#    y 0.000000 1.568060 0.000000 
#    z 0.000000 0.000000 1.588710 
# 
# From -- ./inp_files/19616.got.cif
#   From: 2010.05.17/outbox.cif.g08.bks.cpg/sg40_10_cif.got.tgz:19616.got - 2010.06.03 18:35:42.
