data_PCOD9363108
_publ_section_title
;
Structure prediction by ZEFSAII (Michael W. Deem and Ramdas Pophale) SiO2 
 PCOD9363108
Probable space group: A M A 2
;
_chemical_formula_sum "Si O2"
_cell_formula_units_Z 64
_cell_length_a 8.698149
_cell_length_b 23.988720
_cell_length_c 19.531980
_cell_angle_alpha 90.000000
_cell_angle_beta 90.000000
_cell_angle_gamma 90.000000
_cell_volume 4075.493353
_symmetry_space_group_name_H-M "A M A 2"
_symmetry_group_IT_number 40
_symmetry_cell_setting 'orthorhombic'
loop_
_space_group_symop_operation_xyz
x,y,z
-x,-y,z
1/2-x,y,z
1/2+x,-y,z
x,1/2+y,1/2+z
-x,1/2-y,1/2+z
1/2-x,1/2+y,1/2+z
1/2+x,1/2-y,1/2+z
loop_
_atom_site_type_symbol
_atom_site_label
_atom_site_fract_x
_atom_site_fract_y
_atom_site_fract_z
Si Si1 0.564652 0.561026 0.534830
Si Si2 0.434705 0.938195 0.319690
Si Si3 0.932784 0.225419 0.531051
Si Si4 0.433976 0.159587 0.407470
Si Si5 0.433702 0.252748 0.673482
Si Si6 0.935538 0.168350 0.952263
Si Si7 0.934149 0.231035 0.818151
Si Si8 0.436874 0.882373 0.176637
O O1 0.500000 0.500000 0.522074
O O2 0.750000 0.558247 0.535888
O O3 0.520260 0.607514 0.478870
O O4 0.513085 0.584430 0.609029
O O5 0.250000 0.939564 0.320298
O O6 0.494321 0.896603 0.378084
O O7 0.486297 0.912266 0.246510
O O8 0.500000 0.000000 0.327220
O O9 0.750000 0.223142 0.528337
O O10 0.002948 0.178855 0.480849
O O11 0.991690 0.222796 0.608539
O O12 0.991117 0.284447 0.500322
O O13 0.250000 0.155705 0.410034
O O14 0.473629 0.210118 0.354918
O O15 0.250000 0.252110 0.666085
O O16 0.482629 0.227307 0.745972
O O17 0.485698 0.317837 0.673991
O O18 0.750000 0.173994 0.959109
O O19 0.974637 0.184074 0.874264
O O20 0.750000 0.230116 0.807850
O O21 0.250000 0.881992 0.176410
#
# Coordination Sequence:
#
# PCOD9363108 Si02
#       8
#     8   8   8   8   8   8   8   8
#     4  10  19  33  49  68  96 134 172 206 243 286
#     4  11  21  34  50  73 101 138 179 216 252 295
#     4  11  21  32  50  75 100 127 165 210 251 302
#     4  10  20  35  52  72  99 133 168 209 256 303
#     4  11  19  32  51  72 100 135 166 201 251 304
#     4   9  18  34  51  68  98 134 165 203 254 301
#     4   9  18  31  49  73  97 125 164 206 249 299
#     4   9  18  31  47  67  99 137 172 204 242 290
#
# _framework density 15.703621
#
# number of rings (size 3 to 8) (size 9 to 14) (size 15 to 20)
#    0.000    2.000    2.500    3.375    0.000    2.500 
#    0.000    0.625    0.000    0.000    0.000    0.875 
#    0.000    2.000    0.000    0.000    0.000    0.000 
#
# Total GULP energy -178586.549885 kJ/mol
# GULP energy per Si atom -5580.829684 kJ/mol
# Density = 1.566788 g / cm^3
# Si number density = 15.703621 Si / 1000 Ang^3
#
#
#
# Elastic Constant Matrix: (Units=GPa)
#
#
# Indices 1 2 3 4 5 6 
#
# 1 42.0602 30.4978 45.1915 0.0000 0.0000 0.0000
# 2 30.4978 105.3910 71.6791 0.0000 0.0000 0.0000
# 3 45.1915 71.6791 132.1948 0.0000 0.0000 0.0000
# 4 0.0000 0.0000 0.0000 19.7685 0.0000 0.0000
# 5 0.0000 0.0000 0.0000 0.0000 23.9874 0.0000
# 6 0.0000 0.0000 0.0000 0.0000 0.0000 22.0848
#
#
#
# Elastic Compliance Matrix: (Units=1/GPa)
#
#
# Indices 1 2 3 4 5 6 
#
# 1 0.038357 -0.003456 -0.011239 0.000000 0.000000 0.000000
# 2 -0.003456 0.015343 -0.007138 0.000000 0.000000 0.000000
# 3 -0.011239 -0.007138 0.015277 0.000000 0.000000 0.000000
# 4 0.000000 0.000000 0.000000 0.050586 0.000000 0.000000
# 5 0.000000 0.000000 0.000000 0.000000 0.041688 0.000000
# 6 0.000000 0.000000 0.000000 0.000000 0.000000 0.045280
#
#
# Mechanical properties :
#
#
# Convention : Reuss Voigt Hill
#
# Bulk Modulus (GPa) = 39.50723 63.82032 51.66378
# Shear Modulus (GPa) = 19.33239 21.98665 20.65952
#
# Velocity S-wave (km/s) = 3.51248 3.74585 3.63104
# Velocity P-wave (km/s) = 6.45466 7.70956 7.10985
#
# Compressibility (1/GPa) = 0.02531182
#
# Stress axis : x y z
#
# Youngs Moduli (GPa) = 26.07113 65.17494 65.45803
#
# Poissons Ratio (x) = 0.22524 0.73565
# Poissons Ratio (y) = 0.09010 0.46724
# Poissons Ratio (z) = 0.29300 0.46522
#
# Static dielectric constant tensor:
#      x y z
#    x 1.525230 0.000000 0.000000 
#    y 0.000000 1.501200 0.000000 
#    z 0.000000 0.000000 1.522870 
# 
# From -- ./inp_files/19592.got.cif
#   From: 2010.05.17/outbox.cif.g08.bks.cpg/sg40_10_cif.got.tgz:19592.got - 2010.06.03 18:35:42.
