data_PCOD9363944
_publ_section_title
;
Structure prediction by ZEFSAII (Michael W. Deem and Ramdas Pophale) SiO2 
 PCOD9363944
Probable space group: A M A 2
;
_chemical_formula_sum "Si O2"
_cell_formula_units_Z 64
_cell_length_a 8.344414
_cell_length_b 18.374107
_cell_length_c 21.277687
_cell_angle_alpha 90.000000
_cell_angle_beta 90.000000
_cell_angle_gamma 90.000000
_cell_volume 3262.319561
_symmetry_space_group_name_H-M "A M A 2"
_symmetry_group_IT_number 40
_symmetry_cell_setting 'orthorhombic'
loop_
_space_group_symop_operation_xyz
x,y,z
-x,-y,z
1/2-x,y,z
1/2+x,-y,z
x,1/2+y,1/2+z
-x,1/2-y,1/2+z
1/2-x,1/2+y,1/2+z
1/2+x,1/2-y,1/2+z
loop_
_atom_site_type_symbol
_atom_site_label
_atom_site_fract_x
_atom_site_fract_y
_atom_site_fract_z
Si Si1 0.943768 0.167027 0.950720
Si Si2 0.557993 0.582914 0.076823
Si Si3 0.443746 0.917042 0.326513
Si Si4 0.442083 0.664957 0.201261
Si Si5 0.945739 0.667353 0.701261
Si Si6 0.442007 0.917086 0.825700
Si Si7 0.056254 0.417042 0.576009
Si Si8 0.443768 0.332972 0.951803
O O1 0.750000 0.166520 0.950785
O O2 0.999207 0.125474 0.887957
O O3 1.000000 0.250000 0.951261
O O4 0.998457 0.124648 0.013216
O O5 0.500000 0.500000 0.076157
O O6 0.750000 0.582992 0.076511
O O7 0.499910 0.623642 0.139183
O O8 0.500793 0.625474 0.014566
O O9 0.250000 0.916508 0.326495
O O10 0.498129 0.874697 0.263967
O O11 0.498457 0.875352 0.389307
O O12 0.500000 0.000000 0.326163
O O13 0.250000 0.665279 0.201261
O O14 0.498410 0.748800 0.201261
O O15 0.499910 0.623642 0.263340
O O16 0.750000 0.667538 0.701261
O O17 0.998129 0.625303 0.638556
O O18 0.250000 0.917008 0.826012
O O19 0.500000 0.000000 0.826365
O O20 0.250000 0.416508 0.576028
O O21 0.000000 0.500000 0.576360
O O22 0.250000 0.333479 0.951737
#
# Coordination Sequence:
#
# PCOD9363944 Si02
#       8
#     8   8   8   8   8   8   8   8
#     4  10  22  38  58  83 114 149 189 234 280 331
#     4  11  23  39  58  84 115 149 189 236 285 340
#     4  10  20  36  56  82 112 145 184 226 272 327
#     4  11  22  39  62  84 110 149 188 233 288 342
#     4   9  19  35  57  82 111 145 184 227 274 328
#     4  11  23  39  58  84 115 149 189 236 285 340
#     4  10  20  36  56  82 112 145 184 226 272 327
#     4  10  22  38  58  83 114 149 189 234 280 331
#
# _framework density 19.617943
#
# number of rings (size 3 to 8) (size 9 to 14) (size 15 to 20)
#    0.000    1.750    0.000    4.125    0.000    5.000 
#    0.000    2.500    0.000    0.000    0.000    0.000 
#    0.000    0.000    0.000    0.000    0.000    0.000 
#
# Total GULP energy -178906.559898 kJ/mol
# GULP energy per Si atom -5590.829997 kJ/mol
# Density = 1.957329 g / cm^3
# Si number density = 19.617943 Si / 1000 Ang^3
#
#
#
# Elastic Constant Matrix: (Units=GPa)
#
#
# Indices 1 2 3 4 5 6 
#
# 1 21.5591 24.3012 30.9889 0.0000 0.0000 0.0000
# 2 24.3012 244.0617 153.7780 0.0000 0.0000 0.0000
# 3 30.9889 153.7780 251.5844 0.0000 0.0000 0.0000
# 4 0.0000 0.0000 0.0000 47.9778 0.0000 0.0000
# 5 0.0000 0.0000 0.0000 0.0000 -2.6141 0.0000
# 6 0.0000 0.0000 0.0000 0.0000 0.0000 34.7924
#
#
#
# Elastic Compliance Matrix: (Units=1/GPa)
#
#
# Indices 1 2 3 4 5 6 
#
# 1 0.056978 -0.002035 -0.005774 0.000000 0.000000 0.000000
# 2 -0.002035 0.006736 -0.003867 0.000000 0.000000 0.000000
# 3 -0.005774 -0.003867 0.007050 0.000000 0.000000 0.000000
# 4 0.000000 0.000000 0.000000 0.020843 0.000000 0.000000
# 5 0.000000 0.000000 0.000000 0.000000 -0.382538 0.000000
# 6 0.000000 0.000000 0.000000 0.000000 0.000000 0.028742
#
#
# Mechanical properties :
#
#
# Convention : Reuss Voigt Hill
#
# Bulk Modulus (GPa) = 21.09189 103.92682 62.50935
# Shear Modulus (GPa) = -22.41827 36.57369 7.07771
#
# Velocity S-wave (km/s) = -3.38412 4.32244 1.90147
# Velocity P-wave (km/s) = 2.12014 8.83185 6.06245
#
# Compressibility (1/GPa) = 0.04741159
#
# Stress axis : x y z
#
# Youngs Moduli (GPa) = 17.55061 148.44768 141.85081
#
# Poissons Ratio (x) = 0.30208 0.81911
# Poissons Ratio (y) = 0.03571 0.54852
# Poissons Ratio (z) = 0.10135 0.57403
#
# Static dielectric constant tensor:
#      x y z
#    x 1.680110 0.000000 0.000000 
#    y 0.000000 1.634310 0.000000 
#    z 0.000000 0.000000 1.673440 
# 
# From -- ./inp_files/22420.got.cif
#   From: 2010.05.17/outbox.cif.g08.bks.cpg/sg40_12_cif.got.tgz:22420.got - 2010.06.03 18:35:42.
