data_PCOD9363063
_publ_section_title
;
Structure prediction by ZEFSAII (Michael W. Deem and Ramdas Pophale) SiO2 
 PCOD9363063
Probable space group: A M A 2
;
_chemical_formula_sum "Si O2"
_cell_formula_units_Z 64
_cell_length_a 7.995614
_cell_length_b 29.243306
_cell_length_c 12.935702
_cell_angle_alpha 90.000000
_cell_angle_beta 90.000000
_cell_angle_gamma 90.000000
_cell_volume 3024.602387
_symmetry_space_group_name_H-M "A M A 2"
_symmetry_group_IT_number 40
_symmetry_cell_setting 'orthorhombic'
loop_
_space_group_symop_operation_xyz
x,y,z
-x,-y,z
1/2-x,y,z
1/2+x,-y,z
x,1/2+y,1/2+z
-x,1/2-y,1/2+z
1/2-x,1/2+y,1/2+z
1/2+x,1/2-y,1/2+z
loop_
_atom_site_type_symbol
_atom_site_label
_atom_site_fract_x
_atom_site_fract_y
_atom_site_fract_z
Si Si1 0.057811 0.177006 0.983260
Si Si2 0.451212 0.047727 0.156016
Si Si3 0.552345 0.590779 0.215553
Si Si4 0.441535 0.069025 0.937410
Si Si5 0.544643 0.791466 0.209689
Si Si6 0.444215 0.307614 0.262058
Si Si7 0.053915 0.052028 0.498470
Si Si8 0.954531 0.379078 0.824619
O O1 0.250000 0.193220 0.973331
O O2 0.060707 0.122529 0.968325
O O3 0.955731 0.195155 0.886136
O O4 0.997300 0.189862 0.096790
O O5 0.250000 0.050657 0.147346
O O6 0.503360 0.090023 0.225960
O O7 0.500000 0.000000 0.207299
O O8 0.523320 0.047992 0.039796
O O9 0.750000 0.593534 0.199746
O O10 0.522669 0.565928 0.325215
O O11 0.483444 0.643066 0.227666
O O12 0.478727 0.565120 0.117336
O O13 0.250000 0.053064 0.926299
O O14 0.750000 0.790743 0.213091
O O15 0.481966 0.739711 0.221134
O O16 0.490621 0.827427 0.298341
O O17 0.250000 0.308644 0.231131
O O18 0.250000 0.052424 0.479520
O O19 0.983656 0.092413 0.424162
O O20 0.000000 0.000000 0.477254
O O21 0.750000 0.377620 0.828510
#
# Coordination Sequence:
#
# PCOD9363063 Si02
#       8
#     8   8   8   8   8   8   8   8
#     4   9  16  30  53  74  99 137 179 222 266 323
#     4  10  19  32  52  79 107 134 168 214 267 323
#     4  10  21  37  55  78 113 149 184 228 279 333
#     4   9  17  32  54  77 101 135 179 223 268 322
#     4   9  16  31  55  80 107 145 188 226 274 335
#     4   9  19  33  52  80 112 146 182 228 283 329
#     4  11  23  39  60  83 110 149 193 238 286 339
#     4   9  18  34  56  81 108 141 184 227 272 332
#
# _framework density 21.159808000000002
#
# number of rings (size 3 to 8) (size 9 to 14) (size 15 to 20)
#    0.000    2.500    1.250    1.125    0.000    2.500 
#    0.000    2.500    0.000    3.000    0.000    0.000 
#    0.000    0.000    0.000    0.000    0.000    0.000 
#
# Total GULP energy -178401.649359 kJ/mol
# GULP energy per Si atom -5575.051542 kJ/mol
# Density = 2.111165 g / cm^3
# Si number density = 21.159808 Si / 1000 Ang^3
#
#
#
# Elastic Constant Matrix: (Units=GPa)
#
#
# Indices 1 2 3 4 5 6 
#
# 1 16.8414 4.6378 -3.3951 0.0000 0.0000 0.0000
# 2 4.6378 51.3076 10.0273 0.0000 0.0000 0.0000
# 3 -3.3951 10.0273 76.3951 0.0000 0.0000 0.0000
# 4 0.0000 0.0000 0.0000 19.2394 0.0000 0.0000
# 5 0.0000 0.0000 0.0000 0.0000 5.0400 0.0000
# 6 0.0000 0.0000 0.0000 0.0000 0.0000 11.7877
#
#
#
# Elastic Compliance Matrix: (Units=1/GPa)
#
#
# Indices 1 2 3 4 5 6 
#
# 1 0.061829 -0.006287 0.003573 0.000000 0.000000 0.000000
# 2 -0.006287 0.020643 -0.002989 0.000000 0.000000 0.000000
# 3 0.003573 -0.002989 0.013641 0.000000 0.000000 0.000000
# 4 0.000000 0.000000 0.000000 0.051977 0.000000 0.000000
# 5 0.000000 0.000000 0.000000 0.000000 0.198414 0.000000
# 6 0.000000 0.000000 0.000000 0.000000 0.000000 0.084834
#
#
# Mechanical properties :
#
#
# Convention : Reuss Voigt Hill
#
# Bulk Modulus (GPa) = 11.80543 18.56489 15.18516
# Shear Modulus (GPa) = 10.61618 16.09837 13.35727
#
# Velocity S-wave (km/s) = 2.24233 2.76125 2.51521
# Velocity P-wave (km/s) = 3.50647 4.35416 3.95310
#
# Compressibility (1/GPa) = 0.08470675
#
# Stress axis : x y z
#
# Youngs Moduli (GPa) = 16.17359 48.44321 73.30876
#
# Poissons Ratio (x) = 0.30457 -0.26193
# Poissons Ratio (y) = 0.10169 0.21911
# Poissons Ratio (z) = -0.05779 0.14479
#
# Static dielectric constant tensor:
#      x y z
#    x 1.769080 0.000000 0.000000 
#    y 0.000000 1.794380 0.000000 
#    z 0.000000 0.000000 1.762410 
# 
# From -- ./inp_files/10578.got.cif
#   From: 2010.05.17/outbox.cif.g08.bks.cpg/sg40_6_cif.got.tgz:10578.got - 2010.06.03 18:35:42.
