data_PCOD9363688
_publ_section_title
;
Structure prediction by ZEFSAII (Michael W. Deem and Ramdas Pophale) SiO2 
 PCOD9363688
Probable space group: A M A 2
;
_chemical_formula_sum "Si O2"
_cell_formula_units_Z 56
_cell_length_a 8.785111
_cell_length_b 14.982388
_cell_length_c 21.991565
_cell_angle_alpha 90.000000
_cell_angle_beta 90.000000
_cell_angle_gamma 90.000000
_cell_volume 2894.572485
_symmetry_space_group_name_H-M "A M A 2"
_symmetry_group_IT_number 40
_symmetry_cell_setting 'orthorhombic'
loop_
_space_group_symop_operation_xyz
x,y,z
-x,-y,z
1/2-x,y,z
1/2+x,-y,z
x,1/2+y,1/2+z
-x,1/2-y,1/2+z
1/2-x,1/2+y,1/2+z
1/2+x,1/2-y,1/2+z
loop_
_atom_site_type_symbol
_atom_site_label
_atom_site_fract_x
_atom_site_fract_y
_atom_site_fract_z
Si Si1 0.066842 0.787396 0.816840
Si Si2 0.432955 0.594216 0.982894
Si Si3 0.567136 0.779815 0.591298
Si Si4 0.432879 0.093388 0.341417
Si Si5 0.932017 0.405143 0.562982
Si Si6 0.931599 0.905083 0.920135
Si Si7 0.066835 0.900845 0.698078
O O1 0.250000 0.788357 0.823007
O O2 0.020054 0.684344 0.808182
O O3 0.025505 0.849974 0.760472
O O4 0.997372 0.827827 0.878062
O O5 0.500000 0.500000 0.005191
O O6 0.250000 0.588501 0.984228
O O7 0.478537 0.674744 0.026864
O O8 0.479448 0.604870 0.912515
O O9 0.750000 0.776985 0.594126
O O10 0.500178 0.680804 0.595915
O O11 0.501582 0.843656 0.643131
O O12 0.250000 0.086903 0.339630
O O13 0.500000 0.000000 0.319006
O O14 0.750000 0.406709 0.568382
O O15 0.972388 0.394630 0.491182
O O16 0.000000 0.500000 0.583188
O O17 0.750000 0.907988 0.915242
O O18 0.000000 0.000000 0.899461
O O19 0.250000 0.904116 0.693333
O O20 0.000000 0.000000 0.697771
#
# Coordination Sequence:
#
# PCOD9363688 Si02
#       7
#     8   8   8   8   8   8   8
#     4  10  21  37  57  79 109 149 190 233 281 331
#     4   9  18  31  51  79 110 141 175 217 269 327
#     4  11  22  37  58  82 109 147 189 230 279 334
#     4   9  18  34  54  79 109 140 175 219 269 323
#     4  10  21  37  57  84 116 148 183 228 279 334
#     4  10  20  33  54  84 116 148 183 226 278 334
#     4  11  24  41  59  81 110 145 186 233 281 333
#
# _framework density 19.346553
#
# number of rings (size 3 to 8) (size 9 to 14) (size 15 to 20)
#    0.000    2.000    0.000    3.429    0.000    8.000 
#    0.000    3.571    0.000    1.714    0.000    0.000 
#    0.000    0.000    0.000    0.000    0.000    0.000 
#
# Total GULP energy -156412.696353 kJ/mol
# GULP energy per Si atom -5586.167727 kJ/mol
# Density = 1.930252 g / cm^3
# Si number density = 19.346553 Si / 1000 Ang^3
#
#
#
# Elastic Constant Matrix: (Units=GPa)
#
#
# Indices 1 2 3 4 5 6 
#
# 1 25.7722 46.4229 25.2142 0.0000 0.0000 0.0000
# 2 46.4229 203.2020 51.3969 0.0000 0.0000 0.0000
# 3 25.2142 51.3969 37.9585 0.0000 0.0000 0.0000
# 4 0.0000 0.0000 0.0000 30.5648 0.0000 0.0000
# 5 0.0000 0.0000 0.0000 0.0000 41.7628 0.0000
# 6 0.0000 0.0000 0.0000 0.0000 0.0000 36.5482
#
#
#
# Elastic Compliance Matrix: (Units=1/GPa)
#
#
# Indices 1 2 3 4 5 6 
#
# 1 0.126672 -0.011644 -0.068376 0.000000 0.000000 0.000000
# 2 -0.011644 0.008555 -0.003849 0.000000 0.000000 0.000000
# 3 -0.068376 -0.003849 0.076975 0.000000 0.000000 0.000000
# 4 0.000000 0.000000 0.000000 0.032717 0.000000 0.000000
# 5 0.000000 0.000000 0.000000 0.000000 0.023945 0.000000
# 6 0.000000 0.000000 0.000000 0.000000 0.000000 0.027361
#
#
# Mechanical properties :
#
#
# Convention : Reuss Voigt Hill
#
# Bulk Modulus (GPa) = 22.49017 57.00006 39.74512
# Shear Modulus (GPa) = 10.44313 31.36839 20.90576
#
# Velocity S-wave (km/s) = 2.32586 4.03102 3.29080
# Velocity P-wave (km/s) = 4.34316 7.15487 5.91841
#
# Compressibility (1/GPa) = 0.04446387
#
# Stress axis : x y z
#
# Youngs Moduli (GPa) = 7.89443 116.89152 12.99125
#
# Poissons Ratio (x) = 1.36113 0.88828
# Poissons Ratio (y) = 0.09193 0.05000
# Poissons Ratio (z) = 0.53979 0.44989
#
# Static dielectric constant tensor:
#      x y z
#    x 1.645370 0.000000 0.000000 
#    y 0.000000 1.670500 0.000000 
#    z 0.000000 0.000000 1.674120 
# 
# From -- ./inp_files/22138.got.cif
#   From: 2010.05.17/outbox.cif.g08.bks.cpg/sg40_12_cif.got.tgz:22138.got - 2010.06.03 18:35:42.
