data_PCOD9363037
_publ_section_title
;
Structure prediction by ZEFSAII (Michael W. Deem and Ramdas Pophale) SiO2 
 PCOD9363037
Probable space group: A M A 2
;
_chemical_formula_sum "Si O2"
_cell_formula_units_Z 64
_cell_length_a 8.759638
_cell_length_b 15.190419
_cell_length_c 27.708025
_cell_angle_alpha 90.000000
_cell_angle_beta 90.000000
_cell_angle_gamma 90.000000
_cell_volume 3686.901058
_symmetry_space_group_name_H-M "A M A 2"
_symmetry_group_IT_number 40
_symmetry_cell_setting 'orthorhombic'
loop_
_space_group_symop_operation_xyz
x,y,z
-x,-y,z
1/2-x,y,z
1/2+x,-y,z
x,1/2+y,1/2+z
-x,1/2-y,1/2+z
1/2-x,1/2+y,1/2+z
1/2+x,1/2-y,1/2+z
loop_
_atom_site_type_symbol
_atom_site_label
_atom_site_fract_x
_atom_site_fract_y
_atom_site_fract_z
Si Si1 0.431521 0.905310 0.598840
Si Si2 0.065321 0.222367 0.520460
Si Si3 0.066837 0.906304 0.982722
Si Si4 0.932290 0.274936 0.290464
Si Si5 0.433381 0.594316 0.934735
Si Si6 0.066384 0.595571 0.822680
Si Si7 0.567431 0.595331 0.212521
Si Si8 0.433510 0.904364 0.869652
O O1 0.250000 0.908533 0.592902
O O2 0.500154 0.828858 0.566066
O O3 0.465291 0.892205 0.655622
O O4 0.500000 0.000000 0.584399
O O5 0.250000 0.220936 0.522648
O O6 0.015071 0.323037 0.513895
O O7 0.018797 0.168816 0.472292
O O8 0.250000 0.910899 0.985071
O O9 0.028420 0.890747 0.926175
O O10 0.000000 0.000000 0.997421
O O11 0.750000 0.273308 0.291292
O O12 0.998501 0.176518 0.292944
O O13 0.992474 0.328994 0.244450
O O14 0.995648 0.329232 0.336441
O O15 0.500000 0.500000 0.949312
O O16 0.250000 0.589384 0.935850
O O17 0.477456 0.611044 0.879143
O O18 0.250000 0.594658 0.819481
O O19 0.000000 0.500000 0.809205
O O20 0.500000 0.500000 0.226537
O O21 0.750000 0.594705 0.219587
O O22 0.250000 0.904205 0.864430
O O23 0.500000 0.000000 0.855785
#
# Coordination Sequence:
#
# PCOD9363037 Si02
#       8
#     8   8   8   8   8   8   8   8
#     4  10  21  36  55  79 105 133 165 204 253 307
#     4  10  19  32  51  75 103 135 171 210 253 300
#     4   9  19  34  51  72 101 138 176 214 254 297
#     4  12  23  34  52  78 104 135 175 213 256 307
#     4   9  18  31  48  72 103 137 170 205 247 297
#     4  10  20  36  54  74 104 140 177 216 256 298
#     4  10  21  38  57  78 105 134 165 206 256 309
#     4  10  19  33  51  74 106 140 174 212 255 303
#
# _framework density 17.358751999999999
#
# number of rings (size 3 to 8) (size 9 to 14) (size 15 to 20)
#    0.000    2.000    0.000    4.125    0.000    6.500 
#    0.000    1.250    0.000    0.750    0.000    1.750 
#    0.000    0.000    0.000    0.000    0.000    0.000 
#
# Total GULP energy -178726.101742 kJ/mol
# GULP energy per Si atom -5585.190679 kJ/mol
# Density = 1.731924 g / cm^3
# Si number density = 17.358752 Si / 1000 Ang^3
#
#
#
# Elastic Constant Matrix: (Units=GPa)
#
#
# Indices 1 2 3 4 5 6 
#
# 1 60.9058 59.9746 39.9148 0.0000 0.0000 0.0000
# 2 59.9746 176.7800 80.0563 0.0000 0.0000 0.0000
# 3 39.9148 80.0563 66.4643 0.0000 0.0000 0.0000
# 4 0.0000 0.0000 0.0000 28.6490 0.0000 0.0000
# 5 0.0000 0.0000 0.0000 0.0000 24.0790 0.0000
# 6 0.0000 0.0000 0.0000 0.0000 0.0000 32.1489
#
#
#
# Elastic Compliance Matrix: (Units=1/GPa)
#
#
# Indices 1 2 3 4 5 6 
#
# 1 0.028430 -0.004210 -0.012003 0.000000 0.000000 0.000000
# 2 -0.004210 0.013068 -0.013213 0.000000 0.000000 0.000000
# 3 -0.012003 -0.013213 0.038169 0.000000 0.000000 0.000000
# 4 0.000000 0.000000 0.000000 0.034905 0.000000 0.000000
# 5 0.000000 0.000000 0.000000 0.000000 0.041530 0.000000
# 6 0.000000 0.000000 0.000000 0.000000 0.000000 0.031105
#
#
# Mechanical properties :
#
#
# Convention : Reuss Voigt Hill
#
# Bulk Modulus (GPa) = 48.03903 73.78241 60.91072
# Shear Modulus (GPa) = 19.76291 25.25568 22.50929
#
# Velocity S-wave (km/s) = 3.37782 3.81849 3.60489
# Velocity P-wave (km/s) = 6.55342 7.87641 7.24517
#
# Compressibility (1/GPa) = 0.02081641
#
# Stress axis : x y z
#
# Youngs Moduli (GPa) = 35.17356 76.52000 26.19907
#
# Poissons Ratio (x) = 0.32211 0.31448
# Poissons Ratio (y) = 0.14806 0.34617
# Poissons Ratio (z) = 0.42220 1.01106
#
# Static dielectric constant tensor:
#      x y z
#    x 1.580510 0.000000 0.000000 
#    y 0.000000 1.576000 0.000000 
#    z 0.000000 0.000000 1.586020 
# 
# From -- ./inp_files/26490.got.cif
#   From: 2010.05.17/outbox.cif.g08.bks.cpg/sg40_14_cif.got.tgz:26490.got - 2010.06.03 18:35:42.
