data_PCOD9363269
_publ_section_title
;
Structure prediction by ZEFSAII (Michael W. Deem and Ramdas Pophale) SiO2 
 PCOD9363269
Probable space group: A M A 2
;
_chemical_formula_sum "Si O2"
_cell_formula_units_Z 48
_cell_length_a 16.037451
_cell_length_b 15.983082
_cell_length_c 9.463097
_cell_angle_alpha 90.000000
_cell_angle_beta 90.000000
_cell_angle_gamma 90.000000
_cell_volume 2425.655729
_symmetry_space_group_name_H-M "A M A 2"
_symmetry_group_IT_number 40
_symmetry_cell_setting 'orthorhombic'
loop_
_space_group_symop_operation_xyz
x,y,z
-x,-y,z
1/2-x,y,z
1/2+x,-y,z
x,1/2+y,1/2+z
-x,1/2-y,1/2+z
1/2-x,1/2+y,1/2+z
1/2+x,1/2-y,1/2+z
loop_
_atom_site_type_symbol
_atom_site_label
_atom_site_fract_x
_atom_site_fract_y
_atom_site_fract_z
Si Si1 0.152309 0.552916 0.945950
Si Si2 0.406061 0.392880 0.113501
Si Si3 0.904011 0.347328 0.183345
Si Si4 0.150800 0.580592 0.630278
Si Si5 0.151920 0.235873 0.942898
Si Si6 0.899331 0.506432 0.368607
O O1 0.250000 0.528370 0.942011
O O2 0.119224 0.567107 0.788147
O O3 0.102196 0.479142 0.025321
O O4 0.144188 0.637971 0.037502
O O5 0.500327 0.362990 0.141566
O O6 0.360720 0.322132 0.024630
O O7 0.373062 0.416309 0.270507
O O8 0.891405 0.270074 0.289022
O O9 0.871515 0.423841 0.282567
O O10 0.250000 0.591833 0.643126
O O11 0.118196 0.662849 0.548096
O O12 0.133153 0.502936 0.526368
O O13 0.250000 0.221709 0.919013
O O14 0.000000 0.500000 0.371603
#
# Coordination Sequence:
#
# PCOD9363269 Si02
#       6
#     8   8   8   8   8   8
#     4  10  19  34  55  79 106 140 182 229 277 332
#     4  10  20  34  54  81 107 137 184 234 275 323
#     4   9  19  35  53  75 106 144 181 219 274 337
#     4   9  19  33  51  75 104 137 174 215 270 334
#     4  10  20  36  56  79 108 146 187 228 278 339
#     4   8  16  32  52  73 100 136 177 217 264 323
#
# _framework density 19.788463
#
# number of rings (size 3 to 8) (size 9 to 14) (size 15 to 20)
#    0.000    2.667    0.000    2.500    0.000    7.333 
#    0.000    5.000    0.000    4.000    0.000    0.000 
#    0.000    0.000    0.000    0.000    0.000    0.000 
#
# Total GULP energy -133635.832295 kJ/mol
# GULP energy per Si atom -5568.159679 kJ/mol
# Density = 1.974342 g / cm^3
# Si number density = 19.788463 Si / 1000 Ang^3
#
#
#
# Elastic Constant Matrix: (Units=GPa)
#
#
# Indices 1 2 3 4 5 6 
#
# 1 22.0038 -7.7294 1.1870 0.0000 0.0000 0.0000
# 2 -7.7294 47.5421 30.7935 0.0000 0.0000 0.0000
# 3 1.1870 30.7935 159.2174 0.0000 0.0000 0.0000
# 4 0.0000 0.0000 0.0000 30.0952 0.0000 0.0000
# 5 0.0000 0.0000 0.0000 0.0000 31.0283 0.0000
# 6 0.0000 0.0000 0.0000 0.0000 0.0000 18.4694
#
#
#
# Elastic Compliance Matrix: (Units=1/GPa)
#
#
# Indices 1 2 3 4 5 6 
#
# 1 0.048848 0.009349 -0.002172 0.000000 0.000000 0.000000
# 2 0.009349 0.025836 -0.005066 0.000000 0.000000 0.000000
# 3 -0.002172 -0.005066 0.007277 0.000000 0.000000 0.000000
# 4 0.000000 0.000000 0.000000 0.033228 0.000000 0.000000
# 5 0.000000 0.000000 0.000000 0.000000 0.032229 0.000000
# 6 0.000000 0.000000 0.000000 0.000000 0.000000 0.054143
#
#
# Mechanical properties :
#
#
# Convention : Reuss Voigt Hill
#
# Bulk Modulus (GPa) = 11.60359 30.80728 21.20543
# Shear Modulus (GPa) = 22.11734 29.55273 25.83504
#
# Velocity S-wave (km/s) = 3.34681 3.86869 3.61717
# Velocity P-wave (km/s) = 4.56195 5.96303 5.30892
#
# Compressibility (1/GPa) = 0.08618026
#
# Stress axis : x y z
#
# Youngs Moduli (GPa) = 20.47171 38.70643 137.42318
#
# Poissons Ratio (x) = -0.36186 0.29852
# Poissons Ratio (y) = -0.19138 0.69624
# Poissons Ratio (z) = 0.04447 0.19610
#
# Static dielectric constant tensor:
#      x y z
#    x 1.705440 0.000000 0.000000 
#    y 0.000000 1.739400 0.000000 
#    z 0.000000 0.000000 1.738700 
# 
# From -- ./inp_files/7458.got.cif
#   From: 2010.05.17/outbox.cif.g08.bks.cpg/sg40_4_cif.got.tgz:7458.got - 2010.06.03 18:35:42.
