data_PCOD9363167
_publ_section_title
;
Structure prediction by ZEFSAII (Michael W. Deem and Ramdas Pophale) SiO2 
 PCOD9363167
Probable space group: A M A 2
;
_chemical_formula_sum "Si O2"
_cell_formula_units_Z 40
_cell_length_a 15.195059
_cell_length_b 5.042905
_cell_length_c 22.879622
_cell_angle_alpha 90.000000
_cell_angle_beta 90.000000
_cell_angle_gamma 90.000000
_cell_volume 1753.202263
_symmetry_space_group_name_H-M "A M A 2"
_symmetry_group_IT_number 40
_symmetry_cell_setting 'orthorhombic'
loop_
_space_group_symop_operation_xyz
x,y,z
-x,-y,z
1/2-x,y,z
1/2+x,-y,z
x,1/2+y,1/2+z
-x,1/2-y,1/2+z
1/2-x,1/2+y,1/2+z
1/2+x,1/2-y,1/2+z
loop_
_atom_site_type_symbol
_atom_site_label
_atom_site_fract_x
_atom_site_fract_y
_atom_site_fract_z
Si Si1 0.352026 0.016251 0.562320
Si Si2 0.557621 0.241088 0.875604
Si Si3 0.104375 0.003373 0.697147
Si Si4 0.352433 0.536255 0.485984
Si Si5 0.392073 0.009159 0.264321
O O1 0.250000 0.935191 0.566998
O O2 0.391843 0.796077 0.518076
O O3 0.384056 0.039236 0.628309
O O4 0.356706 0.301788 0.532989
O O5 0.500000 0.500000 0.893847
O O6 0.600749 0.084896 0.929297
O O7 0.624566 0.370808 0.828594
O O8 0.500000 0.000000 0.846955
O O9 0.140029 0.228589 0.740717
O O10 0.139202 0.721116 0.717188
O O11 0.000000 0.000000 0.706098
O O12 0.250000 0.588368 0.470225
O O13 0.500000 0.000000 0.264134
#
# Coordination Sequence:
#
# PCOD9363167 Si02
#       5
#     8   8   8   8   8
#     4  10  21  37  55  77 110 148 185 230 285 339
#     4  11  21  36  59  85 113 148 193 239 285 346
#     4  10  19  33  54  78 105 139 179 223 272 329
#     4  10  22  39  56  78 113 152 186 231 292 343
#     4   9  18  33  53  78 108 139 172 221 283 327
#
# _framework density 22.815391000000002
#
# number of rings (size 3 to 8) (size 9 to 14) (size 15 to 20)
#    0.000    2.000    0.000    5.400    0.000    2.400 
#    0.000    2.000    0.000    0.000    0.000    1.400 
#    0.000    0.000    0.000    0.000    0.000    0.000 
#
# Total GULP energy -111603.679107 kJ/mol
# GULP energy per Si atom -5580.183955 kJ/mol
# Density = 2.276346 g / cm^3
# Si number density = 22.815391 Si / 1000 Ang^3
#
#
#
# Elastic Constant Matrix: (Units=GPa)
#
#
# Indices 1 2 3 4 5 6 
#
# 1 32.7110 9.3189 10.9275 0.0000 0.0000 0.0000
# 2 9.3189 109.6747 10.2773 0.0000 0.0000 0.0000
# 3 10.9275 10.2773 108.9478 0.0000 0.0000 0.0000
# 4 0.0000 0.0000 0.0000 23.2129 0.0000 0.0000
# 5 0.0000 0.0000 0.0000 0.0000 61.3306 0.0000
# 6 0.0000 0.0000 0.0000 0.0000 0.0000 7.6180
#
#
#
# Elastic Compliance Matrix: (Units=1/GPa)
#
#
# Indices 1 2 3 4 5 6 
#
# 1 0.032276 -0.002461 -0.003005 0.000000 0.000000 0.000000
# 2 -0.002461 0.009387 -0.000639 0.000000 0.000000 0.000000
# 3 -0.003005 -0.000639 0.009540 0.000000 0.000000 0.000000
# 4 0.000000 0.000000 0.000000 0.043080 0.000000 0.000000
# 5 0.000000 0.000000 0.000000 0.000000 0.016305 0.000000
# 6 0.000000 0.000000 0.000000 0.000000 0.000000 0.131269
#
#
# Mechanical properties :
#
#
# Convention : Reuss Voigt Hill
#
# Bulk Modulus (GPa) = 25.64516 34.70898 30.17707
# Shear Modulus (GPa) = 18.72214 33.15293 25.93753
#
# Velocity S-wave (km/s) = 2.86771 3.81608 3.37537
# Velocity P-wave (km/s) = 4.71484 5.88750 5.33349
#
# Compressibility (1/GPa) = 0.03899371
#
# Stress axis : x y z
#
# Youngs Moduli (GPa) = 30.98301 106.53245 104.81779
#
# Poissons Ratio (x) = 0.26216 0.31499
# Poissons Ratio (y) = 0.07624 0.06694
# Poissons Ratio (z) = 0.09311 0.06804
#
# Static dielectric constant tensor:
#      x y z
#    x 1.920610 0.000000 0.000000 
#    y 0.000000 1.852030 0.000000 
#    z 0.000000 0.000000 1.873810 
# 
# From -- ./inp_files/20898.got.cif
#   From: 2010.05.17/outbox.cif.g08.bks.cpg/sg40_11_cif.got.tgz:20898.got - 2010.06.03 18:35:42.
