data_PCOD9363474
_publ_section_title
;
Structure prediction by ZEFSAII (Michael W. Deem and Ramdas Pophale) SiO2 
 PCOD9363474
Probable space group: A M A 2
;
_chemical_formula_sum "Si O2"
_cell_formula_units_Z 64
_cell_length_a 22.845852
_cell_length_b 9.222522
_cell_length_c 15.517335
_cell_angle_alpha 90.000000
_cell_angle_beta 90.000000
_cell_angle_gamma 90.000000
_cell_volume 3269.446198
_symmetry_space_group_name_H-M "A M A 2"
_symmetry_group_IT_number 40
_symmetry_cell_setting 'orthorhombic'
loop_
_space_group_symop_operation_xyz
x,y,z
-x,-y,z
1/2-x,y,z
1/2+x,-y,z
x,1/2+y,1/2+z
-x,1/2-y,1/2+z
1/2-x,1/2+y,1/2+z
1/2+x,1/2-y,1/2+z
loop_
_atom_site_type_symbol
_atom_site_label
_atom_site_fract_x
_atom_site_fract_y
_atom_site_fract_z
Si Si1 0.367721 0.342647 0.000000
Si Si2 0.006898 0.168676 0.768861
Si Si3 0.317349 0.406532 0.817320
Si Si4 0.522458 0.339343 0.474285
Si Si5 0.907024 0.824270 0.497259
Si Si6 0.117758 0.203322 0.303991
Si Si7 0.374417 0.212161 0.681190
Si Si8 0.183190 0.907622 0.680451
O O1 0.399182 0.501704 0.997285
O O2 0.328035 0.345761 0.084811
O O3 0.333291 0.335482 0.909611
O O4 0.415063 0.214844 0.006901
O O5 0.945596 0.254762 0.764660
O O6 0.024534 0.166614 0.869916
O O7 0.059925 0.237787 0.715883
O O8 0.000000 0.000000 0.741986
O O9 0.250000 0.456243 0.819817
O O10 0.362771 0.537143 0.801610
O O11 0.328988 0.298546 0.738993
O O12 0.500000 0.500000 0.498488
O O13 0.474109 0.223757 0.504461
O O14 0.885515 0.761765 0.405876
O O15 0.872747 0.761605 0.579167
O O16 0.165770 0.292425 0.252252
O O17 0.359598 0.043293 0.692981
O O18 0.250000 0.954634 0.688050
#
# Coordination Sequence:
#
# PCOD9363474 Si02
#       8
#     8   8   8   8   8   8   8   8
#     4  10  21  39  62  88 118 161 206 251 302 364
#     4  10  19  36  61  92 123 153 197 254 309 372
#     4  11  23  41  61  88 126 163 205 259 312 365
#     4  10  20  35  58  91 126 155 192 249 310 366
#     4   9  22  37  59  88 123 160 201 244 305 372
#     4  10  22  40  62  88 123 163 201 255 313 367
#     4  11  22  39  63  92 122 159 207 255 311 365
#     4  11  23  40  64  89 117 163 216 254 299 372
#
# _framework density 19.575181000000001
#
# number of rings (size 3 to 8) (size 9 to 14) (size 15 to 20)
#    0.000    1.750    2.500    1.500    1.750    1.500 
#    0.000    1.875    0.000    0.000    0.000    0.000 
#    0.000    0.000    0.000    0.000    0.000    0.000 
#
# Total GULP energy -178617.708344 kJ/mol
# GULP energy per Si atom -5581.803386 kJ/mol
# Density = 1.953063 g / cm^3
# Si number density = 19.575181 Si / 1000 Ang^3
#
#
#
# Elastic Constant Matrix: (Units=GPa)
#
#
# Indices 1 2 3 4 5 6 
#
# 1 86.4678 23.8253 27.5509 0.0000 0.0000 0.0000
# 2 23.8253 34.0726 33.5802 0.0000 0.0000 0.0000
# 3 27.5509 33.5802 77.6333 0.0000 0.0000 0.0000
# 4 0.0000 0.0000 0.0000 24.2587 0.0000 0.0000
# 5 0.0000 0.0000 0.0000 0.0000 22.8613 0.0000
# 6 0.0000 0.0000 0.0000 0.0000 0.0000 24.4211
#
#
#
# Elastic Compliance Matrix: (Units=1/GPa)
#
#
# Indices 1 2 3 4 5 6 
#
# 1 0.014402 -0.008773 -0.001316 0.000000 0.000000 0.000000
# 2 -0.008773 0.056502 -0.021326 0.000000 0.000000 0.000000
# 3 -0.001316 -0.021326 0.022573 0.000000 0.000000 0.000000
# 4 0.000000 0.000000 0.000000 0.041222 0.000000 0.000000
# 5 0.000000 0.000000 0.000000 0.000000 0.043742 0.000000
# 6 0.000000 0.000000 0.000000 0.000000 0.000000 0.040948
#
#
# Mechanical properties :
#
#
# Convention : Reuss Voigt Hill
#
# Bulk Modulus (GPa) = 32.63171 40.89849 36.76510
# Shear Modulus (GPa) = 17.09775 21.85604 19.47690
#
# Velocity S-wave (km/s) = 2.95861 3.34506 3.15775
# Velocity P-wave (km/s) = 5.32703 5.98812 5.66723
#
# Compressibility (1/GPa) = 0.03064504
#
# Stress axis : x y z
#
# Youngs Moduli (GPa) = 69.43604 17.69843 44.30106
#
# Poissons Ratio (x) = 0.15528 0.05830
# Poissons Ratio (y) = 0.60919 0.94478
# Poissons Ratio (z) = 0.09138 0.37744
#
# Static dielectric constant tensor:
#      x y z
#    x 1.681040 0.000000 0.000000 
#    y 0.000000 1.681610 0.000000 
#    z 0.000000 0.000000 1.702720 
# 
# From -- ./inp_files/18533.got.cif
#   From: 2010.05.17/outbox.cif.g08.bks.cpg/sg40_10_cif.got.tgz:18533.got - 2010.06.03 18:35:42.
