data_PCOD9363636
_publ_section_title
;
Structure prediction by ZEFSAII (Michael W. Deem and Ramdas Pophale) SiO2 
 PCOD9363636
Probable space group: A M A 2
;
_chemical_formula_sum "Si O2"
_cell_formula_units_Z 48
_cell_length_a 14.731143
_cell_length_b 16.289384
_cell_length_c 9.595965
_cell_angle_alpha 90.000000
_cell_angle_beta 90.000000
_cell_angle_gamma 90.000000
_cell_volume 2302.659709
_symmetry_space_group_name_H-M "A M A 2"
_symmetry_group_IT_number 40
_symmetry_cell_setting 'orthorhombic'
loop_
_space_group_symop_operation_xyz
x,y,z
-x,-y,z
1/2-x,y,z
1/2+x,-y,z
x,1/2+y,1/2+z
-x,1/2-y,1/2+z
1/2-x,1/2+y,1/2+z
1/2+x,1/2-y,1/2+z
loop_
_atom_site_type_symbol
_atom_site_label
_atom_site_fract_x
_atom_site_fract_y
_atom_site_fract_z
Si Si1 0.142794 0.956131 0.221790
Si Si2 0.851903 0.644501 0.961850
Si Si3 0.902780 0.040825 0.903774
Si Si4 0.138268 0.793101 0.745503
Si Si5 0.359068 0.620435 0.869569
Si Si6 0.607111 0.980065 0.624676
O O1 0.250000 0.955469 0.256306
O O2 0.104043 0.880720 0.314649
O O3 0.105810 0.043216 0.278287
O O4 0.137199 0.950420 0.056773
O O5 0.750000 0.676337 0.936966
O O6 0.892221 0.701099 0.083476
O O7 0.849084 0.555781 0.040322
O O8 0.901305 0.129705 0.829887
O O9 0.858740 0.983134 0.783333
O O10 0.000000 0.000000 0.927644
O O11 0.250000 0.800438 0.747964
O O12 0.109995 0.708077 0.814867
O O13 0.250000 0.621587 0.854861
O O14 0.379687 0.599500 0.030279
O O15 0.500000 0.000000 0.629829
#
# Coordination Sequence:
#
# PCOD9363636 Si02
#       6
#     8   8   8   8   8   8
#     4   9  17  30  49  73 100 133 174 214 254 306
#     4   8  15  29  50  73  96 128 168 205 247 305
#     4  10  20  33  48  73 105 138 176 213 250 302
#     4   9  17  33  56  77 101 132 166 212 264 308
#     4   9  18  33  54  79 102 128 168 215 262 311
#     4   9  17  30  49  71 100 137 174 205 245 304
#
# _framework density 20.845459000000002
#
# number of rings (size 3 to 8) (size 9 to 14) (size 15 to 20)
#    0.000    3.000    0.000    2.000    0.000    4.667 
#    0.000    6.667    0.000    4.000    0.000    0.000 
#    0.000    0.000    0.000    0.000    0.000    0.000 
#
# Total GULP energy -133626.018793 kJ/mol
# GULP energy per Si atom -5567.750783 kJ/mol
# Density = 2.079801 g / cm^3
# Si number density = 20.845459 Si / 1000 Ang^3
#
#
#
# Elastic Constant Matrix: (Units=GPa)
#
#
# Indices 1 2 3 4 5 6 
#
# 1 38.7813 3.0705 -6.0693 0.0000 0.0000 0.0000
# 2 3.0705 103.0091 63.0927 0.0000 0.0000 0.0000
# 3 -6.0693 63.0927 190.3277 0.0000 0.0000 0.0000
# 4 0.0000 0.0000 0.0000 39.1790 0.0000 0.0000
# 5 0.0000 0.0000 0.0000 0.0000 33.4281 0.0000
# 6 0.0000 0.0000 0.0000 0.0000 0.0000 12.1231
#
#
#
# Elastic Compliance Matrix: (Units=1/GPa)
#
#
# Indices 1 2 3 4 5 6 
#
# 1 0.026128 -0.001618 0.001369 0.000000 0.000000 0.000000
# 2 -0.001618 0.012281 -0.004123 0.000000 0.000000 0.000000
# 3 0.001369 -0.004123 0.006664 0.000000 0.000000 0.000000
# 4 0.000000 0.000000 0.000000 0.025524 0.000000 0.000000
# 5 0.000000 0.000000 0.000000 0.000000 0.029915 0.000000
# 6 0.000000 0.000000 0.000000 0.000000 0.000000 0.082487
#
#
# Mechanical properties :
#
#
# Convention : Reuss Voigt Hill
#
# Bulk Modulus (GPa) = 27.52408 50.25622 38.89015
# Shear Modulus (GPa) = 24.52758 35.08099 29.80429
#
# Velocity S-wave (km/s) = 3.43394 4.10678 3.78534
# Velocity P-wave (km/s) = 5.38100 6.82999 6.14833
#
# Compressibility (1/GPa) = 0.03633183
#
# Stress axis : x y z
#
# Youngs Moduli (GPa) = 38.27313 81.42473 150.05008
#
# Poissons Ratio (x) = 0.13171 -0.20548
# Poissons Ratio (y) = 0.06191 0.61862
# Poissons Ratio (z) = -0.05241 0.33570
#
# Static dielectric constant tensor:
#      x y z
#    x 1.807910 0.000000 0.000000 
#    y 0.000000 1.737160 0.000000 
#    z 0.000000 0.000000 1.806090 
# 
# From -- ./inp_files/7421.got.cif
#   From: 2010.05.17/outbox.cif.g08.bks.cpg/sg40_4_cif.got.tgz:7421.got - 2010.06.03 18:35:42.
