data_PCOD9363087
_publ_section_title
;
Structure prediction by ZEFSAII (Michael W. Deem and Ramdas Pophale) SiO2 
 PCOD9363087
Probable space group: A M A 2
;
_chemical_formula_sum "Si O2"
_cell_formula_units_Z 48
_cell_length_a 8.521491
_cell_length_b 29.217424
_cell_length_c 10.606740
_cell_angle_alpha 90.000000
_cell_angle_beta 90.000000
_cell_angle_gamma 90.000000
_cell_volume 2640.823864
_symmetry_space_group_name_H-M "A M A 2"
_symmetry_group_IT_number 40
_symmetry_cell_setting 'orthorhombic'
loop_
_space_group_symop_operation_xyz
x,y,z
-x,-y,z
1/2-x,y,z
1/2+x,-y,z
x,1/2+y,1/2+z
-x,1/2-y,1/2+z
1/2-x,1/2+y,1/2+z
1/2+x,1/2-y,1/2+z
loop_
_atom_site_type_symbol
_atom_site_label
_atom_site_fract_x
_atom_site_fract_y
_atom_site_fract_z
Si Si1 0.060460 0.145686 0.448920
Si Si2 0.060345 0.854340 0.958872
Si Si3 0.060439 0.306997 0.200764
Si Si4 0.560233 0.798746 0.199462
Si Si5 0.938191 0.451096 0.845566
Si Si6 0.561887 0.548866 0.559790
O O1 0.250000 0.146968 0.453159
O O2 0.010236 0.175147 0.326770
O O3 0.012239 0.093080 0.425549
O O4 0.995896 0.167373 0.576068
O O5 0.250000 0.853361 0.959671
O O6 0.005916 0.832502 0.827604
O O7 0.011352 0.906975 0.980045
O O8 0.001938 0.824834 0.077040
O O9 0.250000 0.306916 0.201909
O O10 0.008451 0.254058 0.200610
O O11 0.750000 0.799767 0.196237
O O12 0.750000 0.452398 0.840779
O O13 0.000000 0.500000 0.892506
O O14 0.999787 0.445208 0.702621
O O15 0.500000 0.500000 0.512740
O O16 0.750000 0.547319 0.564192
#
# Coordination Sequence:
#
# PCOD9363087 Si02
#       6
#     8   8   8   8   8   8
#     4  10  21  37  56  80 111 144 179 221 270 320
#     4  10  21  37  56  80 110 143 180 222 270 321
#     4  10  22  37  54  78 111 147 181 220 268 320
#     4  10  20  36  57  80 107 142 183 226 268 314
#     4  10  19  33  55  81 108 138 175 222 270 316
#     4  10  19  32  54  81 107 138 176 221 270 317
#
# _framework density 18.176145000000002
#
# number of rings (size 3 to 8) (size 9 to 14) (size 15 to 20)
#    0.000    2.000    1.667    3.000    0.000    5.333 
#    0.000    0.833    0.000    4.000    0.000    0.000 
#    0.000    0.000    0.000    0.000    0.000    0.000 
#
# Total GULP energy -133995.603508 kJ/mol
# GULP energy per Si atom -5583.150146 kJ/mol
# Density = 1.813478 g / cm^3
# Si number density = 18.176145 Si / 1000 Ang^3
#
#
#
# Elastic Constant Matrix: (Units=GPa)
#
#
# Indices 1 2 3 4 5 6 
#
# 1 17.5951 34.0580 18.1449 0.0000 0.0000 0.0000
# 2 34.0580 219.8138 107.2251 0.0000 0.0000 0.0000
# 3 18.1449 107.2251 150.7018 0.0000 0.0000 0.0000
# 4 0.0000 0.0000 0.0000 4.4174 0.0000 0.0000
# 5 0.0000 0.0000 0.0000 0.0000 62.0334 0.0000
# 6 0.0000 0.0000 0.0000 0.0000 0.0000 30.2760
#
#
#
# Elastic Compliance Matrix: (Units=1/GPa)
#
#
# Indices 1 2 3 4 5 6 
#
# 1 0.081338 -0.011985 -0.001266 0.000000 0.000000 0.000000
# 2 -0.011985 0.008734 -0.004771 0.000000 0.000000 0.000000
# 3 -0.001266 -0.004771 0.010183 0.000000 0.000000 0.000000
# 4 0.000000 0.000000 0.000000 0.226376 0.000000 0.000000
# 5 0.000000 0.000000 0.000000 0.000000 0.016120 0.000000
# 6 0.000000 0.000000 0.000000 0.000000 0.000000 0.033029
#
#
# Mechanical properties :
#
#
# Convention : Reuss Voigt Hill
#
# Bulk Modulus (GPa) = 15.57374 78.55186 47.06280
# Shear Modulus (GPa) = 11.54128 34.59087 23.06608
#
# Velocity S-wave (km/s) = 2.52259 4.36718 3.56621
# Velocity P-wave (km/s) = 4.13176 8.29099 6.55026
#
# Compressibility (1/GPa) = 0.06421064
#
# Stress axis : x y z
#
# Youngs Moduli (GPa) = 12.29432 114.50123 98.20697
#
# Poissons Ratio (x) = 1.37231 0.12432
# Poissons Ratio (y) = 0.14735 0.46854
# Poissons Ratio (z) = 0.01556 0.54628
#
# Static dielectric constant tensor:
#      x y z
#    x 1.622960 0.000000 0.000000 
#    y 0.000000 1.638760 0.000000 
#    z 0.000000 0.000000 1.578300 
# 
# From -- ./inp_files/4600.got.cif
#   From: 2010.05.17/outbox.cif.g08.bks.cpg/sg40_3_cif.got.tgz:4600.got - 2010.06.03 18:35:42.
