data_PCOD9363454
_publ_section_title
;
Structure prediction by ZEFSAII (Michael W. Deem and Ramdas Pophale) SiO2 
 PCOD9363454
Probable space group: A M A 2
;
_chemical_formula_sum "Si O2"
_cell_formula_units_Z 48
_cell_length_a 21.994869
_cell_length_b 12.115250
_cell_length_c 7.647530
_cell_angle_alpha 90.000000
_cell_angle_beta 90.000000
_cell_angle_gamma 90.000000
_cell_volume 2037.862836
_symmetry_space_group_name_H-M "A M A 2"
_symmetry_group_IT_number 40
_symmetry_cell_setting 'orthorhombic'
loop_
_space_group_symop_operation_xyz
x,y,z
-x,-y,z
1/2-x,y,z
1/2+x,-y,z
x,1/2+y,1/2+z
-x,1/2-y,1/2+z
1/2-x,1/2+y,1/2+z
1/2+x,1/2-y,1/2+z
loop_
_atom_site_type_symbol
_atom_site_label
_atom_site_fract_x
_atom_site_fract_y
_atom_site_fract_z
Si Si1 0.088018 0.943308 0.197680
Si Si2 0.049896 0.840367 0.864164
Si Si3 0.980797 0.652391 0.995931
Si Si4 0.820032 0.761007 0.682583
Si Si5 0.316667 0.295579 0.300817
Si Si6 0.625870 0.835555 0.009676
O O1 0.053736 0.939191 0.382398
O O2 0.141989 0.852493 0.207915
O O3 0.111686 0.056026 0.118734
O O4 0.041737 0.896817 0.050641
O O5 0.009665 0.874694 0.698867
O O6 0.120404 0.863373 0.814158
O O7 0.037530 0.710449 0.901439
O O8 0.932518 0.755074 0.000865
O O9 0.750000 0.746114 0.731195
O O10 0.820953 0.781274 0.474385
O O11 0.850686 0.848665 0.811950
O O12 0.250000 0.350654 0.310460
O O13 0.323692 0.229614 0.121827
#
# Coordination Sequence:
#
# PCOD9363454 Si02
#       6
#     8   8   8   8   8   8
#     4  10  21  36  58  88 117 153 203 245 305 368
#     4  10  19  36  60  82 118 156 197 246 305 371
#     4  10  20  37  59  82 120 160 194 247 309 368
#     4   9  19  36  57  81 115 157 195 243 304 359
#     4   9  19  36  57  81 113 155 197 244 302 361
#     4  10  21  35  58  86 120 151 200 251 301 362
#
# _framework density 23.554088
#
# number of rings (size 3 to 8) (size 9 to 14) (size 15 to 20)
#    0.000    2.333    1.667    0.500    0.000    3.333 
#    0.000    0.000    7.333    8.000    0.000    0.000 
#    0.000    0.000    0.000    0.000    0.000    0.000 
#
# Total GULP energy -133930.756281 kJ/mol
# GULP energy per Si atom -5580.448178 kJ/mol
# Density = 2.350048 g / cm^3
# Si number density = 23.554088 Si / 1000 Ang^3
#
#
#
# Elastic Constant Matrix: (Units=GPa)
#
#
# Indices 1 2 3 4 5 6 
#
# 1 116.6641 18.6563 8.5439 0.0000 0.0000 0.0000
# 2 18.6563 63.1092 -0.8459 0.0000 0.0000 0.0000
# 3 8.5439 -0.8459 109.1966 0.0000 0.0000 0.0000
# 4 0.0000 0.0000 0.0000 22.9826 0.0000 0.0000
# 5 0.0000 0.0000 0.0000 0.0000 34.9019 0.0000
# 6 0.0000 0.0000 0.0000 0.0000 0.0000 19.0848
#
#
#
# Elastic Compliance Matrix: (Units=1/GPa)
#
#
# Indices 1 2 3 4 5 6 
#
# 1 0.009055 -0.002687 -0.000729 0.000000 0.000000 0.000000
# 2 -0.002687 0.016644 0.000339 0.000000 0.000000 0.000000
# 3 -0.000729 0.000339 0.009217 0.000000 0.000000 0.000000
# 4 0.000000 0.000000 0.000000 0.043511 0.000000 0.000000
# 5 0.000000 0.000000 0.000000 0.000000 0.028652 0.000000
# 6 0.000000 0.000000 0.000000 0.000000 0.000000 0.052398
#
#
# Mechanical properties :
#
#
# Convention : Reuss Voigt Hill
#
# Bulk Modulus (GPa) = 34.76675 37.96429 36.36552
# Shear Modulus (GPa) = 28.53590 32.90158 30.71874
#
# Velocity S-wave (km/s) = 3.48444 3.74150 3.61526
# Velocity P-wave (km/s) = 5.56605 5.90068 5.73581
#
# Compressibility (1/GPa) = 0.02876311
#
# Stress axis : x y z
#
# Youngs Moduli (GPa) = 110.44067 60.08066 108.48946
#
# Poissons Ratio (x) = 0.16141 0.07912
# Poissons Ratio (y) = 0.29670 -0.03679
# Poissons Ratio (z) = 0.08054 -0.02038
#
# Static dielectric constant tensor:
#      x y z
#    x 1.938590 0.000000 0.000000 
#    y 0.000000 1.939340 0.000000 
#    z 0.000000 0.000000 1.923280 
# 
# From -- ./inp_files/8728.got.cif
#   From: 2010.05.17/outbox.cif.g08.bks.cpg/sg40_5_cif.got.tgz:8728.got - 2010.06.03 18:35:42.
