data_PCOD9363766
_publ_section_title
;
Structure prediction by ZEFSAII (Michael W. Deem and Ramdas Pophale) SiO2 
 PCOD9363766
Probable space group: A M A 2
;
_chemical_formula_sum "Si O2"
_cell_formula_units_Z 48
_cell_length_a 8.960780
_cell_length_b 23.278258
_cell_length_c 12.036451
_cell_angle_alpha 90.000000
_cell_angle_beta 90.000000
_cell_angle_gamma 90.000000
_cell_volume 2510.699548
_symmetry_space_group_name_H-M "A M A 2"
_symmetry_group_IT_number 40
_symmetry_cell_setting 'orthorhombic'
loop_
_space_group_symop_operation_xyz
x,y,z
-x,-y,z
1/2-x,y,z
1/2+x,-y,z
x,1/2+y,1/2+z
-x,1/2-y,1/2+z
1/2-x,1/2+y,1/2+z
1/2+x,1/2-y,1/2+z
loop_
_atom_site_type_symbol
_atom_site_label
_atom_site_fract_x
_atom_site_fract_y
_atom_site_fract_z
Si Si1 0.570603 0.233309 0.125000
Si Si2 0.069927 0.936814 0.502952
Si Si3 0.079551 0.662704 0.432025
Si Si4 0.581698 0.444211 0.595636
Si Si5 0.429093 0.871036 0.282806
Si Si6 0.570886 0.148340 0.695259
O O1 0.750000 0.238137 0.125167
O O2 0.525656 0.190115 0.227282
O O3 0.492422 0.294158 0.138985
O O4 0.513254 0.205572 0.010280
O O5 0.250000 0.942346 0.497561
O O6 0.024342 0.891862 0.405266
O O7 0.030603 0.906657 0.619804
O O8 0.000000 0.000000 0.489095
O O9 0.250000 0.683859 0.414842
O O10 0.086092 0.604537 0.502991
O O11 0.001081 0.649176 0.316597
O O12 0.500000 0.500000 0.551949
O O13 0.750000 0.457974 0.630531
O O14 0.491761 0.418729 0.699080
O O15 0.250000 0.870981 0.280593
O O16 0.750000 0.151085 0.701899
#
# Coordination Sequence:
#
# PCOD9363766 Si02
#       6
#     8   8   8   8   8   8
#     4  10  21  38  63  92 120 154 197 247 309 369
#     4  10  23  41  60  86 122 163 203 250 300 358
#     4  10  22  40  59  83 117 154 198 248 298 356
#     4  10  20  34  56  85 115 151 192 242 296 349
#     4   9  19  37  60  87 119 154 192 243 301 355
#     4  11  24  40  60  87 121 160 201 248 304 363
#
# _framework density 19.118176999999999
#
# number of rings (size 3 to 8) (size 9 to 14) (size 15 to 20)
#    0.000    2.000    0.000    2.500    2.333    6.667 
#    0.000    3.333    0.000    0.000    0.000    0.000 
#    0.000    0.000    0.000    0.000    0.000    0.000 
#
# Total GULP energy -133960.152934 kJ/mol
# GULP energy per Si atom -5581.673039 kJ/mol
# Density = 1.907466 g / cm^3
# Si number density = 19.118177 Si / 1000 Ang^3
#
#
#
# Elastic Constant Matrix: (Units=GPa)
#
#
# Indices 1 2 3 4 5 6 
#
# 1 28.3434 14.1650 17.9437 0.0000 0.0000 0.0000
# 2 14.1650 52.2248 18.9256 0.0000 0.0000 0.0000
# 3 17.9437 18.9256 111.1254 0.0000 0.0000 0.0000
# 4 0.0000 0.0000 0.0000 3.7158 0.0000 0.0000
# 5 0.0000 0.0000 0.0000 0.0000 25.4729 0.0000
# 6 0.0000 0.0000 0.0000 0.0000 0.0000 33.7724
#
#
#
# Elastic Compliance Matrix: (Units=1/GPa)
#
#
# Indices 1 2 3 4 5 6 
#
# 1 0.043616 -0.009888 -0.005359 0.000000 0.000000 0.000000
# 2 -0.009888 0.022649 -0.002261 0.000000 0.000000 0.000000
# 3 -0.005359 -0.002261 0.010249 0.000000 0.000000 0.000000
# 4 0.000000 0.000000 0.000000 0.269118 0.000000 0.000000
# 5 0.000000 0.000000 0.000000 0.000000 0.039257 0.000000
# 6 0.000000 0.000000 0.000000 0.000000 0.000000 0.029610
#
#
# Mechanical properties :
#
#
# Convention : Reuss Voigt Hill
#
# Bulk Modulus (GPa) = 24.09688 32.64025 28.36856
# Shear Modulus (GPa) = 10.79104 21.96952 16.38028
#
# Velocity S-wave (km/s) = 2.37837 3.39358 2.93027
# Velocity P-wave (km/s) = 4.49152 5.69782 5.13025
#
# Compressibility (1/GPa) = 0.04149916
#
# Stress axis : x y z
#
# Youngs Moduli (GPa) = 22.92753 44.15172 97.56912
#
# Poissons Ratio (x) = 0.43657 0.52284
# Poissons Ratio (y) = 0.22671 0.22058
# Poissons Ratio (z) = 0.12286 0.09981
#
# Static dielectric constant tensor:
#      x y z
#    x 1.652660 0.000000 0.000000 
#    y 0.000000 1.652550 0.000000 
#    z 0.000000 0.000000 1.670600 
# 
# From -- ./inp_files/10233.got.cif
#   From: 2010.05.17/outbox.cif.g08.bks.cpg/sg40_6_cif.got.tgz:10233.got - 2010.06.03 18:35:42.
