data_PCOD9363951
_publ_section_title
;
Structure prediction by ZEFSAII (Michael W. Deem and Ramdas Pophale) SiO2 
 PCOD9363951
Probable space group: A M A 2
;
_chemical_formula_sum "Si O2"
_cell_formula_units_Z 64
_cell_length_a 8.199518
_cell_length_b 30.154168
_cell_length_c 13.119110
_cell_angle_alpha 90.000000
_cell_angle_beta 90.000000
_cell_angle_gamma 90.000000
_cell_volume 3243.695268
_symmetry_space_group_name_H-M "A M A 2"
_symmetry_group_IT_number 40
_symmetry_cell_setting 'orthorhombic'
loop_
_space_group_symop_operation_xyz
x,y,z
-x,-y,z
1/2-x,y,z
1/2+x,-y,z
x,1/2+y,1/2+z
-x,1/2-y,1/2+z
1/2-x,1/2+y,1/2+z
1/2+x,1/2-y,1/2+z
loop_
_atom_site_type_symbol
_atom_site_label
_atom_site_fract_x
_atom_site_fract_y
_atom_site_fract_z
Si Si1 0.947310 0.876920 0.690760
Si Si2 0.947397 0.351379 0.414062
Si Si3 0.933416 0.704735 0.778024
Si Si4 0.553185 0.375590 0.640070
Si Si5 0.446855 0.550661 0.027925
Si Si6 0.565715 0.746283 0.455220
Si Si7 0.567491 0.220094 0.654822
Si Si8 0.553126 0.949438 0.298124
O O1 0.750000 0.875317 0.685885
O O2 0.992138 0.877742 0.810991
O O3 0.003546 0.916821 0.617918
O O4 0.017607 0.830761 0.649482
O O5 0.750000 0.347072 0.415189
O O6 0.998914 0.373149 0.521825
O O7 0.022940 0.302089 0.411111
O O8 0.750000 0.694327 0.809621
O O9 0.996860 0.668228 0.699791
O O10 0.045976 0.713944 0.874826
O O11 0.942072 0.751984 0.721706
O O12 0.750000 0.376261 0.639637
O O13 0.494839 0.416913 0.708586
O O14 0.500000 0.500000 0.044526
O O15 0.250000 0.551859 0.027588
O O16 0.501588 0.563899 0.912961
O O17 0.750000 0.745258 0.494377
O O18 0.442208 0.757113 0.545261
O O19 0.750000 0.224778 0.697571
O O20 0.750000 0.947911 0.298104
O O21 0.500000 0.000000 0.281570
#
# Coordination Sequence:
#
# PCOD9363951 Si02
#       8
#     8   8   8   8   8   8   8   8
#     4  10  21  37  58  84 114 151 195 240 291 346
#     4  10  20  36  57  79 113 155 195 237 285 343
#     4  12  24  38  56  83 117 155 198 242 291 344
#     4  10  21  37  58  84 114 151 195 240 291 346
#     4   9  19  37  60  85 112 145 184 234 294 352
#     4  12  24  38  56  79 114 157 199 245 291 341
#     4  12  24  38  56  83 117 155 198 242 291 344
#     4   9  19  37  60  85 112 145 184 234 294 352
#
# _framework density 19.730584
#
# number of rings (size 3 to 8) (size 9 to 14) (size 15 to 20)
#    0.000    1.500    2.500    3.375    1.750    1.000 
#    0.000    0.625    0.000    0.000    0.000    0.000 
#    0.000    0.000    0.000    0.000    0.000    0.000 
#
# Total GULP energy -178633.508296 kJ/mol
# GULP energy per Si atom -5582.297134 kJ/mol
# Density = 1.968568 g / cm^3
# Si number density = 19.730584 Si / 1000 Ang^3
#
#
#
# Elastic Constant Matrix: (Units=GPa)
#
#
# Indices 1 2 3 4 5 6 
#
# 1 29.9782 10.1551 24.0103 0.0000 0.0000 0.0000
# 2 10.1551 95.0238 70.5943 0.0000 0.0000 0.0000
# 3 24.0103 70.5943 125.5234 0.0000 0.0000 0.0000
# 4 0.0000 0.0000 0.0000 37.7855 0.0000 0.0000
# 5 0.0000 0.0000 0.0000 0.0000 22.2894 0.0000
# 6 0.0000 0.0000 0.0000 0.0000 0.0000 25.3838
#
#
#
# Elastic Compliance Matrix: (Units=1/GPa)
#
#
# Indices 1 2 3 4 5 6 
#
# 1 0.039710 0.002403 -0.008947 0.000000 0.000000 0.000000
# 2 0.002403 0.018222 -0.010708 0.000000 0.000000 0.000000
# 3 -0.008947 -0.010708 0.015700 0.000000 0.000000 0.000000
# 4 0.000000 0.000000 0.000000 0.026465 0.000000 0.000000
# 5 0.000000 0.000000 0.000000 0.000000 0.044864 0.000000
# 6 0.000000 0.000000 0.000000 0.000000 0.000000 0.039395
#
#
# Mechanical properties :
#
#
# Convention : Reuss Voigt Hill
#
# Bulk Modulus (GPa) = 25.55702 51.11610 38.33656
# Shear Modulus (GPa) = 21.56085 26.80946 24.18515
#
# Velocity S-wave (km/s) = 3.30928 3.69016 3.50490
# Velocity P-wave (km/s) = 5.25194 6.64226 5.98759
#
# Compressibility (1/GPa) = 0.03912820
#
# Stress axis : x y z
#
# Youngs Moduli (GPa) = 25.18278 54.88004 63.69424
#
# Poissons Ratio (x) = -0.13190 0.56990
# Poissons Ratio (y) = -0.06052 0.68201
# Poissons Ratio (z) = 0.22532 0.58763
#
# Static dielectric constant tensor:
#      x y z
#    x 1.660910 0.000000 0.000000 
#    y 0.000000 1.647660 0.000000 
#    z 0.000000 0.000000 1.748110 
# 
# From -- ./inp_files/10681.got.cif
#   From: 2010.05.17/outbox.cif.g08.bks.cpg/sg40_6_cif.got.tgz:10681.got - 2010.06.03 18:35:42.
