data_PCOD9363755
_publ_section_title
;
Structure prediction by ZEFSAII (Michael W. Deem and Ramdas Pophale) SiO2 
 PCOD9363755
Probable space group: A M A 2
;
_chemical_formula_sum "Si O2"
_cell_formula_units_Z 40
_cell_length_a 9.121881
_cell_length_b 29.705448
_cell_length_c 7.353135
_cell_angle_alpha 90.000000
_cell_angle_beta 90.000000
_cell_angle_gamma 90.000000
_cell_volume 1992.475768
_symmetry_space_group_name_H-M "A M A 2"
_symmetry_group_IT_number 40
_symmetry_cell_setting 'orthorhombic'
loop_
_space_group_symop_operation_xyz
x,y,z
-x,-y,z
1/2-x,y,z
1/2+x,-y,z
x,1/2+y,1/2+z
-x,1/2-y,1/2+z
1/2-x,1/2+y,1/2+z
1/2+x,1/2-y,1/2+z
loop_
_atom_site_type_symbol
_atom_site_label
_atom_site_fract_x
_atom_site_fract_y
_atom_site_fract_z
Si Si1 0.923947 0.547568 0.326210
Si Si2 0.081721 0.794824 0.172382
Si Si3 0.417874 0.596512 0.021925
Si Si4 0.577420 0.381853 0.591752
Si Si5 0.081146 0.695883 0.034226
O O1 0.750000 0.544284 0.340500
O O2 0.000000 0.500000 0.364336
O O3 0.987398 0.584210 0.466870
O O4 0.972598 0.563909 0.125104
O O5 0.250000 0.805296 0.129714
O O6 0.979222 0.830521 0.069370
O O7 0.041190 0.802770 0.380492
O O8 0.059521 0.741658 0.143290
O O9 0.250000 0.580623 0.045376
O O10 0.441926 0.604466 0.806110
O O11 0.428699 0.646077 0.115757
O O12 0.750000 0.384497 0.551628
O O13 0.250000 0.697911 0.958371
#
# Coordination Sequence:
#
# PCOD9363755 Si02
#       5
#     8   8   8   8   8
#     4  12  26  43  66  95 123 159 206 258 312 374
#     4  10  20  34  55  87 120 158 205 248 298 362
#     4   9  20  41  64  88 123 164 204 252 309 365
#     4  10  22  42  65  89 124 165 204 256 311 365
#     4   9  20  36  54  83 120 160 202 244 300 361
#
# _framework density 20.075527000000001
#
# number of rings (size 3 to 8) (size 9 to 14) (size 15 to 20)
#    0.000    2.000    0.000    4.200    2.800    6.400 
#    0.000    0.000    0.000    0.000    0.000    0.000 
#    0.000    0.000    0.000    0.000    0.000    0.000 
#
# Total GULP energy -111578.096405 kJ/mol
# GULP energy per Si atom -5578.904820 kJ/mol
# Density = 2.002983 g / cm^3
# Si number density = 20.075527 Si / 1000 Ang^3
#
#
#
# Elastic Constant Matrix: (Units=GPa)
#
#
# Indices 1 2 3 4 5 6 
#
# 1 115.3706 47.4917 26.1046 0.0000 0.0000 0.0000
# 2 47.4917 78.5477 7.0808 0.0000 0.0000 0.0000
# 3 26.1046 7.0808 33.3062 0.0000 0.0000 0.0000
# 4 0.0000 0.0000 0.0000 27.4198 0.0000 0.0000
# 5 0.0000 0.0000 0.0000 0.0000 32.5491 0.0000
# 6 0.0000 0.0000 0.0000 0.0000 0.0000 38.4048
#
#
#
# Elastic Compliance Matrix: (Units=1/GPa)
#
#
# Indices 1 2 3 4 5 6 
#
# 1 0.013874 -0.007553 -0.009268 0.000000 0.000000 0.000000
# 2 -0.007553 0.017092 0.002286 0.000000 0.000000 0.000000
# 3 -0.009268 0.002286 0.036803 0.000000 0.000000 0.000000
# 4 0.000000 0.000000 0.000000 0.036470 0.000000 0.000000
# 5 0.000000 0.000000 0.000000 0.000000 0.030723 0.000000
# 6 0.000000 0.000000 0.000000 0.000000 0.000000 0.026038
#
#
# Mechanical properties :
#
#
# Convention : Reuss Voigt Hill
#
# Bulk Modulus (GPa) = 25.84105 43.17543 34.50824
# Shear Modulus (GPa) = 24.63425 29.44455 27.03940
#
# Velocity S-wave (km/s) = 3.50677 3.83389 3.67397
# Velocity P-wave (km/s) = 5.41262 6.41494 5.93498
#
# Compressibility (1/GPa) = 0.03869811
#
# Stress axis : x y z
#
# Youngs Moduli (GPa) = 72.07725 58.50779 27.17192
#
# Poissons Ratio (x) = 0.44191 0.25184
# Poissons Ratio (y) = 0.54440 -0.06212
# Poissons Ratio (z) = 0.66804 -0.13376
#
# Static dielectric constant tensor:
#      x y z
#    x 1.673880 0.000000 0.000000 
#    y 0.000000 1.726120 0.000000 
#    z 0.000000 0.000000 1.740460 
# 
# From -- ./inp_files/4253.got.cif
#   From: 2010.05.17/outbox.cif.g08.bks.cpg/sg40_3_cif.got.tgz:4253.got - 2010.06.03 18:35:42.
