data_PCOD9363419
_publ_section_title
;
Structure prediction by ZEFSAII (Michael W. Deem and Ramdas Pophale) SiO2 
 PCOD9363419
Probable space group: A M A 2
;
_chemical_formula_sum "Si O2"
_cell_formula_units_Z 64
_cell_length_a 8.627718
_cell_length_b 31.670088
_cell_length_c 12.251180
_cell_angle_alpha 90.000000
_cell_angle_beta 90.000000
_cell_angle_gamma 90.000000
_cell_volume 3347.519631
_symmetry_space_group_name_H-M "A M A 2"
_symmetry_group_IT_number 40
_symmetry_cell_setting 'orthorhombic'
loop_
_space_group_symop_operation_xyz
x,y,z
-x,-y,z
1/2-x,y,z
1/2+x,-y,z
x,1/2+y,1/2+z
-x,1/2-y,1/2+z
1/2-x,1/2+y,1/2+z
1/2+x,1/2-y,1/2+z
loop_
_atom_site_type_symbol
_atom_site_label
_atom_site_fract_x
_atom_site_fract_y
_atom_site_fract_z
Si Si1 0.564223 0.375379 0.997110
Si Si2 0.433700 0.067452 0.859683
Si Si3 0.433118 0.955375 0.628198
Si Si4 0.561062 0.797218 0.095260
Si Si5 0.933752 0.331478 0.358942
Si Si6 0.437251 0.544665 0.603849
Si Si7 0.934471 0.701636 0.135651
Si Si8 0.060788 0.125652 0.245473
O O1 0.750000 0.376846 0.999761
O O2 0.511677 0.376352 0.871148
O O3 0.502140 0.415583 0.063583
O O4 0.509768 0.332574 0.055488
O O5 0.250000 0.058134 0.847055
O O6 0.521862 0.049601 0.755502
O O7 0.451616 0.118058 0.860373
O O8 0.486486 0.050929 0.977666
O O9 0.250000 0.955240 0.616640
O O10 0.500000 0.000000 0.588317
O O11 0.750000 0.797400 0.098238
O O12 0.509712 0.749464 0.116149
O O13 0.509378 0.831653 0.184328
O O14 0.516152 0.812837 0.975013
O O15 0.750000 0.322826 0.344594
O O16 0.024624 0.312032 0.258201
O O17 0.500000 0.500000 0.644663
O O18 0.250000 0.544295 0.604361
O O19 0.487873 0.584567 0.676372
O O20 0.750000 0.700485 0.119639
O O21 0.250000 0.125842 0.244431
#
# Coordination Sequence:
#
# PCOD9363419 Si02
#       8
#     8   8   8   8   8   8   8   8
#     4  11  23  40  62  85 116 157 201 241 290 351
#     4  10  19  35  61  89 119 154 193 236 288 350
#     4  12  25  41  62  87 120 154 195 243 294 348
#     4   9  19  37  60  87 118 155 196 242 296 350
#     4  10  19  36  63  87 115 157 199 238 291 353
#     4  10  20  36  59  87 116 149 191 236 290 347
#     4  11  23  37  58  89 123 154 195 248 297 345
#     4   9  19  38  61  83 111 154 199 239 287 350
#
# _framework density 19.118632999999999
#
# number of rings (size 3 to 8) (size 9 to 14) (size 15 to 20)
#    0.000    1.750    2.500    2.250    1.750    2.000 
#    0.000    3.125    0.000    3.000    0.000    0.000 
#    0.000    0.000    0.000    0.000    0.000    0.000 
#
# Total GULP energy -178789.091351 kJ/mol
# GULP energy per Si atom -5587.159105 kJ/mol
# Density = 1.907512 g / cm^3
# Si number density = 19.118633 Si / 1000 Ang^3
#
#
#
# Elastic Constant Matrix: (Units=GPa)
#
#
# Indices 1 2 3 4 5 6 
#
# 1 40.9033 40.5785 30.2507 0.0000 0.0000 0.0000
# 2 40.5785 170.5034 82.7010 0.0000 0.0000 0.0000
# 3 30.2507 82.7010 142.9564 0.0000 0.0000 0.0000
# 4 0.0000 0.0000 0.0000 55.9521 0.0000 0.0000
# 5 0.0000 0.0000 0.0000 0.0000 -10.7354 0.0000
# 6 0.0000 0.0000 0.0000 0.0000 0.0000 25.5987
#
#
#
# Elastic Compliance Matrix: (Units=1/GPa)
#
#
# Indices 1 2 3 4 5 6 
#
# 1 0.033157 -0.006238 -0.003407 0.000000 0.000000 0.000000
# 2 -0.006238 0.009326 -0.004075 0.000000 0.000000 0.000000
# 3 -0.003407 -0.004075 0.010074 0.000000 0.000000 0.000000
# 4 0.000000 0.000000 0.000000 0.017872 0.000000 0.000000
# 5 0.000000 0.000000 0.000000 0.000000 -0.093149 0.000000
# 6 0.000000 0.000000 0.000000 0.000000 0.000000 0.039064
#
#
# Mechanical properties :
#
#
# Convention : Reuss Voigt Hill
#
# Bulk Modulus (GPa) = 39.81701 73.49150 56.65426
# Shear Modulus (GPa) = 95.86362 27.55194 61.70778
#
# Velocity S-wave (km/s) = 7.08875 3.80031 5.68738
# Velocity P-wave (km/s) = 9.37400 7.60129 8.53380
#
# Compressibility (1/GPa) = 0.02511489
#
# Stress axis : x y z
#
# Youngs Moduli (GPa) = 30.15987 107.22344 99.26851
#
# Poissons Ratio (x) = 0.66890 0.33824
# Poissons Ratio (y) = 0.18815 0.40454
# Poissons Ratio (z) = 0.10276 0.43696
#
# Static dielectric constant tensor:
#      x y z
#    x 1.650340 0.000000 0.000000 
#    y 0.000000 1.651720 0.000000 
#    z 0.000000 0.000000 1.644280 
# 
# From -- ./inp_files/10701.got.cif
#   From: 2010.05.17/outbox.cif.g08.bks.cpg/sg40_6_cif.got.tgz:10701.got - 2010.06.03 18:35:42.
