data_PCOD9363503
_publ_section_title
;
Structure prediction by ZEFSAII (Michael W. Deem and Ramdas Pophale) SiO2 
 PCOD9363503
Probable space group: A M A 2
;
_chemical_formula_sum "Si O2"
_cell_formula_units_Z 60
_cell_length_a 29.219335
_cell_length_b 6.028119
_cell_length_c 16.914632
_cell_angle_alpha 90.000000
_cell_angle_beta 90.000000
_cell_angle_gamma 90.000000
_cell_volume 2979.303167
_symmetry_space_group_name_H-M "A M A 2"
_symmetry_group_IT_number 40
_symmetry_cell_setting 'orthorhombic'
loop_
_space_group_symop_operation_xyz
x,y,z
-x,-y,z
1/2-x,y,z
1/2+x,-y,z
x,1/2+y,1/2+z
-x,1/2-y,1/2+z
1/2-x,1/2+y,1/2+z
1/2+x,1/2-y,1/2+z
loop_
_atom_site_type_symbol
_atom_site_label
_atom_site_fract_x
_atom_site_fract_y
_atom_site_fract_z
Si Si1 0.423779 0.304544 0.527740
Si Si2 0.868764 0.941588 0.910771
Si Si3 0.302406 0.683740 0.855274
Si Si4 0.853546 0.457763 0.130831
Si Si5 0.627027 0.122305 0.269800
Si Si6 0.300255 0.347701 0.003217
Si Si7 0.571809 0.328193 0.661046
Si Si8 0.500000 0.000000 0.598633
O O1 0.409036 0.402756 0.443720
O O2 0.380183 0.171297 0.560975
O O3 0.431612 0.513230 0.585112
O O4 0.465787 0.139206 0.542767
O O5 0.885556 0.763129 0.847310
O O6 0.842047 0.816057 0.981785
O O7 0.829690 0.091090 0.870728
O O8 0.250000 0.719531 0.830855
O O9 0.332466 0.543199 0.794146
O O10 0.301691 0.538398 0.936075
O O11 0.853424 0.288946 0.203388
O O12 0.884974 0.664663 0.154901
O O13 0.808271 0.548332 0.089409
O O14 0.583901 0.989210 0.233833
O O15 0.250000 0.239797 0.997800
O O16 0.528093 0.168573 0.654635
#
# Coordination Sequence:
#
# PCOD9363503 Si02
#       8
#     8   8   8   8   8   8   8   4
#     4  10  20  36  65  97 120 154 210 256 318 374
#     4  11  20  38  62  94 123 170 205 257 312 375
#     4  10  21  38  58  90 130 172 216 255 303 364
#     4  10  19  37  59  91 122 162 207 252 308 367
#     4  10  23  36  61  93 128 170 205 251 313 376
#     4  10  20  34  58  91 125 164 214 261 303 360
#     4  10  20  40  61  99 121 157 205 256 321 375
#     4  10  22  36  68 106 114 152 208 276 310 386
#
# _framework density 20.138936999999999
#
# number of rings (size 3 to 8) (size 9 to 14) (size 15 to 20)
#    0.000    1.867    2.667    1.600    0.000    1.067 
#    0.000    2.000    0.000    0.000  156.000    0.000 
#    0.000    0.000    0.000    0.000    0.000    0.000 
#
# Total GULP energy -167430.378030 kJ/mol
# GULP energy per Si atom -5581.012601 kJ/mol
# Density = 2.009310 g / cm^3
# Si number density = 20.138937 Si / 1000 Ang^3
#
#
#
# Elastic Constant Matrix: (Units=GPa)
#
#
# Indices 1 2 3 4 5 6 
#
# 1 90.9123 35.2098 46.4641 0.0000 0.0000 0.0000
# 2 35.2098 92.3949 32.4444 0.0000 0.0000 0.0000
# 3 46.4641 32.4444 74.3994 0.0000 0.0000 0.0000
# 4 0.0000 0.0000 0.0000 24.5011 0.0000 0.0000
# 5 0.0000 0.0000 0.0000 0.0000 16.0558 0.0000
# 6 0.0000 0.0000 0.0000 0.0000 0.0000 24.7096
#
#
#
# Elastic Compliance Matrix: (Units=1/GPa)
#
#
# Indices 1 2 3 4 5 6 
#
# 1 0.016938 -0.003236 -0.009167 0.000000 0.000000 0.000000
# 2 -0.003236 0.013398 -0.003822 0.000000 0.000000 0.000000
# 3 -0.009167 -0.003822 0.020833 0.000000 0.000000 0.000000
# 4 0.000000 0.000000 0.000000 0.040814 0.000000 0.000000
# 5 0.000000 0.000000 0.000000 0.000000 0.062283 0.000000
# 6 0.000000 0.000000 0.000000 0.000000 0.000000 0.040470
#
#
# Mechanical properties :
#
#
# Convention : Reuss Voigt Hill
#
# Bulk Modulus (GPa) = 53.42061 53.99369 53.70715
# Shear Modulus (GPa) = 21.42009 22.62586 22.02297
#
# Velocity S-wave (km/s) = 3.26485 3.35548 3.31048
# Velocity P-wave (km/s) = 6.38717 6.47157 6.42951
#
# Compressibility (1/GPa) = 0.01871937
#
# Stress axis : x y z
#
# Youngs Moduli (GPa) = 59.03890 74.63657 48.00131
#
# Poissons Ratio (x) = 0.24150 0.44003
# Poissons Ratio (y) = 0.19103 0.18346
# Poissons Ratio (z) = 0.54122 0.28526
#
# Static dielectric constant tensor:
#      x y z
#    x 1.706240 0.000000 0.000000 
#    y 0.000000 1.744440 0.000000 
#    z 0.000000 0.000000 1.712250 
# 
# From -- ./inp_files/21602.got.cif
#   From: 2010.05.17/outbox.cif.g08.bks.cpg/sg40_11_cif.got.tgz:21602.got - 2010.06.03 18:35:42.
