data_PCOD9363913
_publ_section_title
;
Structure prediction by ZEFSAII (Michael W. Deem and Ramdas Pophale) SiO2 
 PCOD9363913
Probable space group: A M A 2
;
_chemical_formula_sum "Si O2"
_cell_formula_units_Z 64
_cell_length_a 24.527746
_cell_length_b 16.467021
_cell_length_c 8.121715
_cell_angle_alpha 90.000000
_cell_angle_beta 90.000000
_cell_angle_gamma 90.000000
_cell_volume 3280.351823
_symmetry_space_group_name_H-M "A M A 2"
_symmetry_group_IT_number 40
_symmetry_cell_setting 'orthorhombic'
loop_
_space_group_symop_operation_xyz
x,y,z
-x,-y,z
1/2-x,y,z
1/2+x,-y,z
x,1/2+y,1/2+z
-x,1/2-y,1/2+z
1/2-x,1/2+y,1/2+z
1/2+x,1/2-y,1/2+z
loop_
_atom_site_type_symbol
_atom_site_label
_atom_site_fract_x
_atom_site_fract_y
_atom_site_fract_z
Si Si1 0.686915 0.209418 0.549810
Si Si2 0.689066 0.413791 0.122070
Si Si3 0.381476 0.647191 0.387431
Si Si4 0.484424 0.365456 0.883553
Si Si5 0.874881 0.551884 0.940967
Si Si6 0.443489 0.243698 0.612424
Si Si7 0.347122 0.221921 0.385022
Si Si8 0.090169 0.572914 0.712818
O O1 0.750000 0.225587 0.507640
O O2 0.644811 0.272960 0.469150
O O3 0.667613 0.123007 0.479196
O O4 0.680498 0.221513 0.747980
O O5 0.750000 0.446801 0.108945
O O6 0.669763 0.398394 0.306968
O O7 0.644970 0.475724 0.048010
O O8 0.687081 0.328390 0.021065
O O9 0.419519 0.676457 0.238158
O O10 0.412802 0.592817 0.520497
O O11 0.435051 0.412087 0.971120
O O12 0.461896 0.318010 0.724081
O O13 0.533747 0.419980 0.813237
O O14 0.509044 0.298153 0.006878
O O15 0.880647 0.511366 0.759708
O O16 0.395150 0.265594 0.486018
O O17 0.374592 0.147882 0.283787
#
# Coordination Sequence:
#
# PCOD9363913 Si02
#       8
#     8   8   8   8   8   8   8   8
#     4  11  21  38  63  89 119 159 204 255 311 353
#     4  10  20  39  62  86 122 164 204 250 306 362
#     4  10  20  40  60  92 116 157 211 254 288 373
#     4  11  21  37  62  88 123 163 196 246 310 372
#     4  11  23  39  57  88 124 157 198 253 302 363
#     4  10  20  35  62  93 119 156 204 257 307 356
#     4   8  19  36  61  88 118 154 208 249 293 369
#     4   9  20  38  58  83 123 161 198 238 306 370
#
# _framework density 19.510103000000001
#
# number of rings (size 3 to 8) (size 9 to 14) (size 15 to 20)
#    0.000    2.000    1.250    3.000    3.500    0.000 
#    2.250    3.125    0.000    0.000    0.000    0.000 
#    0.000    0.000    0.000    0.000    0.000    0.000 
#
# Total GULP energy -178331.162130 kJ/mol
# GULP energy per Si atom -5572.848817 kJ/mol
# Density = 1.946570 g / cm^3
# Si number density = 19.510103 Si / 1000 Ang^3
#
#
#
# Elastic Constant Matrix: (Units=GPa)
#
#
# Indices 1 2 3 4 5 6 
#
# 1 58.9871 16.1108 2.4293 0.0000 0.0000 0.0000
# 2 16.1108 72.6112 17.2369 0.0000 0.0000 0.0000
# 3 2.4293 17.2369 48.5384 0.0000 0.0000 0.0000
# 4 0.0000 0.0000 0.0000 26.3886 0.0000 0.0000
# 5 0.0000 0.0000 0.0000 0.0000 25.0418 0.0000
# 6 0.0000 0.0000 0.0000 0.0000 0.0000 24.3030
#
#
#
# Elastic Compliance Matrix: (Units=1/GPa)
#
#
# Indices 1 2 3 4 5 6 
#
# 1 0.018061 -0.004142 0.000567 0.000000 0.000000 0.000000
# 2 -0.004142 0.015990 -0.005471 0.000000 0.000000 0.000000
# 3 0.000567 -0.005471 0.022517 0.000000 0.000000 0.000000
# 4 0.000000 0.000000 0.000000 0.037895 0.000000 0.000000
# 5 0.000000 0.000000 0.000000 0.000000 0.039933 0.000000
# 6 0.000000 0.000000 0.000000 0.000000 0.000000 0.041147
#
#
# Mechanical properties :
#
#
# Convention : Reuss Voigt Hill
#
# Bulk Modulus (GPa) = 25.99062 27.96563 26.97812
# Shear Modulus (GPa) = 24.21781 24.77065 24.49423
#
# Velocity S-wave (km/s) = 3.52702 3.56706 3.54710
# Velocity P-wave (km/s) = 5.47148 5.59734 5.53477
#
# Compressibility (1/GPa) = 0.03847541
#
# Stress axis : x y z
#
# Youngs Moduli (GPa) = 55.36864 62.54027 44.41149
#
# Poissons Ratio (x) = 0.25903 -0.02518
# Poissons Ratio (y) = 0.22933 0.24297
# Poissons Ratio (z) = -0.03139 0.34215
#
# Static dielectric constant tensor:
#      x y z
#    x 1.714170 0.000000 0.000000 
#    y 0.000000 1.690760 0.000000 
#    z 0.000000 0.000000 1.699050 
# 
# From -- ./inp_files/8988.got.cif
#   From: 2010.05.17/outbox.cif.g08.bks.cpg/sg40_5_cif.got.tgz:8988.got - 2010.06.03 18:35:42.
