data_PCOD9363011
_publ_section_title
;
Structure prediction by ZEFSAII (Michael W. Deem and Ramdas Pophale) SiO2 
 PCOD9363011
Probable space group: A M A 2
;
_chemical_formula_sum "Si O2"
_cell_formula_units_Z 64
_cell_length_a 8.055313
_cell_length_b 31.211706
_cell_length_c 14.986638
_cell_angle_alpha 90.000000
_cell_angle_beta 90.000000
_cell_angle_gamma 90.000000
_cell_volume 3767.941442
_symmetry_space_group_name_H-M "A M A 2"
_symmetry_group_IT_number 40
_symmetry_cell_setting 'orthorhombic'
loop_
_space_group_symop_operation_xyz
x,y,z
-x,-y,z
1/2-x,y,z
1/2+x,-y,z
x,1/2+y,1/2+z
-x,1/2-y,1/2+z
1/2-x,1/2+y,1/2+z
1/2+x,1/2-y,1/2+z
loop_
_atom_site_type_symbol
_atom_site_label
_atom_site_fract_x
_atom_site_fract_y
_atom_site_fract_z
Si Si1 0.940041 0.277794 0.757530
Si Si2 0.556468 0.814688 0.750049
Si Si3 0.551772 0.952362 0.625272
Si Si4 0.451774 0.632215 0.424547
Si Si5 0.447647 0.783846 0.460167
Si Si6 0.049742 0.547475 0.331067
Si Si7 0.454377 0.698735 0.567234
Si Si8 0.447857 0.362766 0.078823
O O1 0.750000 0.291256 0.766504
O O2 0.012487 0.300424 0.669604
O O3 0.951467 0.227569 0.733002
O O4 0.017815 0.282517 0.854965
O O5 0.750000 0.802202 0.756810
O O6 0.506649 0.836667 0.842191
O O7 0.533182 0.847952 0.670537
O O8 0.750000 0.950316 0.627000
O O9 0.490060 0.946874 0.728353
O O10 0.487686 0.912729 0.566959
O O11 0.500000 0.000000 0.596285
O O12 0.250000 0.630275 0.428226
O O13 0.511141 0.585195 0.395907
O O14 0.507134 0.656477 0.513386
O O15 0.250000 0.782615 0.470960
O O16 0.510114 0.741495 0.513009
O O17 0.505978 0.828247 0.505173
O O18 0.250000 0.549946 0.328036
O O19 0.000000 0.500000 0.360106
O O20 0.250000 0.699842 0.568329
O O21 0.250000 0.358421 0.088684
#
# Coordination Sequence:
#
# PCOD9363011 Si02
#       8
#     8   8   8   8   8   8   8   8
#     4  11  21  33  48  72  99 126 168 213 248 287
#     4  11  19  30  49  70  97 134 169 201 244 296
#     4  10  19  32  49  73 101 131 166 202 247 300
#     4   9  16  29  48  67  90 128 168 192 228 291
#     4  10  20  35  51  68  97 135 167 200 252 299
#     4   9  17  29  45  68  94 124 159 193 235 289
#     4   9  17  31  49  68  94 128 163 202 243 290
#     4  11  21  33  49  72 101 134 170 208 248 293
#
# _framework density 16.985402000000001
#
# number of rings (size 3 to 8) (size 9 to 14) (size 15 to 20)
#    0.000    2.000    3.750    1.500    0.000    1.500 
#    0.000    0.000    0.000    0.000    0.000    0.875 
#    0.000    4.000    0.000    0.000    0.000    0.000 
#
# Total GULP energy -178426.694575 kJ/mol
# GULP energy per Si atom -5575.834205 kJ/mol
# Density = 1.694674 g / cm^3
# Si number density = 16.985402 Si / 1000 Ang^3
#
#
#
# Elastic Constant Matrix: (Units=GPa)
#
#
# Indices 1 2 3 4 5 6 
#
# 1 16.0782 1.3058 1.3814 0.0000 0.0000 0.0000
# 2 1.3058 85.8735 14.6424 0.0000 0.0000 0.0000
# 3 1.3814 14.6424 54.4375 0.0000 0.0000 0.0000
# 4 0.0000 0.0000 0.0000 22.6048 0.0000 0.0000
# 5 0.0000 0.0000 0.0000 0.0000 9.4927 0.0000
# 6 0.0000 0.0000 0.0000 0.0000 0.0000 21.4264
#
#
#
# Elastic Compliance Matrix: (Units=1/GPa)
#
#
# Indices 1 2 3 4 5 6 
#
# 1 0.062373 -0.000711 -0.001392 0.000000 0.000000 0.000000
# 2 -0.000711 0.012213 -0.003267 0.000000 0.000000 0.000000
# 3 -0.001392 -0.003267 0.019284 0.000000 0.000000 0.000000
# 4 0.000000 0.000000 0.000000 0.044238 0.000000 0.000000
# 5 0.000000 0.000000 0.000000 0.000000 0.105344 0.000000
# 6 0.000000 0.000000 0.000000 0.000000 0.000000 0.046671
#
#
# Mechanical properties :
#
#
# Convention : Reuss Voigt Hill
#
# Bulk Modulus (GPa) = 12.02926 21.22760 16.62843
# Shear Modulus (GPa) = 15.21730 19.97542 17.59636
#
# Velocity S-wave (km/s) = 2.99641 3.43306 3.22214
# Velocity P-wave (km/s) = 4.36679 5.31406 4.86354
#
# Compressibility (1/GPa) = 0.08313064
#
# Stress axis : x y z
#
# Youngs Moduli (GPa) = 16.03253 81.88070 51.85724
#
# Poissons Ratio (x) = 0.05823 0.07216
# Poissons Ratio (y) = 0.01140 0.16941
# Poissons Ratio (z) = 0.02231 0.26750
#
# Static dielectric constant tensor:
#      x y z
#    x 1.604930 0.000000 0.000000 
#    y 0.000000 1.586890 0.000000 
#    z 0.000000 0.000000 1.572320 
# 
# From -- ./inp_files/15865.got.cif
#   From: 2010.05.17/outbox.cif.g08.bks.cpg/sg40_8_cif.got.tgz:15865.got - 2010.06.03 18:35:42.
