data_PCOD9363195
_publ_section_title
;
Structure prediction by ZEFSAII (Michael W. Deem and Ramdas Pophale) SiO2 
 PCOD9363195
Probable space group: A M A 2
;
_chemical_formula_sum "Si O2"
_cell_formula_units_Z 64
_cell_length_a 15.073207
_cell_length_b 18.245280
_cell_length_c 10.263271
_cell_angle_alpha 90.000000
_cell_angle_beta 90.000000
_cell_angle_gamma 90.000000
_cell_volume 2822.552265
_symmetry_space_group_name_H-M "A M A 2"
_symmetry_group_IT_number 40
_symmetry_cell_setting 'orthorhombic'
loop_
_space_group_symop_operation_xyz
x,y,z
-x,-y,z
1/2-x,y,z
1/2+x,-y,z
x,1/2+y,1/2+z
-x,1/2-y,1/2+z
1/2-x,1/2+y,1/2+z
1/2+x,1/2-y,1/2+z
loop_
_atom_site_type_symbol
_atom_site_label
_atom_site_fract_x
_atom_site_fract_y
_atom_site_fract_z
Si Si1 0.354190 0.055483 0.631890
Si Si2 0.650177 0.700541 0.999250
Si Si3 0.896274 0.925574 0.332011
Si Si4 0.151017 0.675185 0.321006
Si Si5 0.592064 0.091749 0.020804
Si Si6 0.406301 0.900403 0.297376
Si Si7 0.858163 0.606450 0.229721
Si Si8 0.620728 0.926970 0.054801
O O1 0.250000 0.054500 0.666710
O O2 0.360745 0.071542 0.478123
O O3 0.393564 0.125482 0.709401
O O4 0.388530 0.974806 0.677391
O O5 0.750000 0.728301 0.024611
O O6 0.610504 0.671723 0.133890
O O7 0.605889 0.757169 0.897588
O O8 0.653978 0.627425 0.912573
O O9 0.851509 0.898600 0.197847
O O10 0.991504 0.886173 0.334417
O O11 0.904071 0.011627 0.294476
O O12 0.250000 0.699720 0.276173
O O13 0.159685 0.618268 0.438432
O O14 0.619963 0.130631 0.155758
O O15 0.486411 0.081944 0.042192
O O16 0.638091 0.012100 0.027472
O O17 0.611938 0.120435 0.877594
O O18 0.750000 0.606444 0.224277
#
# Coordination Sequence:
#
# PCOD9363195 Si02
#       8
#     8   8   8   8   8   8   8   8
#     4  10  19  33  54  84 113 141 191 242 278 332
#     4  10  21  37  54  76 113 153 185 227 285 344
#     4   9  18  33  54  80 110 138 179 242 282 326
#     4  10  21  37  54  76 113 153 185 227 285 344
#     4   9  18  33  54  80 110 138 179 242 282 326
#     4   9  18  34  53  78 110 143 182 227 287 340
#     4  10  19  33  54  84 113 141 191 242 278 332
#     4   9  18  34  53  78 110 143 182 227 287 340
#
# _framework density 22.674513000000001
#
# number of rings (size 3 to 8) (size 9 to 14) (size 15 to 20)
#    0.000    2.500    2.500    1.500    0.000    2.000 
#    0.000    8.750    0.000    4.500    0.000    0.000 
#    0.000    0.000    0.000    0.000    0.000    0.000 
#
# Total GULP energy -178148.193558 kJ/mol
# GULP energy per Si atom -5567.131049 kJ/mol
# Density = 2.262290 g / cm^3
# Si number density = 22.674513 Si / 1000 Ang^3
#
#
#
# Elastic Constant Matrix: (Units=GPa)
#
#
# Indices 1 2 3 4 5 6 
#
# 1 42.8444 4.7322 0.7152 0.0000 0.0000 0.0000
# 2 4.7322 42.5148 21.0594 0.0000 0.0000 0.0000
# 3 0.7152 21.0594 169.5405 0.0000 0.0000 0.0000
# 4 0.0000 0.0000 0.0000 37.2229 0.0000 0.0000
# 5 0.0000 0.0000 0.0000 0.0000 14.2505 0.0000
# 6 0.0000 0.0000 0.0000 0.0000 0.0000 8.6399
#
#
#
# Elastic Compliance Matrix: (Units=1/GPa)
#
#
# Indices 1 2 3 4 5 6 
#
# 1 0.023640 -0.002751 0.000242 0.000000 0.000000 0.000000
# 2 -0.002751 0.025384 -0.003141 0.000000 0.000000 0.000000
# 3 0.000242 -0.003141 0.006287 0.000000 0.000000 0.000000
# 4 0.000000 0.000000 0.000000 0.026865 0.000000 0.000000
# 5 0.000000 0.000000 0.000000 0.000000 0.070173 0.000000
# 6 0.000000 0.000000 0.000000 0.000000 0.000000 0.115742
#
#
# Mechanical properties :
#
#
# Convention : Reuss Voigt Hill
#
# Bulk Modulus (GPa) = 22.72212 34.21259 28.46736
# Shear Modulus (GPa) = 17.00318 27.24886 22.12602
#
# Velocity S-wave (km/s) = 2.74137 3.47037 3.12718
# Velocity P-wave (km/s) = 4.47916 5.58384 5.06173
#
# Compressibility (1/GPa) = 0.04400997
#
# Stress axis : x y z
#
# Youngs Moduli (GPa) = 42.30098 39.39562 159.04616
#
# Poissons Ratio (x) = 0.10838 -0.03849
# Poissons Ratio (y) = 0.11638 0.49963
# Poissons Ratio (z) = -0.01024 0.12376
#
# Static dielectric constant tensor:
#      x y z
#    x 1.887160 0.000000 0.000000 
#    y 0.000000 1.908870 0.000000 
#    z 0.000000 0.000000 1.863510 
# 
# From -- ./inp_files/8458.got.cif
#   From: 2010.05.17/outbox.cif.g08.bks.cpg/sg40_5_cif.got.tgz:8458.got - 2010.06.03 18:35:42.
