data_PCOD9363265
_publ_section_title
;
Structure prediction by ZEFSAII (Michael W. Deem and Ramdas Pophale) SiO2 
 PCOD9363265
Probable space group: A M A 2
;
_chemical_formula_sum "Si O2"
_cell_formula_units_Z 64
_cell_length_a 18.397036
_cell_length_b 30.481557
_cell_length_c 5.894018
_cell_angle_alpha 90.000000
_cell_angle_beta 90.000000
_cell_angle_gamma 90.000000
_cell_volume 3305.190251
_symmetry_space_group_name_H-M "A M A 2"
_symmetry_group_IT_number 40
_symmetry_cell_setting 'orthorhombic'
loop_
_space_group_symop_operation_xyz
x,y,z
-x,-y,z
1/2-x,y,z
1/2+x,-y,z
x,1/2+y,1/2+z
-x,1/2-y,1/2+z
1/2-x,1/2+y,1/2+z
1/2+x,1/2-y,1/2+z
loop_
_atom_site_type_symbol
_atom_site_label
_atom_site_fract_x
_atom_site_fract_y
_atom_site_fract_z
Si Si1 0.586302 0.662157 0.257990
Si Si2 0.832886 0.923406 0.478160
Si Si3 0.458149 0.246030 0.318466
Si Si4 0.333336 0.910688 0.480668
Si Si5 0.170799 0.993717 0.813041
Si Si6 0.442010 0.530328 0.636928
Si Si7 0.556679 0.348653 0.984146
Si Si8 0.952335 0.599901 0.638016
O O1 0.597889 0.713739 0.288819
O O2 0.589107 0.634728 0.486408
O O3 0.636763 0.635120 0.085116
O O4 0.501033 0.659420 0.185174
O O5 0.750000 0.913863 0.407870
O O6 0.829384 0.961797 0.664578
O O7 0.882082 0.944887 0.282913
O O8 0.875694 0.879286 0.549054
O O9 0.501318 0.255902 0.564816
O O10 0.425474 0.198157 0.371404
O O11 0.250000 0.906380 0.405459
O O12 0.389827 0.922832 0.285261
O O13 0.335872 0.950024 0.662946
O O14 0.250000 0.991500 0.931571
O O15 0.102309 0.999917 0.970085
O O16 0.500000 0.500000 0.771556
O O17 0.493080 0.566409 0.514598
O O18 0.506654 0.374878 0.806044
#
# Coordination Sequence:
#
# PCOD9363265 Si02
#       8
#     8   8   8   8   8   8   8   8
#     4  10  19  34  58  84 115 151 198 251 305 356
#     4  10  21  37  56  79 116 157 193 241 300 365
#     4  10  19  35  62  95 127 158 203 265 320 370
#     4  10  22  37  54  80 118 158 199 245 302 372
#     4  10  21  37  54  76 111 155 196 243 302 361
#     4  11  21  32  54  82 108 141 194 244 290 349
#     4   9  19  34  54  88 114 149 198 249 303 365
#     4  10  19  34  54  82 112 147 192 245 299 352
#
# _framework density 19.363484
#
# number of rings (size 3 to 8) (size 9 to 14) (size 15 to 20)
#    0.000    2.000    1.250    2.625    0.000    3.000 
#    0.000    3.750    0.000    0.000    0.000    0.000 
#    0.000    0.000    0.000    0.000    0.000    0.000 
#
# Total GULP energy -178158.583014 kJ/mol
# GULP energy per Si atom -5567.455719 kJ/mol
# Density = 1.931941 g / cm^3
# Si number density = 19.363484 Si / 1000 Ang^3
#
#
#
# Elastic Constant Matrix: (Units=GPa)
#
#
# Indices 1 2 3 4 5 6 
#
# 1 116.0193 60.9871 21.3161 0.0000 0.0000 0.0000
# 2 60.9871 117.5840 11.5156 0.0000 0.0000 0.0000
# 3 21.3161 11.5156 40.2265 0.0000 0.0000 0.0000
# 4 0.0000 0.0000 0.0000 26.6779 0.0000 0.0000
# 5 0.0000 0.0000 0.0000 0.0000 27.8494 0.0000
# 6 0.0000 0.0000 0.0000 0.0000 0.0000 -10.7451
#
#
#
# Elastic Compliance Matrix: (Units=1/GPa)
#
#
# Indices 1 2 3 4 5 6 
#
# 1 0.012761 -0.006128 -0.005008 0.000000 0.000000 0.000000
# 2 -0.006128 0.011693 -0.000100 0.000000 0.000000 0.000000
# 3 -0.005008 -0.000100 0.027541 0.000000 0.000000 0.000000
# 4 0.000000 0.000000 0.000000 0.037484 0.000000 0.000000
# 5 0.000000 0.000000 0.000000 0.000000 0.035907 0.000000
# 6 0.000000 0.000000 0.000000 0.000000 0.000000 -0.093066
#
#
# Mechanical properties :
#
#
# Convention : Reuss Voigt Hill
#
# Bulk Modulus (GPa) = 33.87140 51.27416 42.57278
# Shear Modulus (GPa) = 77.35987 20.75719 49.05853
#
# Velocity S-wave (km/s) = 6.32757 3.27766 5.03891
# Velocity P-wave (km/s) = 8.42108 6.39229 7.47583
#
# Compressibility (1/GPa) = 0.02952343
#
# Stress axis : x y z
#
# Youngs Moduli (GPa) = 78.36617 85.52266 36.30899
#
# Poissons Ratio (x) = 0.52409 0.18182
# Poissons Ratio (y) = 0.48024 0.00363
# Poissons Ratio (z) = 0.39243 0.00855
#
# Static dielectric constant tensor:
#      x y z
#    x 1.627270 0.000000 0.000000 
#    y 0.000000 1.770120 0.000000 
#    z 0.000000 0.000000 1.732060 
# 
# From -- ./inp_files/2006.got.cif
#   From: 2010.05.17/outbox.cif.g08.bks.cpg/sg40_2_cif.got.tgz:2006.got - 2010.06.03 18:35:42.
