data_PCOD9363069
_publ_section_title
;
Structure prediction by ZEFSAII (Michael W. Deem and Ramdas Pophale) SiO2 
 PCOD9363069
Probable space group: A M A 2
;
_chemical_formula_sum "Si O2"
_cell_formula_units_Z 64
_cell_length_a 18.012742
_cell_length_b 7.687948
_cell_length_c 22.317773
_cell_angle_alpha 90.000000
_cell_angle_beta 90.000000
_cell_angle_gamma 90.000000
_cell_volume 3090.588055
_symmetry_space_group_name_H-M "A M A 2"
_symmetry_group_IT_number 40
_symmetry_cell_setting 'orthorhombic'
loop_
_space_group_symop_operation_xyz
x,y,z
-x,-y,z
1/2-x,y,z
1/2+x,-y,z
x,1/2+y,1/2+z
-x,1/2-y,1/2+z
1/2-x,1/2+y,1/2+z
1/2+x,1/2-y,1/2+z
loop_
_atom_site_type_symbol
_atom_site_label
_atom_site_fract_x
_atom_site_fract_y
_atom_site_fract_z
Si Si1 0.413311 0.455524 0.151490
Si Si2 0.832504 0.047026 0.273332
Si Si3 0.912912 0.545732 0.019788
Si Si4 0.088513 0.532222 0.394546
Si Si5 0.660061 0.582958 0.900885
Si Si6 0.332980 0.537574 0.274535
Si Si7 0.413300 0.042763 0.152180
Si Si8 0.411754 0.535025 0.523956
O O1 0.500000 0.500000 0.157710
O O2 0.389905 0.523756 0.085559
O O3 0.371332 0.514834 0.210564
O O4 0.404636 0.249005 0.150288
O O5 0.750000 0.978333 0.261916
O O6 0.857961 0.983007 0.338867
O O7 0.828276 0.254544 0.282243
O O8 0.879566 0.017670 0.214417
O O9 0.903750 0.755474 0.023037
O O10 0.000000 0.500000 0.011710
O O11 0.866450 0.490645 0.961732
O O12 0.113280 0.736009 0.397926
O O13 0.123904 0.466150 0.332601
O O14 0.115554 0.463214 0.459865
O O15 0.000000 0.500000 0.391693
O O16 0.750000 0.613837 0.902091
O O17 0.250000 0.465362 0.273340
O O18 0.382008 0.971952 0.088494
O O19 0.500000 0.000000 0.153221
O O20 0.500000 0.500000 0.524814
#
# Coordination Sequence:
#
# PCOD9363069 Si02
#       8
#     8   8   8   8   8   8   8   8
#     4  10  20  34  52  77 107 136 170 215 264 315
#     4   9  19  35  52  72 102 138 171 207 256 311
#     4   9  18  32  52  78 102 131 172 218 261 310
#     4   9  16  30  53  77 101 133 175 217 260 315
#     4   9  18  34  54  76 105 140 177 219 270 325
#     4  10  20  34  52  74 104 140 174 214 265 318
#     4  10  19  32  53  76  99 131 169 210 254 304
#     4   8  16  31  50  74 100 127 161 208 258 304
#
# _framework density 20.708034999999999
#
# number of rings (size 3 to 8) (size 9 to 14) (size 15 to 20)
#    0.000    2.750    0.000    2.250    0.000    3.500 
#    0.000    9.375    0.000    0.000    0.000   14.000 
#    0.000    0.000    0.000    0.000    0.000    0.000 
#
# Total GULP energy -178156.013023 kJ/mol
# GULP energy per Si atom -5567.375407 kJ/mol
# Density = 2.066090 g / cm^3
# Si number density = 20.708035 Si / 1000 Ang^3
#
#
#
# Elastic Constant Matrix: (Units=GPa)
#
#
# Indices 1 2 3 4 5 6 
#
# 1 68.8927 3.4154 92.5631 0.0000 0.0000 0.0000
# 2 3.4154 36.2261 11.7911 0.0000 0.0000 0.0000
# 3 92.5631 11.7911 282.2287 0.0000 0.0000 0.0000
# 4 0.0000 0.0000 0.0000 28.1085 0.0000 0.0000
# 5 0.0000 0.0000 0.0000 0.0000 -7.3247 0.0000
# 6 0.0000 0.0000 0.0000 0.0000 0.0000 9.7158
#
#
#
# Elastic Compliance Matrix: (Units=1/GPa)
#
#
# Indices 1 2 3 4 5 6 
#
# 1 0.025955 0.000328 -0.008526 0.000000 0.000000 0.000000
# 2 0.000328 0.027989 -0.001277 0.000000 0.000000 0.000000
# 3 -0.008526 -0.001277 0.006393 0.000000 0.000000 0.000000
# 4 0.000000 0.000000 0.000000 0.035576 0.000000 0.000000
# 5 0.000000 0.000000 0.000000 0.000000 -0.136525 0.000000
# 6 0.000000 0.000000 0.000000 0.000000 0.000000 0.102925
#
#
# Mechanical properties :
#
#
# Convention : Reuss Voigt Hill
#
# Bulk Modulus (GPa) = 24.16237 66.98742 45.57489
# Shear Modulus (GPa) = 52.59969 24.73847 38.66908
#
# Velocity S-wave (km/s) = 5.04537 3.46009 4.32597
# Velocity P-wave (km/s) = 6.75533 6.95570 6.85625
#
# Compressibility (1/GPa) = 0.04138667
#
# Stress axis : x y z
#
# Youngs Moduli (GPa) = 38.52893 35.72821 156.42391
#
# Poissons Ratio (x) = -0.01172 1.33368
# Poissons Ratio (y) = -0.01264 0.19975
# Poissons Ratio (z) = 0.32850 0.04562
#
# Static dielectric constant tensor:
#      x y z
#    x 1.720080 0.000000 0.000000 
#    y 0.000000 1.851120 0.000000 
#    z 0.000000 0.000000 1.844210 
# 
# From -- ./inp_files/23344.got.cif
#   From: 2010.05.17/outbox.cif.g08.bks.cpg/sg40_12_cif.got.tgz:23344.got - 2010.06.03 18:35:42.
