data_PCOD9363894
_publ_section_title
;
Structure prediction by ZEFSAII (Michael W. Deem and Ramdas Pophale) SiO2 
 PCOD9363894
Probable space group: A M A 2
;
_chemical_formula_sum "Si O2"
_cell_formula_units_Z 64
_cell_length_a 17.761816
_cell_length_b 11.990067
_cell_length_c 16.524476
_cell_angle_alpha 90.000000
_cell_angle_beta 90.000000
_cell_angle_gamma 90.000000
_cell_volume 3519.141044
_symmetry_space_group_name_H-M "A M A 2"
_symmetry_group_IT_number 40
_symmetry_cell_setting 'orthorhombic'
loop_
_space_group_symop_operation_xyz
x,y,z
-x,-y,z
1/2-x,y,z
1/2+x,-y,z
x,1/2+y,1/2+z
-x,1/2-y,1/2+z
1/2-x,1/2+y,1/2+z
1/2+x,1/2-y,1/2+z
loop_
_atom_site_type_symbol
_atom_site_label
_atom_site_fract_x
_atom_site_fract_y
_atom_site_fract_z
Si Si1 0.839776 0.181255 0.309550
Si Si2 0.430444 0.305748 0.974186
Si Si3 0.076983 0.071032 0.062995
Si Si4 0.596617 0.824194 0.407564
Si Si5 0.660493 0.130354 0.001525
Si Si6 0.841072 0.292383 0.147395
Si Si7 0.161523 0.010233 0.535228
Si Si8 0.913998 0.455857 0.749623
O O1 0.750000 0.189122 0.319416
O O2 0.881167 0.206804 0.392873
O O3 0.866245 0.262599 0.237098
O O4 0.861802 0.057869 0.278718
O O5 0.513583 0.339789 0.945049
O O6 0.433579 0.191688 0.024179
O O7 0.390346 0.403342 0.024525
O O8 0.100938 0.076845 0.157003
O O9 0.135363 0.996113 0.012361
O O10 0.000000 0.000000 0.060099
O O11 0.623362 0.699789 0.428896
O O12 0.649732 0.910006 0.456900
O O13 0.595639 0.857053 0.314077
O O14 0.750000 0.289442 0.147924
O O15 0.635341 0.196914 0.083332
O O16 0.750000 0.639385 0.495328
O O17 0.862143 0.411210 0.110184
O O18 0.250000 0.981798 0.541617
O O19 0.000000 0.500000 0.755008
#
# Coordination Sequence:
#
# PCOD9363894 Si02
#       8
#     8   8   8   8   8   8   8   8
#     4  11  21  36  59  88 119 157 202 247 296 357
#     4  12  23  37  59  88 125 157 195 251 305 359
#     4  11  24  41  61  88 126 161 198 249 308 365
#     4  11  20  37  59  88 123 153 201 249 301 352
#     4  10  20  37  62  87 118 163 204 238 294 365
#     4   8  17  34  57  85 116 150 194 241 284 351
#     4  10  20  35  59  89 119 153 193 241 298 358
#     4  11  21  36  61  92 119 153 199 256 302 352
#
# _framework density 18.186257000000001
#
# number of rings (size 3 to 8) (size 9 to 14) (size 15 to 20)
#    0.000    1.500    5.000    1.875    0.000    1.500 
#    0.000    1.250    0.000    1.500    0.000    0.000 
#    0.000    0.000    0.000    0.000    0.000    0.000 
#
# Total GULP energy -178671.672700 kJ/mol
# GULP energy per Si atom -5583.489772 kJ/mol
# Density = 1.814486 g / cm^3
# Si number density = 18.186257 Si / 1000 Ang^3
#
#
#
# Elastic Constant Matrix: (Units=GPa)
#
#
# Indices 1 2 3 4 5 6 
#
# 1 67.0593 14.1604 13.9273 0.0000 0.0000 0.0000
# 2 14.1604 93.9625 48.3340 0.0000 0.0000 0.0000
# 3 13.9273 48.3340 101.5699 0.0000 0.0000 0.0000
# 4 0.0000 0.0000 0.0000 34.1548 0.0000 0.0000
# 5 0.0000 0.0000 0.0000 0.0000 9.0745 0.0000
# 6 0.0000 0.0000 0.0000 0.0000 0.0000 26.7476
#
#
#
# Elastic Compliance Matrix: (Units=1/GPa)
#
#
# Indices 1 2 3 4 5 6 
#
# 1 0.015540 -0.001650 -0.001346 0.000000 0.000000 0.000000
# 2 -0.001650 0.014267 -0.006563 0.000000 0.000000 0.000000
# 3 -0.001346 -0.006563 0.013153 0.000000 0.000000 0.000000
# 4 0.000000 0.000000 0.000000 0.029278 0.000000 0.000000
# 5 0.000000 0.000000 0.000000 0.000000 0.110199 0.000000
# 6 0.000000 0.000000 0.000000 0.000000 0.000000 0.037387
#
#
# Mechanical properties :
#
#
# Convention : Reuss Voigt Hill
#
# Bulk Modulus (GPa) = 41.94068 46.15945 44.05007
# Shear Modulus (GPa) = 20.25200 26.40673 23.32937
#
# Velocity S-wave (km/s) = 3.34067 3.81467 3.58551
# Velocity P-wave (km/s) = 6.16376 6.69618 6.43548
#
# Compressibility (1/GPa) = 0.02384320
#
# Stress axis : x y z
#
# Youngs Moduli (GPa) = 64.35000 70.09090 76.02740
#
# Poissons Ratio (x) = 0.11562 0.10232
# Poissons Ratio (y) = 0.10615 0.49898
# Poissons Ratio (z) = 0.08660 0.46001
#
# Static dielectric constant tensor:
#      x y z
#    x 1.634590 0.000000 0.000000 
#    y 0.000000 1.616600 0.000000 
#    z 0.000000 0.000000 1.624120 
# 
# From -- ./inp_files/17902.got.cif
#   From: 2010.05.17/outbox.cif.g08.bks.cpg/sg40_9_cif.got.tgz:17902.got - 2010.06.03 18:35:42.
