data_PCOD9363876
_publ_section_title
;
Structure prediction by ZEFSAII (Michael W. Deem and Ramdas Pophale) SiO2 
 PCOD9363876
Probable space group: A M A 2
;
_chemical_formula_sum "Si O2"
_cell_formula_units_Z 48
_cell_length_a 16.893911
_cell_length_b 16.187301
_cell_length_c 8.947610
_cell_angle_alpha 90.000000
_cell_angle_beta 90.000000
_cell_angle_gamma 90.000000
_cell_volume 2446.874475
_symmetry_space_group_name_H-M "A M A 2"
_symmetry_group_IT_number 40
_symmetry_cell_setting 'orthorhombic'
loop_
_space_group_symop_operation_xyz
x,y,z
-x,-y,z
1/2-x,y,z
1/2+x,-y,z
x,1/2+y,1/2+z
-x,1/2-y,1/2+z
1/2-x,1/2+y,1/2+z
1/2+x,1/2-y,1/2+z
loop_
_atom_site_type_symbol
_atom_site_label
_atom_site_fract_x
_atom_site_fract_y
_atom_site_fract_z
Si Si1 0.343552 0.704106 0.068660
Si Si2 0.840865 0.183000 0.813504
Si Si3 0.342597 0.895572 0.525700
Si Si4 0.929178 0.321574 0.668894
Si Si5 0.419686 0.050437 0.410415
Si Si6 0.925428 0.252002 0.355348
O O1 0.250000 0.688833 0.038746
O O2 0.359595 0.715318 0.242212
O O3 0.368500 0.787125 0.976833
O O4 0.399542 0.630896 0.009097
O O5 0.750000 0.161157 0.837155
O O6 0.872152 0.113562 0.698688
O O7 0.852414 0.267529 0.716936
O O8 0.250000 0.872376 0.523097
O O9 0.394210 0.831617 0.431151
O O10 0.353035 0.984449 0.452064
O O11 0.923394 0.411465 0.743586
O O12 0.940509 0.314218 0.492256
O O13 0.999063 0.271642 0.754512
O O14 0.500000 0.000000 0.442466
#
# Coordination Sequence:
#
# PCOD9363876 Si02
#       6
#     8   8   8   8   8   8
#     4  10  21  38  60  88 120 154 199 249 302 358
#     4   8  17  33  56  83 111 148 193 237 285 348
#     4  10  20  36  60  86 117 158 198 240 293 354
#     4  10  20  35  58  85 117 155 198 246 297 354
#     4  11  21  38  57  88 122 161 194 237 300 363
#     4  11  21  37  61  86 116 153 205 254 295 354
#
# _framework density 19.616862999999999
#
# number of rings (size 3 to 8) (size 9 to 14) (size 15 to 20)
#    0.000    2.000    1.667    3.000    2.333    1.333 
#    0.000    2.500    0.000    0.000    0.000    0.000 
#    0.000    0.000    0.000    0.000    0.000    0.000 
#
# Total GULP energy -133614.839753 kJ/mol
# GULP energy per Si atom -5567.284990 kJ/mol
# Density = 1.957221 g / cm^3
# Si number density = 19.616863 Si / 1000 Ang^3
#
#
#
# Elastic Constant Matrix: (Units=GPa)
#
#
# Indices 1 2 3 4 5 6 
#
# 1 50.8283 8.4840 26.8036 0.0000 0.0000 0.0000
# 2 8.4840 71.9189 40.0605 0.0000 0.0000 0.0000
# 3 26.8036 40.0605 149.4614 0.0000 0.0000 0.0000
# 4 0.0000 0.0000 0.0000 24.6883 0.0000 0.0000
# 5 0.0000 0.0000 0.0000 0.0000 28.4295 0.0000
# 6 0.0000 0.0000 0.0000 0.0000 0.0000 27.7141
#
#
#
# Elastic Compliance Matrix: (Units=1/GPa)
#
#
# Indices 1 2 3 4 5 6 
#
# 1 0.021742 -0.000462 -0.003775 0.000000 0.000000 0.000000
# 2 -0.000462 0.016355 -0.004301 0.000000 0.000000 0.000000
# 3 -0.003775 -0.004301 0.008520 0.000000 0.000000 0.000000
# 4 0.000000 0.000000 0.000000 0.040505 0.000000 0.000000
# 5 0.000000 0.000000 0.000000 0.000000 0.035175 0.000000
# 6 0.000000 0.000000 0.000000 0.000000 0.000000 0.036083
#
#
# Mechanical properties :
#
#
# Convention : Reuss Voigt Hill
#
# Bulk Modulus (GPa) = 33.85098 46.98942 40.42020
# Shear Modulus (GPa) = 26.98292 29.29043 28.13668
#
# Velocity S-wave (km/s) = 3.71279 3.86829 3.79134
# Velocity P-wave (km/s) = 5.97271 6.63002 6.30993
#
# Compressibility (1/GPa) = 0.02954125
#
# Stress axis : x y z
#
# Youngs Moduli (GPa) = 45.99392 61.14474 117.36446
#
# Poissons Ratio (x) = 0.02824 0.44308
# Poissons Ratio (y) = 0.02125 0.50475
# Poissons Ratio (z) = 0.17364 0.26297
#
# Static dielectric constant tensor:
#      x y z
#    x 1.758910 0.000000 0.000000 
#    y 0.000000 1.684840 0.000000 
#    z 0.000000 0.000000 1.736790 
# 
# From -- ./inp_files/7430.got.cif
#   From: 2010.05.17/outbox.cif.g08.bks.cpg/sg40_4_cif.got.tgz:7430.got - 2010.06.03 18:35:42.
