data_PCOD9363065
_publ_section_title
;
Structure prediction by ZEFSAII (Michael W. Deem and Ramdas Pophale) SiO2 
 PCOD9363065
Probable space group: A M A 2
;
_chemical_formula_sum "Si O2"
_cell_formula_units_Z 56
_cell_length_a 8.527123
_cell_length_b 15.054653
_cell_length_c 22.400393
_cell_angle_alpha 90.000000
_cell_angle_beta 90.000000
_cell_angle_gamma 90.000000
_cell_volume 2875.602914
_symmetry_space_group_name_H-M "A M A 2"
_symmetry_group_IT_number 40
_symmetry_cell_setting 'orthorhombic'
loop_
_space_group_symop_operation_xyz
x,y,z
-x,-y,z
1/2-x,y,z
1/2+x,-y,z
x,1/2+y,1/2+z
-x,1/2-y,1/2+z
1/2-x,1/2+y,1/2+z
1/2+x,1/2-y,1/2+z
loop_
_atom_site_type_symbol
_atom_site_label
_atom_site_fract_x
_atom_site_fract_y
_atom_site_fract_z
Si Si1 0.939098 0.095797 0.957090
Si Si2 0.438718 0.094652 0.533600
Si Si3 0.562104 0.403888 0.894528
Si Si4 0.560390 0.100115 0.179219
Si Si5 0.062399 0.781806 0.291897
Si Si6 0.437774 0.904088 0.819136
Si Si7 0.558515 0.215247 0.065923
O O1 0.750000 0.094755 0.956830
O O2 0.990899 0.107521 0.888587
O O3 0.990427 0.171007 0.003283
O O4 0.000000 0.000000 0.977896
O O5 0.250000 0.092115 0.534616
O O6 0.486381 0.105384 0.463856
O O7 0.492375 0.182434 0.568249
O O8 0.500000 0.000000 0.555385
O O9 0.500000 0.500000 0.873391
O O10 0.750000 0.403208 0.892233
O O11 0.498694 0.326170 0.852835
O O12 0.750000 0.097780 0.178637
O O13 0.510595 0.154625 0.237782
O O14 0.507261 0.154132 0.120674
O O15 0.500000 0.000000 0.179568
O O16 0.250000 0.779730 0.292858
O O17 0.000027 0.681971 0.285163
O O18 0.250000 0.905006 0.818002
O O19 0.500000 0.000000 0.798714
O O20 0.750000 0.215576 0.066321
#
# Coordination Sequence:
#
# PCOD9363065 Si02
#       7
#     8   8   8   8   8   8   8
#     4   9  17  30  51  78 105 133 166 204 254 308
#     4   9  18  33  53  76 103 133 168 210 259 311
#     4  10  19  32  52  79 108 139 173 214 264 316
#     4  10  22  38  56  77 103 135 172 212 255 303
#     4  11  22  35  52  76 105 141 180 216 257 307
#     4  10  20  35  55  80 108 138 172 214 261 311
#     4   9  17  33  54  74 101 137 170 206 254 306
#
# _framework density 19.474174999999999
#
# number of rings (size 3 to 8) (size 9 to 14) (size 15 to 20)
#    0.000    2.286    0.000    3.000    0.000    5.714 
#    0.000    2.143    0.000    1.714    0.000    0.000 
#    0.000    0.000    0.000    0.000    0.000    0.000 
#
# Total GULP energy -156321.730257 kJ/mol
# GULP energy per Si atom -5582.918938 kJ/mol
# Density = 1.942985 g / cm^3
# Si number density = 19.474175 Si / 1000 Ang^3
#
#
#
# Elastic Constant Matrix: (Units=GPa)
#
#
# Indices 1 2 3 4 5 6 
#
# 1 18.5353 26.0436 12.2646 0.0000 0.0000 0.0000
# 2 26.0436 201.2678 57.0232 0.0000 0.0000 0.0000
# 3 12.2646 57.0232 43.5600 0.0000 0.0000 0.0000
# 4 0.0000 0.0000 0.0000 33.2795 0.0000 0.0000
# 5 0.0000 0.0000 0.0000 0.0000 11.8048 0.0000
# 6 0.0000 0.0000 0.0000 0.0000 0.0000 35.3835
#
#
#
# Elastic Compliance Matrix: (Units=1/GPa)
#
#
# Indices 1 2 3 4 5 6 
#
# 1 0.069959 -0.005519 -0.012473 0.000000 0.000000 0.000000
# 2 -0.005519 0.008333 -0.009355 0.000000 0.000000 0.000000
# 3 -0.012473 -0.009355 0.038715 0.000000 0.000000 0.000000
# 4 0.000000 0.000000 0.000000 0.030049 0.000000 0.000000
# 5 0.000000 0.000000 0.000000 0.000000 0.084712 0.000000
# 6 0.000000 0.000000 0.000000 0.000000 0.000000 0.028262
#
#
# Mechanical properties :
#
#
# Convention : Reuss Voigt Hill
#
# Bulk Modulus (GPa) = 16.04787 50.44733 33.24760
# Shear Modulus (GPa) = 14.90349 27.29566 21.09957
#
# Velocity S-wave (km/s) = 2.76940 3.74790 3.29517
# Velocity P-wave (km/s) = 4.29937 6.68506 5.62026
#
# Compressibility (1/GPa) = 0.06231358
#
# Stress axis : x y z
#
# Youngs Moduli (GPa) = 14.29416 120.00530 25.83001
#
# Poissons Ratio (x) = 0.66226 0.32218
# Poissons Ratio (y) = 0.07888 0.24163
# Poissons Ratio (z) = 0.17829 1.12261
#
# Static dielectric constant tensor:
#      x y z
#    x 1.664720 0.000000 0.000000 
#    y 0.000000 1.677600 0.000000 
#    z 0.000000 0.000000 1.683640 
# 
# From -- ./inp_files/22139.got.cif
#   From: 2010.05.17/outbox.cif.g08.bks.cpg/sg40_12_cif.got.tgz:22139.got - 2010.06.03 18:35:42.
