data_PCOD9363144
_publ_section_title
;
Structure prediction by ZEFSAII (Michael W. Deem and Ramdas Pophale) SiO2 
 PCOD9363144
Probable space group: A M A 2
;
_chemical_formula_sum "Si O2"
_cell_formula_units_Z 48
_cell_length_a 14.683624
_cell_length_b 5.301807
_cell_length_c 27.426412
_cell_angle_alpha 90.000000
_cell_angle_beta 90.000000
_cell_angle_gamma 90.000000
_cell_volume 2135.139057
_symmetry_space_group_name_H-M "A M A 2"
_symmetry_group_IT_number 40
_symmetry_cell_setting 'orthorhombic'
loop_
_space_group_symop_operation_xyz
x,y,z
-x,-y,z
1/2-x,y,z
1/2+x,-y,z
x,1/2+y,1/2+z
-x,1/2-y,1/2+z
1/2-x,1/2+y,1/2+z
1/2+x,1/2-y,1/2+z
loop_
_atom_site_type_symbol
_atom_site_label
_atom_site_fract_x
_atom_site_fract_y
_atom_site_fract_z
Si Si1 0.638439 0.161257 0.726470
Si Si2 0.644867 0.602732 0.116191
Si Si3 0.099875 0.395384 0.559080
Si Si4 0.637749 0.637246 0.896081
Si Si5 0.856298 0.137187 0.947743
Si Si6 0.638713 0.160136 0.283625
O O1 0.750000 0.167212 0.725673
O O2 0.607725 0.149872 0.670448
O O3 0.608892 0.411293 0.754787
O O4 0.610539 0.911589 0.755417
O O5 0.750000 0.520797 0.120820
O O6 0.599388 0.365705 0.089003
O O7 0.644239 0.868868 0.087663
O O8 0.140018 0.344496 0.505874
O O9 0.000000 0.500000 0.550335
O O10 0.750000 0.633986 0.896897
O O11 0.604831 0.380869 0.921001
O O12 0.610027 0.658360 0.839855
O O13 0.605869 0.875195 0.927624
O O14 0.750000 0.132873 0.933918
O O15 0.750000 0.158898 0.283801
#
# Coordination Sequence:
#
# PCOD9363144 Si02
#       6
#     8   8   8   8   8   8
#     4   9  17  28  48  77 109 140 175 221 276 326
#     4  11  22  39  61  86 115 152 193 236 283 339
#     4  12  25  40  58  84 115 152 193 240 292 340
#     4   9  17  28  48  77 109 140 175 221 276 327
#     4  10  19  33  52  77 107 144 185 227 274 331
#     4   9  15  26  44  75 113 140 167 219 279 327
#
# _framework density 22.480971
#
# number of rings (size 3 to 8) (size 9 to 14) (size 15 to 20)
#    0.000    2.000    0.000    5.000    0.000    8.000 
#    0.000    0.000    0.000    0.000    0.000   23.333 
#    0.000    0.000    0.000    0.000    0.000    0.000 
#
# Total GULP energy -134225.017271 kJ/mol
# GULP energy per Si atom -5592.709053 kJ/mol
# Density = 2.242980 g / cm^3
# Si number density = 22.480971 Si / 1000 Ang^3
#
#
#
# Elastic Constant Matrix: (Units=GPa)
#
#
# Indices 1 2 3 4 5 6 
#
# 1 32.8253 6.5993 -15.6830 0.0000 0.0000 0.0000
# 2 6.5993 168.0476 92.4872 0.0000 0.0000 0.0000
# 3 -15.6830 92.4872 163.7880 0.0000 0.0000 0.0000
# 4 0.0000 0.0000 0.0000 -60.5563 0.0000 0.0000
# 5 0.0000 0.0000 0.0000 0.0000 -707.8765 0.0000
# 6 0.0000 0.0000 0.0000 0.0000 0.0000 24.7761
#
#
#
# Elastic Compliance Matrix: (Units=1/GPa)
#
#
# Indices 1 2 3 4 5 6 
#
# 1 0.034175 -0.004560 0.005847 0.000000 0.000000 0.000000
# 2 -0.004560 0.009242 -0.005656 0.000000 0.000000 0.000000
# 3 0.005847 -0.005656 0.009859 0.000000 0.000000 0.000000
# 4 0.000000 0.000000 0.000000 -0.016514 0.000000 0.000000
# 5 0.000000 0.000000 0.000000 0.000000 -0.001413 0.000000
# 6 0.000000 0.000000 0.000000 0.000000 0.000000 0.040361
#
#
# Mechanical properties :
#
#
# Convention : Reuss Voigt Hill
#
# Bulk Modulus (GPa) = 22.45210 59.05198 40.75204
# Shear Modulus (GPa) = 50.35507 -129.98085 -39.81289
#
# Velocity S-wave (km/s) = 4.73789 -7.61207 -4.21284
# Velocity P-wave (km/s) = 6.31973 7.13678 2.34464
#
# Compressibility (1/GPa) = 0.04453926
#
# Stress axis : x y z
#
# Youngs Moduli (GPa) = 29.26126 108.19660 101.43061
#
# Poissons Ratio (x) = 0.49340 -0.59310
# Poissons Ratio (y) = 0.13344 0.57365
# Poissons Ratio (z) = -0.17110 0.61192
#
# Static dielectric constant tensor:
#      x y z
#    x 1.893040 0.000000 0.000000 
#    y 0.000000 1.816080 0.000000 
#    z 0.000000 0.000000 1.778210 
# 
# From -- ./inp_files/24881.got.cif
#   From: 2010.05.17/outbox.cif.g08.bks.cpg/sg40_13_cif.got.tgz:24881.got - 2010.06.03 18:35:42.
