data_PCOD9363790
_publ_section_title
;
Structure prediction by ZEFSAII (Michael W. Deem and Ramdas Pophale) SiO2 
 PCOD9363790
Probable space group: A M A 2
;
_chemical_formula_sum "Si O2"
_cell_formula_units_Z 44
_cell_length_a 20.088612
_cell_length_b 5.520089
_cell_length_c 18.336864
_cell_angle_alpha 90.000000
_cell_angle_beta 90.000000
_cell_angle_gamma 90.000000
_cell_volume 2033.391831
_symmetry_space_group_name_H-M "A M A 2"
_symmetry_group_IT_number 40
_symmetry_cell_setting 'orthorhombic'
loop_
_space_group_symop_operation_xyz
x,y,z
-x,-y,z
1/2-x,y,z
1/2+x,-y,z
x,1/2+y,1/2+z
-x,1/2-y,1/2+z
1/2-x,1/2+y,1/2+z
1/2+x,1/2-y,1/2+z
loop_
_atom_site_type_symbol
_atom_site_label
_atom_site_fract_x
_atom_site_fract_y
_atom_site_fract_z
Si Si1 0.826345 0.521416 0.335710
Si Si2 0.370527 0.729138 0.195276
Si Si3 0.434204 0.113353 0.306368
Si Si4 0.500000 0.000000 0.698486
Si Si5 0.830359 0.703554 0.970475
Si Si6 0.327145 0.801470 0.038373
O O1 0.750000 0.595709 0.349486
O O2 0.834374 0.453994 0.250653
O O3 0.879919 0.731756 0.350795
O O4 0.841474 0.286575 0.386405
O O5 0.437252 0.614944 0.159510
O O6 0.328520 0.800121 0.125883
O O7 0.395593 0.935181 0.250926
O O8 0.469429 0.301292 0.251895
O O9 0.500000 0.000000 0.345332
O O10 0.750000 0.693799 0.979614
O O11 0.854825 0.448011 0.002963
O O12 0.856876 0.941632 0.012814
O O13 0.250000 0.808849 0.014905
#
# Coordination Sequence:
#
# PCOD9363790 Si02
#       6
#     8   8   8   4   8   8
#     4  10  21  35  58  91 120 156 209 265 313 376
#     4  10  20  34  60  84 112 150 205 256 302 363
#     4   9  19  36  59  88 119 161 202 261 321 374
#     4   8  18  36  54  80 112 152 192 244 312 362
#     4   9  21  38  55  81 125 164 190 236 315 377
#     4  10  21  37  57  85 122 160 192 239 307 372
#
# _framework density 21.638722000000001
#
# number of rings (size 3 to 8) (size 9 to 14) (size 15 to 20)
#    0.000    2.545    0.000    0.545    7.636    1.455 
#    0.000    0.000    2.000    0.000    0.000    0.000 
#    0.000    0.000    0.000    0.000    0.000    0.000 
#
# Total GULP energy -122491.377872 kJ/mol
# GULP energy per Si atom -5567.789903 kJ/mol
# Density = 2.158947 g / cm^3
# Si number density = 21.638722 Si / 1000 Ang^3
#
#
#
# Elastic Constant Matrix: (Units=GPa)
#
#
# Indices 1 2 3 4 5 6 
#
# 1 78.2701 30.4476 17.5609 0.0000 0.0000 0.0000
# 2 30.4476 103.1256 33.1512 0.0000 0.0000 0.0000
# 3 17.5609 33.1512 108.8673 0.0000 0.0000 0.0000
# 4 0.0000 0.0000 0.0000 20.2050 0.0000 0.0000
# 5 0.0000 0.0000 0.0000 0.0000 -3.2460 0.0000
# 6 0.0000 0.0000 0.0000 0.0000 0.0000 22.3832
#
#
#
# Elastic Compliance Matrix: (Units=1/GPa)
#
#
# Indices 1 2 3 4 5 6 
#
# 1 0.014563 -0.003929 -0.001153 0.000000 0.000000 0.000000
# 2 -0.003929 0.011809 -0.002962 0.000000 0.000000 0.000000
# 3 -0.001153 -0.002962 0.010273 0.000000 0.000000 0.000000
# 4 0.000000 0.000000 0.000000 0.049493 0.000000 0.000000
# 5 0.000000 0.000000 0.000000 0.000000 -0.308076 0.000000
# 6 0.000000 0.000000 0.000000 0.000000 0.000000 0.044676
#
#
# Mechanical properties :
#
#
# Convention : Reuss Voigt Hill
#
# Bulk Modulus (GPa) = 48.64331 50.28693 49.46512
# Shear Modulus (GPa) = -32.40032 21.80866 -5.29583
#
# Velocity S-wave (km/s) = -3.87373 3.17811 -1.56611
# Velocity P-wave (km/s) = 1.58770 6.06275 4.43158
#
# Compressibility (1/GPa) = 0.02055781
#
# Stress axis : x y z
#
# Youngs Moduli (GPa) = 68.66527 84.67920 97.33826
#
# Poissons Ratio (x) = 0.33273 0.11220
# Poissons Ratio (y) = 0.26980 0.28834
# Poissons Ratio (z) = 0.07915 0.25084
#
# Static dielectric constant tensor:
#      x y z
#    x 1.837490 0.000000 0.000000 
#    y 0.000000 1.885080 0.000000 
#    z 0.000000 0.000000 1.757070 
# 
# From -- ./inp_files/21470.got.cif
#   From: 2010.05.17/outbox.cif.g08.bks.cpg/sg40_11_cif.got.tgz:21470.got - 2010.06.03 18:35:42.
