data_PCOD9363145
_publ_section_title
;
Structure prediction by ZEFSAII (Michael W. Deem and Ramdas Pophale) SiO2 
 PCOD9363145
Probable space group: A M A 2
;
_chemical_formula_sum "Si O2"
_cell_formula_units_Z 56
_cell_length_a 8.565863
_cell_length_b 24.493806
_cell_length_c 14.143427
_cell_angle_alpha 90.000000
_cell_angle_beta 90.000000
_cell_angle_gamma 90.000000
_cell_volume 2967.440715
_symmetry_space_group_name_H-M "A M A 2"
_symmetry_group_IT_number 40
_symmetry_cell_setting 'orthorhombic'
loop_
_space_group_symop_operation_xyz
x,y,z
-x,-y,z
1/2-x,y,z
1/2+x,-y,z
x,1/2+y,1/2+z
-x,1/2-y,1/2+z
1/2-x,1/2+y,1/2+z
1/2+x,1/2-y,1/2+z
loop_
_atom_site_type_symbol
_atom_site_label
_atom_site_fract_x
_atom_site_fract_y
_atom_site_fract_z
Si Si1 0.062446 0.374812 0.072850
Si Si2 0.437357 0.940088 0.970747
Si Si3 0.937086 0.834130 0.070027
Si Si4 0.561918 0.559894 0.253351
Si Si5 0.437070 0.729702 0.967783
Si Si6 0.060483 0.666926 0.783335
Si Si7 0.937572 0.440251 0.896345
O O1 0.250000 0.370541 0.070764
O O2 0.012322 0.395725 0.176089
O O3 0.990818 0.317507 0.040185
O O4 0.007666 0.419214 0.995527
O O5 0.250000 0.940132 0.974496
O O6 0.486558 0.929093 0.861435
O O7 0.500000 0.000000 0.996153
O O8 0.503699 0.892780 0.036158
O O9 0.750000 0.833803 0.070178
O O10 0.993537 0.822699 0.177162
O O11 0.997291 0.787293 0.000431
O O12 0.500000 0.500000 0.226791
O O13 0.750000 0.558016 0.251892
O O14 0.250000 0.731855 0.966777
O O15 0.491436 0.709375 0.864037
O O16 0.250000 0.668995 0.782523
O O17 0.018263 0.606393 0.820350
O O18 0.750000 0.441186 0.903703
O O19 0.000000 0.500000 0.872868
#
# Coordination Sequence:
#
# PCOD9363145 Si02
#       7
#     8   8   8   8   8   8   8
#     4  10  19  33  53  80 110 145 184 226 270 319
#     4  10  21  39  58  81 111 144 180 223 268 318
#     4  11  22  39  61  84 107 140 180 221 267 320
#     4   9  19  33  52  77 110 147 183 221 269 320
#     4  10  21  39  58  80 109 143 179 222 269 320
#     4   8  19  38  57  76 107 144 180 220 267 318
#     4  10  19  33  52  78 110 147 184 225 272 321
#
# _framework density 18.871482
#
# number of rings (size 3 to 8) (size 9 to 14) (size 15 to 20)
#    0.000    2.286    0.000    3.429    0.000    4.571 
#    0.000   15.714    0.000    0.000    0.000    0.000 
#    0.000    0.000    0.000    0.000    0.000    0.000 
#
# Total GULP energy -156305.408712 kJ/mol
# GULP energy per Si atom -5582.336025 kJ/mol
# Density = 1.882853 g / cm^3
# Si number density = 18.871482 Si / 1000 Ang^3
#
#
#
# Elastic Constant Matrix: (Units=GPa)
#
#
# Indices 1 2 3 4 5 6 
#
# 1 48.4233 32.2220 29.4483 0.0000 0.0000 0.0000
# 2 32.2220 127.0087 80.0704 0.0000 0.0000 0.0000
# 3 29.4483 80.0704 106.0227 0.0000 0.0000 0.0000
# 4 0.0000 0.0000 0.0000 16.4317 0.0000 0.0000
# 5 0.0000 0.0000 0.0000 0.0000 -6.0185 0.0000
# 6 0.0000 0.0000 0.0000 0.0000 0.0000 36.2074
#
#
#
# Elastic Compliance Matrix: (Units=1/GPa)
#
#
# Indices 1 2 3 4 5 6 
#
# 1 0.025809 -0.003872 -0.004244 0.000000 0.000000 0.000000
# 2 -0.003872 0.015610 -0.010713 0.000000 0.000000 0.000000
# 3 -0.004244 -0.010713 0.018702 0.000000 0.000000 0.000000
# 4 0.000000 0.000000 0.000000 0.060858 0.000000 0.000000
# 5 0.000000 0.000000 0.000000 0.000000 -0.166154 0.000000
# 6 0.000000 0.000000 0.000000 0.000000 0.000000 0.027619
#
#
# Mechanical properties :
#
#
# Convention : Reuss Voigt Hill
#
# Bulk Modulus (GPa) = 44.52139 62.77069 53.64604
# Shear Modulus (GPa) = 181.22318 18.63837 99.93077
#
# Velocity S-wave (km/s) = 9.81013 3.14610 7.28480
# Velocity P-wave (km/s) = 12.32726 6.82141 9.96225
#
# Compressibility (1/GPa) = 0.02246111
#
# Stress axis : x y z
#
# Youngs Moduli (GPa) = 38.74633 64.06211 53.47071
#
# Poissons Ratio (x) = 0.24804 0.22695
# Poissons Ratio (y) = 0.15002 0.57285
# Poissons Ratio (z) = 0.16446 0.68632
#
# Static dielectric constant tensor:
#      x y z
#    x 1.648820 0.000000 0.000000 
#    y 0.000000 1.623730 0.000000 
#    z 0.000000 0.000000 1.667140 
# 
# From -- ./inp_files/15308.got.cif
#   From: 2010.05.17/outbox.cif.g08.bks.cpg/sg40_8_cif.got.tgz:15308.got - 2010.06.03 18:35:42.
