data_PCOD9363170
_publ_section_title
;
Structure prediction by ZEFSAII (Michael W. Deem and Ramdas Pophale) SiO2 
 PCOD9363170
Probable space group: A M A 2
;
_chemical_formula_sum "Si O2"
_cell_formula_units_Z 48
_cell_length_a 20.105840
_cell_length_b 19.937087
_cell_length_c 5.547463
_cell_angle_alpha 90.000000
_cell_angle_beta 90.000000
_cell_angle_gamma 90.000000
_cell_volume 2223.710980
_symmetry_space_group_name_H-M "A M A 2"
_symmetry_group_IT_number 40
_symmetry_cell_setting 'orthorhombic'
loop_
_space_group_symop_operation_xyz
x,y,z
-x,-y,z
1/2-x,y,z
1/2+x,-y,z
x,1/2+y,1/2+z
-x,1/2-y,1/2+z
1/2-x,1/2+y,1/2+z
1/2+x,1/2-y,1/2+z
loop_
_atom_site_type_symbol
_atom_site_label
_atom_site_fract_x
_atom_site_fract_y
_atom_site_fract_z
Si Si1 0.750000 0.260466 0.478880
Si Si2 0.545539 0.933338 0.306174
Si Si3 0.478397 0.814893 0.076869
Si Si4 0.377916 0.878582 0.748354
Si Si5 0.111558 0.753950 0.414877
Si Si6 0.250000 0.320851 0.476907
Si Si7 0.576806 0.975127 0.793937
O O1 0.823368 0.291429 0.444486
O O2 0.750000 0.232598 0.753966
O O3 0.750000 0.210574 0.243057
O O4 0.496692 0.870601 0.273838
O O5 0.582683 0.927725 0.560787
O O6 0.500000 0.000000 0.322292
O O7 0.587748 0.942971 0.058733
O O8 0.417728 0.766905 0.150743
O O9 0.546259 0.775299 0.041635
O O10 0.449114 0.856660 0.856956
O O11 0.369141 0.826866 0.526916
O O12 0.316807 0.862979 0.927964
O O13 0.381711 0.958330 0.725392
O O14 0.500000 0.000000 0.810933
#
# Coordination Sequence:
#
# PCOD9363170 Si02
#       7
#     4   8   8   8   8   4   8
#     4  10  22  40  56  80 126 166 194 232 319 376
#     4  10  20  33  52  83 110 148 183 241 295 342
#     4  12  21  34  59  89 120 151 206 256 294 361
#     4  11  21  37  56  87 118 152 199 253 307 359
#     4  11  23  36  58  88 123 156 198 256 308 364
#     4  10  22  36  60  84 118 160 196 250 309 368
#     4  10  19  33  54  78 110 146 184 233 292 348
#
# _framework density 21.585538
#
# number of rings (size 3 to 8) (size 9 to 14) (size 15 to 20)
#    0.000    1.333    6.667    2.000    0.000    0.000 
#    0.000    0.000    0.000    2.000    0.000    0.000 
#    0.000    0.000    0.000    0.000    0.000    0.000 
#
# Total GULP energy -133667.406137 kJ/mol
# GULP energy per Si atom -5569.475256 kJ/mol
# Density = 2.153641 g / cm^3
# Si number density = 21.585538 Si / 1000 Ang^3
#
#
#
# Elastic Constant Matrix: (Units=GPa)
#
#
# Indices 1 2 3 4 5 6 
#
# 1 104.3326 11.1160 15.2032 0.0000 0.0000 0.0000
# 2 11.1160 27.0874 1.6841 0.0000 0.0000 0.0000
# 3 15.2032 1.6841 115.9805 0.0000 0.0000 0.0000
# 4 0.0000 0.0000 0.0000 7.9786 0.0000 0.0000
# 5 0.0000 0.0000 0.0000 0.0000 26.3254 0.0000
# 6 0.0000 0.0000 0.0000 0.0000 0.0000 21.8355
#
#
#
# Elastic Compliance Matrix: (Units=1/GPa)
#
#
# Indices 1 2 3 4 5 6 
#
# 1 0.010209 -0.004110 -0.001279 0.000000 0.000000 0.000000
# 2 -0.004110 0.038605 -0.000022 0.000000 0.000000 0.000000
# 3 -0.001279 -0.000022 0.008790 0.000000 0.000000 0.000000
# 4 0.000000 0.000000 0.000000 0.125335 0.000000 0.000000
# 5 0.000000 0.000000 0.000000 0.000000 0.037986 0.000000
# 6 0.000000 0.000000 0.000000 0.000000 0.000000 0.045797
#
#
# Mechanical properties :
#
#
# Convention : Reuss Voigt Hill
#
# Bulk Modulus (GPa) = 21.37496 33.71191 27.54343
# Shear Modulus (GPa) = 17.05682 25.85438 21.45560
#
# Velocity S-wave (km/s) = 2.81409 3.46463 3.15617
# Velocity P-wave (km/s) = 4.52579 5.62642 5.10585
#
# Compressibility (1/GPa) = 0.04678372
#
# Stress axis : x y z
#
# Youngs Moduli (GPa) = 97.95344 25.90308 113.76495
#
# Poissons Ratio (x) = 0.10646 0.14545
# Poissons Ratio (y) = 0.40259 0.00248
# Poissons Ratio (z) = 0.12524 0.00057
#
# Static dielectric constant tensor:
#      x y z
#    x 1.818150 0.000000 0.000000 
#    y 0.000000 1.815180 0.000000 
#    z 0.000000 0.000000 1.908570 
# 
# From -- ./inp_files/1887.got.cif
#   From: 2010.05.17/outbox.cif.g08.bks.cpg/sg40_1_cif.got.tgz:1887.got - 2010.06.03 18:35:42.
