data_PCOD9363778
_publ_section_title
;
Structure prediction by ZEFSAII (Michael W. Deem and Ramdas Pophale) SiO2 
 PCOD9363778
Probable space group: A M A 2
;
_chemical_formula_sum "Si O2"
_cell_formula_units_Z 52
_cell_length_a 20.636802
_cell_length_b 10.523888
_cell_length_c 13.984909
_cell_angle_alpha 90.000000
_cell_angle_beta 90.000000
_cell_angle_gamma 90.000000
_cell_volume 3037.234047
_symmetry_space_group_name_H-M "A M A 2"
_symmetry_group_IT_number 40
_symmetry_cell_setting 'orthorhombic'
loop_
_space_group_symop_operation_xyz
x,y,z
-x,-y,z
1/2-x,y,z
1/2+x,-y,z
x,1/2+y,1/2+z
-x,1/2-y,1/2+z
1/2-x,1/2+y,1/2+z
1/2+x,1/2-y,1/2+z
loop_
_atom_site_type_symbol
_atom_site_label
_atom_site_fract_x
_atom_site_fract_y
_atom_site_fract_z
Si Si1 0.567515 0.444487 0.730020
Si Si2 0.599925 0.948790 0.449323
Si Si3 0.396405 0.843526 0.721417
Si Si4 0.824627 0.187649 0.535036
Si Si5 0.673960 0.971356 0.074451
Si Si6 0.500000 0.000000 0.602370
Si Si7 0.326253 0.812823 0.915960
O O1 0.500000 0.500000 0.693956
O O2 0.575468 0.473918 0.842008
O O3 0.568974 0.292817 0.722709
O O4 0.627949 0.488891 0.665759
O O5 0.647317 0.827230 0.442858
O O6 0.633741 0.079556 0.483220
O O7 0.543250 0.919075 0.526553
O O8 0.336507 0.835251 0.647783
O O9 0.368029 0.864380 0.826468
O O10 0.448035 0.935809 0.672475
O O11 0.750000 0.173031 0.508219
O O12 0.843398 0.336365 0.523343
O O13 0.750000 0.960210 0.101969
O O14 0.666955 0.088564 0.002715
O O15 0.250000 0.804452 0.891074
#
# Coordination Sequence:
#
# PCOD9363778 Si02
#       7
#     8   8   8   8   8   4   8
#     4  10  20  36  54  81 107 146 179 222 274 327
#     4  10  20  34  57  79 109 144 182 229 267 323
#     4   9  20  35  54  76 108 149 175 220 271 330
#     4   9  17  34  56  79 104 141 179 219 271 324
#     4   9  20  37  56  80 113 143 180 225 273 329
#     4  10  20  38  50  80 114 142 188 224 272 328
#     4  10  20  37  57  84 108 139 185 229 273 325
#
# _framework density 17.120840000000001
#
# number of rings (size 3 to 8) (size 9 to 14) (size 15 to 20)
#    0.000    2.462    0.769    0.923    2.154    4.308 
#    4.154    0.000    0.000    7.385    0.000    0.000 
#    0.000    0.000    0.000    0.000    0.000    0.000 
#
# Total GULP energy -144745.999065 kJ/mol
# GULP energy per Si atom -5567.153810 kJ/mol
# Density = 1.708187 g / cm^3
# Si number density = 17.120840 Si / 1000 Ang^3
#
#
#
# Elastic Constant Matrix: (Units=GPa)
#
#
# Indices 1 2 3 4 5 6 
#
# 1 92.1908 43.3767 51.7620 0.0000 0.0000 0.0000
# 2 43.3767 58.9886 43.1101 0.0000 0.0000 0.0000
# 3 51.7620 43.1101 90.9655 0.0000 0.0000 0.0000
# 4 0.0000 0.0000 0.0000 24.2073 0.0000 0.0000
# 5 0.0000 0.0000 0.0000 0.0000 23.0888 0.0000
# 6 0.0000 0.0000 0.0000 0.0000 0.0000 22.0877
#
#
#
# Elastic Compliance Matrix: (Units=1/GPa)
#
#
# Indices 1 2 3 4 5 6 
#
# 1 0.018683 -0.009131 -0.006303 0.000000 0.000000 0.000000
# 2 -0.009131 0.030398 -0.009210 0.000000 0.000000 0.000000
# 3 -0.006303 -0.009210 0.018945 0.000000 0.000000 0.000000
# 4 0.000000 0.000000 0.000000 0.041310 0.000000 0.000000
# 5 0.000000 0.000000 0.000000 0.000000 0.043311 0.000000
# 6 0.000000 0.000000 0.000000 0.000000 0.000000 0.045274
#
#
# Mechanical properties :
#
#
# Convention : Reuss Voigt Hill
#
# Bulk Modulus (GPa) = 53.37425 57.62694 55.50060
# Shear Modulus (GPa) = 19.72730 20.80317 20.26523
#
# Velocity S-wave (km/s) = 3.39815 3.48958 3.44417
# Velocity P-wave (km/s) = 6.82929 7.06882 6.95009
#
# Compressibility (1/GPa) = 0.01873563
#
# Stress axis : x y z
#
# Youngs Moduli (GPa) = 53.52548 32.89675 52.78474
#
# Poissons Ratio (x) = 0.30040 0.33273
# Poissons Ratio (y) = 0.48877 0.48615
# Poissons Ratio (z) = 0.33739 0.30298
#
# Static dielectric constant tensor:
#      x y z
#    x 1.591370 0.000000 0.000000 
#    y 0.000000 1.574920 0.000000 
#    z 0.000000 0.000000 1.575110 
# 
# From -- ./inp_files/13554.got.cif
#   From: 2010.05.17/outbox.cif.g08.bks.cpg/sg40_7_cif.got.tgz:13554.got - 2010.06.03 18:35:42.
