data_PCOD9363775
_publ_section_title
;
Structure prediction by ZEFSAII (Michael W. Deem and Ramdas Pophale) SiO2 
 PCOD9363775
Probable space group: A M A 2
;
_chemical_formula_sum "Si O2"
_cell_formula_units_Z 64
_cell_length_a 17.903358
_cell_length_b 17.578368
_cell_length_c 9.799420
_cell_angle_alpha 90.000000
_cell_angle_beta 90.000000
_cell_angle_gamma 90.000000
_cell_volume 3083.993258
_symmetry_space_group_name_H-M "A M A 2"
_symmetry_group_IT_number 40
_symmetry_cell_setting 'orthorhombic'
loop_
_space_group_symop_operation_xyz
x,y,z
-x,-y,z
1/2-x,y,z
1/2+x,-y,z
x,1/2+y,1/2+z
-x,1/2-y,1/2+z
1/2-x,1/2+y,1/2+z
1/2+x,1/2-y,1/2+z
loop_
_atom_site_type_symbol
_atom_site_label
_atom_site_fract_x
_atom_site_fract_y
_atom_site_fract_z
Si Si1 0.892277 0.321618 0.449760
Si Si2 0.503994 0.917208 0.280116
Si Si3 0.051984 0.393439 0.477990
Si Si4 0.914235 0.021624 0.711377
Si Si5 0.549946 0.161848 0.544321
Si Si6 0.830980 0.362152 0.717156
Si Si7 0.331491 0.759614 0.934088
Si Si8 0.382752 0.646832 0.156000
O O1 0.915998 0.244837 0.527042
O O2 0.836358 0.360859 0.554052
O O3 0.862352 0.312980 0.298088
O O4 0.968174 0.370884 0.432471
O O5 0.460380 0.916837 0.135539
O O6 0.468629 0.861220 0.389014
O O7 0.591390 0.900123 0.260680
O O8 0.500000 0.000000 0.343888
O O9 0.085778 0.454236 0.371338
O O10 0.103541 0.319082 0.464703
O O11 0.900736 0.097753 0.621545
O O12 0.871191 0.944088 0.673599
O O13 0.000000 0.000000 0.681106
O O14 0.470466 0.163269 0.622864
O O15 0.750000 0.394313 0.759278
O O16 0.835186 0.278311 0.785216
O O17 0.250000 0.795544 0.952708
O O18 0.339830 0.687307 0.033929
#
# Coordination Sequence:
#
# PCOD9363775 Si02
#       8
#     8   8   8   8   8   8   8   8
#     4  11  21  34  62  88 116 154 197 251 300 352
#     4  11  22  35  62  91 117 155 202 250 297 358
#     4  11  20  36  59  88 118 150 205 249 297 356
#     4  10  20  34  56  88 123 148 185 259 310 349
#     4  11  20  33  57  92 121 148 198 256 300 355
#     4  10  23  39  58  84 121 158 196 243 307 372
#     4  11  23  40  61  84 119 164 204 249 305 372
#     4  11  21  36  59  89 121 153 197 256 305 359
#
# _framework density 20.752313999999998
#
# number of rings (size 3 to 8) (size 9 to 14) (size 15 to 20)
#    0.000    1.250    5.000    3.000    3.500    0.500 
#    0.000    1.250    0.000    1.500    0.000    0.000 
#    0.000    0.000    0.000    0.000    0.000    0.000 
#
# Total GULP energy -178570.560976 kJ/mol
# GULP energy per Si atom -5580.330030 kJ/mol
# Density = 2.070508 g / cm^3
# Si number density = 20.752314 Si / 1000 Ang^3
#
#
#
# Elastic Constant Matrix: (Units=GPa)
#
#
# Indices 1 2 3 4 5 6 
#
# 1 66.9859 18.6753 10.7363 0.0000 0.0000 0.0000
# 2 18.6753 73.8057 6.0531 0.0000 0.0000 0.0000
# 3 10.7363 6.0531 117.6908 0.0000 0.0000 0.0000
# 4 0.0000 0.0000 0.0000 28.2028 0.0000 0.0000
# 5 0.0000 0.0000 0.0000 0.0000 -3.6817 0.0000
# 6 0.0000 0.0000 0.0000 0.0000 0.0000 5.8054
#
#
#
# Elastic Compliance Matrix: (Units=1/GPa)
#
#
# Indices 1 2 3 4 5 6 
#
# 1 0.016250 -0.004007 -0.001276 0.000000 0.000000 0.000000
# 2 -0.004007 0.014595 -0.000385 0.000000 0.000000 0.000000
# 3 -0.001276 -0.000385 0.008633 0.000000 0.000000 0.000000
# 4 0.000000 0.000000 0.000000 0.035457 0.000000 0.000000
# 5 0.000000 0.000000 0.000000 0.000000 -0.271616 0.000000
# 6 0.000000 0.000000 0.000000 0.000000 0.000000 0.172253
#
#
# Mechanical properties :
#
#
# Convention : Reuss Voigt Hill
#
# Bulk Modulus (GPa) = 35.53559 36.60130 36.06844
# Shear Modulus (GPa) = -1347.74732 20.93316 -663.40708
#
# Velocity S-wave (km/s) = -25.51185 3.17947 -17.89896
# Velocity P-wave (km/s) = 29.16582 5.58160 20.24217
#
# Compressibility (1/GPa) = 0.02814080
#
# Stress axis : x y z
#
# Youngs Moduli (GPa) = 61.53746 68.51838 115.83357
#
# Poissons Ratio (x) = 0.27457 0.14784
# Poissons Ratio (y) = 0.24659 0.04460
# Poissons Ratio (z) = 0.07854 0.02638
#
# Static dielectric constant tensor:
#      x y z
#    x 1.751570 0.000000 0.000000 
#    y 0.000000 1.773490 0.000000 
#    z 0.000000 0.000000 1.766500 
# 
# From -- ./inp_files/7846.got.cif
#   From: 2010.05.17/outbox.cif.g08.bks.cpg/sg40_4_cif.got.tgz:7846.got - 2010.06.03 18:35:42.
