data_PCOD9363231
_publ_section_title
;
Structure prediction by ZEFSAII (Michael W. Deem and Ramdas Pophale) SiO2 
 PCOD9363231
Probable space group: A M A 2
;
_chemical_formula_sum "Si O2"
_cell_formula_units_Z 64
_cell_length_a 8.614161
_cell_length_b 34.160827
_cell_length_c 11.892622
_cell_angle_alpha 90.000000
_cell_angle_beta 90.000000
_cell_angle_gamma 90.000000
_cell_volume 3499.604577
_symmetry_space_group_name_H-M "A M A 2"
_symmetry_group_IT_number 40
_symmetry_cell_setting 'orthorhombic'
loop_
_space_group_symop_operation_xyz
x,y,z
-x,-y,z
1/2-x,y,z
1/2+x,-y,z
x,1/2+y,1/2+z
-x,1/2-y,1/2+z
1/2-x,1/2+y,1/2+z
1/2+x,1/2-y,1/2+z
loop_
_atom_site_type_symbol
_atom_site_label
_atom_site_fract_x
_atom_site_fract_y
_atom_site_fract_z
Si Si1 0.435472 0.121620 0.294490
Si Si2 0.062898 0.222987 0.668585
Si Si3 0.567081 0.688268 0.632722
Si Si4 0.933927 0.149547 0.532784
Si Si5 0.063111 0.544227 0.666822
Si Si6 0.063857 0.543613 0.410438
Si Si7 0.931031 0.320843 0.392717
Si Si8 0.067051 0.391404 0.262596
O O1 0.250000 0.119945 0.296521
O O2 0.486623 0.155107 0.206934
O O3 0.494296 0.134815 0.416720
O O4 0.491076 0.078727 0.250846
O O5 0.250000 0.221667 0.657549
O O6 0.009398 0.267401 0.653193
O O7 0.024345 0.209757 0.795436
O O8 0.996239 0.191019 0.581450
O O9 0.750000 0.687222 0.657830
O O10 0.534567 0.680942 0.502290
O O11 0.750000 0.153535 0.517828
O O12 0.963497 0.118035 0.632231
O O13 0.250000 0.541597 0.673670
O O14 0.025961 0.557474 0.538267
O O15 0.000000 0.500000 0.685399
O O16 0.250000 0.545283 0.397065
O O17 0.000000 0.500000 0.407030
O O18 0.978678 0.567110 0.312408
O O19 0.750000 0.315773 0.422069
O O20 0.960017 0.362065 0.333208
O O21 0.250000 0.383282 0.281868
#
# Coordination Sequence:
#
# PCOD9363231 Si02
#       8
#     8   8   8   8   8   8   8   8
#     4  11  23  39  59  86 117 154 196 239 291 352
#     4   9  21  39  57  80 111 148 189 234 287 342
#     4  11  23  37  56  85 115 147 190 238 287 342
#     4  10  22  39  59  82 112 151 195 240 288 343
#     4   9  20  37  58  85 116 149 188 233 288 345
#     4  10  19  33  56  86 118 148 183 232 288 348
#     4  10  20  36  56  79 108 144 184 230 282 337
#     4  10  20  36  57  81 109 145 188 234 283 341
#
# _framework density 18.287780000000001
#
# number of rings (size 3 to 8) (size 9 to 14) (size 15 to 20)
#    0.000    2.000    0.000    3.000    1.750    5.500 
#    0.000    0.625    0.000    1.500    0.000    0.000 
#    0.000    0.000    0.000    0.000    0.000    0.000 
#
# Total GULP energy -178546.680395 kJ/mol
# GULP energy per Si atom -5579.583762 kJ/mol
# Density = 1.824616 g / cm^3
# Si number density = 18.287780 Si / 1000 Ang^3
#
#
#
# Elastic Constant Matrix: (Units=GPa)
#
#
# Indices 1 2 3 4 5 6 
#
# 1 35.4582 28.5068 28.8422 0.0000 0.0000 0.0000
# 2 28.5068 98.5343 74.4042 0.0000 0.0000 0.0000
# 3 28.8422 74.4042 102.2166 0.0000 0.0000 0.0000
# 4 0.0000 0.0000 0.0000 -5.7377 0.0000 0.0000
# 5 0.0000 0.0000 0.0000 0.0000 25.7594 0.0000
# 6 0.0000 0.0000 0.0000 0.0000 0.0000 27.5797
#
#
#
# Elastic Compliance Matrix: (Units=1/GPa)
#
#
# Indices 1 2 3 4 5 6 
#
# 1 0.038391 -0.006499 -0.006102 0.000000 0.000000 0.000000
# 2 -0.006499 0.023636 -0.015371 0.000000 0.000000 0.000000
# 3 -0.006102 -0.015371 0.022693 0.000000 0.000000 0.000000
# 4 0.000000 0.000000 0.000000 -0.174287 0.000000 0.000000
# 5 0.000000 0.000000 0.000000 0.000000 0.038821 0.000000
# 6 0.000000 0.000000 0.000000 0.000000 0.000000 0.036258
#
#
# Mechanical properties :
#
#
# Convention : Reuss Voigt Hill
#
# Bulk Modulus (GPa) = 34.75096 55.52395 45.13745
# Shear Modulus (GPa) = 97.94827 16.48401 57.21614
#
# Velocity S-wave (km/s) = 7.32637 3.00554 5.59951
# Velocity P-wave (km/s) = 9.51899 6.51701 8.15728
#
# Compressibility (1/GPa) = 0.02877619
#
# Stress axis : x y z
#
# Youngs Moduli (GPa) = 26.04808 42.30916 44.06596
#
# Poissons Ratio (x) = 0.27498 0.26888
# Poissons Ratio (y) = 0.16929 0.67732
# Poissons Ratio (z) = 0.15894 0.65032
#
# Static dielectric constant tensor:
#      x y z
#    x 1.619940 0.000000 0.000000 
#    y 0.000000 3.457690 0.000000 
#    z 0.000000 0.000000 1.633060 
# 
# From -- ./inp_files/10613.got.cif
#   From: 2010.05.17/outbox.cif.g08.bks.cpg/sg40_6_cif.got.tgz:10613.got - 2010.06.03 18:35:42.
