data_PCOD9363467
_publ_section_title
;
Structure prediction by ZEFSAII (Michael W. Deem and Ramdas Pophale) SiO2 
 PCOD9363467
Probable space group: A M A 2
;
_chemical_formula_sum "Si O2"
_cell_formula_units_Z 56
_cell_length_a 14.799335
_cell_length_b 11.665371
_cell_length_c 14.447599
_cell_angle_alpha 90.000000
_cell_angle_beta 90.000000
_cell_angle_gamma 90.000000
_cell_volume 2494.229639
_symmetry_space_group_name_H-M "A M A 2"
_symmetry_group_IT_number 40
_symmetry_cell_setting 'orthorhombic'
loop_
_space_group_symop_operation_xyz
x,y,z
-x,-y,z
1/2-x,y,z
1/2+x,-y,z
x,1/2+y,1/2+z
-x,1/2-y,1/2+z
1/2-x,1/2+y,1/2+z
1/2+x,1/2-y,1/2+z
loop_
_atom_site_type_symbol
_atom_site_label
_atom_site_fract_x
_atom_site_fract_y
_atom_site_fract_z
Si Si1 0.642044 0.171890 0.012920
Si Si2 0.141282 0.906270 0.218896
Si Si3 0.516153 0.868981 0.545199
Si Si4 0.646469 0.834108 0.252050
Si Si5 0.472897 0.690606 0.262594
Si Si6 0.654469 0.275952 0.534259
Si Si7 0.853481 0.971998 0.884307
O O1 0.750000 0.175093 0.013138
O O2 0.613488 0.112723 0.110763
O O3 0.602144 0.299216 0.008434
O O4 0.613880 0.089778 0.929572
O O5 0.250000 0.897099 0.222587
O O6 0.094803 0.799505 0.268677
O O7 0.118688 0.031969 0.258461
O O8 0.519613 0.852743 0.656469
O O9 0.430118 0.799713 0.509813
O O10 0.500000 0.000000 0.521638
O O11 0.750000 0.817496 0.287158
O O12 0.570190 0.746551 0.286525
O O13 0.649963 0.811828 0.141290
O O14 0.423343 0.588255 0.316223
O O15 0.750000 0.213997 0.519248
O O16 0.653722 0.387563 0.471698
O O17 0.750000 0.984348 0.846031
#
# Coordination Sequence:
#
# PCOD9363467 Si02
#       7
#     8   8   8   8   8   8   8
#     4   9  18  34  61  91 121 164 219 273 323 377
#     4   9  15  28  52  87 125 164 216 270 314 384
#     4  10  22  39  57  89 126 168 217 257 315 390
#     4   9  16  30  54  84 122 169 222 265 308 383
#     4  10  20  32  54  89 130 167 206 266 336 388
#     4   9  18  35  61  87 114 160 217 268 314 370
#     4  10  19  36  60  95 128 161 212 275 334 382
#
# _framework density 22.451822
#
# number of rings (size 3 to 8) (size 9 to 14) (size 15 to 20)
#    0.000    2.571    1.429    0.857    0.000    1.714 
#    2.571    1.429    0.000    1.714    0.000    0.000 
#    0.000    0.000    0.000    0.000    0.000    0.000 
#
# Total GULP energy -156465.582275 kJ/mol
# GULP energy per Si atom -5588.056510 kJ/mol
# Density = 2.240072 g / cm^3
# Si number density = 22.451822 Si / 1000 Ang^3
#
#
#
# Elastic Constant Matrix: (Units=GPa)
#
#
# Indices 1 2 3 4 5 6 
#
# 1 67.0118 44.2266 36.9167 0.0000 0.0000 0.0000
# 2 44.2266 131.9555 39.6709 0.0000 0.0000 0.0000
# 3 36.9167 39.6709 62.0184 0.0000 0.0000 0.0000
# 4 0.0000 0.0000 0.0000 37.8267 0.0000 0.0000
# 5 0.0000 0.0000 0.0000 0.0000 17.3045 0.0000
# 6 0.0000 0.0000 0.0000 0.0000 0.0000 -99.7881
#
#
#
# Elastic Compliance Matrix: (Units=1/GPa)
#
#
# Indices 1 2 3 4 5 6 
#
# 1 0.024360 -0.004711 -0.011487 0.000000 0.000000 0.000000
# 2 -0.004711 0.010294 -0.003780 0.000000 0.000000 0.000000
# 3 -0.011487 -0.003780 0.025380 0.000000 0.000000 0.000000
# 4 0.000000 0.000000 0.000000 0.026436 0.000000 0.000000
# 5 0.000000 0.000000 0.000000 0.000000 0.057788 0.000000
# 6 0.000000 0.000000 0.000000 0.000000 0.000000 -0.010021
#
#
# Mechanical properties :
#
#
# Convention : Reuss Voigt Hill
#
# Bulk Modulus (GPa) = 49.80756 55.84600 52.82678
# Shear Modulus (GPa) = 27.64164 0.41339 14.02752
#
# Velocity S-wave (km/s) = 3.51259 0.42956 2.50228
# Velocity P-wave (km/s) = 6.21960 5.01734 5.65054
#
# Compressibility (1/GPa) = 0.02007727
#
# Stress axis : x y z
#
# Youngs Moduli (GPa) = 41.05054 97.14574 39.40120
#
# Poissons Ratio (x) = 0.45768 0.45260
# Poissons Ratio (y) = 0.19340 0.14894
# Poissons Ratio (z) = 0.47154 0.36723
#
# Static dielectric constant tensor:
#      x y z
#    x 1.849090 0.000000 0.000000 
#    y 0.000000 1.810920 0.000000 
#    z 0.000000 0.000000 1.855740 
# 
# From -- ./inp_files/17078.got.cif
#   From: 2010.05.17/outbox.cif.g08.bks.cpg/sg40_9_cif.got.tgz:17078.got - 2010.06.03 18:35:42.
