data_PCOD9363430
_publ_section_title
;
Structure prediction by ZEFSAII (Michael W. Deem and Ramdas Pophale) SiO2 
 PCOD9363430
Probable space group: A M A 2
;
_chemical_formula_sum "Si O2"
_cell_formula_units_Z 48
_cell_length_a 14.129142
_cell_length_b 11.341746
_cell_length_c 16.574655
_cell_angle_alpha 90.000000
_cell_angle_beta 90.000000
_cell_angle_gamma 90.000000
_cell_volume 2656.074206
_symmetry_space_group_name_H-M "A M A 2"
_symmetry_group_IT_number 40
_symmetry_cell_setting 'orthorhombic'
loop_
_space_group_symop_operation_xyz
x,y,z
-x,-y,z
1/2-x,y,z
1/2+x,-y,z
x,1/2+y,1/2+z
-x,1/2-y,1/2+z
1/2-x,1/2+y,1/2+z
1/2+x,1/2-y,1/2+z
loop_
_atom_site_type_symbol
_atom_site_label
_atom_site_fract_x
_atom_site_fract_y
_atom_site_fract_z
Si Si1 0.608509 0.462504 0.369810
Si Si2 0.860905 0.749569 0.760867
Si Si3 0.643874 0.190488 0.956706
Si Si4 0.859617 0.278699 0.518572
Si Si5 0.471402 0.867786 0.116329
Si Si6 0.475346 0.365044 0.907411
O O1 0.500000 0.500000 0.364956
O O2 0.635142 0.385652 0.291544
O O3 0.653525 0.587558 0.390543
O O4 0.627614 0.376317 0.446685
O O5 0.750000 0.715827 0.758765
O O6 0.913562 0.711588 0.679301
O O7 0.920646 0.681395 0.829053
O O8 0.750000 0.233990 0.975988
O O9 0.569682 0.288285 0.925621
O O10 0.593197 0.131692 0.035086
O O11 0.750000 0.271987 0.538964
O O12 0.902325 0.160487 0.480002
O O13 0.928419 0.312104 0.591042
O O14 0.500000 0.000000 0.143276
O O15 0.500000 0.500000 0.899588
#
# Coordination Sequence:
#
# PCOD9363430 Si02
#       6
#     8   8   8   8   8   8
#     4  11  17  37  63  90 116 151 202 252 294 357
#     4  11  23  37  57  85 122 159 191 243 312 361
#     4  11  20  35  64  94 116 154 210 258 298 354
#     4  10  19  35  63  88 112 152 200 249 300 351
#     4  11  21  37  57  91 125 155 198 254 300 355
#     4  10  21  38  57  84 120 157 201 249 293 359
#
# _framework density 18.071783
#
# number of rings (size 3 to 8) (size 9 to 14) (size 15 to 20)
#    0.000    1.333    6.667    4.000    0.000    2.000 
#    0.000    4.167    0.000    4.000    0.000    0.000 
#    0.000    0.000    0.000    0.000    0.000    0.000 
#
# Total GULP energy -133724.139540 kJ/mol
# GULP energy per Si atom -5571.839147 kJ/mol
# Density = 1.803065 g / cm^3
# Si number density = 18.071783 Si / 1000 Ang^3
#
#
#
# Elastic Constant Matrix: (Units=GPa)
#
#
# Indices 1 2 3 4 5 6 
#
# 1 189.6712 36.9548 44.6628 0.0000 0.0000 0.0000
# 2 36.9548 91.4276 35.9680 0.0000 0.0000 0.0000
# 3 44.6628 35.9680 68.9046 0.0000 0.0000 0.0000
# 4 0.0000 0.0000 0.0000 17.2199 0.0000 0.0000
# 5 0.0000 0.0000 0.0000 0.0000 13.7004 0.0000
# 6 0.0000 0.0000 0.0000 0.0000 0.0000 26.0978
#
#
#
# Elastic Compliance Matrix: (Units=1/GPa)
#
#
# Indices 1 2 3 4 5 6 
#
# 1 0.006323 -0.001187 -0.003479 0.000000 0.000000 0.000000
# 2 -0.001187 0.013987 -0.006532 0.000000 0.000000 0.000000
# 3 -0.003479 -0.006532 0.020177 0.000000 0.000000 0.000000
# 4 0.000000 0.000000 0.000000 0.058072 0.000000 0.000000
# 5 0.000000 0.000000 0.000000 0.000000 0.072991 0.000000
# 6 0.000000 0.000000 0.000000 0.000000 0.000000 0.038317
#
#
# Mechanical properties :
#
#
# Convention : Reuss Voigt Hill
#
# Bulk Modulus (GPa) = 55.27310 65.01942 60.14626
# Shear Modulus (GPa) = 20.98261 26.89815 23.94038
#
# Velocity S-wave (km/s) = 3.41114 3.86217 3.64364
# Velocity P-wave (km/s) = 6.79457 7.47964 7.14532
#
# Compressibility (1/GPa) = 0.01809198
#
# Stress axis : x y z
#
# Youngs Moduli (GPa) = 158.16034 71.49464 49.56106
#
# Poissons Ratio (x) = 0.08487 0.17240
# Poissons Ratio (y) = 0.18776 0.32372
# Poissons Ratio (z) = 0.55017 0.46698
#
# Static dielectric constant tensor:
#      x y z
#    x 1.597690 0.000000 0.000000 
#    y 0.000000 1.632620 0.000000 
#    z 0.000000 0.000000 1.642230 
# 
# From -- ./inp_files/16968.got.cif
#   From: 2010.05.17/outbox.cif.g08.bks.cpg/sg40_9_cif.got.tgz:16968.got - 2010.06.03 18:35:42.
