data_PCOD9363628
_publ_section_title
;
Structure prediction by ZEFSAII (Michael W. Deem and Ramdas Pophale) SiO2 
 PCOD9363628
Probable space group: A M A 2
;
_chemical_formula_sum "Si O2"
_cell_formula_units_Z 52
_cell_length_a 9.556539
_cell_length_b 14.629961
_cell_length_c 17.524974
_cell_angle_alpha 90.000000
_cell_angle_beta 90.000000
_cell_angle_gamma 90.000000
_cell_volume 2450.198035
_symmetry_space_group_name_H-M "A M A 2"
_symmetry_group_IT_number 40
_symmetry_cell_setting 'orthorhombic'
loop_
_space_group_symop_operation_xyz
x,y,z
-x,-y,z
1/2-x,y,z
1/2+x,-y,z
x,1/2+y,1/2+z
-x,1/2-y,1/2+z
1/2-x,1/2+y,1/2+z
1/2+x,1/2-y,1/2+z
loop_
_atom_site_type_symbol
_atom_site_label
_atom_site_fract_x
_atom_site_fract_y
_atom_site_fract_z
Si Si1 0.750000 0.976986 0.375000
Si Si2 0.415007 0.772391 0.690745
Si Si3 0.913799 0.585588 0.323127
Si Si4 0.497951 0.378743 0.917712
Si Si5 0.087926 0.670779 0.452012
Si Si6 0.586280 0.910742 0.591283
Si Si7 0.086866 0.592187 0.621769
O O1 0.625940 0.899501 0.361530
O O2 0.628586 0.054394 0.396289
O O3 0.250000 0.779845 0.668019
O O4 0.431094 0.825852 0.769634
O O5 0.512823 0.826014 0.631648
O O6 0.453293 0.666238 0.685824
O O7 0.750000 0.564138 0.328280
O O8 0.000000 0.500000 0.290853
O O9 0.982291 0.609120 0.403868
O O10 0.445440 0.275397 0.929899
O O11 0.567949 0.402277 0.000290
O O12 0.250000 0.651564 0.431961
O O13 0.071071 0.645382 0.540987
O O14 0.750000 0.918837 0.609580
O O15 0.500000 0.000000 0.614525
O O16 0.250000 0.568880 0.630903
O O17 0.000000 0.500000 0.623324
#
# Coordination Sequence:
#
# PCOD9363628 Si02
#       7
#     4   8   8   8   8   8   8
#     4  10  20  32  54  82 132 166 208 250 312 378
#     4  10  23  42  65  88 123 165 209 261 320 379
#     4  11  25  45  67  93 129 169 213 262 319 387
#     4  11  19  34  53  88 124 169 203 260 312 372
#     4  11  23  39  66  93 130 172 212 265 321 380
#     4  12  21  31  53  88 125 161 200 251 310 372
#     4  10  22  41  65  93 124 161 210 264 318 373
#
# _framework density 21.222774000000001
#
# number of rings (size 3 to 8) (size 9 to 14) (size 15 to 20)
#    0.000    1.231    4.615    1.846    2.154    4.923 
#    0.000    0.000    3.385    0.000    0.000    0.000 
#    0.000    0.000    0.000    0.000    0.000    0.000 
#
# Total GULP energy -144789.109272 kJ/mol
# GULP energy per Si atom -5568.811895 kJ/mol
# Density = 2.117447 g / cm^3
# Si number density = 21.222774 Si / 1000 Ang^3
#
#
#
# Elastic Constant Matrix: (Units=GPa)
#
#
# Indices 1 2 3 4 5 6 
#
# 1 150.1727 56.3464 24.8666 0.0000 0.0000 0.0000
# 2 56.3464 139.5794 23.9065 0.0000 0.0000 0.0000
# 3 24.8666 23.9065 41.6965 0.0000 0.0000 0.0000
# 4 0.0000 0.0000 0.0000 14.4763 0.0000 0.0000
# 5 0.0000 0.0000 0.0000 0.0000 -19.6802 0.0000
# 6 0.0000 0.0000 0.0000 0.0000 0.0000 36.5013
#
#
#
# Elastic Compliance Matrix: (Units=1/GPa)
#
#
# Indices 1 2 3 4 5 6 
#
# 1 0.008246 -0.002757 -0.003337 0.000000 0.000000 0.000000
# 2 -0.002757 0.008867 -0.003439 0.000000 0.000000 0.000000
# 3 -0.003337 -0.003439 0.027945 0.000000 0.000000 0.000000
# 4 0.000000 0.000000 0.000000 0.069078 0.000000 0.000000
# 5 0.000000 0.000000 0.000000 0.000000 -0.050813 0.000000
# 6 0.000000 0.000000 0.000000 0.000000 0.000000 0.027396
#
#
# Mechanical properties :
#
#
# Convention : Reuss Voigt Hill
#
# Bulk Modulus (GPa) = 38.47549 60.18752 49.33151
# Shear Modulus (GPa) = 42.21198 21.34808 31.78003
#
# Velocity S-wave (km/s) = 4.46465 3.17504 3.87389
# Velocity P-wave (km/s) = 6.68926 6.47013 6.58061
#
# Compressibility (1/GPa) = 0.02599057
#
# Stress axis : x y z
#
# Youngs Moduli (GPa) = 121.26913 112.78375 35.78501
#
# Poissons Ratio (x) = 0.31098 0.11941
# Poissons Ratio (y) = 0.33438 0.12307
# Poissons Ratio (z) = 0.40466 0.38788
#
# Static dielectric constant tensor:
#      x y z
#    x 1.700120 0.000000 0.000000 
#    y 0.000000 1.796110 0.000000 
#    z 0.000000 0.000000 1.834250 
# 
# From -- ./inp_files/22058.got.cif
#   From: 2010.05.17/outbox.cif.g08.bks.cpg/sg40_12_cif.got.tgz:22058.got - 2010.06.03 18:35:42.
