data_PCOD9363634
_publ_section_title
;
Structure prediction by ZEFSAII (Michael W. Deem and Ramdas Pophale) SiO2 
 PCOD9363634
Probable space group: A M A 2
;
_chemical_formula_sum "Si O2"
_cell_formula_units_Z 56
_cell_length_a 14.493495
_cell_length_b 13.533425
_cell_length_c 17.584503
_cell_angle_alpha 90.000000
_cell_angle_beta 90.000000
_cell_angle_gamma 90.000000
_cell_volume 3449.140961
_symmetry_space_group_name_H-M "A M A 2"
_symmetry_group_IT_number 40
_symmetry_cell_setting 'orthorhombic'
loop_
_space_group_symop_operation_xyz
x,y,z
-x,-y,z
1/2-x,y,z
1/2+x,-y,z
x,1/2+y,1/2+z
-x,1/2-y,1/2+z
1/2-x,1/2+y,1/2+z
1/2+x,1/2-y,1/2+z
loop_
_atom_site_type_symbol
_atom_site_label
_atom_site_fract_x
_atom_site_fract_y
_atom_site_fract_z
Si Si1 1.000000 0.111175 0.343050
Si Si2 0.359129 0.611303 0.384273
Si Si3 0.859816 0.187850 0.465981
Si Si4 0.640184 0.812150 0.465981
Si Si5 0.500000 0.118597 0.590020
Si Si6 0.640871 0.111303 0.884273
Si Si7 0.500000 0.313703 0.262767
O O1 0.088310 0.129441 0.398048
O O2 1.000000 0.196782 0.280230
O O3 0.088310 0.870559 0.398048
O O4 0.000000 0.000000 0.313948
O O5 0.250000 0.614061 0.370018
O O6 0.378547 0.696892 0.445701
O O7 0.384237 0.500000 0.407876
O O8 0.413437 0.640201 0.308155
O O9 0.750000 0.171359 0.467460
O O10 0.911223 0.156064 0.542593
O O11 0.750000 0.828641 0.467460
O O12 0.588777 0.843936 0.542593
O O13 0.621453 0.696892 0.445701
O O14 0.500000 0.159131 0.675188
O O15 0.500000 0.000000 0.590704
O O16 0.750000 0.114061 0.870017
O O17 0.586563 0.140201 0.808155
#
# Coordination Sequence:
#
# PCOD9363634 Si02
#       7
#     8   8   8   8   8   8   8
#     4   9  18  33  52  71  90 119 161 199 230 271
#     4   9  17  31  52  73  92 121 160 197 231 268
#     4   9  18  32  50  72  96 122 156 195 231 272
#     4   9  18  32  50  72  96 122 156 195 231 272
#     4  11  22  32  45  70 100 126 153 187 233 287
#     4   9  17  31  52  73  92 121 160 197 231 268
#     4  10  20  33  47  69 100 125 152 192 233 278
#
# _framework density 16.235927
#
# number of rings (size 3 to 8) (size 9 to 14) (size 15 to 20)
#    0.000    2.571    0.000    3.857    0.000    3.429 
#    0.000    1.429    0.000    0.000    0.000    0.000 
#    0.000    0.000    0.000    0.000    0.000    0.000 
#
# Total GULP energy -156063.258745 kJ/mol
# GULP energy per Si atom -5573.687812 kJ/mol
# Density = 1.619897 g / cm^3
# Si number density = 16.235927 Si / 1000 Ang^3
#
#
#
# Elastic Constant Matrix: (Units=GPa)
#
#
# Indices 1 2 3 4 5 6 
#
# 1 106.5584 47.4732 49.8638 0.0000 0.0000 0.0000
# 2 47.4732 159.1089 67.5845 0.0000 0.0000 0.0000
# 3 49.8638 67.5845 122.6057 0.0000 0.0000 0.0000
# 4 0.0000 0.0000 0.0000 11.2086 0.0000 0.0000
# 5 0.0000 0.0000 0.0000 0.0000 18.6674 0.0000
# 6 0.0000 0.0000 0.0000 0.0000 0.0000 21.9309
#
#
#
# Elastic Compliance Matrix: (Units=1/GPa)
#
#
# Indices 1 2 3 4 5 6 
#
# 1 0.012048 -0.001976 -0.003811 0.000000 0.000000 0.000000
# 2 -0.001976 0.008531 -0.003899 0.000000 0.000000 0.000000
# 3 -0.003811 -0.003899 0.011855 0.000000 0.000000 0.000000
# 4 0.000000 0.000000 0.000000 0.089217 0.000000 0.000000
# 5 0.000000 0.000000 0.000000 0.000000 0.053569 0.000000
# 6 0.000000 0.000000 0.000000 0.000000 0.000000 0.045598
#
#
# Mechanical properties :
#
#
# Convention : Reuss Voigt Hill
#
# Bulk Modulus (GPa) = 76.55261 79.79065 78.17163
# Shear Modulus (GPa) = 20.44630 25.25150 22.84890
#
# Velocity S-wave (km/s) = 3.55255 3.94799 3.75548
# Velocity P-wave (km/s) = 8.00499 8.36859 8.18881
#
# Compressibility (1/GPa) = 0.01306291
#
# Stress axis : x y z
#
# Youngs Moduli (GPa) = 83.00056 117.22409 84.35174
#
# Poissons Ratio (x) = 0.23165 0.32144
# Poissons Ratio (y) = 0.16402 0.32886
# Poissons Ratio (z) = 0.31629 0.45702
#
# Static dielectric constant tensor:
#      x y z
#    x 1.555620 0.000000 0.000000 
#    y 0.000000 1.573220 0.000000 
#    z 0.000000 0.000000 1.496140 
# 
# From -- ./inp_files/17075.got.cif
#   From: 2010.05.17/outbox.cif.g08.bks.cpg/sg40_9_cif.got.tgz:17075.got - 2010.06.03 18:35:42.
