data_PCOD9363749
_publ_section_title
;
Structure prediction by ZEFSAII (Michael W. Deem and Ramdas Pophale) SiO2 
 PCOD9363749
Probable space group: A M A 2
;
_chemical_formula_sum "Si O2"
_cell_formula_units_Z 48
_cell_length_a 16.553146
_cell_length_b 16.090445
_cell_length_c 9.490815
_cell_angle_alpha 90.000000
_cell_angle_beta 90.000000
_cell_angle_gamma 90.000000
_cell_volume 2527.854709
_symmetry_space_group_name_H-M "A M A 2"
_symmetry_group_IT_number 40
_symmetry_cell_setting 'orthorhombic'
loop_
_space_group_symop_operation_xyz
x,y,z
-x,-y,z
1/2-x,y,z
1/2+x,-y,z
x,1/2+y,1/2+z
-x,1/2-y,1/2+z
1/2-x,1/2+y,1/2+z
1/2+x,1/2-y,1/2+z
loop_
_atom_site_type_symbol
_atom_site_label
_atom_site_fract_x
_atom_site_fract_y
_atom_site_fract_z
Si Si1 0.845264 0.554033 0.583980
Si Si2 0.655111 0.312061 0.699439
Si Si3 0.154720 0.015331 0.365075
Si Si4 0.592157 0.153857 0.853694
Si Si5 0.591388 0.393410 0.427257
Si Si6 0.596385 0.995815 0.678783
O O1 0.750000 0.529728 0.575722
O O2 0.868769 0.553243 0.747929
O O3 0.859471 0.638259 0.498724
O O4 0.898593 0.482597 0.507469
O O5 0.750000 0.292213 0.707800
O O6 0.640981 0.397215 0.786118
O O7 0.605312 0.239888 0.775043
O O8 0.632272 0.330218 0.536668
O O9 0.250000 0.007091 0.390733
O O10 0.113771 0.010821 0.515202
O O11 0.499205 0.137223 0.896563
O O12 0.624950 0.082092 0.747891
O O13 0.627200 0.418559 0.274001
O O14 0.500000 0.000000 0.697397
#
# Coordination Sequence:
#
# PCOD9363749 Si02
#       6
#     8   8   8   8   8   8
#     4   9  17  33  55  79 107 142 181 224 273 334
#     4  10  21  37  55  78 108 147 188 228 279 340
#     4   9  19  33  51  75 105 139 175 214 269 334
#     4  10  20  34  55  81 107 138 184 234 276 322
#     4   9  19  35  54  76 105 143 183 220 272 338
#     4   9  19  34  53  79 105 133 176 224 271 324
#
# _framework density 18.988434000000002
#
# number of rings (size 3 to 8) (size 9 to 14) (size 15 to 20)
#    0.000    2.667    0.000    3.500    0.000    9.333 
#    0.000    1.667    0.000    0.000    0.000    0.000 
#    0.000    0.000    0.000    0.000    0.000    0.000 
#
# Total GULP energy -133623.949903 kJ/mol
# GULP energy per Si atom -5567.664579 kJ/mol
# Density = 1.894522 g / cm^3
# Si number density = 18.988434 Si / 1000 Ang^3
#
#
#
# Elastic Constant Matrix: (Units=GPa)
#
#
# Indices 1 2 3 4 5 6 
#
# 1 18.0542 -0.9056 13.3259 0.0000 0.0000 0.0000
# 2 -0.9056 18.9075 14.0566 0.0000 0.0000 0.0000
# 3 13.3259 14.0566 139.8155 0.0000 0.0000 0.0000
# 4 0.0000 0.0000 0.0000 29.3853 0.0000 0.0000
# 5 0.0000 0.0000 0.0000 0.0000 38.6075 0.0000
# 6 0.0000 0.0000 0.0000 0.0000 0.0000 8.9471
#
#
#
# Elastic Compliance Matrix: (Units=1/GPa)
#
#
# Indices 1 2 3 4 5 6 
#
# 1 0.060621 0.007781 -0.006560 0.000000 0.000000 0.000000
# 2 0.007781 0.058160 -0.006589 0.000000 0.000000 0.000000
# 3 -0.006560 -0.006589 0.008440 0.000000 0.000000 0.000000
# 4 0.000000 0.000000 0.000000 0.034031 0.000000 0.000000
# 5 0.000000 0.000000 0.000000 0.000000 0.025902 0.000000
# 6 0.000000 0.000000 0.000000 0.000000 0.000000 0.111768
#
#
# Mechanical properties :
#
#
# Convention : Reuss Voigt Hill
#
# Bulk Modulus (GPa) = 8.58482 25.52567 17.05524
# Shear Modulus (GPa) = 14.34779 25.40801 19.87790
#
# Velocity S-wave (km/s) = 2.75181 3.66194 3.23900
# Velocity P-wave (km/s) = 3.82459 5.59926 4.79475
#
# Compressibility (1/GPa) = 0.11648472
#
# Stress axis : x y z
#
# Youngs Moduli (GPa) = 16.49592 17.19389 118.48414
#
# Poissons Ratio (x) = -0.13378 0.77727
# Poissons Ratio (y) = -0.12835 0.78067
# Poissons Ratio (z) = 0.10821 0.11329
#
# Static dielectric constant tensor:
#      x y z
#    x 1.669310 0.000000 0.000000 
#    y 0.000000 1.677270 0.000000 
#    z 0.000000 0.000000 1.686520 
# 
# From -- ./inp_files/6445.got.cif
#   From: 2010.05.17/outbox.cif.g08.bks.cpg/sg40_4_cif.got.tgz:6445.got - 2010.06.03 18:35:42.
