data_PCOD9363918
_publ_section_title
;
Structure prediction by ZEFSAII (Michael W. Deem and Ramdas Pophale) SiO2 
 PCOD9363918
Probable space group: A M A 2
;
_chemical_formula_sum "Si O2"
_cell_formula_units_Z 56
_cell_length_a 17.879235
_cell_length_b 17.515532
_cell_length_c 7.376865
_cell_angle_alpha 90.000000
_cell_angle_beta 90.000000
_cell_angle_gamma 90.000000
_cell_volume 2310.170858
_symmetry_space_group_name_H-M "A M A 2"
_symmetry_group_IT_number 40
_symmetry_cell_setting 'orthorhombic'
loop_
_space_group_symop_operation_xyz
x,y,z
-x,-y,z
1/2-x,y,z
1/2+x,-y,z
x,1/2+y,1/2+z
-x,1/2-y,1/2+z
1/2-x,1/2+y,1/2+z
1/2+x,1/2-y,1/2+z
loop_
_atom_site_type_symbol
_atom_site_label
_atom_site_fract_x
_atom_site_fract_y
_atom_site_fract_z
Si Si1 0.954526 0.830736 0.888240
Si Si2 0.561177 0.691875 0.089530
Si Si3 0.166597 0.746417 0.197262
Si Si4 0.583988 0.597372 0.577776
Si Si5 0.332483 0.191134 0.290088
Si Si6 0.838224 0.063525 0.689286
Si Si7 0.337697 0.516117 0.839688
O O1 0.868690 0.814141 0.839741
O O2 0.995851 0.848271 0.700364
O O3 0.976137 0.742588 0.936012
O O4 0.997061 0.884921 0.029870
O O5 0.605105 0.756726 0.201769
O O6 0.625547 0.630011 0.064501
O O7 0.250000 0.768388 0.253246
O O8 0.119745 0.823183 0.150879
O O9 0.168940 0.705680 0.003980
O O10 0.622640 0.571764 0.385941
O O11 0.605018 0.535023 0.725925
O O12 0.250000 0.213212 0.220139
O O13 0.343983 0.101670 0.267533
O O14 0.750000 0.073920 0.717609
O O15 0.850131 0.990955 0.557543
O O16 0.250000 0.491549 0.811005
#
# Coordination Sequence:
#
# PCOD9363918 Si02
#       7
#     8   8   8   8   8   8   8
#     4  11  22  37  62  94 127 167 219 271 330 380
#     4  11  20  36  62  88 126 161 216 268 319 382
#     4  11  21  39  67  97 129 171 223 276 331 394
#     4  11  21  39  68  92 131 171 221 272 322 393
#     4  10  21  40  64  94 131 171 210 269 340 392
#     4  10  20  35  63  96 123 166 218 260 314 391
#     4  10  22  40  64  96 135 172 215 270 333 394
#
# _framework density 24.240632000000002
#
# number of rings (size 3 to 8) (size 9 to 14) (size 15 to 20)
#    0.000    1.429    4.286    2.571    0.000    2.286 
#    2.571    0.714    3.143    0.000    0.000    0.000 
#    0.000    0.000    0.000    0.000    0.000    0.000 
#
# Total GULP energy -156246.600814 kJ/mol
# GULP energy per Si atom -5580.235743 kJ/mol
# Density = 2.418546 g / cm^3
# Si number density = 24.240632 Si / 1000 Ang^3
#
#
#
# Elastic Constant Matrix: (Units=GPa)
#
#
# Indices 1 2 3 4 5 6 
#
# 1 99.5541 15.9645 27.9172 0.0000 0.0000 0.0000
# 2 15.9645 52.0182 3.1090 0.0000 0.0000 0.0000
# 3 27.9172 3.1090 77.8662 0.0000 0.0000 0.0000
# 4 0.0000 0.0000 0.0000 24.8483 0.0000 0.0000
# 5 0.0000 0.0000 0.0000 0.0000 37.1098 0.0000
# 6 0.0000 0.0000 0.0000 0.0000 0.0000 19.8773
#
#
#
# Elastic Compliance Matrix: (Units=1/GPa)
#
#
# Indices 1 2 3 4 5 6 
#
# 1 0.011724 -0.003355 -0.004069 0.000000 0.000000 0.000000
# 2 -0.003355 0.020230 0.000395 0.000000 0.000000 0.000000
# 3 -0.004069 0.000395 0.014286 0.000000 0.000000 0.000000
# 4 0.000000 0.000000 0.000000 0.040244 0.000000 0.000000
# 5 0.000000 0.000000 0.000000 0.000000 0.026947 0.000000
# 6 0.000000 0.000000 0.000000 0.000000 0.000000 0.050309
#
#
# Mechanical properties :
#
#
# Convention : Reuss Voigt Hill
#
# Bulk Modulus (GPa) = 31.07390 35.93554 33.50472
# Shear Modulus (GPa) = 26.52164 28.53025 27.52595
#
# Velocity S-wave (km/s) = 3.31130 3.43441 3.37342
# Velocity P-wave (km/s) = 5.24084 5.53024 5.38748
#
# Compressibility (1/GPa) = 0.03218135
#
# Stress axis : x y z
#
# Youngs Moduli (GPa) = 85.29564 49.43140 69.99980
#
# Poissons Ratio (x) = 0.16584 0.28486
# Poissons Ratio (y) = 0.28616 -0.02766
# Poissons Ratio (z) = 0.34710 -0.01953
#
# Static dielectric constant tensor:
#      x y z
#    x 1.963300 0.000000 0.000000 
#    y 0.000000 1.929890 0.000000 
#    z 0.000000 0.000000 2.025910 
# 
# From -- ./inp_files/7753.got.cif
#   From: 2010.05.17/outbox.cif.g08.bks.cpg/sg40_4_cif.got.tgz:7753.got - 2010.06.03 18:35:42.
