data_PCOD9363822
_publ_section_title
;
Structure prediction by ZEFSAII (Michael W. Deem and Ramdas Pophale) SiO2 
 PCOD9363822
Probable space group: A M A 2
;
_chemical_formula_sum "Si O2"
_cell_formula_units_Z 48
_cell_length_a 8.812994
_cell_length_b 30.756020
_cell_length_c 10.237803
_cell_angle_alpha 90.000000
_cell_angle_beta 90.000000
_cell_angle_gamma 90.000000
_cell_volume 2774.983323
_symmetry_space_group_name_H-M "A M A 2"
_symmetry_group_IT_number 40
_symmetry_cell_setting 'orthorhombic'
loop_
_space_group_symop_operation_xyz
x,y,z
-x,-y,z
1/2-x,y,z
1/2+x,-y,z
x,1/2+y,1/2+z
-x,1/2-y,1/2+z
1/2-x,1/2+y,1/2+z
1/2+x,1/2-y,1/2+z
loop_
_atom_site_type_symbol
_atom_site_label
_atom_site_fract_x
_atom_site_fract_y
_atom_site_fract_z
Si Si1 0.432542 0.452770 0.832980
Si Si2 0.931489 0.619371 0.619092
Si Si3 0.432513 0.117317 0.836074
Si Si4 0.067907 0.217268 0.824645
Si Si5 0.931351 0.786155 0.126262
Si Si6 0.432642 0.547240 0.116504
O O1 0.500000 0.500000 0.798552
O O2 0.250000 0.455759 0.841804
O O3 0.473436 0.416893 0.725460
O O4 0.499892 0.441160 0.974834
O O5 0.750000 0.622422 0.614905
O O6 0.992951 0.607583 0.475547
O O7 0.998822 0.666504 0.653997
O O8 0.250000 0.116485 0.852863
O O9 0.473310 0.166878 0.798132
O O10 0.473496 0.082865 0.725004
O O11 0.250000 0.221404 0.811931
O O12 0.989706 0.250432 0.726893
O O13 0.027310 0.225626 0.976356
O O14 0.750000 0.789579 0.131709
O O15 0.500000 0.500000 0.150940
O O16 0.250000 0.544478 0.107738
#
# Coordination Sequence:
#
# PCOD9363822 Si02
#       6
#     8   8   8   8   8   8
#     4  10  21  36  54  78 106 137 175 216 259 308
#     4  10  21  36  55  79 106 137 174 216 260 308
#     4   9  20  37  55  77 106 139 175 215 259 309
#     4   9  19  36  54  76 106 136 173 217 257 305
#     4  10  21  36  55  79 106 138 174 213 260 311
#     4  10  20  35  55  79 107 139 175 215 260 309
#
# _framework density 17.2974
#
# number of rings (size 3 to 8) (size 9 to 14) (size 15 to 20)
#    0.000    2.333    0.000    4.000    0.000    9.333 
#    0.000    6.667    0.000    0.000    0.000    0.000 
#    0.000    0.000    0.000    0.000    0.000    0.000 
#
# Total GULP energy -133948.896651 kJ/mol
# GULP energy per Si atom -5581.204027 kJ/mol
# Density = 1.725803 g / cm^3
# Si number density = 17.297400 Si / 1000 Ang^3
#
#
#
# Elastic Constant Matrix: (Units=GPa)
#
#
# Indices 1 2 3 4 5 6 
#
# 1 50.8866 63.5728 63.4460 0.0000 0.0000 0.0000
# 2 63.5728 156.0120 146.9161 0.0000 0.0000 0.0000
# 3 63.4460 146.9161 153.4322 0.0000 0.0000 0.0000
# 4 0.0000 0.0000 0.0000 42.3000 0.0000 0.0000
# 5 0.0000 0.0000 0.0000 0.0000 28.1367 0.0000
# 6 0.0000 0.0000 0.0000 0.0000 0.0000 -20.1568
#
#
#
# Elastic Compliance Matrix: (Units=1/GPa)
#
#
# Indices 1 2 3 4 5 6 
#
# 1 0.041439 -0.007624 -0.009836 0.000000 0.000000 0.000000
# 2 -0.007624 0.066612 -0.060630 0.000000 0.000000 0.000000
# 3 -0.009836 -0.060630 0.068640 0.000000 0.000000 0.000000
# 4 0.000000 0.000000 0.000000 0.023641 0.000000 0.000000
# 5 0.000000 0.000000 0.000000 0.000000 0.035541 0.000000
# 6 0.000000 0.000000 0.000000 0.000000 0.000000 -0.049611
#
#
# Mechanical properties :
#
#
# Convention : Reuss Voigt Hill
#
# Bulk Modulus (GPa) = 48.75285 100.91120 74.83203
# Shear Modulus (GPa) = 14.31526 15.81571 15.06549
#
# Velocity S-wave (km/s) = 2.87992 3.02709 2.95442
# Velocity P-wave (km/s) = 6.26936 8.40733 7.41580
#
# Compressibility (1/GPa) = 0.02051162
#
# Stress axis : x y z
#
# Youngs Moduli (GPa) = 24.13184 15.01237 14.56874
#
# Poissons Ratio (x) = 0.11445 0.14329
# Poissons Ratio (y) = 0.18397 0.88331
# Poissons Ratio (z) = 0.23735 0.91020
#
# Static dielectric constant tensor:
#      x y z
#    x 1.582370 0.000000 0.000000 
#    y 0.000000 1.566660 0.000000 
#    z 0.000000 0.000000 1.564990 
# 
# From -- ./inp_files/4639.got.cif
#   From: 2010.05.17/outbox.cif.g08.bks.cpg/sg40_3_cif.got.tgz:4639.got - 2010.06.03 18:35:42.
