data_PCOD9363939
_publ_section_title
;
Structure prediction by ZEFSAII (Michael W. Deem and Ramdas Pophale) SiO2 
 PCOD9363939
Probable space group: A M A 2
;
_chemical_formula_sum "Si O2"
_cell_formula_units_Z 48
_cell_length_a 8.754206
_cell_length_b 31.264680
_cell_length_c 9.905320
_cell_angle_alpha 90.000000
_cell_angle_beta 90.000000
_cell_angle_gamma 90.000000
_cell_volume 2711.060818
_symmetry_space_group_name_H-M "A M A 2"
_symmetry_group_IT_number 40
_symmetry_cell_setting 'orthorhombic'
loop_
_space_group_symop_operation_xyz
x,y,z
-x,-y,z
1/2-x,y,z
1/2+x,-y,z
x,1/2+y,1/2+z
-x,1/2-y,1/2+z
1/2-x,1/2+y,1/2+z
1/2+x,1/2-y,1/2+z
loop_
_atom_site_type_symbol
_atom_site_label
_atom_site_fract_x
_atom_site_fract_y
_atom_site_fract_z
Si Si1 0.433172 0.123191 0.729430
Si Si2 0.432272 0.118697 0.413977
Si Si3 0.067650 0.954133 0.225466
Si Si4 0.932245 0.710900 0.912681
Si Si5 0.066271 0.045744 0.927094
Si Si6 0.931909 0.215135 0.728620
O O1 0.250000 0.129479 0.738038
O O2 0.469633 0.113365 0.572964
O O3 0.474944 0.083925 0.825795
O O4 0.513894 0.167515 0.767392
O O5 0.250000 0.115241 0.397455
O O6 0.514129 0.083067 0.324979
O O7 0.487325 0.166251 0.375585
O O8 0.250000 0.956735 0.219021
O O9 0.000000 0.000000 0.269440
O O10 0.001003 0.945971 0.075797
O O11 0.750000 0.705574 0.903397
O O12 0.987390 0.749121 0.818171
O O13 0.970305 0.720390 0.069693
O O14 0.250000 0.042970 0.935558
O O15 0.000000 0.000000 0.881682
O O16 0.750000 0.218720 0.743757
#
# Coordination Sequence:
#
# PCOD9363939 Si02
#       6
#     8   8   8   8   8   8
#     4   9  20  37  57  80 108 141 177 220 269 320
#     4  10  20  37  58  81 109 141 178 221 268 317
#     4  11  22  37  56  80 109 143 181 221 266 315
#     4  10  21  37  56  80 109 141 179 221 266 318
#     4  10  20  36  56  80 109 141 178 221 268 318
#     4  10  21  36  56  81 108 141 180 222 267 316
#
# _framework density 17.705245999999999
#
# number of rings (size 3 to 8) (size 9 to 14) (size 15 to 20)
#    0.000    2.000    0.000    4.500    0.000    6.000 
#    0.000    3.333    0.000    0.000    0.000    0.000 
#    0.000    0.000    0.000    0.000    0.000    0.000 
#
# Total GULP energy -134046.204356 kJ/mol
# GULP energy per Si atom -5585.258515 kJ/mol
# Density = 1.766495 g / cm^3
# Si number density = 17.705246 Si / 1000 Ang^3
#
#
#
# Elastic Constant Matrix: (Units=GPa)
#
#
# Indices 1 2 3 4 5 6 
#
# 1 79.2711 65.5773 45.3028 0.0000 0.0000 0.0000
# 2 65.5773 154.4848 89.4743 0.0000 0.0000 0.0000
# 3 45.3028 89.4743 66.8655 0.0000 0.0000 0.0000
# 4 0.0000 0.0000 0.0000 41.1284 0.0000 0.0000
# 5 0.0000 0.0000 0.0000 0.0000 49.4404 0.0000
# 6 0.0000 0.0000 0.0000 0.0000 0.0000 39.1568
#
#
#
# Elastic Compliance Matrix: (Units=1/GPa)
#
#
# Indices 1 2 3 4 5 6 
#
# 1 0.020890 -0.002979 -0.010167 0.000000 0.000000 0.000000
# 2 -0.002979 0.029196 -0.037049 0.000000 0.000000 0.000000
# 3 -0.010167 -0.037049 0.071420 0.000000 0.000000 0.000000
# 4 0.000000 0.000000 0.000000 0.024314 0.000000 0.000000
# 5 0.000000 0.000000 0.000000 0.000000 0.020226 0.000000
# 6 0.000000 0.000000 0.000000 0.000000 0.000000 0.025538
#
#
# Mechanical properties :
#
#
# Convention : Reuss Voigt Hill
#
# Bulk Modulus (GPa) = 47.35911 77.92558 62.64235
# Shear Modulus (GPa) = 16.72169 32.62959 24.67564
#
# Velocity S-wave (km/s) = 3.07652 4.29760 3.73727
# Velocity P-wave (km/s) = 6.27907 8.29060 7.35394
#
# Compressibility (1/GPa) = 0.02111526
#
# Stress axis : x y z
#
# Youngs Moduli (GPa) = 47.87066 34.25156 14.00166
#
# Poissons Ratio (x) = 0.10203 0.14235
# Poissons Ratio (y) = 0.14261 0.51875
# Poissons Ratio (z) = 0.48670 1.26899
#
# Static dielectric constant tensor:
#      x y z
#    x 1.590830 0.000000 0.000000 
#    y 0.000000 1.572050 0.000000 
#    z 0.000000 0.000000 1.587190 
# 
# From -- ./inp_files/4590.got.cif
#   From: 2010.05.17/outbox.cif.g08.bks.cpg/sg40_3_cif.got.tgz:4590.got - 2010.06.03 18:35:42.
