data_PCOD9363292
_publ_section_title
;
Structure prediction by ZEFSAII (Michael W. Deem and Ramdas Pophale) SiO2 
 PCOD9363292
Probable space group: A M A 2
;
_chemical_formula_sum "Si O2"
_cell_formula_units_Z 64
_cell_length_a 8.688212
_cell_length_b 34.550953
_cell_length_c 11.884282
_cell_angle_alpha 90.000000
_cell_angle_beta 90.000000
_cell_angle_gamma 90.000000
_cell_volume 3567.495130
_symmetry_space_group_name_H-M "A M A 2"
_symmetry_group_IT_number 40
_symmetry_cell_setting 'orthorhombic'
loop_
_space_group_symop_operation_xyz
x,y,z
-x,-y,z
1/2-x,y,z
1/2+x,-y,z
x,1/2+y,1/2+z
-x,1/2-y,1/2+z
1/2-x,1/2+y,1/2+z
1/2+x,1/2-y,1/2+z
loop_
_atom_site_type_symbol
_atom_site_label
_atom_site_fract_x
_atom_site_fract_y
_atom_site_fract_z
Si Si1 0.933138 0.681026 0.225180
Si Si2 0.070890 0.885075 0.120597
Si Si3 0.067533 0.622829 0.050064
Si Si4 0.066248 0.040691 0.227478
Si Si5 0.065602 0.458306 0.980029
Si Si6 0.064824 0.732086 0.681374
Si Si7 0.067168 0.179051 0.971547
Si Si8 0.927874 0.669556 0.840835
O O1 0.750000 0.676447 0.211386
O O2 0.979171 0.723114 0.177140
O O3 0.017169 0.646627 0.159922
O O4 0.977871 0.682641 0.355623
O O5 0.250000 0.888736 0.088838
O O6 0.065316 0.860245 0.236169
O O7 0.993880 0.925524 0.148586
O O8 0.976367 0.861585 0.028390
O O9 0.250000 0.617686 0.045323
O O10 0.989275 0.580492 0.043013
O O11 0.014425 0.649426 0.944246
O O12 0.250000 0.040122 0.235147
O O13 0.997229 0.046515 0.352592
O O14 0.000000 0.000000 0.186937
O O15 0.250000 0.460124 0.978071
O O16 0.000000 0.500000 0.020617
O O17 0.250000 0.729460 0.690816
O O18 0.019705 0.710530 0.566003
O O19 0.995208 0.709056 0.788022
O O20 0.250000 0.182396 0.953049
O O21 0.750000 0.675455 0.873429
#
# Coordination Sequence:
#
# PCOD9363292 Si02
#       8
#     8   8   8   8   8   8   8   8
#     4  11  24  41  59  84 115 153 197 244 293 347
#     4  10  19  34  56  81 111 150 188 232 283 341
#     4  12  24  38  58  86 119 157 198 242 294 351
#     4  11  20  31  51  82 118 153 187 232 284 344
#     4  11  21  36  57  85 120 157 194 240 295 354
#     4   9  21  39  59  83 114 150 191 239 292 345
#     4  10  21  39  59  82 111 149 194 240 288 344
#     4  10  20  34  56  83 114 149 190 235 286 344
#
# _framework density 17.939758000000001
#
# number of rings (size 3 to 8) (size 9 to 14) (size 15 to 20)
#    0.000    1.500    1.250    5.625    1.750    2.500 
#    0.000    0.000    0.000    0.750    0.000    5.250 
#    0.000    0.000    0.000    0.000    0.000    0.000 
#
# Total GULP energy -178765.313340 kJ/mol
# GULP energy per Si atom -5586.416042 kJ/mol
# Density = 1.789893 g / cm^3
# Si number density = 17.939758 Si / 1000 Ang^3
#
#
#
# Elastic Constant Matrix: (Units=GPa)
#
#
# Indices 1 2 3 4 5 6 
#
# 1 52.7290 12.7902 -1.0276 0.0000 0.0000 0.0000
# 2 12.7902 123.8628 26.8726 0.0000 0.0000 0.0000
# 3 -1.0276 26.8726 49.5397 0.0000 0.0000 0.0000
# 4 0.0000 0.0000 0.0000 21.0992 0.0000 0.0000
# 5 0.0000 0.0000 0.0000 0.0000 28.6458 0.0000
# 6 0.0000 0.0000 0.0000 0.0000 0.0000 28.9386
#
#
#
# Elastic Compliance Matrix: (Units=1/GPa)
#
#
# Indices 1 2 3 4 5 6 
#
# 1 0.019578 -0.002391 0.001703 0.000000 0.000000 0.000000
# 2 -0.002391 0.009442 -0.005172 0.000000 0.000000 0.000000
# 3 0.001703 -0.005172 0.023026 0.000000 0.000000 0.000000
# 4 0.000000 0.000000 0.000000 0.047395 0.000000 0.000000
# 5 0.000000 0.000000 0.000000 0.000000 0.034909 0.000000
# 6 0.000000 0.000000 0.000000 0.000000 0.000000 0.034556
#
#
# Mechanical properties :
#
#
# Convention : Reuss Voigt Hill
#
# Bulk Modulus (GPa) = 24.79679 33.71133 29.25406
# Shear Modulus (GPa) = 25.76406 28.23647 27.00027
#
# Velocity S-wave (km/s) = 3.79376 3.97162 3.88371
# Velocity P-wave (km/s) = 5.74825 6.31379 6.03764
#
# Compressibility (1/GPa) = 0.04032780
#
# Stress axis : x y z
#
# Youngs Moduli (GPa) = 51.07750 105.90573 43.42831
#
# Poissons Ratio (x) = 0.25324 -0.07397
# Poissons Ratio (y) = 0.12213 0.22459
# Poissons Ratio (z) = -0.08699 0.54770
#
# Static dielectric constant tensor:
#      x y z
#    x 1.601210 0.000000 0.000000 
#    y 0.000000 1.576040 0.000000 
#    z 0.000000 0.000000 1.588740 
# 
# From -- ./inp_files/10692.got.cif
#   From: 2010.05.17/outbox.cif.g08.bks.cpg/sg40_6_cif.got.tgz:10692.got - 2010.06.03 18:35:42.
