data_PCOD9363098
_publ_section_title
;
Structure prediction by ZEFSAII (Michael W. Deem and Ramdas Pophale) SiO2 
 PCOD9363098
Probable space group: A M A 2
;
_chemical_formula_sum "Si O2"
_cell_formula_units_Z 64
_cell_length_a 20.983856
_cell_length_b 28.056587
_cell_length_c 5.493687
_cell_angle_alpha 90.000000
_cell_angle_beta 90.000000
_cell_angle_gamma 90.000000
_cell_volume 3234.327912
_symmetry_space_group_name_H-M "A M A 2"
_symmetry_group_IT_number 40
_symmetry_cell_setting 'orthorhombic'
loop_
_space_group_symop_operation_xyz
x,y,z
-x,-y,z
1/2-x,y,z
1/2+x,-y,z
x,1/2+y,1/2+z
-x,1/2-y,1/2+z
1/2-x,1/2+y,1/2+z
1/2+x,1/2-y,1/2+z
loop_
_atom_site_type_symbol
_atom_site_label
_atom_site_fract_x
_atom_site_fract_y
_atom_site_fract_z
Si Si1 0.822979 0.776690 0.649530
Si Si2 0.474087 0.626582 0.878601
Si Si3 0.928849 0.476495 0.887169
Si Si4 0.591856 0.616221 0.568323
Si Si5 0.820458 0.672006 0.846071
Si Si6 0.424611 0.485322 0.376609
Si Si7 0.898482 0.294425 0.648917
Si Si8 0.941991 0.691267 0.190165
O O1 0.750000 0.793926 0.662279
O O2 0.821058 0.719326 0.679386
O O3 0.853418 0.789863 0.389038
O O4 0.861874 0.792557 0.891187
O O5 0.435044 0.579667 0.940891
O O6 0.540285 0.606327 0.775954
O O7 0.436576 0.656859 0.678659
O O8 0.496599 0.664906 0.078410
O O9 0.900356 0.489677 0.624127
O O10 0.000000 0.500000 0.876728
O O11 0.895444 0.498221 0.122698
O O12 0.660006 0.626760 0.684375
O O13 0.585223 0.571269 0.395062
O O14 0.569976 0.665815 0.446026
O O15 0.750000 0.668394 0.955938
O O16 0.877609 0.678995 0.037569
O O17 0.500000 0.500000 0.366928
O O18 0.944867 0.248236 0.674096
#
# Coordination Sequence:
#
# PCOD9363098 Si02
#       8
#     8   8   8   8   8   8   8   8
#     4  10  21  42  61  81 114 155 205 254 285 333
#     4  11  24  34  56  83 129 153 194 235 295 364
#     4  10  19  36  51  78 108 151 188 234 270 340
#     4  11  20  35  55  83 115 160 184 243 296 355
#     4   9  20  36  55  81 113 154 203 246 286 345
#     4  10  19  32  55  76 111 141 193 224 283 338
#     4  11  24  37  57  90 117 160 197 230 296 357
#     4  10  22  34  52  80 122 162 187 230 294 352
#
# _framework density 19.787728999999999
#
# number of rings (size 3 to 8) (size 9 to 14) (size 15 to 20)
#    0.000    1.750    3.750    1.875    5.250    1.000 
#    0.000    0.000    0.000    0.000    0.000    5.250 
#    0.000    0.000    0.000    0.000    0.000    0.000 
#
# Total GULP energy -178406.876302 kJ/mol
# GULP energy per Si atom -5575.214884 kJ/mol
# Density = 1.974269 g / cm^3
# Si number density = 19.787729 Si / 1000 Ang^3
#
#
#
# Elastic Constant Matrix: (Units=GPa)
#
#
# Indices 1 2 3 4 5 6 
#
# 1 40.2927 11.7797 8.9913 0.0000 0.0000 0.0000
# 2 11.7797 83.9109 -4.2003 0.0000 0.0000 0.0000
# 3 8.9913 -4.2003 91.7376 0.0000 0.0000 0.0000
# 4 0.0000 0.0000 0.0000 -10.9365 0.0000 0.0000
# 5 0.0000 0.0000 0.0000 0.0000 17.5576 0.0000
# 6 0.0000 0.0000 0.0000 0.0000 0.0000 8.5091
#
#
#
# Elastic Compliance Matrix: (Units=1/GPa)
#
#
# Indices 1 2 3 4 5 6 
#
# 1 0.026570 -0.003869 -0.002781 0.000000 0.000000 0.000000
# 2 -0.003869 0.012508 0.000952 0.000000 0.000000 0.000000
# 3 -0.002781 0.000952 0.011217 0.000000 0.000000 0.000000
# 4 0.000000 0.000000 0.000000 -0.091437 0.000000 0.000000
# 5 0.000000 0.000000 0.000000 0.000000 0.056956 0.000000
# 6 0.000000 0.000000 0.000000 0.000000 0.000000 0.117521
#
#
# Mechanical properties :
#
#
# Convention : Reuss Voigt Hill
#
# Bulk Modulus (GPa) = 25.70823 27.67582 26.69202
# Shear Modulus (GPa) = 31.70608 16.31741 24.01174
#
# Velocity S-wave (km/s) = 4.00723 2.87474 3.48726
# Velocity P-wave (km/s) = 5.86777 5.00355 5.45281
#
# Compressibility (1/GPa) = 0.03889805
#
# Stress axis : x y z
#
# Youngs Moduli (GPa) = 37.63607 79.94736 89.15168
#
# Poissons Ratio (x) = 0.30934 0.24796
# Poissons Ratio (y) = 0.14562 -0.08487
# Poissons Ratio (z) = 0.10468 -0.07610
#
# Static dielectric constant tensor:
#      x y z
#    x 1.701420 0.000000 0.000000 
#    y 0.000000 1.721710 0.000000 
#    z 0.000000 0.000000 1.780970 
# 
# From -- ./inp_files/2466.got.cif
#   From: 2010.05.17/outbox.cif.g08.bks.cpg/sg40_2_cif.got.tgz:2466.got - 2010.06.03 18:35:42.
