data_PCOD9363369
_publ_section_title
;
Structure prediction by ZEFSAII (Michael W. Deem and Ramdas Pophale) SiO2 
 PCOD9363369
Probable space group: A M A 2
;
_chemical_formula_sum "Si O2"
_cell_formula_units_Z 56
_cell_length_a 17.845760
_cell_length_b 32.652767
_cell_length_c 5.050345
_cell_angle_alpha 90.000000
_cell_angle_beta 90.000000
_cell_angle_gamma 90.000000
_cell_volume 2942.903924
_symmetry_space_group_name_H-M "A M A 2"
_symmetry_group_IT_number 40
_symmetry_cell_setting 'orthorhombic'
loop_
_space_group_symop_operation_xyz
x,y,z
-x,-y,z
1/2-x,y,z
1/2+x,-y,z
x,1/2+y,1/2+z
-x,1/2-y,1/2+z
1/2-x,1/2+y,1/2+z
1/2+x,1/2-y,1/2+z
loop_
_atom_site_type_symbol
_atom_site_label
_atom_site_fract_x
_atom_site_fract_y
_atom_site_fract_z
Si Si1 0.097269 0.350342 0.092040
Si Si2 0.837948 0.603111 0.587450
Si Si3 0.162398 0.685900 0.420411
Si Si4 0.533011 0.411089 0.154296
Si Si5 0.163265 0.132836 0.409324
Si Si6 0.949260 0.242835 0.575104
Si Si7 0.475758 0.453531 0.651761
O O1 0.146291 0.371277 0.321449
O O2 0.014131 0.369187 0.127963
O O3 0.131322 0.367579 0.820444
O O4 0.088248 0.301755 0.102906
O O5 0.750000 0.594109 0.617909
O O6 0.891390 0.562700 0.590007
O O7 0.250000 0.694405 0.476199
O O8 0.138994 0.649790 0.623880
O O9 0.111848 0.724613 0.479073
O O10 0.156687 0.669757 0.121720
O O11 0.526466 0.426638 0.452017
O O12 0.613743 0.402892 0.032613
O O13 0.491658 0.442459 0.956539
O O14 0.250000 0.120891 0.392855
O O15 0.986563 0.256995 0.849929
O O16 0.500000 0.500000 0.604694
#
# Coordination Sequence:
#
# PCOD9363369 Si02
#       7
#     8   8   8   8   8   8   8
#     4  10  21  35  55  81 107 145 186 226 269 317
#     4  10  21  38  58  81 110 146 184 223 272 330
#     4  10  21  35  52  75 108 144 176 220 277 318
#     4  10  19  35  57  78 107 139 176 217 263 322
#     4  10  20  36  56  78 105 140 179 219 265 320
#     4  12  23  36  55  80 109 143 189 235 272 315
#     4  10  21  37  58  83 110 141 174 216 272 326
#
# _framework density 19.028822000000002
#
# number of rings (size 3 to 8) (size 9 to 14) (size 15 to 20)
#    0.000    1.714    0.000    5.143    0.000    3.429 
#    0.000    2.857    0.000    0.000    0.000    0.000 
#    0.000    0.000    0.000    0.000    0.000    0.000 
#
# Total GULP energy -156344.680627 kJ/mol
# GULP energy per Si atom -5583.738594 kJ/mol
# Density = 1.898551 g / cm^3
# Si number density = 19.028822 Si / 1000 Ang^3
#
#
#
# Elastic Constant Matrix: (Units=GPa)
#
#
# Indices 1 2 3 4 5 6 
#
# 1 71.1262 41.9864 -12.5817 0.0000 0.0000 0.0000
# 2 41.9864 61.5947 -14.4285 0.0000 0.0000 0.0000
# 3 -12.5817 -14.4285 62.1684 0.0000 0.0000 0.0000
# 4 0.0000 0.0000 0.0000 16.0559 0.0000 0.0000
# 5 0.0000 0.0000 0.0000 0.0000 14.7452 0.0000
# 6 0.0000 0.0000 0.0000 0.0000 0.0000 17.4247
#
#
#
# Elastic Compliance Matrix: (Units=1/GPa)
#
#
# Indices 1 2 3 4 5 6 
#
# 1 0.023597 -0.015827 0.001102 0.000000 0.000000 0.000000
# 2 -0.015827 0.027784 0.003245 0.000000 0.000000 0.000000
# 3 0.001102 0.003245 0.017062 0.000000 0.000000 0.000000
# 4 0.000000 0.000000 0.000000 0.062282 0.000000 0.000000
# 5 0.000000 0.000000 0.000000 0.000000 0.067819 0.000000
# 6 0.000000 0.000000 0.000000 0.000000 0.000000 0.057390
#
#
# Mechanical properties :
#
#
# Convention : Reuss Voigt Hill
#
# Bulk Modulus (GPa) = 21.98573 24.98242 23.48407
# Shear Modulus (GPa) = 17.00367 21.63937 19.32152
#
# Velocity S-wave (km/s) = 2.99251 3.37588 3.18996
# Velocity P-wave (km/s) = 4.84966 5.32472 5.09273
#
# Compressibility (1/GPa) = 0.04548405
#
# Stress axis : x y z
#
# Youngs Moduli (GPa) = 42.37755 35.99195 58.61106
#
# Poissons Ratio (x) = 0.56965 -0.06461
# Poissons Ratio (y) = 0.67071 -0.19020
# Poissons Ratio (z) = -0.04672 -0.11680
#
# Static dielectric constant tensor:
#      x y z
#    x 1.669880 0.000000 0.000000 
#    y 0.000000 1.636430 0.000000 
#    z 0.000000 0.000000 1.659820 
# 
# From -- ./inp_files/1471.got.cif
#   From: 2010.05.17/outbox.cif.g08.bks.cpg/sg40_1_cif.got.tgz:1471.got - 2010.06.03 18:35:42.
