data_PCOD9363162
_publ_section_title
;
Structure prediction by ZEFSAII (Michael W. Deem and Ramdas Pophale) SiO2 
 PCOD9363162
Probable space group: A M A 2
;
_chemical_formula_sum "Si O2"
_cell_formula_units_Z 64
_cell_length_a 9.083164
_cell_length_b 29.096889
_cell_length_c 12.428082
_cell_angle_alpha 90.000000
_cell_angle_beta 90.000000
_cell_angle_gamma 90.000000
_cell_volume 3284.640345
_symmetry_space_group_name_H-M "A M A 2"
_symmetry_group_IT_number 40
_symmetry_cell_setting 'orthorhombic'
loop_
_space_group_symop_operation_xyz
x,y,z
-x,-y,z
1/2-x,y,z
1/2+x,-y,z
x,1/2+y,1/2+z
-x,1/2-y,1/2+z
1/2-x,1/2+y,1/2+z
1/2+x,1/2-y,1/2+z
loop_
_atom_site_type_symbol
_atom_site_label
_atom_site_fract_x
_atom_site_fract_y
_atom_site_fract_z
Si Si1 0.076647 0.857508 0.671530
Si Si2 0.573173 0.951932 0.152882
Si Si3 0.579315 0.572247 0.873397
Si Si4 0.915264 0.318587 0.355915
Si Si5 0.577039 0.837008 0.466809
Si Si6 0.082434 0.956878 0.612550
Si Si7 0.424438 0.655159 0.602582
Si Si8 0.080060 0.786299 0.290161
O O1 0.250000 0.855315 0.647716
O O2 0.018503 0.908608 0.648586
O O3 0.039514 0.845641 0.792333
O O4 0.990744 0.827575 0.583729
O O5 0.750000 0.957152 0.149770
O O6 0.514174 0.947231 0.275306
O O7 0.538739 0.900192 0.104842
O O8 0.500000 0.000000 0.110078
O O9 0.750000 0.578474 0.840532
O O10 0.506329 0.619649 0.912928
O O11 0.580447 0.542836 0.982709
O O12 0.750000 0.337898 0.337791
O O13 0.940067 0.322736 0.483746
O O14 0.915686 0.268826 0.298288
O O15 0.750000 0.845201 0.472564
O O16 0.532058 0.797344 0.386259
O O17 0.250000 0.957907 0.647973
O O18 0.000000 0.000000 0.657409
O O19 0.250000 0.657926 0.632655
O O20 0.518255 0.685742 0.687020
O O21 0.250000 0.801456 0.310068
#
# Coordination Sequence:
#
# PCOD9363162 Si02
#       8
#     8   8   8   8   8   8   8   8
#     4  10  22  40  60  86 121 159 203 254 305 358
#     4  11  22  36  58  87 121 167 213 260 319 380
#     4  10  19  33  53  83 123 159 197 252 307 366
#     4  10  24  44  64  90 122 162 209 257 312 374
#     4  11  21  35  58  88 123 162 200 242 301 366
#     4   9  19  33  52  81 115 154 199 246 304 359
#     4  10  23  44  65  89 126 167 209 260 318 379
#     4  11  23  39  63  94 124 158 202 253 311 369
#
# _framework density 19.484628000000001
#
# number of rings (size 3 to 8) (size 9 to 14) (size 15 to 20)
#    0.000    1.750    1.250    3.750    1.750    6.000 
#    0.000    0.625    0.000    3.000    0.000    0.000 
#    0.000    0.000    0.000    0.000    0.000    0.000 
#
# Total GULP energy -178275.822406 kJ/mol
# GULP energy per Si atom -5571.119450 kJ/mol
# Density = 1.944028 g / cm^3
# Si number density = 19.484628 Si / 1000 Ang^3
#
#
#
# Elastic Constant Matrix: (Units=GPa)
#
#
# Indices 1 2 3 4 5 6 
#
# 1 77.4319 27.8330 30.1920 0.0000 0.0000 0.0000
# 2 27.8330 74.2077 28.2902 0.0000 0.0000 0.0000
# 3 30.1920 28.2902 65.6717 0.0000 0.0000 0.0000
# 4 0.0000 0.0000 0.0000 5.4037 0.0000 0.0000
# 5 0.0000 0.0000 0.0000 0.0000 41.2744 0.0000
# 6 0.0000 0.0000 0.0000 0.0000 0.0000 24.4552
#
#
#
# Elastic Compliance Matrix: (Units=1/GPa)
#
#
# Indices 1 2 3 4 5 6 
#
# 1 0.016665 -0.003984 -0.005945 0.000000 0.000000 0.000000
# 2 -0.003984 0.017076 -0.005524 0.000000 0.000000 0.000000
# 3 -0.005945 -0.005524 0.020340 0.000000 0.000000 0.000000
# 4 0.000000 0.000000 0.000000 0.185058 0.000000 0.000000
# 5 0.000000 0.000000 0.000000 0.000000 0.024228 0.000000
# 6 0.000000 0.000000 0.000000 0.000000 0.000000 0.040891
#
#
# Mechanical properties :
#
#
# Convention : Reuss Voigt Hill
#
# Bulk Modulus (GPa) = 43.15212 43.32687 43.23949
# Shear Modulus (GPa) = 14.58190 22.95973 18.77082
#
# Velocity S-wave (km/s) = 2.73862 3.43644 3.10718
# Velocity P-wave (km/s) = 5.67405 6.16686 5.92558
#
# Compressibility (1/GPa) = 0.02317383
#
# Stress axis : x y z
#
# Youngs Moduli (GPa) = 60.00689 58.56165 49.16316
#
# Poissons Ratio (x) = 0.23330 0.29229
# Poissons Ratio (y) = 0.23906 0.27160
# Poissons Ratio (z) = 0.35676 0.32352
#
# Static dielectric constant tensor:
#      x y z
#    x 1.669740 0.000000 0.000000 
#    y 0.000000 1.767140 0.000000 
#    z 0.000000 0.000000 1.682250 
# 
# From -- ./inp_files/10637.got.cif
#   From: 2010.05.17/outbox.cif.g08.bks.cpg/sg40_6_cif.got.tgz:10637.got - 2010.06.03 18:35:42.
