data_PCOD9363954
_publ_section_title
;
Structure prediction by ZEFSAII (Michael W. Deem and Ramdas Pophale) SiO2 
 PCOD9363954
Probable space group: A M A 2
;
_chemical_formula_sum "Si O2"
_cell_formula_units_Z 48
_cell_length_a 18.708301
_cell_length_b 13.872553
_cell_length_c 7.014100
_cell_angle_alpha 90.000000
_cell_angle_beta 90.000000
_cell_angle_gamma 90.000000
_cell_volume 1820.382680
_symmetry_space_group_name_H-M "A M A 2"
_symmetry_group_IT_number 40
_symmetry_cell_setting 'orthorhombic'
loop_
_space_group_symop_operation_xyz
x,y,z
-x,-y,z
1/2-x,y,z
1/2+x,-y,z
x,1/2+y,1/2+z
-x,1/2-y,1/2+z
1/2-x,1/2+y,1/2+z
1/2+x,1/2-y,1/2+z
loop_
_atom_site_type_symbol
_atom_site_label
_atom_site_fract_x
_atom_site_fract_y
_atom_site_fract_z
Si Si1 0.331111 0.061363 0.487510
Si Si2 0.334404 0.720032 0.514773
Si Si3 0.959345 0.599397 0.335300
Si Si4 0.941721 0.305220 0.855647
Si Si5 0.173179 0.496692 0.414309
Si Si6 0.919250 0.106916 0.382758
O O1 0.250000 0.091216 0.431104
O O2 0.391103 0.144085 0.512434
O O3 0.323146 0.003586 0.683547
O O4 0.370932 0.987129 0.345696
O O5 0.250000 0.739653 0.539302
O O6 0.381019 0.724433 0.705659
O O7 0.341926 0.608024 0.460104
O O8 0.367978 0.800202 0.376735
O O9 0.983861 0.705804 0.395495
O O10 0.885827 0.582517 0.448903
O O11 0.947538 0.600172 0.105238
O O12 0.000000 0.500000 0.372590
O O13 0.004047 0.377022 0.784676
O O14 0.250000 0.470181 0.494061
#
# Coordination Sequence:
#
# PCOD9363954 Si02
#       6
#     8   8   8   8   8   8
#     4  10  20  37  61  88 117 156 203 247 296 366
#     4  10  21  39  61  89 124 160 198 251 315 372
#     4  10  20  36  57  81 113 153 196 239 289 353
#     4  11  22  35  59  89 120 153 198 257 309 357
#     4   9  19  37  61  84 113 154 199 240 289 362
#     4  10  20  36  59  85 115 156 201 246 296 360
#
# _framework density 26.368081
#
# number of rings (size 3 to 8) (size 9 to 14) (size 15 to 20)
#    0.000    2.000    0.000    4.500    0.000    6.000 
#    0.000   10.000    0.000    4.000    0.000    0.000 
#    0.000    0.000    0.000    0.000    0.000    0.000 
#
# Total GULP energy -134107.565379 kJ/mol
# GULP energy per Si atom -5587.815224 kJ/mol
# Density = 2.630807 g / cm^3
# Si number density = 26.368081 Si / 1000 Ang^3
#
#
#
# Elastic Constant Matrix: (Units=GPa)
#
#
# Indices 1 2 3 4 5 6 
#
# 1 169.9932 69.9569 -0.6439 0.0000 0.0000 0.0000
# 2 69.9569 111.8790 -11.6212 0.0000 0.0000 0.0000
# 3 -0.6439 -11.6212 40.3523 0.0000 0.0000 0.0000
# 4 0.0000 0.0000 0.0000 35.2699 0.0000 0.0000
# 5 0.0000 0.0000 0.0000 0.0000 20.9568 0.0000
# 6 0.0000 0.0000 0.0000 0.0000 0.0000 40.7508
#
#
#
# Elastic Compliance Matrix: (Units=1/GPa)
#
#
# Indices 1 2 3 4 5 6 
#
# 1 0.007992 -0.005138 -0.001352 0.000000 0.000000 0.000000
# 2 -0.005138 0.012517 0.003523 0.000000 0.000000 0.000000
# 3 -0.001352 0.003523 0.025775 0.000000 0.000000 0.000000
# 4 0.000000 0.000000 0.000000 0.028353 0.000000 0.000000
# 5 0.000000 0.000000 0.000000 0.000000 0.047717 0.000000
# 6 0.000000 0.000000 0.000000 0.000000 0.000000 0.024539
#
#
# Mechanical properties :
#
#
# Convention : Reuss Voigt Hill
#
# Bulk Modulus (GPa) = 24.78365 48.62310 36.70338
# Shear Modulus (GPa) = 30.07049 37.03102 33.55075
#
# Velocity S-wave (km/s) = 3.38066 3.75158 3.57094
# Velocity P-wave (km/s) = 4.96568 6.10295 5.56345
#
# Compressibility (1/GPa) = 0.04034918
#
# Stress axis : x y z
#
# Youngs Moduli (GPa) = 125.12931 79.89363 38.79777
#
# Poissons Ratio (x) = 0.41046 0.05246
# Poissons Ratio (y) = 0.64286 -0.13667
# Poissons Ratio (z) = 0.16918 -0.28144
#
# Static dielectric constant tensor:
#      x y z
#    x 2.090510 0.000000 0.000000 
#    y 0.000000 2.087160 0.000000 
#    z 0.000000 0.000000 2.204450 
# 
# From -- ./inp_files/7462.got.cif
#   From: 2010.05.17/outbox.cif.g08.bks.cpg/sg40_4_cif.got.tgz:7462.got - 2010.06.03 18:35:42.
