data_PCOD9363609
_publ_section_title
;
Structure prediction by ZEFSAII (Michael W. Deem and Ramdas Pophale) SiO2 
 PCOD9363609
Probable space group: A M A 2
;
_chemical_formula_sum "Si O2"
_cell_formula_units_Z 64
_cell_length_a 8.887148
_cell_length_b 14.657033
_cell_length_c 28.386799
_cell_angle_alpha 90.000000
_cell_angle_beta 90.000000
_cell_angle_gamma 90.000000
_cell_volume 3697.642339
_symmetry_space_group_name_H-M "A M A 2"
_symmetry_group_IT_number 40
_symmetry_cell_setting 'orthorhombic'
loop_
_space_group_symop_operation_xyz
x,y,z
-x,-y,z
1/2-x,y,z
1/2+x,-y,z
x,1/2+y,1/2+z
-x,1/2-y,1/2+z
1/2-x,1/2+y,1/2+z
1/2+x,1/2-y,1/2+z
loop_
_atom_site_type_symbol
_atom_site_label
_atom_site_fract_x
_atom_site_fract_y
_atom_site_fract_z
Si Si1 0.429177 0.400455 0.851250
Si Si2 0.930880 0.793547 0.266943
Si Si3 0.429315 0.400284 0.961511
Si Si4 0.931315 0.282505 0.042779
Si Si5 0.927416 0.591900 0.234244
Si Si6 0.580332 0.355335 0.141157
Si Si7 0.429246 0.593656 0.577903
Si Si8 0.421137 0.856068 0.173597
O O1 0.500000 0.500000 0.842484
O O2 0.250000 0.403256 0.843097
O O3 0.506627 0.330034 0.816011
O O4 0.455076 0.378618 0.906327
O O5 0.750000 0.799524 0.264656
O O6 0.975246 0.687727 0.257800
O O7 0.002667 0.853300 0.224645
O O8 0.500000 0.500000 0.970404
O O9 0.250000 0.403253 0.969581
O O10 0.506216 0.327507 0.995669
O O11 0.750000 0.274535 0.042561
O O12 0.970487 0.348777 0.087133
O O13 0.002601 0.183634 0.053226
O O14 0.750000 0.585314 0.238375
O O15 0.000000 0.500000 0.254075
O O16 0.973643 0.599339 0.179314
O O17 0.750000 0.393554 0.144073
O O18 0.588640 0.249667 0.157397
O O19 0.500000 0.500000 0.558695
O O20 0.250000 0.593218 0.574185
O O21 0.479595 0.599765 0.632700
O O22 0.250000 0.892442 0.174642
#
# Coordination Sequence:
#
# PCOD9363609 Si02
#       8
#     8   8   8   8   8   8   8   8
#     4  10  21  37  57  80 105 133 167 211 263 317
#     4  10  20  34  53  78 105 136 175 217 263 313
#     4  10  21  37  57  81 106 134 169 212 264 319
#     4  10  20  35  55  79 106 139 177 217 263 312
#     4  10  20  32  49  73 103 139 176 212 251 298
#     4   8  16  30  47  68  97 131 167 206 247 292
#     4  11  21  34  52  76 108 144 181 219 259 307
#     4   9  17  31  49  71 100 134 172 212 254 300
#
# _framework density 17.308325
#
# number of rings (size 3 to 8) (size 9 to 14) (size 15 to 20)
#    0.000    2.250    0.000    4.125    0.000    7.500 
#    0.000    2.500    0.000    0.750    0.000    1.750 
#    0.000    0.000    0.000    0.000    0.000    0.000 
#
# Total GULP energy -178534.419156 kJ/mol
# GULP energy per Si atom -5579.200599 kJ/mol
# Density = 1.726893 g / cm^3
# Si number density = 17.308325 Si / 1000 Ang^3
#
#
#
# Elastic Constant Matrix: (Units=GPa)
#
#
# Indices 1 2 3 4 5 6 
#
# 1 97.1663 53.2608 55.2243 0.0000 0.0000 0.0000
# 2 53.2608 97.4196 62.7148 0.0000 0.0000 0.0000
# 3 55.2243 62.7148 92.1253 0.0000 0.0000 0.0000
# 4 0.0000 0.0000 0.0000 21.8213 0.0000 0.0000
# 5 0.0000 0.0000 0.0000 0.0000 28.2072 0.0000
# 6 0.0000 0.0000 0.0000 0.0000 0.0000 27.9970
#
#
#
# Elastic Compliance Matrix: (Units=1/GPa)
#
#
# Indices 1 2 3 4 5 6 
#
# 1 0.016785 -0.004805 -0.006791 0.000000 0.000000 0.000000
# 2 -0.004805 0.019648 -0.010495 0.000000 0.000000 0.000000
# 3 -0.006791 -0.010495 0.022070 0.000000 0.000000 0.000000
# 4 0.000000 0.000000 0.000000 0.045827 0.000000 0.000000
# 5 0.000000 0.000000 0.000000 0.000000 0.035452 0.000000
# 6 0.000000 0.000000 0.000000 0.000000 0.000000 0.035718
#
#
# Mechanical properties :
#
#
# Convention : Reuss Voigt Hill
#
# Bulk Modulus (GPa) = 69.82556 69.90124 69.86340
# Shear Modulus (GPa) = 22.27607 23.30585 22.79096
#
# Velocity S-wave (km/s) = 3.59139 3.67346 3.63266
# Velocity P-wave (km/s) = 7.59126 7.64631 7.61883
#
# Compressibility (1/GPa) = 0.01432140
#
# Stress axis : x y z
#
# Youngs Moduli (GPa) = 59.57736 50.89482 45.31002
#
# Poissons Ratio (x) = 0.24455 0.30768
# Poissons Ratio (y) = 0.28627 0.47555
# Poissons Ratio (z) = 0.40457 0.53416
#
# Static dielectric constant tensor:
#      x y z
#    x 1.584440 0.000000 0.000000 
#    y 0.000000 1.604300 0.000000 
#    z 0.000000 0.000000 1.574240 
# 
# From -- ./inp_files/24292.got.cif
#   From: 2010.05.17/outbox.cif.g08.bks.cpg/sg40_13_cif.got.tgz:24292.got - 2010.06.03 18:35:42.
