data_PCOD9363898
_publ_section_title
;
Structure prediction by ZEFSAII (Michael W. Deem and Ramdas Pophale) SiO2 
 PCOD9363898
Probable space group: A M A 2
;
_chemical_formula_sum "Si O2"
_cell_formula_units_Z 48
_cell_length_a 8.729600
_cell_length_b 22.977942
_cell_length_c 11.773728
_cell_angle_alpha 90.000000
_cell_angle_beta 90.000000
_cell_angle_gamma 90.000000
_cell_volume 2361.671407
_symmetry_space_group_name_H-M "A M A 2"
_symmetry_group_IT_number 40
_symmetry_cell_setting 'orthorhombic'
loop_
_space_group_symop_operation_xyz
x,y,z
-x,-y,z
1/2-x,y,z
1/2+x,-y,z
x,1/2+y,1/2+z
-x,1/2-y,1/2+z
1/2-x,1/2+y,1/2+z
1/2+x,1/2-y,1/2+z
loop_
_atom_site_type_symbol
_atom_site_label
_atom_site_fract_x
_atom_site_fract_y
_atom_site_fract_z
Si Si1 0.569245 0.639338 0.780780
Si Si2 0.924722 0.340082 0.152810
Si Si3 0.434167 0.262006 0.957081
Si Si4 0.924394 0.439638 0.968825
Si Si5 0.068243 0.360947 0.395385
Si Si6 0.932022 0.936329 0.083070
O O1 0.750000 0.642774 0.757724
O O2 0.521680 0.699332 0.844900
O O3 0.529969 0.591136 0.875532
O O4 0.485534 0.614383 0.670211
O O5 0.750000 0.321855 0.181456
O O6 0.017404 0.354631 0.265249
O O7 0.917959 0.397681 0.076339
O O8 0.003328 0.293331 0.069943
O O9 0.250000 0.259800 0.960147
O O10 0.506165 0.198697 0.949964
O O11 0.750000 0.446321 0.924735
O O12 0.000000 0.500000 0.999595
O O13 0.250000 0.364857 0.406216
O O14 0.992058 0.414949 0.460681
O O15 0.750000 0.940257 0.084454
O O16 0.000000 0.000000 0.112904
#
# Coordination Sequence:
#
# PCOD9363898 Si02
#       6
#     8   8   8   8   8   8
#     4  10  21  39  64  94 128 165 210 262 317 375
#     4  10  22  41  62  89 124 161 208 260 314 377
#     4  10  22  41  66  95 127 164 211 265 323 383
#     4  10  20  35  59  89 122 161 204 254 309 366
#     4  12  26  43  65  92 127 169 213 261 322 387
#     4  12  26  45  67  93 130 172 221 268 324 388
#
# _framework density 20.324587999999999
#
# number of rings (size 3 to 8) (size 9 to 14) (size 15 to 20)
#    0.000    1.333    0.000    5.500    2.333    4.667 
#    0.000    1.667    0.000    0.000    0.000    0.000 
#    0.000    0.000    0.000    0.000    0.000    0.000 
#
# Total GULP energy -134173.661272 kJ/mol
# GULP energy per Si atom -5590.569220 kJ/mol
# Density = 2.027833 g / cm^3
# Si number density = 20.324588 Si / 1000 Ang^3
#
#
#
# Elastic Constant Matrix: (Units=GPa)
#
#
# Indices 1 2 3 4 5 6 
#
# 1 104.9262 38.2517 0.8195 0.0000 0.0000 0.0000
# 2 38.2517 48.9915 28.2353 0.0000 0.0000 0.0000
# 3 0.8195 28.2353 55.7294 0.0000 0.0000 0.0000
# 4 0.0000 0.0000 0.0000 5.0333 0.0000 0.0000
# 5 0.0000 0.0000 0.0000 0.0000 31.1967 0.0000
# 6 0.0000 0.0000 0.0000 0.0000 0.0000 8.4119
#
#
#
# Elastic Compliance Matrix: (Units=1/GPa)
#
#
# Indices 1 2 3 4 5 6 
#
# 1 0.015713 -0.017140 0.008453 0.000000 0.000000 0.000000
# 2 -0.017140 0.047527 -0.023827 0.000000 0.000000 0.000000
# 3 0.008453 -0.023827 0.029892 0.000000 0.000000 0.000000
# 4 0.000000 0.000000 0.000000 0.198678 0.000000 0.000000
# 5 0.000000 0.000000 0.000000 0.000000 0.032055 0.000000
# 6 0.000000 0.000000 0.000000 0.000000 0.000000 0.118880
#
#
# Mechanical properties :
#
#
# Convention : Reuss Voigt Hill
#
# Bulk Modulus (GPa) = 35.58413 38.25115 36.91764
# Shear Modulus (GPa) = 9.66855 18.41774 14.04315
#
# Velocity S-wave (km/s) = 2.18344 3.01355 2.63143
# Velocity P-wave (km/s) = 4.88901 5.56504 5.23794
#
# Compressibility (1/GPa) = 0.02810242
#
# Stress axis : x y z
#
# Youngs Moduli (GPa) = 63.64114 21.04067 33.45406
#
# Poissons Ratio (x) = 0.36064 -0.28279
# Poissons Ratio (y) = 1.09083 0.79713
# Poissons Ratio (z) = -0.53796 0.50135
#
# Static dielectric constant tensor:
#      x y z
#    x 1.695950 0.000000 0.000000 
#    y 0.000000 1.712340 0.000000 
#    z 0.000000 0.000000 1.746880 
# 
# From -- ./inp_files/10239.got.cif
#   From: 2010.05.17/outbox.cif.g08.bks.cpg/sg40_6_cif.got.tgz:10239.got - 2010.06.03 18:35:42.
