data_PCOD9363353
_publ_section_title
;
Structure prediction by ZEFSAII (Michael W. Deem and Ramdas Pophale) SiO2 
 PCOD9363353
Probable space group: A M A 2
;
_chemical_formula_sum "Si O2"
_cell_formula_units_Z 56
_cell_length_a 8.863790
_cell_length_b 19.268337
_cell_length_c 17.946831
_cell_angle_alpha 90.000000
_cell_angle_beta 90.000000
_cell_angle_gamma 90.000000
_cell_volume 3065.148111
_symmetry_space_group_name_H-M "A M A 2"
_symmetry_group_IT_number 40
_symmetry_cell_setting 'orthorhombic'
loop_
_space_group_symop_operation_xyz
x,y,z
-x,-y,z
1/2-x,y,z
1/2+x,-y,z
x,1/2+y,1/2+z
-x,1/2-y,1/2+z
1/2-x,1/2+y,1/2+z
1/2+x,1/2-y,1/2+z
loop_
_atom_site_type_symbol
_atom_site_label
_atom_site_fract_x
_atom_site_fract_y
_atom_site_fract_z
Si Si1 0.078546 0.792428 0.516480
Si Si2 0.423610 0.298790 0.765712
Si Si3 0.071040 0.070975 0.529564
Si Si4 0.579408 0.344989 0.615454
Si Si5 0.570361 0.707361 0.385018
Si Si6 0.574930 0.565469 0.866866
Si Si7 0.932644 0.924057 0.968256
O O1 0.250000 0.810745 0.492580
O O2 0.086988 0.727236 0.570756
O O3 0.001921 0.857474 0.556983
O O4 0.985119 0.764184 0.445988
O O5 0.250000 0.276687 0.759624
O O6 0.482137 0.328019 0.687429
O O7 0.516490 0.237106 0.805314
O O8 0.432314 0.365005 0.820140
O O9 0.250000 0.070509 0.536661
O O10 0.019392 0.072900 0.442835
O O11 0.000000 0.000000 0.560899
O O12 0.750000 0.364811 0.638061
O O13 0.524689 0.399508 0.552698
O O14 0.750000 0.701050 0.387238
O O15 0.495101 0.635100 0.412096
O O16 0.500000 0.500000 0.825696
O O17 0.750000 0.550404 0.884388
O O18 0.750000 0.924079 0.964651
O O19 0.000000 0.000000 0.953240
#
# Coordination Sequence:
#
# PCOD9363353 Si02
#       7
#     8   8   8   8   8   8   8
#     4  10  19  35  54  76 106 138 178 228 273 320
#     4  11  22  35  53  78 112 149 186 231 278 331
#     4  11  20  30  49  75 102 136 172 214 259 312
#     4   9  21  37  55  78 109 146 182 226 278 335
#     4  11  21  34  57  83 108 144 188 232 281 334
#     4  10  20  32  47  70 104 140 174 215 258 307
#     4  10  21  39  61  86 116 149 190 239 288 340
#
# _framework density 18.269918000000001
#
# number of rings (size 3 to 8) (size 9 to 14) (size 15 to 20)
#    0.000    1.714    1.429    6.000    0.000    5.714 
#    0.000    2.857    0.000    0.857    0.000    2.000 
#    0.000    0.000    0.000    0.000    0.000    0.000 
#
# Total GULP energy -156175.440157 kJ/mol
# GULP energy per Si atom -5577.694291 kJ/mol
# Density = 1.822833 g / cm^3
# Si number density = 18.269918 Si / 1000 Ang^3
#
#
#
# Elastic Constant Matrix: (Units=GPa)
#
#
# Indices 1 2 3 4 5 6 
#
# 1 123.8225 41.4685 18.8344 0.0000 0.0000 0.0000
# 2 41.4685 112.8230 2.8388 0.0000 0.0000 0.0000
# 3 18.8344 2.8388 30.1191 0.0000 0.0000 0.0000
# 4 0.0000 0.0000 0.0000 10.1760 0.0000 0.0000
# 5 0.0000 0.0000 0.0000 0.0000 22.6152 0.0000
# 6 0.0000 0.0000 0.0000 0.0000 0.0000 56.5458
#
#
#
# Elastic Compliance Matrix: (Units=1/GPa)
#
#
# Indices 1 2 3 4 5 6 
#
# 1 0.010199 -0.003597 -0.006039 0.000000 0.000000 0.000000
# 2 -0.003597 0.010153 0.001292 0.000000 0.000000 0.000000
# 3 -0.006039 0.001292 0.036856 0.000000 0.000000 0.000000
# 4 0.000000 0.000000 0.000000 0.098270 0.000000 0.000000
# 5 0.000000 0.000000 0.000000 0.000000 0.044218 0.000000
# 6 0.000000 0.000000 0.000000 0.000000 0.000000 0.017685
#
#
# Mechanical properties :
#
#
# Convention : Reuss Voigt Hill
#
# Bulk Modulus (GPa) = 24.67839 43.67200 34.17520
# Shear Modulus (GPa) = 20.19587 31.44226 25.81906
#
# Velocity S-wave (km/s) = 3.32839 4.15298 3.76333
# Velocity P-wave (km/s) = 5.32051 6.85215 6.13432
#
# Compressibility (1/GPa) = 0.04052129
#
# Stress axis : x y z
#
# Youngs Moduli (GPa) = 98.04676 98.49364 27.13264
#
# Poissons Ratio (x) = 0.35426 0.16385
# Poissons Ratio (y) = 0.35266 -0.03506
# Poissons Ratio (z) = 0.59209 -0.12728
#
# Static dielectric constant tensor:
#      x y z
#    x 1.636440 0.000000 0.000000 
#    y 0.000000 1.681110 0.000000 
#    z 0.000000 0.000000 1.631240 
# 
# From -- ./inp_files/19472.got.cif
#   From: 2010.05.17/outbox.cif.g08.bks.cpg/sg40_10_cif.got.tgz:19472.got - 2010.06.03 18:35:42.
