data_PCOD9363209
_publ_section_title
;
Structure prediction by ZEFSAII (Michael W. Deem and Ramdas Pophale) SiO2 
 PCOD9363209
Probable space group: A M A 2
;
_chemical_formula_sum "Si O2"
_cell_formula_units_Z 64
_cell_length_a 8.012750
_cell_length_b 25.806959
_cell_length_c 15.298180
_cell_angle_alpha 90.000000
_cell_angle_beta 90.000000
_cell_angle_gamma 90.000000
_cell_volume 3163.429726
_symmetry_space_group_name_H-M "A M A 2"
_symmetry_group_IT_number 40
_symmetry_cell_setting 'orthorhombic'
loop_
_space_group_symop_operation_xyz
x,y,z
-x,-y,z
1/2-x,y,z
1/2+x,-y,z
x,1/2+y,1/2+z
-x,1/2-y,1/2+z
1/2-x,1/2+y,1/2+z
1/2+x,1/2-y,1/2+z
loop_
_atom_site_type_symbol
_atom_site_label
_atom_site_fract_x
_atom_site_fract_y
_atom_site_fract_z
Si Si1 0.447328 0.345822 0.431320
Si Si2 0.944947 0.337307 0.233844
Si Si3 0.450971 0.632993 0.051349
Si Si4 0.048671 0.889296 0.218007
Si Si5 0.051594 0.724214 0.742246
Si Si6 0.550861 0.559694 0.897169
Si Si7 0.048793 0.942009 0.042223
Si Si8 0.546722 0.267839 0.945964
O O1 0.250000 0.344674 0.449932
O O2 0.468739 0.346213 0.326716
O O3 0.515246 0.397040 0.477528
O O4 0.515391 0.290355 0.464589
O O5 0.750000 0.348222 0.247158
O O6 0.011039 0.369572 0.151209
O O7 0.965503 0.276515 0.209088
O O8 0.250000 0.636936 0.056201
O O9 0.492254 0.586610 0.986230
O O10 0.515145 0.686030 0.006710
O O11 0.250000 0.890409 0.220091
O O12 0.985193 0.909162 0.312050
O O13 0.991687 0.926531 0.139819
O O14 0.997017 0.830177 0.200080
O O15 0.250000 0.731810 0.736928
O O16 0.004391 0.720114 0.845088
O O17 0.500000 0.500000 0.891843
O O18 0.750000 0.562775 0.895068
O O19 0.250000 0.940351 0.042049
O O20 0.000000 0.000000 0.018390
O O21 0.750000 0.267339 0.950823
#
# Coordination Sequence:
#
# PCOD9363209 Si02
#       8
#     8   8   8   8   8   8   8   8
#     4   9  19  37  59  81 110 151 192 234 286 337
#     4  10  21  35  57  85 116 150 186 236 286 336
#     4  10  20  36  58  83 113 153 192 231 281 337
#     4  10  21  36  56  85 116 148 188 233 281 334
#     4  10  19  33  55  82 115 154 188 224 274 336
#     4  11  23  38  58  84 116 152 189 236 281 334
#     4  10  22  39  60  83 112 150 192 238 285 339
#     4   8  15  30  53  79 106 142 184 221 268 331
#
# _framework density 20.231207000000001
#
# number of rings (size 3 to 8) (size 9 to 14) (size 15 to 20)
#    0.000    2.250    1.250    2.250    1.750    2.500 
#    0.000    0.625    0.000    1.500    0.000    0.000 
#    0.000    0.000    0.000    0.000    0.000    0.000 
#
# Total GULP energy -178638.960242 kJ/mol
# GULP energy per Si atom -5582.467508 kJ/mol
# Density = 2.018516 g / cm^3
# Si number density = 20.231207 Si / 1000 Ang^3
#
#
#
# Elastic Constant Matrix: (Units=GPa)
#
#
# Indices 1 2 3 4 5 6 
#
# 1 13.0169 -6.4834 -4.8632 0.0000 0.0000 0.0000
# 2 -6.4834 104.1880 27.3979 0.0000 0.0000 0.0000
# 3 -4.8632 27.3979 44.3749 0.0000 0.0000 0.0000
# 4 0.0000 0.0000 0.0000 35.3730 0.0000 0.0000
# 5 0.0000 0.0000 0.0000 0.0000 13.1621 0.0000
# 6 0.0000 0.0000 0.0000 0.0000 0.0000 22.5883
#
#
#
# Elastic Compliance Matrix: (Units=1/GPa)
#
#
# Indices 1 2 3 4 5 6 
#
# 1 0.081004 0.003231 0.006883 0.000000 0.000000 0.000000
# 2 0.003231 0.011587 -0.006800 0.000000 0.000000 0.000000
# 3 0.006883 -0.006800 0.027488 0.000000 0.000000 0.000000
# 4 0.000000 0.000000 0.000000 0.028270 0.000000 0.000000
# 5 0.000000 0.000000 0.000000 0.000000 0.075976 0.000000
# 6 0.000000 0.000000 0.000000 0.000000 0.000000 0.044271
#
#
# Mechanical properties :
#
#
# Convention : Reuss Voigt Hill
#
# Bulk Modulus (GPa) = 7.89228 21.52026 14.70627
# Shear Modulus (GPa) = 16.43631 23.92658 20.18144
#
# Velocity S-wave (km/s) = 2.85340 3.44271 3.16181
# Velocity P-wave (km/s) = 3.84257 5.14424 4.54030
#
# Compressibility (1/GPa) = 0.12670604
#
# Stress axis : x y z
#
# Youngs Moduli (GPa) = 12.34509 86.30150 36.37935
#
# Poissons Ratio (x) = -0.27882 -0.25039
# Poissons Ratio (y) = -0.03988 0.24738
# Poissons Ratio (z) = -0.08497 0.58686
#
# Static dielectric constant tensor:
#      x y z
#    x 1.723360 0.000000 0.000000 
#    y 0.000000 1.686970 0.000000 
#    z 0.000000 0.000000 1.736730 
# 
# From -- ./inp_files/15570.got.cif
#   From: 2010.05.17/outbox.cif.g08.bks.cpg/sg40_8_cif.got.tgz:15570.got - 2010.06.03 18:35:42.
