data_PCOD9363869
_publ_section_title
;
Structure prediction by ZEFSAII (Michael W. Deem and Ramdas Pophale) SiO2 
 PCOD9363869
Probable space group: A M A 2
;
_chemical_formula_sum "Si O2"
_cell_formula_units_Z 64
_cell_length_a 8.777643
_cell_length_b 25.608977
_cell_length_c 15.239405
_cell_angle_alpha 90.000000
_cell_angle_beta 90.000000
_cell_angle_gamma 90.000000
_cell_volume 3425.611867
_symmetry_space_group_name_H-M "A M A 2"
_symmetry_group_IT_number 40
_symmetry_cell_setting 'orthorhombic'
loop_
_space_group_symop_operation_xyz
x,y,z
-x,-y,z
1/2-x,y,z
1/2+x,-y,z
x,1/2+y,1/2+z
-x,1/2-y,1/2+z
1/2-x,1/2+y,1/2+z
1/2+x,1/2-y,1/2+z
loop_
_atom_site_type_symbol
_atom_site_label
_atom_site_fract_x
_atom_site_fract_y
_atom_site_fract_z
Si Si1 0.568442 0.217417 0.275060
Si Si2 0.431052 0.164995 0.738038
Si Si3 0.433546 0.155040 0.942597
Si Si4 0.567023 0.444200 0.557631
Si Si5 0.933524 0.889833 0.236091
Si Si6 0.431150 0.734037 0.967030
Si Si7 0.569727 0.136041 0.563626
Si Si8 0.567179 0.942034 0.421955
O O1 0.750000 0.214630 0.291022
O O2 0.537900 0.272840 0.229078
O O3 0.510730 0.166469 0.225292
O O4 0.481888 0.219186 0.368106
O O5 0.250000 0.157285 0.725857
O O6 0.469219 0.151639 0.838882
O O7 0.520185 0.133156 0.664869
O O8 0.250000 0.161690 0.949795
O O9 0.511601 0.206950 0.980393
O O10 0.479170 0.103018 0.993745
O O11 0.500000 0.500000 0.533778
O O12 0.750000 0.447403 0.554742
O O13 0.522658 0.427666 0.656456
O O14 0.750000 0.883313 0.234382
O O15 0.976695 0.914002 0.330197
O O16 0.250000 0.730633 0.976115
O O17 0.509640 0.691837 0.029091
O O18 0.750000 0.133048 0.554287
O O19 0.493467 0.092404 0.502394
O O20 0.750000 0.944126 0.424914
O O21 0.500000 0.000000 0.424247
#
# Coordination Sequence:
#
# PCOD9363869 Si02
#       8
#     8   8   8   8   8   8   8   8
#     4  10  20  35  57  86 121 158 197 237 290 354
#     4   9  20  38  58  84 120 157 195 247 303 353
#     4   9  20  40  62  86 118 156 199 249 301 354
#     4  10  22  40  61  88 119 155 201 248 297 352
#     4  10  21  36  57  87 122 160 198 240 292 351
#     4  11  21  35  57  86 120 155 194 241 296 356
#     4  12  24  38  59  87 119 159 203 248 297 355
#     4  11  23  40  61  86 120 160 201 248 296 354
#
# _framework density 18.682794000000001
#
# number of rings (size 3 to 8) (size 9 to 14) (size 15 to 20)
#    0.000    1.750    1.250    4.125    1.750    4.000 
#    0.000    0.625    0.000    1.500    0.000    0.000 
#    0.000    0.000    0.000    0.000    0.000    0.000 
#
# Total GULP energy -178820.697941 kJ/mol
# GULP energy per Si atom -5588.146811 kJ/mol
# Density = 1.864027 g / cm^3
# Si number density = 18.682794 Si / 1000 Ang^3
#
#
#
# Elastic Constant Matrix: (Units=GPa)
#
#
# Indices 1 2 3 4 5 6 
#
# 1 54.4091 34.9944 32.4535 0.0000 0.0000 0.0000
# 2 34.9944 123.6931 49.4891 0.0000 0.0000 0.0000
# 3 32.4535 49.4891 70.4206 0.0000 0.0000 0.0000
# 4 0.0000 0.0000 0.0000 26.1384 0.0000 0.0000
# 5 0.0000 0.0000 0.0000 0.0000 13.1154 0.0000
# 6 0.0000 0.0000 0.0000 0.0000 0.0000 35.6758
#
#
#
# Elastic Compliance Matrix: (Units=1/GPa)
#
#
# Indices 1 2 3 4 5 6 
#
# 1 0.026467 -0.003628 -0.009648 0.000000 0.000000 0.000000
# 2 -0.003628 0.011744 -0.006581 0.000000 0.000000 0.000000
# 3 -0.009648 -0.006581 0.023272 0.000000 0.000000 0.000000
# 4 0.000000 0.000000 0.000000 0.038258 0.000000 0.000000
# 5 0.000000 0.000000 0.000000 0.000000 0.076247 0.000000
# 6 0.000000 0.000000 0.000000 0.000000 0.000000 0.028030
#
#
# Mechanical properties :
#
#
# Convention : Reuss Voigt Hill
#
# Bulk Modulus (GPa) = 45.93738 53.59964 49.76851
# Shear Modulus (GPa) = 19.92120 23.75828 21.83974
#
# Velocity S-wave (km/s) = 3.26895 3.56991 3.42274
# Velocity P-wave (km/s) = 6.23614 6.76343 6.50513
#
# Compressibility (1/GPa) = 0.02176877
#
# Stress axis : x y z
#
# Youngs Moduli (GPa) = 37.78239 85.14913 42.97022
#
# Poissons Ratio (x) = 0.30891 0.41458
# Poissons Ratio (y) = 0.13707 0.28281
# Poissons Ratio (z) = 0.36453 0.56041
#
# Static dielectric constant tensor:
#      x y z
#    x 1.625730 0.000000 0.000000 
#    y 0.000000 1.619460 0.000000 
#    z 0.000000 0.000000 1.662130 
# 
# From -- ./inp_files/15661.got.cif
#   From: 2010.05.17/outbox.cif.g08.bks.cpg/sg40_8_cif.got.tgz:15661.got - 2010.06.03 18:35:42.
