data_PCOD9363714
_publ_section_title
;
Structure prediction by ZEFSAII (Michael W. Deem and Ramdas Pophale) SiO2 
 PCOD9363714
Probable space group: A M A 2
;
_chemical_formula_sum "Si O2"
_cell_formula_units_Z 40
_cell_length_a 8.633498
_cell_length_b 21.284350
_cell_length_c 12.869246
_cell_angle_alpha 90.000000
_cell_angle_beta 90.000000
_cell_angle_gamma 90.000000
_cell_volume 2364.831966
_symmetry_space_group_name_H-M "A M A 2"
_symmetry_group_IT_number 40
_symmetry_cell_setting 'orthorhombic'
loop_
_space_group_symop_operation_xyz
x,y,z
-x,-y,z
1/2-x,y,z
1/2+x,-y,z
x,1/2+y,1/2+z
-x,1/2-y,1/2+z
1/2-x,1/2+y,1/2+z
1/2+x,1/2-y,1/2+z
loop_
_atom_site_type_symbol
_atom_site_label
_atom_site_fract_x
_atom_site_fract_y
_atom_site_fract_z
Si Si1 0.064436 0.833059 0.704530
Si Si2 0.565063 0.197331 0.267673
Si Si3 0.934891 0.334928 0.552075
Si Si4 0.064553 0.430016 0.385080
Si Si5 0.935094 0.301576 0.989462
O O1 0.250000 0.824262 0.701141
O O2 0.028344 0.890477 0.780734
O O3 0.989546 0.769463 0.750318
O O4 0.999841 0.839504 0.588212
O O5 0.750000 0.194643 0.264174
O O6 0.493377 0.160100 0.170465
O O7 0.502211 0.176684 0.379430
O O8 0.750000 0.329117 0.549575
O O9 0.991002 0.391674 0.480493
O O10 0.008339 0.270200 0.508313
O O11 0.250000 0.430829 0.397037
O O12 0.000000 0.500000 0.379534
O O13 0.750000 0.302539 0.988333
#
# Coordination Sequence:
#
# PCOD9363714 Si02
#       5
#     8   8   8   8   8
#     4  10  20  34  52  77 108 141 180 222 269 322
#     4  11  20  32  53  79 110 143 176 220 275 326
#     4  11  21  34  53  78 109 142 181 223 273 324
#     4  11  23  38  57  79 110 146 186 226 266 320
#     4  11  20  32  52  79 111 142 176 221 274 326
#
# _framework density 16.914522000000002
#
# number of rings (size 3 to 8) (size 9 to 14) (size 15 to 20)
#    0.000    1.200    2.000    9.000    0.000    2.400 
#    0.000    0.000    0.000    1.200    0.000    5.600 
#    0.000    0.000    0.000    0.000    0.000    0.000 
#
# Total GULP energy -111757.210197 kJ/mol
# GULP energy per Si atom -5587.860510 kJ/mol
# Density = 1.687602 g / cm^3
# Si number density = 16.914522 Si / 1000 Ang^3
#
#
#
# Elastic Constant Matrix: (Units=GPa)
#
#
# Indices 1 2 3 4 5 6 
#
# 1 132.1937 43.0784 60.9589 0.0000 0.0000 0.0000
# 2 43.0784 84.0246 56.7811 0.0000 0.0000 0.0000
# 3 60.9589 56.7811 167.3311 0.0000 0.0000 0.0000
# 4 0.0000 0.0000 0.0000 18.0287 0.0000 0.0000
# 5 0.0000 0.0000 0.0000 0.0000 38.0792 0.0000
# 6 0.0000 0.0000 0.0000 0.0000 0.0000 -0.1900
#
#
#
# Elastic Compliance Matrix: (Units=1/GPa)
#
#
# Indices 1 2 3 4 5 6 
#
# 1 0.009781 -0.003382 -0.002415 0.000000 0.000000 0.000000
# 2 -0.003382 0.016612 -0.004405 0.000000 0.000000 0.000000
# 3 -0.002415 -0.004405 0.008351 0.000000 0.000000 0.000000
# 4 0.000000 0.000000 0.000000 0.055467 0.000000 0.000000
# 5 0.000000 0.000000 0.000000 0.000000 0.026261 0.000000
# 6 0.000000 0.000000 0.000000 0.000000 0.000000 -5.263701
#
#
# Mechanical properties :
#
#
# Convention : Reuss Voigt Hill
#
# Bulk Modulus (GPa) = 69.74219 78.35403 74.04811
# Shear Modulus (GPa) = -0.97617 26.03230 12.52807
#
# Velocity S-wave (km/s) = -0.76051 3.92733 2.72448
# Velocity P-wave (km/s) = 6.36793 8.18470 7.33280
#
# Compressibility (1/GPa) = 0.01433852
#
# Stress axis : x y z
#
# Youngs Moduli (GPa) = 102.24277 60.19771 119.74849
#
# Poissons Ratio (x) = 0.20360 0.28924
# Poissons Ratio (y) = 0.34580 0.52748
# Poissons Ratio (z) = 0.24696 0.26516
#
# Static dielectric constant tensor:
#      x y z
#    x 1.561600 0.000000 0.000000 
#    y 0.000000 1.531430 0.000000 
#    z 0.000000 0.000000 1.597820 
# 
# From -- ./inp_files/10018.got.cif
#   From: 2010.05.17/outbox.cif.g08.bks.cpg/sg40_6_cif.got.tgz:10018.got - 2010.06.03 18:35:42.
