data_PCOD9363868
_publ_section_title
;
Structure prediction by ZEFSAII (Michael W. Deem and Ramdas Pophale) SiO2 
 PCOD9363868
Probable space group: A M A 2
;
_chemical_formula_sum "Si O2"
_cell_formula_units_Z 64
_cell_length_a 8.770307
_cell_length_b 25.562810
_cell_length_c 15.335888
_cell_angle_alpha 90.000000
_cell_angle_beta 90.000000
_cell_angle_gamma 90.000000
_cell_volume 3438.209343
_symmetry_space_group_name_H-M "A M A 2"
_symmetry_group_IT_number 40
_symmetry_cell_setting 'orthorhombic'
loop_
_space_group_symop_operation_xyz
x,y,z
-x,-y,z
1/2-x,y,z
1/2+x,-y,z
x,1/2+y,1/2+z
-x,1/2-y,1/2+z
1/2-x,1/2+y,1/2+z
1/2+x,1/2-y,1/2+z
loop_
_atom_site_type_symbol
_atom_site_label
_atom_site_fract_x
_atom_site_fract_y
_atom_site_fract_z
Si Si1 0.932300 0.280262 0.365950
Si Si2 0.930887 0.556266 0.580667
Si Si3 0.067038 0.838461 0.388546
Si Si4 0.067181 0.147437 0.198457
Si Si5 0.066989 0.606259 0.411214
Si Si6 0.065385 0.366700 0.075871
Si Si7 0.566704 0.735675 0.176029
Si Si8 0.432396 0.058054 0.722092
O O1 0.750000 0.283708 0.352222
O O2 0.963255 0.223360 0.406098
O O3 0.975399 0.332341 0.418165
O O4 0.011685 0.280461 0.272065
O O5 0.750000 0.553882 0.584868
O O6 0.000000 0.500000 0.602929
O O7 0.993343 0.600748 0.644992
O O8 0.984095 0.572396 0.483765
O O9 0.250000 0.843472 0.375674
O O10 0.022158 0.870573 0.474377
O O11 0.983334 0.853404 0.299550
O O12 0.250000 0.144265 0.191990
O O13 0.016474 0.204471 0.161860
O O14 0.250000 0.601468 0.423786
O O15 0.030293 0.586841 0.313571
O O16 0.250000 0.368993 0.080343
O O17 0.016102 0.309371 0.110326
O O18 0.997613 0.409250 0.141042
O O19 0.750000 0.736472 0.174423
O O20 0.250000 0.055779 0.715672
O O21 0.500000 0.000000 0.723430
#
# Coordination Sequence:
#
# PCOD9363868 Si02
#       8
#     8   8   8   8   8   8   8   8
#     4   9  17  32  55  83 119 157 192 232 282 341
#     4  12  26  43  63  87 115 152 199 249 298 354
#     4   9  19  35  58  86 121 160 197 239 291 345
#     4  10  21  39  62  87 119 155 195 244 296 349
#     4  10  21  37  59  88 121 157 194 237 293 349
#     4  10  20  35  57  86 119 158 198 241 288 342
#     4   9  18  32  55  85 119 156 192 232 284 343
#     4  11  23  39  59  84 116 157 198 244 292 345
#
# _framework density 18.614339000000001
#
# number of rings (size 3 to 8) (size 9 to 14) (size 15 to 20)
#    0.000    2.000    1.250    2.250    1.750    3.500 
#    0.000    0.625    0.000    3.000    0.000    0.000 
#    0.000    0.000    0.000    0.000    0.000    0.000 
#
# Total GULP energy -178667.159567 kJ/mol
# GULP energy per Si atom -5583.348736 kJ/mol
# Density = 1.857197 g / cm^3
# Si number density = 18.614339 Si / 1000 Ang^3
#
#
#
# Elastic Constant Matrix: (Units=GPa)
#
#
# Indices 1 2 3 4 5 6 
#
# 1 44.4697 42.5011 32.1067 0.0000 0.0000 0.0000
# 2 42.5011 114.8492 46.3204 0.0000 0.0000 0.0000
# 3 32.1067 46.3204 71.9551 0.0000 0.0000 0.0000
# 4 0.0000 0.0000 0.0000 28.5966 0.0000 0.0000
# 5 0.0000 0.0000 0.0000 0.0000 28.0650 0.0000
# 6 0.0000 0.0000 0.0000 0.0000 0.0000 24.7292
#
#
#
# Elastic Compliance Matrix: (Units=1/GPa)
#
#
# Indices 1 2 3 4 5 6 
#
# 1 0.040754 -0.010464 -0.011448 0.000000 0.000000 0.000000
# 2 -0.010464 0.014447 -0.004631 0.000000 0.000000 0.000000
# 3 -0.011448 -0.004631 0.021987 0.000000 0.000000 0.000000
# 4 0.000000 0.000000 0.000000 0.034969 0.000000 0.000000
# 5 0.000000 0.000000 0.000000 0.000000 0.035632 0.000000
# 6 0.000000 0.000000 0.000000 0.000000 0.000000 0.040438
#
#
# Mechanical properties :
#
#
# Convention : Reuss Voigt Hill
#
# Bulk Modulus (GPa) = 41.49217 52.57004 47.03110
# Shear Modulus (GPa) = 20.05234 23.63453 21.84343
#
# Velocity S-wave (km/s) = 3.28571 3.56714 3.42932
# Velocity P-wave (km/s) = 6.06081 6.72822 6.40322
#
# Compressibility (1/GPa) = 0.02410093
#
# Stress axis : x y z
#
# Youngs Moduli (GPa) = 24.53770 69.21754 45.48116
#
# Poissons Ratio (x) = 0.72429 0.52068
# Poissons Ratio (y) = 0.25676 0.21063
# Poissons Ratio (z) = 0.28092 0.32056
#
# Static dielectric constant tensor:
#      x y z
#    x 1.625760 0.000000 0.000000 
#    y 0.000000 1.641440 0.000000 
#    z 0.000000 0.000000 1.632630 
# 
# From -- ./inp_files/15600.got.cif
#   From: 2010.05.17/outbox.cif.g08.bks.cpg/sg40_8_cif.got.tgz:15600.got - 2010.06.03 18:35:42.
