data_PCOD9363432
_publ_section_title
;
Structure prediction by ZEFSAII (Michael W. Deem and Ramdas Pophale) SiO2 
 PCOD9363432
Probable space group: A M A 2
;
_chemical_formula_sum "Si O2"
_cell_formula_units_Z 48
_cell_length_a 13.736607
_cell_length_b 10.001068
_cell_length_c 17.322340
_cell_angle_alpha 90.000000
_cell_angle_beta 90.000000
_cell_angle_gamma 90.000000
_cell_volume 2379.755900
_symmetry_space_group_name_H-M "A M A 2"
_symmetry_group_IT_number 40
_symmetry_cell_setting 'orthorhombic'
loop_
_space_group_symop_operation_xyz
x,y,z
-x,-y,z
1/2-x,y,z
1/2+x,-y,z
x,1/2+y,1/2+z
-x,1/2-y,1/2+z
1/2-x,1/2+y,1/2+z
1/2+x,1/2-y,1/2+z
loop_
_atom_site_type_symbol
_atom_site_label
_atom_site_fract_x
_atom_site_fract_y
_atom_site_fract_z
Si Si1 0.367525 0.923847 0.849780
Si Si2 0.367686 0.203482 0.788768
Si Si3 0.368075 0.699532 0.965597
Si Si4 0.528851 0.344329 0.127244
Si Si5 0.367536 0.495954 0.831476
Si Si6 0.365074 0.717368 0.709900
O O1 0.250000 0.932530 0.856305
O O2 0.403017 0.074043 0.836164
O O3 0.398465 0.836452 0.922803
O O4 0.383765 0.834718 0.773050
O O5 0.250000 0.202910 0.788162
O O6 0.404784 0.188723 0.701498
O O7 0.401219 0.343961 0.824489
O O8 0.250000 0.698293 0.972206
O O9 0.395860 0.578808 0.907321
O O10 0.416215 0.683944 0.048139
O O11 0.500000 0.500000 0.129838
O O12 0.432559 0.254026 0.138446
O O13 0.250000 0.493957 0.833289
O O14 0.391496 0.581447 0.754880
O O15 0.250000 0.716094 0.692326
#
# Coordination Sequence:
#
# PCOD9363432 Si02
#       6
#     8   8   8   8   8   8
#     4   8  15  33  62  85 110 151 192 239 290 346
#     4  10  19  35  64  95 118 147 198 249 294 359
#     4   9  19  38  61  87 122 158 196 243 304 361
#     4  12  23  34  56  95 120 158 201 248 306 351
#     4   8  17  37  66  90 113 155 201 247 301 354
#     4   9  18  36  60  85 116 157 202 243 290 353
#
# _framework density 20.170135999999999
#
# number of rings (size 3 to 8) (size 9 to 14) (size 15 to 20)
#    0.000    2.667    1.667    2.500    0.000    1.333 
#    6.000    0.000    7.333    0.000    0.000    1.167 
#    0.000    0.000    0.000    0.000    0.000    0.000 
#
# Total GULP energy -134068.341266 kJ/mol
# GULP energy per Si atom -5586.180886 kJ/mol
# Density = 2.012423 g / cm^3
# Si number density = 20.170136 Si / 1000 Ang^3
#
#
#
# Elastic Constant Matrix: (Units=GPa)
#
#
# Indices 1 2 3 4 5 6 
#
# 1 96.7344 41.9802 48.9263 0.0000 0.0000 0.0000
# 2 41.9802 187.3961 84.8236 0.0000 0.0000 0.0000
# 3 48.9263 84.8236 141.4529 0.0000 0.0000 0.0000
# 4 0.0000 0.0000 0.0000 18.1271 0.0000 0.0000
# 5 0.0000 0.0000 0.0000 0.0000 38.4201 0.0000
# 6 0.0000 0.0000 0.0000 0.0000 0.0000 20.6210
#
#
#
# Elastic Compliance Matrix: (Units=1/GPa)
#
#
# Indices 1 2 3 4 5 6 
#
# 1 0.012716 -0.001177 -0.003692 0.000000 0.000000 0.000000
# 2 -0.001177 0.007433 -0.004050 0.000000 0.000000 0.000000
# 3 -0.003692 -0.004050 0.010775 0.000000 0.000000 0.000000
# 4 0.000000 0.000000 0.000000 0.055166 0.000000 0.000000
# 5 0.000000 0.000000 0.000000 0.000000 0.026028 0.000000
# 6 0.000000 0.000000 0.000000 0.000000 0.000000 0.048494
#
#
# Mechanical properties :
#
#
# Convention : Reuss Voigt Hill
#
# Bulk Modulus (GPa) = 76.42343 86.33819 81.38081
# Shear Modulus (GPa) = 27.35018 32.09055 29.72037
#
# Velocity S-wave (km/s) = 3.68635 3.99305 3.84276
# Velocity P-wave (km/s) = 7.48936 8.00982 7.75396
#
# Compressibility (1/GPa) = 0.01308499
#
# Stress axis : x y z
#
# Youngs Moduli (GPa) = 78.64119 134.52865 92.80436
#
# Poissons Ratio (x) = 0.15839 0.34266
# Poissons Ratio (y) = 0.09259 0.37588
# Poissons Ratio (z) = 0.29036 0.54488
#
# Static dielectric constant tensor:
#      x y z
#    x 1.772260 0.000000 0.000000 
#    y 0.000000 1.723090 0.000000 
#    z 0.000000 0.000000 1.648560 
# 
# From -- ./inp_files/20570.got.cif
#   From: 2010.05.17/outbox.cif.g08.bks.cpg/sg40_11_cif.got.tgz:20570.got - 2010.06.03 18:35:42.
