data_PCOD9363701
_publ_section_title
;
Structure prediction by ZEFSAII (Michael W. Deem and Ramdas Pophale) SiO2 
 PCOD9363701
Probable space group: A M A 2
;
_chemical_formula_sum "Si O2"
_cell_formula_units_Z 56
_cell_length_a 8.865548
_cell_length_b 18.644838
_cell_length_c 21.470044
_cell_angle_alpha 90.000000
_cell_angle_beta 90.000000
_cell_angle_gamma 90.000000
_cell_volume 3548.927556
_symmetry_space_group_name_H-M "A M A 2"
_symmetry_group_IT_number 40
_symmetry_cell_setting 'orthorhombic'
loop_
_space_group_symop_operation_xyz
x,y,z
-x,-y,z
1/2-x,y,z
1/2+x,-y,z
x,1/2+y,1/2+z
-x,1/2-y,1/2+z
1/2-x,1/2+y,1/2+z
1/2+x,1/2-y,1/2+z
loop_
_atom_site_type_symbol
_atom_site_label
_atom_site_fract_x
_atom_site_fract_y
_atom_site_fract_z
Si Si1 0.068469 0.347488 0.013910
Si Si2 0.068868 0.920637 0.382118
Si Si3 0.576536 0.795865 0.071065
Si Si4 0.429465 0.422509 0.637641
Si Si5 0.576913 0.704913 0.200066
Si Si6 0.071291 0.077357 0.634879
Si Si7 0.432143 0.651629 0.760335
O O1 0.250000 0.350688 0.023886
O O2 0.025433 0.263622 0.021224
O O3 0.991424 0.392624 0.068962
O O4 0.034609 0.380295 0.946847
O O5 0.250000 0.924473 0.375043
O O6 0.996896 0.879410 0.323903
O O7 0.000000 0.000000 0.384427
O O8 0.750000 0.817361 0.058866
O O9 0.476543 0.864943 0.084932
O O10 0.576683 0.750227 0.135481
O O11 0.500000 0.500000 0.624944
O O12 0.250000 0.426930 0.643307
O O13 0.499307 0.392853 0.702463
O O14 0.750000 0.683375 0.212100
O O15 0.477656 0.635549 0.186707
O O16 0.527849 0.764419 0.250062
O O17 0.250000 0.071894 0.631495
O O18 0.000000 0.000000 0.646906
O O19 0.250000 0.646152 0.757792
#
# Coordination Sequence:
#
# PCOD9363701 Si02
#       7
#     8   8   8   8   8   8   8
#     4   9  19  34  49  66  93 126 157 190 229 271
#     4  11  22  34  48  68  94 126 161 193 224 264
#     4   8  15  30  48  66  90 119 150 187 231 276
#     4  11  20  30  46  69  95 122 153 190 231 276
#     4   8  16  31  48  65  89 119 151 187 231 277
#     4  11  20  29  46  70  96 123 153 190 231 274
#     4  10  20  34  49  66  92 125 156 191 231 272
#
# _framework density 15.779415999999999
#
# number of rings (size 3 to 8) (size 9 to 14) (size 15 to 20)
#    0.000    2.286    0.000    6.000    0.000    8.000 
#    0.000    0.000    0.000    0.000    0.000    1.000 
#    0.000    6.857    0.000    0.000    0.000    0.000 
#
# Total GULP energy -156134.069866 kJ/mol
# GULP energy per Si atom -5576.216781 kJ/mol
# Density = 1.574350 g / cm^3
# Si number density = 15.779416 Si / 1000 Ang^3
#
#
#
# Elastic Constant Matrix: (Units=GPa)
#
#
# Indices 1 2 3 4 5 6 
#
# 1 89.5263 75.5088 40.4873 0.0000 0.0000 0.0000
# 2 75.5088 150.3339 67.6897 0.0000 0.0000 0.0000
# 3 40.4873 67.6897 77.1527 0.0000 0.0000 0.0000
# 4 0.0000 0.0000 0.0000 26.8565 0.0000 0.0000
# 5 0.0000 0.0000 0.0000 0.0000 -84.1130 0.0000
# 6 0.0000 0.0000 0.0000 0.0000 0.0000 27.6387
#
#
#
# Elastic Compliance Matrix: (Units=1/GPa)
#
#
# Indices 1 2 3 4 5 6 
#
# 1 0.019725 -0.008672 -0.002742 0.000000 0.000000 0.000000
# 2 -0.008672 0.014809 -0.008441 0.000000 0.000000 0.000000
# 3 -0.002742 -0.008441 0.021806 0.000000 0.000000 0.000000
# 4 0.000000 0.000000 0.000000 0.037235 0.000000 0.000000
# 5 0.000000 0.000000 0.000000 0.000000 -0.011889 0.000000
# 6 0.000000 0.000000 0.000000 0.000000 0.000000 0.036181
#
#
# Mechanical properties :
#
#
# Convention : Reuss Voigt Hill
#
# Bulk Modulus (GPa) = 60.14038 76.04272 68.09155
# Shear Modulus (GPa) = 30.65215 2.96492 16.80853
#
# Velocity S-wave (km/s) = 4.41221 1.37225 3.26731
# Velocity P-wave (km/s) = 8.00954 7.12786 7.58153
#
# Compressibility (1/GPa) = 0.01662776
#
# Stress axis : x y z
#
# Youngs Moduli (GPa) = 50.69817 67.52832 45.85865
#
# Poissons Ratio (x) = 0.58564 0.12575
# Poissons Ratio (y) = 0.43968 0.38710
# Poissons Ratio (z) = 0.13902 0.57002
#
# Static dielectric constant tensor:
#      x y z
#    x 1.526710 0.000000 0.000000 
#    y 0.000000 1.538250 0.000000 
#    z 0.000000 0.000000 1.515090 
# 
# From -- ./inp_files/22316.got.cif
#   From: 2010.05.17/outbox.cif.g08.bks.cpg/sg40_12_cif.got.tgz:22316.got - 2010.06.03 18:35:42.
