data_PCOD9363886
_publ_section_title
;
Structure prediction by ZEFSAII (Michael W. Deem and Ramdas Pophale) SiO2 
 PCOD9363886
Probable space group: A M A 2
;
_chemical_formula_sum "Si O2"
_cell_formula_units_Z 64
_cell_length_a 14.668129
_cell_length_b 9.235925
_cell_length_c 23.693531
_cell_angle_alpha 90.000000
_cell_angle_beta 90.000000
_cell_angle_gamma 90.000000
_cell_volume 3209.851243
_symmetry_space_group_name_H-M "A M A 2"
_symmetry_group_IT_number 40
_symmetry_cell_setting 'orthorhombic'
loop_
_space_group_symop_operation_xyz
x,y,z
-x,-y,z
1/2-x,y,z
1/2+x,-y,z
x,1/2+y,1/2+z
-x,1/2-y,1/2+z
1/2-x,1/2+y,1/2+z
1/2+x,1/2-y,1/2+z
loop_
_atom_site_type_symbol
_atom_site_label
_atom_site_fract_x
_atom_site_fract_y
_atom_site_fract_z
Si Si1 0.857469 0.539036 0.331050
Si Si2 0.899797 0.426598 0.666284
Si Si3 0.648800 0.158661 0.254581
Si Si4 0.025577 0.840555 0.485458
Si Si5 0.643449 0.713551 0.875688
Si Si6 0.027599 0.849435 0.723506
Si Si7 0.399937 0.573792 0.541315
Si Si8 0.149307 0.839844 0.953926
O O1 0.750000 0.542390 0.315896
O O2 0.879332 0.374895 0.351834
O O3 0.917968 0.600967 0.280086
O O4 0.869288 0.629824 0.388342
O O5 0.851836 0.521039 0.714017
O O6 0.913261 0.262215 0.686792
O O7 0.859473 0.441412 0.603675
O O8 0.000000 0.500000 0.663322
O O9 0.750000 0.228190 0.251599
O O10 0.634515 0.115550 0.319794
O O11 0.566232 0.264088 0.237513
O O12 0.079313 0.836659 0.425974
O O13 0.085378 0.741406 0.526799
O O14 0.930043 0.759130 0.477152
O O15 0.000000 0.000000 0.504515
O O16 0.750000 0.716109 0.893178
O O17 0.000000 0.000000 0.694121
O O18 0.500000 0.500000 0.542933
O O19 0.352808 0.489427 0.489803
O O20 0.250000 0.775866 0.959819
#
# Coordination Sequence:
#
# PCOD9363886 Si02
#       8
#     8   8   8   8   8   8   8   8
#     4  10  20  35  58  88 120 156 205 252 296 359
#     4   9  21  39  57  83 113 156 203 246 294 358
#     4  10  21  37  56  82 120 162 201 248 303 362
#     4  11  23  36  59  92 123 159 191 252 317 370
#     4  10  20  36  58  86 124 164 201 246 304 367
#     4  11  21  34  59  86 119 157 198 251 306 363
#     4   9  19  39  62  80 111 154 206 247 290 354
#     4  10  21  37  61  88 116 158 207 250 294 359
#
# _framework density 19.93862
#
# number of rings (size 3 to 8) (size 9 to 14) (size 15 to 20)
#    0.000    2.000    2.500    0.750    0.000    4.500 
#    0.000    2.500    0.000    0.000    0.000    1.750 
#    0.000    0.000    0.000    0.000    0.000    0.000 
#
# Total GULP energy -178520.572616 kJ/mol
# GULP energy per Si atom -5578.767894 kJ/mol
# Density = 1.989324 g / cm^3
# Si number density = 19.938620 Si / 1000 Ang^3
#
#
#
# Elastic Constant Matrix: (Units=GPa)
#
#
# Indices 1 2 3 4 5 6 
#
# 1 62.5855 9.2432 10.4603 0.0000 0.0000 0.0000
# 2 9.2432 93.0970 28.4890 0.0000 0.0000 0.0000
# 3 10.4603 28.4890 76.6566 0.0000 0.0000 0.0000
# 4 0.0000 0.0000 0.0000 23.7152 0.0000 0.0000
# 5 0.0000 0.0000 0.0000 0.0000 -7.3143 0.0000
# 6 0.0000 0.0000 0.0000 0.0000 0.0000 16.9896
#
#
#
# Elastic Compliance Matrix: (Units=1/GPa)
#
#
# Indices 1 2 3 4 5 6 
#
# 1 0.016445 -0.001067 -0.001847 0.000000 0.000000 0.000000
# 2 -0.001067 0.012189 -0.004384 0.000000 0.000000 0.000000
# 3 -0.001847 -0.004384 0.014927 0.000000 0.000000 0.000000
# 4 0.000000 0.000000 0.000000 0.042167 0.000000 0.000000
# 5 0.000000 0.000000 0.000000 0.000000 -0.136719 0.000000
# 6 0.000000 0.000000 0.000000 0.000000 0.000000 0.058860
#
#
# Mechanical properties :
#
#
# Convention : Reuss Voigt Hill
#
# Bulk Modulus (GPa) = 34.52771 36.52491 35.52631
# Shear Modulus (GPa) = 155.66479 18.95454 87.30966
#
# Velocity S-wave (km/s) = 8.84542 3.08660 6.62452
# Velocity P-wave (km/s) = 11.03071 5.57326 8.73893
#
# Compressibility (1/GPa) = 0.02896224
#
# Stress axis : x y z
#
# Youngs Moduli (GPa) = 60.81049 82.04021 66.99404
#
# Poissons Ratio (x) = 0.08757 0.12376
# Poissons Ratio (y) = 0.06491 0.29373
# Poissons Ratio (z) = 0.11233 0.35970
#
# Static dielectric constant tensor:
#      x y z
#    x 1.728580 0.000000 0.000000 
#    y 0.000000 1.718540 0.000000 
#    z 0.000000 0.000000 1.703970 
# 
# From -- ./inp_files/24811.got.cif
#   From: 2010.05.17/outbox.cif.g08.bks.cpg/sg40_13_cif.got.tgz:24811.got - 2010.06.03 18:35:42.
