data_PCOD9363169
_publ_section_title
;
Structure prediction by ZEFSAII (Michael W. Deem and Ramdas Pophale) SiO2 
 PCOD9363169
Probable space group: A M A 2
;
_chemical_formula_sum "Si O2"
_cell_formula_units_Z 40
_cell_length_a 8.864026
_cell_length_b 26.168151
_cell_length_c 9.890903
_cell_angle_alpha 90.000000
_cell_angle_beta 90.000000
_cell_angle_gamma 90.000000
_cell_volume 2294.246095
_symmetry_space_group_name_H-M "A M A 2"
_symmetry_group_IT_number 40
_symmetry_cell_setting 'orthorhombic'
loop_
_space_group_symop_operation_xyz
x,y,z
-x,-y,z
1/2-x,y,z
1/2+x,-y,z
x,1/2+y,1/2+z
-x,1/2-y,1/2+z
1/2-x,1/2+y,1/2+z
1/2+x,1/2-y,1/2+z
loop_
_atom_site_type_symbol
_atom_site_label
_atom_site_fract_x
_atom_site_fract_y
_atom_site_fract_z
Si Si1 0.069257 0.220114 0.472340
Si Si2 0.430805 0.358526 0.765447
Si Si3 0.568769 0.332720 0.487131
Si Si4 0.570344 0.055760 0.483937
Si Si5 0.069545 0.633178 0.189147
O O1 0.250000 0.225147 0.460912
O O2 0.035387 0.184300 0.602204
O O3 0.003335 0.189529 0.344228
O O4 0.993562 0.275002 0.485991
O O5 0.250000 0.352436 0.761650
O O6 0.497676 0.360537 0.616028
O O7 0.467999 0.408250 0.855488
O O8 0.750000 0.331889 0.497256
O O9 0.526799 0.358466 0.344395
O O10 0.750000 0.051843 0.491165
O O11 0.509989 0.086418 0.614124
O O12 0.500000 0.000000 0.473387
O O13 0.250000 0.625725 0.181642
#
# Coordination Sequence:
#
# PCOD9363169 Si02
#       5
#     8   8   8   8   8
#     4  10  19  33  54  78 108 147 183 219 261 311
#     4  10  21  36  53  78 109 142 181 220 259 313
#     4  11  21  33  52  80 113 146 177 217 264 311
#     4  10  21  38  61  81 100 131 173 220 269 320
#     4   9  20  36  53  77 108 140 178 218 260 311
#
# _framework density 17.434923000000001
#
# number of rings (size 3 to 8) (size 9 to 14) (size 15 to 20)
#    0.000    2.000    0.000    3.600    0.000    6.400 
#    0.000    1.000    0.000    2.400    0.000    0.000 
#    0.000    0.000    0.000    0.000    0.000    0.000 
#
# Total GULP energy -111715.454590 kJ/mol
# GULP energy per Si atom -5585.772729 kJ/mol
# Density = 1.739524 g / cm^3
# Si number density = 17.434923 Si / 1000 Ang^3
#
#
#
# Elastic Constant Matrix: (Units=GPa)
#
#
# Indices 1 2 3 4 5 6 
#
# 1 53.1405 49.5729 58.4040 0.0000 0.0000 0.0000
# 2 49.5729 123.9621 67.6285 0.0000 0.0000 0.0000
# 3 58.4040 67.6285 168.5164 0.0000 0.0000 0.0000
# 4 0.0000 0.0000 0.0000 2.9627 0.0000 0.0000
# 5 0.0000 0.0000 0.0000 0.0000 29.3638 0.0000
# 6 0.0000 0.0000 0.0000 0.0000 0.0000 28.6632
#
#
#
# Elastic Compliance Matrix: (Units=1/GPa)
#
#
# Indices 1 2 3 4 5 6 
#
# 1 0.038693 -0.010444 -0.009219 0.000000 0.000000 0.000000
# 2 -0.010444 0.013147 -0.001657 0.000000 0.000000 0.000000
# 3 -0.009219 -0.001657 0.009794 0.000000 0.000000 0.000000
# 4 0.000000 0.000000 0.000000 0.337533 0.000000 0.000000
# 5 0.000000 0.000000 0.000000 0.000000 0.034055 0.000000
# 6 0.000000 0.000000 0.000000 0.000000 0.000000 0.034888
#
#
# Mechanical properties :
#
#
# Convention : Reuss Voigt Hill
#
# Bulk Modulus (GPa) = 52.64425 77.42550 65.03488
# Shear Modulus (GPa) = 9.66968 23.53218 16.60093
#
# Velocity S-wave (km/s) = 2.35758 3.67783 3.08907
# Velocity P-wave (km/s) = 6.13769 7.90822 7.07853
#
# Compressibility (1/GPa) = 0.01899543
#
# Stress axis : x y z
#
# Youngs Moduli (GPa) = 25.84471 76.06096 102.10413
#
# Poissons Ratio (x) = 0.79438 0.94126
# Poissons Ratio (y) = 0.26992 0.16914
# Poissons Ratio (z) = 0.23825 0.12600
#
# Static dielectric constant tensor:
#      x y z
#    x 1.578750 0.000000 0.000000 
#    y 0.000000 1.558820 0.000000 
#    z 0.000000 0.000000 1.593680 
# 
# From -- ./inp_files/4218.got.cif
#   From: 2010.05.17/outbox.cif.g08.bks.cpg/sg40_3_cif.got.tgz:4218.got - 2010.06.03 18:35:42.
