data_PCOD9363314
_publ_section_title
;
Structure prediction by ZEFSAII (Michael W. Deem and Ramdas Pophale) SiO2 
 PCOD9363314
Probable space group: A M A 2
;
_chemical_formula_sum "Si O2"
_cell_formula_units_Z 40
_cell_length_a 9.139667
_cell_length_b 14.945811
_cell_length_c 13.718469
_cell_angle_alpha 90.000000
_cell_angle_beta 90.000000
_cell_angle_gamma 90.000000
_cell_volume 1873.939238
_symmetry_space_group_name_H-M "A M A 2"
_symmetry_group_IT_number 40
_symmetry_cell_setting 'orthorhombic'
loop_
_space_group_symop_operation_xyz
x,y,z
-x,-y,z
1/2-x,y,z
1/2+x,-y,z
x,1/2+y,1/2+z
-x,1/2-y,1/2+z
1/2-x,1/2+y,1/2+z
1/2+x,1/2-y,1/2+z
loop_
_atom_site_type_symbol
_atom_site_label
_atom_site_fract_x
_atom_site_fract_y
_atom_site_fract_z
Si Si1 0.572106 0.098010 0.670410
Si Si2 0.921317 0.743199 0.571833
Si Si3 0.589101 0.918719 0.144565
Si Si4 0.912309 0.918321 0.371595
Si Si5 0.577515 0.721609 0.352934
O O1 0.750000 0.093133 0.663955
O O2 0.504540 0.162769 0.586891
O O3 0.529631 0.150854 0.771727
O O4 0.500000 0.000000 0.669164
O O5 0.750000 0.755030 0.593297
O O6 0.932590 0.695385 0.466039
O O7 0.000463 0.672741 0.641002
O O8 0.750000 0.906729 0.100834
O O9 0.608616 0.942141 0.257995
O O10 0.500000 0.000000 0.098077
O O11 0.750000 0.909160 0.417268
O O12 0.988057 0.821649 0.362586
O O13 0.000000 0.000000 0.417749
O O14 0.750000 0.737201 0.329051
#
# Coordination Sequence:
#
# PCOD9363314 Si02
#       5
#     8   8   8   8   8
#     4  11  23  44  66  89 125 170 213 261 315 375
#     4  11  22  38  62  92 123 160 205 255 310 372
#     4  10  19  34  57  84 116 151 190 239 296 357
#     4   9  17  33  55  80 109 145 182 229 288 349
#     4   9  20  39  61  85 121 161 202 253 308 366
#
# _framework density 21.345407999999999
#
# number of rings (size 3 to 8) (size 9 to 14) (size 15 to 20)
#    0.000    2.000    2.000    1.800    0.000    2.400 
#    0.000   10.000    0.000    0.000    0.000    0.000 
#    0.000    0.000    0.000    0.000    0.000    0.000 
#
# Total GULP energy -111365.690302 kJ/mol
# GULP energy per Si atom -5568.284515 kJ/mol
# Density = 2.129683 g / cm^3
# Si number density = 21.345408 Si / 1000 Ang^3
#
#
#
# Elastic Constant Matrix: (Units=GPa)
#
#
# Indices 1 2 3 4 5 6 
#
# 1 107.6473 56.2219 25.0178 0.0000 0.0000 0.0000
# 2 56.2219 148.2668 21.0762 0.0000 0.0000 0.0000
# 3 25.0178 21.0762 57.5559 0.0000 0.0000 0.0000
# 4 0.0000 0.0000 0.0000 21.2719 0.0000 0.0000
# 5 0.0000 0.0000 0.0000 0.0000 8.2761 0.0000
# 6 0.0000 0.0000 0.0000 0.0000 0.0000 31.5223
#
#
#
# Elastic Compliance Matrix: (Units=1/GPa)
#
#
# Indices 1 2 3 4 5 6 
#
# 1 0.012343 -0.004133 -0.003852 0.000000 0.000000 0.000000
# 2 -0.004133 0.008499 -0.001316 0.000000 0.000000 0.000000
# 3 -0.003852 -0.001316 0.019530 0.000000 0.000000 0.000000
# 4 0.000000 0.000000 0.000000 0.047010 0.000000 0.000000
# 5 0.000000 0.000000 0.000000 0.000000 0.120830 0.000000
# 6 0.000000 0.000000 0.000000 0.000000 0.000000 0.031724
#
#
# Mechanical properties :
#
#
# Convention : Reuss Voigt Hill
#
# Bulk Modulus (GPa) = 45.93128 57.56688 51.74908
# Shear Modulus (GPa) = 18.81151 26.29100 22.55125
#
# Velocity S-wave (km/s) = 2.97187 3.51336 3.25390
# Velocity P-wave (km/s) = 5.77416 6.59439 6.19786
#
# Compressibility (1/GPa) = 0.02177165
#
# Stress axis : x y z
#
# Youngs Moduli (GPa) = 81.01530 117.66335 51.20202
#
# Poissons Ratio (x) = 0.48630 0.19722
# Poissons Ratio (y) = 0.33483 0.06737
# Poissons Ratio (z) = 0.31206 0.15481
#
# Static dielectric constant tensor:
#      x y z
#    x 1.825150 0.000000 0.000000 
#    y 0.000000 1.797040 0.000000 
#    z 0.000000 0.000000 1.874190 
# 
# From -- ./inp_files/14786.got.cif
#   From: 2010.05.17/outbox.cif.g08.bks.cpg/sg40_8_cif.got.tgz:14786.got - 2010.06.03 18:35:42.
