data_PCOD9363000
_publ_section_title
;
Structure prediction by ZEFSAII (Michael W. Deem and Ramdas Pophale) SiO2 
 PCOD9363000
Probable space group: A M A 2
;
_chemical_formula_sum "Si O2"
_cell_formula_units_Z 64
_cell_length_a 8.922003
_cell_length_b 26.976949
_cell_length_c 18.921085
_cell_angle_alpha 90.000000
_cell_angle_beta 90.000000
_cell_angle_gamma 90.000000
_cell_volume 4554.086052
_symmetry_space_group_name_H-M "A M A 2"
_symmetry_group_IT_number 40
_symmetry_cell_setting 'orthorhombic'
loop_
_space_group_symop_operation_xyz
x,y,z
-x,-y,z
1/2-x,y,z
1/2+x,-y,z
x,1/2+y,1/2+z
-x,1/2-y,1/2+z
1/2-x,1/2+y,1/2+z
1/2+x,1/2-y,1/2+z
loop_
_atom_site_type_symbol
_atom_site_label
_atom_site_fract_x
_atom_site_fract_y
_atom_site_fract_z
Si Si1 0.930268 0.749922 0.344430
Si Si2 0.568160 0.757259 0.180518
Si Si3 0.577113 0.802636 0.970085
Si Si4 0.570093 0.351381 0.923446
Si Si5 0.929934 0.446495 0.673019
Si Si6 0.929180 0.148707 0.100616
Si Si7 0.429964 0.552784 0.838894
Si Si8 0.922144 0.196493 0.551196
O O1 0.750000 0.745668 0.351076
O O2 0.969131 0.747988 0.261972
O O3 0.973908 0.803992 0.375421
O O4 0.006355 0.708840 0.393972
O O5 0.750000 0.763066 0.174472
O O6 0.493197 0.807075 0.150336
O O7 0.524059 0.711701 0.129220
O O8 0.750000 0.818253 0.965150
O O9 0.484820 0.838568 0.021390
O O10 0.574164 0.749341 0.010190
O O11 0.750000 0.352468 0.924027
O O12 0.516247 0.401983 0.887477
O O13 0.512960 0.340938 0.002326
O O14 0.750000 0.447316 0.664738
O O15 0.963665 0.437048 0.756260
O O16 0.000000 0.500000 0.655461
O O17 0.001831 0.402622 0.627825
O O18 0.750000 0.148152 0.103767
O O19 0.500000 0.500000 0.857891
O O20 0.250000 0.549497 0.844656
O O21 0.750000 0.180067 0.555153
#
# Coordination Sequence:
#
# PCOD9363000 Si02
#       8
#     8   8   8   8   8   8   8   8
#     4   9  16  27  43  61  82 109 139 170 206 250
#     4   9  17  29  43  60  85 114 141 173 212 249
#     4   9  17  29  42  58  82 109 137 172 210 245
#     4   9  16  26  40  57  78 106 137 167 202 241
#     4  10  19  32  46  61  83 109 139 176 215 251
#     4  11  20  29  43  62  83 112 148 177 206 247
#     4   9  18  30  43  59  80 107 138 172 209 245
#     4   8  15  26  39  56  78 106 137 167 201 240
#
# _framework density 14.053314
#
# number of rings (size 3 to 8) (size 9 to 14) (size 15 to 20)
#    0.000    2.750    0.000    3.375    0.000    6.500 
#    0.000    2.500    0.000    0.000    0.000    0.000 
#    0.000    1.000    0.000    6.500    0.000    5.500 
#
# Total GULP energy -178256.428794 kJ/mol
# GULP energy per Si atom -5570.513400 kJ/mol
# Density = 1.402133 g / cm^3
# Si number density = 14.053314 Si / 1000 Ang^3
#
#
#
# Elastic Constant Matrix: (Units=GPa)
#
#
# Indices 1 2 3 4 5 6 
#
# 1 49.7763 41.1600 43.6027 0.0000 0.0000 0.0000
# 2 41.1600 91.1556 62.6920 0.0000 0.0000 0.0000
# 3 43.6027 62.6920 119.5406 0.0000 0.0000 0.0000
# 4 0.0000 0.0000 0.0000 26.1138 0.0000 0.0000
# 5 0.0000 0.0000 0.0000 0.0000 21.9241 0.0000
# 6 0.0000 0.0000 0.0000 0.0000 0.0000 21.5725
#
#
#
# Elastic Compliance Matrix: (Units=1/GPa)
#
#
# Indices 1 2 3 4 5 6 
#
# 1 0.035549 -0.011159 -0.007115 0.000000 0.000000 0.000000
# 2 -0.011159 0.020662 -0.006766 0.000000 0.000000 0.000000
# 3 -0.007115 -0.006766 0.014509 0.000000 0.000000 0.000000
# 4 0.000000 0.000000 0.000000 0.038294 0.000000 0.000000
# 5 0.000000 0.000000 0.000000 0.000000 0.045612 0.000000
# 6 0.000000 0.000000 0.000000 0.000000 0.000000 0.046355
#
#
# Mechanical properties :
#
#
# Convention : Reuss Voigt Hill
#
# Bulk Modulus (GPa) = 48.44569 61.70908 55.07739
# Shear Modulus (GPa) = 19.38438 21.45660 20.42049
#
# Velocity S-wave (km/s) = 3.71798 3.91167 3.81605
# Velocity P-wave (km/s) = 7.27866 8.02543 7.66115
#
# Compressibility (1/GPa) = 0.02064167
#
# Stress axis : x y z
#
# Youngs Moduli (GPa) = 28.13006 48.39810 68.92426
#
# Poissons Ratio (x) = 0.54006 0.49037
# Poissons Ratio (y) = 0.31389 0.46633
# Poissons Ratio (z) = 0.20013 0.32745
#
# Static dielectric constant tensor:
#      x y z
#    x 1.475490 0.000000 0.000000 
#    y 0.000000 1.440330 0.000000 
#    z 0.000000 0.000000 1.467580 
# 
# From -- ./inp_files/19711.got.cif
#   From: 2010.05.17/outbox.cif.g08.bks.cpg/sg40_10_cif.got.tgz:19711.got - 2010.06.03 18:35:42.
