data_PCOD9363527
_publ_section_title
;
Structure prediction by ZEFSAII (Michael W. Deem and Ramdas Pophale) SiO2 
 PCOD9363527
Probable space group: A M A 2
;
_chemical_formula_sum "Si O2"
_cell_formula_units_Z 64
_cell_length_a 14.962425
_cell_length_b 15.813690
_cell_length_c 11.982870
_cell_angle_alpha 90.000000
_cell_angle_beta 90.000000
_cell_angle_gamma 90.000000
_cell_volume 2835.280658
_symmetry_space_group_name_H-M "A M A 2"
_symmetry_group_IT_number 40
_symmetry_cell_setting 'orthorhombic'
loop_
_space_group_symop_operation_xyz
x,y,z
-x,-y,z
1/2-x,y,z
1/2+x,-y,z
x,1/2+y,1/2+z
-x,1/2-y,1/2+z
1/2-x,1/2+y,1/2+z
1/2+x,1/2-y,1/2+z
loop_
_atom_site_type_symbol
_atom_site_label
_atom_site_fract_x
_atom_site_fract_y
_atom_site_fract_z
Si Si1 0.855948 0.181017 0.123910
Si Si2 0.855475 0.849450 0.236626
Si Si3 0.641332 0.562120 0.051050
Si Si4 0.896721 0.002157 0.783684
Si Si5 0.891788 0.816299 0.805801
Si Si6 0.902165 0.181413 0.868267
Si Si7 0.140338 0.965921 0.296134
Si Si8 0.645220 0.745967 0.041468
O O1 0.750000 0.168767 0.103789
O O2 0.867737 0.268011 0.192735
O O3 0.887196 0.105481 0.206847
O O4 0.900411 0.182659 0.002395
O O5 0.750000 0.866237 0.224993
O O6 0.863591 0.769555 0.320037
O O7 0.893401 0.940021 0.268973
O O8 0.893934 0.819106 0.117999
O O9 0.750000 0.558980 0.054585
O O10 0.607478 0.503048 0.149213
O O11 0.613579 0.548249 0.924150
O O12 0.607130 0.656343 0.077462
O O13 0.856271 0.912065 0.818100
O O14 0.858910 0.091968 0.827580
O O15 0.000000 0.000000 0.821065
O O16 0.860126 0.761384 0.910890
O O17 0.998017 0.819651 0.820020
O O18 0.250000 0.962545 0.296145
O O19 0.750000 0.741261 0.069327
#
# Coordination Sequence:
#
# PCOD9363527 Si02
#       8
#     8   8   8   8   8   8   8   8
#     4  11  24  44  67  96 131 167 212 267 321 378
#     4  10  21  39  63  92 122 160 208 256 311 376
#     4  10  19  37  64  88 119 160 204 257 309 366
#     4  10  24  43  60  88 127 166 209 259 313 380
#     4  11  25  42  64  92 128 168 213 260 319 383
#     4  11  25  42  63  91 130 169 206 267 319 378
#     4   9  20  39  61  91 124 158 205 260 311 370
#     4  10  20  38  65  88 118 162 209 254 305 375
#
# _framework density 22.572721000000001
#
# number of rings (size 3 to 8) (size 9 to 14) (size 15 to 20)
#    0.000    1.750    2.500    0.750    5.250    1.500 
#    0.000    0.625    0.000    0.000    0.000    0.000 
#    0.000    0.000    0.000    0.000    0.000    0.000 
#
# Total GULP energy -178667.876261 kJ/mol
# GULP energy per Si atom -5583.371133 kJ/mol
# Density = 2.252134 g / cm^3
# Si number density = 22.572721 Si / 1000 Ang^3
#
#
#
# Elastic Constant Matrix: (Units=GPa)
#
#
# Indices 1 2 3 4 5 6 
#
# 1 39.7066 0.0574 -5.3736 0.0000 0.0000 0.0000
# 2 0.0574 99.1080 8.4875 0.0000 0.0000 0.0000
# 3 -5.3736 8.4875 100.4179 0.0000 0.0000 0.0000
# 4 0.0000 0.0000 0.0000 34.4794 0.0000 0.0000
# 5 0.0000 0.0000 0.0000 0.0000 17.4569 0.0000
# 6 0.0000 0.0000 0.0000 0.0000 0.0000 18.3655
#
#
#
# Elastic Compliance Matrix: (Units=1/GPa)
#
#
# Indices 1 2 3 4 5 6 
#
# 1 0.025370 -0.000132 0.001369 0.000000 0.000000 0.000000
# 2 -0.000132 0.010164 -0.000866 0.000000 0.000000 0.000000
# 3 0.001369 -0.000866 0.010105 0.000000 0.000000 0.000000
# 4 0.000000 0.000000 0.000000 0.029003 0.000000 0.000000
# 5 0.000000 0.000000 0.000000 0.000000 0.057284 0.000000
# 6 0.000000 0.000000 0.000000 0.000000 0.000000 0.054450
#
#
# Mechanical properties :
#
#
# Convention : Reuss Voigt Hill
#
# Bulk Modulus (GPa) = 21.56071 27.28612 24.42341
# Shear Modulus (GPa) = 24.86390 29.79777 27.33084
#
# Velocity S-wave (km/s) = 3.32249 3.63723 3.48342
# Velocity P-wave (km/s) = 4.92859 5.45469 5.19830
#
# Compressibility (1/GPa) = 0.04638067
#
# Stress axis : x y z
#
# Youngs Moduli (GPa) = 39.41638 98.38396 98.96247
#
# Poissons Ratio (x) = 0.01298 -0.13546
# Poissons Ratio (y) = 0.00520 0.08572
# Poissons Ratio (z) = -0.05395 0.08522
#
# Static dielectric constant tensor:
#      x y z
#    x 1.862880 0.000000 0.000000 
#    y 0.000000 1.866010 0.000000 
#    z 0.000000 0.000000 1.797990 
# 
# From -- ./inp_files/13144.got.cif
#   From: 2010.05.17/outbox.cif.g08.bks.cpg/sg40_7_cif.got.tgz:13144.got - 2010.06.03 18:35:42.
