data_PCOD9363422
_publ_section_title
;
Structure prediction by ZEFSAII (Michael W. Deem and Ramdas Pophale) SiO2 
 PCOD9363422
Probable space group: A M A 2
;
_chemical_formula_sum "Si O2"
_cell_formula_units_Z 64
_cell_length_a 8.517557
_cell_length_b 24.378910
_cell_length_c 15.903305
_cell_angle_alpha 90.000000
_cell_angle_beta 90.000000
_cell_angle_gamma 90.000000
_cell_volume 3302.301492
_symmetry_space_group_name_H-M "A M A 2"
_symmetry_group_IT_number 40
_symmetry_cell_setting 'orthorhombic'
loop_
_space_group_symop_operation_xyz
x,y,z
-x,-y,z
1/2-x,y,z
1/2+x,-y,z
x,1/2+y,1/2+z
-x,1/2-y,1/2+z
1/2-x,1/2+y,1/2+z
1/2+x,1/2-y,1/2+z
loop_
_atom_site_type_symbol
_atom_site_label
_atom_site_fract_x
_atom_site_fract_y
_atom_site_fract_z
Si Si1 0.438306 0.868100 0.532660
Si Si2 0.560433 0.251799 0.472938
Si Si3 0.559593 0.130027 0.218733
Si Si4 0.936855 0.938302 0.376363
Si Si5 0.559389 0.250151 0.277067
Si Si6 0.939099 0.132137 0.031691
Si Si7 0.938791 0.561834 0.371143
Si Si8 0.061479 0.131546 0.714198
O O1 0.250000 0.869254 0.532719
O O2 0.489751 0.805217 0.515140
O O3 0.498394 0.905229 0.456550
O O4 0.501548 0.886159 0.623026
O O5 0.750000 0.254301 0.475288
O O6 0.511960 0.251244 0.374875
O O7 0.493128 0.305714 0.516113
O O8 0.750000 0.128279 0.223734
O O9 0.492969 0.092304 0.292025
O O10 0.509461 0.193089 0.235481
O O11 0.510402 0.113597 0.124638
O O12 0.750000 0.938683 0.379473
O O13 0.000000 0.000000 0.377331
O O14 0.750000 0.250421 0.275387
O O15 0.506379 0.305839 0.232164
O O16 0.750000 0.131515 0.030859
O O17 0.994205 0.094406 0.954620
O O18 0.750000 0.561787 0.370423
O O19 0.000000 0.500000 0.371982
O O20 0.999204 0.593746 0.289163
O O21 0.250000 0.130760 0.715459
#
# Coordination Sequence:
#
# PCOD9363422 Si02
#       8
#     8   8   8   8   8   8   8   8
#     4  11  23  41  64  92 127 162 199 248 302 359
#     4  10  19  35  61  91 124 164 201 242 300 360
#     4  10  20  40  64  90 126 163 199 245 303 359
#     4  12  26  44  65  90 119 158 206 254 303 359
#     4   9  17  33  60  90 124 163 197 239 300 359
#     4  10  22  38  62  93 125 160 201 252 304 359
#     4  11  24  42  61  87 119 159 208 256 306 358
#     4  11  22  39  64  93 124 161 203 248 301 361
#
# _framework density 19.380423
#
# number of rings (size 3 to 8) (size 9 to 14) (size 15 to 20)
#    0.000    1.500    2.500    3.000    0.000    4.000 
#    0.000    5.000    0.000    0.000    0.000    0.000 
#    0.000    0.000    0.000    0.000    0.000    0.000 
#
# Total GULP energy -178877.067603 kJ/mol
# GULP energy per Si atom -5589.908363 kJ/mol
# Density = 1.933631 g / cm^3
# Si number density = 19.380423 Si / 1000 Ang^3
#
#
#
# Elastic Constant Matrix: (Units=GPa)
#
#
# Indices 1 2 3 4 5 6 
#
# 1 48.5204 37.0140 44.1555 0.0000 0.0000 0.0000
# 2 37.0140 158.4825 92.4347 0.0000 0.0000 0.0000
# 3 44.1555 92.4347 203.6331 0.0000 0.0000 0.0000
# 4 0.0000 0.0000 0.0000 -3.5537 0.0000 0.0000
# 5 0.0000 0.0000 0.0000 0.0000 11.0941 0.0000
# 6 0.0000 0.0000 0.0000 0.0000 0.0000 27.3514
#
#
#
# Elastic Compliance Matrix: (Units=1/GPa)
#
#
# Indices 1 2 3 4 5 6 
#
# 1 0.027417 -0.003993 -0.004132 0.000000 0.000000 0.000000
# 2 -0.003993 0.009163 -0.003294 0.000000 0.000000 0.000000
# 3 -0.004132 -0.003294 0.007302 0.000000 0.000000 0.000000
# 4 0.000000 0.000000 0.000000 -0.281395 0.000000 0.000000
# 5 0.000000 0.000000 0.000000 0.000000 0.090138 0.000000
# 6 0.000000 0.000000 0.000000 0.000000 0.000000 0.036561
#
#
# Mechanical properties :
#
#
# Convention : Reuss Voigt Hill
#
# Bulk Modulus (GPa) = 47.51997 84.20495 65.86246
# Shear Modulus (GPa) = -61.75825 22.78048 -19.48889
#
# Velocity S-wave (km/s) = -5.65115 3.43218 -3.17455
# Velocity P-wave (km/s) = 4.24357 7.69736 4.54101
#
# Compressibility (1/GPa) = 0.02104378
#
# Stress axis : x y z
#
# Youngs Moduli (GPa) = 36.47418 109.12888 136.94907
#
# Poissons Ratio (x) = 0.43575 0.56594
# Poissons Ratio (y) = 0.14564 0.45107
# Poissons Ratio (z) = 0.15073 0.35944
#
# Static dielectric constant tensor:
#      x y z
#    x 1.654940 0.000000 0.000000 
#    y 0.000000 1.647350 0.000000 
#    z 0.000000 0.000000 1.667760 
# 
# From -- ./inp_files/15693.got.cif
#   From: 2010.05.17/outbox.cif.g08.bks.cpg/sg40_8_cif.got.tgz:15693.got - 2010.06.03 18:35:42.
