data_PCOD9363796
_publ_section_title
;
Structure prediction by ZEFSAII (Michael W. Deem and Ramdas Pophale) SiO2 
 PCOD9363796
Probable space group: A M A 2
;
_chemical_formula_sum "Si O2"
_cell_formula_units_Z 64
_cell_length_a 15.636446
_cell_length_b 18.271568
_cell_length_c 12.013006
_cell_angle_alpha 90.000000
_cell_angle_beta 90.000000
_cell_angle_gamma 90.000000
_cell_volume 3432.144482
_symmetry_space_group_name_H-M "A M A 2"
_symmetry_group_IT_number 40
_symmetry_cell_setting 'orthorhombic'
loop_
_space_group_symop_operation_xyz
x,y,z
-x,-y,z
1/2-x,y,z
1/2+x,-y,z
x,1/2+y,1/2+z
-x,1/2-y,1/2+z
1/2-x,1/2+y,1/2+z
1/2+x,1/2-y,1/2+z
loop_
_atom_site_type_symbol
_atom_site_label
_atom_site_fract_x
_atom_site_fract_y
_atom_site_fract_z
Si Si1 0.845384 0.289542 0.025080
Si Si2 0.545865 0.077965 0.276320
Si Si3 0.506481 0.414021 0.418179
Si Si4 0.151844 0.381888 0.558068
Si Si5 0.156725 0.673996 0.537144
Si Si6 0.042870 0.185794 0.722156
Si Si7 0.598585 0.299050 0.769137
Si Si8 0.349606 0.300358 0.871960
O O1 0.750000 0.320348 0.042889
O O2 0.844295 0.205839 0.068159
O O3 0.918102 0.326576 0.100595
O O4 0.866050 0.290533 0.893652
O O5 0.602870 0.081091 0.162812
O O6 0.469283 0.135424 0.267574
O O7 0.606536 0.120044 0.365622
O O8 0.500000 0.000000 0.296046
O O9 0.500000 0.500000 0.428358
O O10 0.411616 0.389753 0.453858
O O11 0.577883 0.376868 0.498609
O O12 0.533524 0.385897 0.297003
O O13 0.250000 0.408315 0.546675
O O14 0.250000 0.648584 0.493761
O O15 0.160248 0.680389 0.669133
O O16 0.142062 0.755045 0.486183
O O17 0.105502 0.243033 0.787123
O O18 0.952746 0.227265 0.729280
O O19 0.250000 0.308229 0.843761
#
# Coordination Sequence:
#
# PCOD9363796 Si02
#       8
#     8   8   8   8   8   8   8   8
#     4  11  21  37  61  88 117 158 210 259 305 362
#     4  11  22  35  55  87 123 163 203 251 310 377
#     4  11  22  40  59  91 128 159 204 255 311 375
#     4  11  21  36  59  87 120 163 208 252 309 374
#     4  10  21  37  62  93 123 159 207 264 315 364
#     4  10  20  34  61  85 115 158 202 255 298 361
#     4  11  21  36  59  87 124 154 202 259 307 357
#     4   9  18  35  60  86 114 153 204 254 304 365
#
# _framework density 18.647233
#
# number of rings (size 3 to 8) (size 9 to 14) (size 15 to 20)
#    0.000    1.500    5.000    1.500    3.500    1.000 
#    0.000    2.500    0.000    0.000    0.000    0.000 
#    0.000    0.000    0.000    0.000    0.000    0.000 
#
# Total GULP energy -178242.416931 kJ/mol
# GULP energy per Si atom -5570.075529 kJ/mol
# Density = 1.860479 g / cm^3
# Si number density = 18.647233 Si / 1000 Ang^3
#
#
#
# Elastic Constant Matrix: (Units=GPa)
#
#
# Indices 1 2 3 4 5 6 
#
# 1 119.4123 43.5749 33.5421 0.0000 0.0000 0.0000
# 2 43.5749 67.3433 31.9252 0.0000 0.0000 0.0000
# 3 33.5421 31.9252 81.5392 0.0000 0.0000 0.0000
# 4 0.0000 0.0000 0.0000 5.8863 0.0000 0.0000
# 5 0.0000 0.0000 0.0000 0.0000 11.3730 0.0000
# 6 0.0000 0.0000 0.0000 0.0000 0.0000 15.2703
#
#
#
# Elastic Compliance Matrix: (Units=1/GPa)
#
#
# Indices 1 2 3 4 5 6 
#
# 1 0.011272 -0.006257 -0.002187 0.000000 0.000000 0.000000
# 2 -0.006257 0.021707 -0.005925 0.000000 0.000000 0.000000
# 3 -0.002187 -0.005925 0.015484 0.000000 0.000000 0.000000
# 4 0.000000 0.000000 0.000000 0.169886 0.000000 0.000000
# 5 0.000000 0.000000 0.000000 0.000000 0.087928 0.000000
# 6 0.000000 0.000000 0.000000 0.000000 0.000000 0.065487
#
#
# Mechanical properties :
#
#
# Convention : Reuss Voigt Hill
#
# Bulk Modulus (GPa) = 50.69887 54.04214 52.37050
# Shear Modulus (GPa) = 12.28275 17.12274 14.70274
#
# Velocity S-wave (km/s) = 2.56928 3.03354 2.81101
# Velocity P-wave (km/s) = 6.00409 6.42760 6.21945
#
# Compressibility (1/GPa) = 0.01972431
#
# Stress axis : x y z
#
# Youngs Moduli (GPa) = 88.71676 46.06897 64.58452
#
# Poissons Ratio (x) = 0.28824 0.14125
# Poissons Ratio (y) = 0.55507 0.38267
# Poissons Ratio (z) = 0.19403 0.27296
#
# Static dielectric constant tensor:
#      x y z
#    x 1.727090 0.000000 0.000000 
#    y 0.000000 1.652430 0.000000 
#    z 0.000000 0.000000 1.689800 
# 
# From -- ./inp_files/12484.got.cif
#   From: 2010.05.17/outbox.cif.g08.bks.cpg/sg40_7_cif.got.tgz:12484.got - 2010.06.03 18:35:42.
