data_PCOD9363603
_publ_section_title
;
Structure prediction by ZEFSAII (Michael W. Deem and Ramdas Pophale) SiO2 
 PCOD9363603
Probable space group: A M A 2
;
_chemical_formula_sum "Si O2"
_cell_formula_units_Z 64
_cell_length_a 8.934924
_cell_length_b 14.931193
_cell_length_c 28.541258
_cell_angle_alpha 90.000000
_cell_angle_beta 90.000000
_cell_angle_gamma 90.000000
_cell_volume 3807.662820
_symmetry_space_group_name_H-M "A M A 2"
_symmetry_group_IT_number 40
_symmetry_cell_setting 'orthorhombic'
loop_
_space_group_symop_operation_xyz
x,y,z
-x,-y,z
1/2-x,y,z
1/2+x,-y,z
x,1/2+y,1/2+z
-x,1/2-y,1/2+z
1/2-x,1/2+y,1/2+z
1/2+x,1/2-y,1/2+z
loop_
_atom_site_type_symbol
_atom_site_label
_atom_site_fract_x
_atom_site_fract_y
_atom_site_fract_z
Si Si1 0.570059 0.596481 0.740470
Si Si2 0.429374 0.908818 0.857270
Si Si3 0.575891 0.172570 0.424250
Si Si4 0.074942 0.409328 0.020055
Si Si5 0.572295 0.724449 0.822882
Si Si6 0.570643 0.290753 0.550309
Si Si7 0.424761 0.847454 0.958443
Si Si8 0.929285 0.597250 0.631849
O O1 0.500000 0.500000 0.751421
O O2 0.750000 0.589454 0.744444
O O3 0.519222 0.671909 0.777051
O O4 0.534969 0.617948 0.686283
O O5 0.250000 0.910112 0.854022
O O6 0.492101 0.818465 0.833568
O O7 0.470164 0.903501 0.912761
O O8 0.500000 0.000000 0.837809
O O9 0.750000 0.205655 0.430209
O O10 0.559020 0.097023 0.463361
O O11 0.554705 0.160905 0.368953
O O12 0.458494 0.247615 0.439682
O O13 0.250000 0.414596 0.030513
O O14 0.023023 0.312644 0.039990
O O15 0.000000 0.500000 0.037440
O O16 0.750000 0.742364 0.818308
O O17 0.750000 0.292669 0.552879
O O18 0.517573 0.351453 0.506245
O O19 0.497515 0.330451 0.596718
O O20 0.250000 0.861400 0.968211
O O21 0.750000 0.592953 0.626746
O O22 0.000000 0.500000 0.621406
#
# Coordination Sequence:
#
# PCOD9363603 Si02
#       8
#     8   8   8   8   8   8   8   8
#     4   9  19  34  53  77 102 128 159 199 248 299
#     4  10  20  32  48  72 101 134 170 205 243 289
#     4   8  15  28  44  64  93 128 162 196 235 278
#     4   9  18  30  45  68  98 131 165 199 236 280
#     4   9  17  32  52  72  99 133 166 201 242 288
#     4  10  20  34  51  72  99 131 167 206 249 295
#     4   9  17  29  45  67  94 125 163 202 240 284
#     4  10  20  35  54  76 100 126 159 200 249 301
#
# _framework density 16.808212000000001
#
# number of rings (size 3 to 8) (size 9 to 14) (size 15 to 20)
#    0.000    2.750    0.000    2.250    0.000    6.000 
#    0.000    1.250    0.000    0.750    0.000    1.750 
#    0.000    0.000    0.000    0.000    0.000    0.000 
#
# Total GULP energy -178144.591938 kJ/mol
# GULP energy per Si atom -5567.018498 kJ/mol
# Density = 1.676996 g / cm^3
# Si number density = 16.808212 Si / 1000 Ang^3
#
#
#
# Elastic Constant Matrix: (Units=GPa)
#
#
# Indices 1 2 3 4 5 6 
#
# 1 29.1323 44.0726 40.1103 0.0000 0.0000 0.0000
# 2 44.0726 109.7932 72.4182 0.0000 0.0000 0.0000
# 3 40.1103 72.4182 100.5517 0.0000 0.0000 0.0000
# 4 0.0000 0.0000 0.0000 21.3288 0.0000 0.0000
# 5 0.0000 0.0000 0.0000 0.0000 118.9629 0.0000
# 6 0.0000 0.0000 0.0000 0.0000 0.0000 25.0763
#
#
#
# Elastic Compliance Matrix: (Units=1/GPa)
#
#
# Indices 1 2 3 4 5 6 
#
# 1 0.109509 -0.028851 -0.022905 0.000000 0.000000 0.000000
# 2 -0.028851 0.024951 -0.006461 0.000000 0.000000 0.000000
# 3 -0.022905 -0.006461 0.023735 0.000000 0.000000 0.000000
# 4 0.000000 0.000000 0.000000 0.046885 0.000000 0.000000
# 5 0.000000 0.000000 0.000000 0.000000 0.008406 0.000000
# 6 0.000000 0.000000 0.000000 0.000000 0.000000 0.039878
#
#
# Mechanical properties :
#
#
# Convention : Reuss Voigt Hill
#
# Bulk Modulus (GPa) = 23.94545 61.40882 42.67714
# Shear Modulus (GPa) = 13.03038 38.59866 25.81452
#
# Velocity S-wave (km/s) = 2.78733 4.79729 3.92322
# Velocity P-wave (km/s) = 4.96348 8.20364 6.77997
#
# Compressibility (1/GPa) = 0.04176158
#
# Stress axis : x y z
#
# Youngs Moduli (GPa) = 9.13167 40.07873 42.13127
#
# Poissons Ratio (x) = 1.15630 0.96501
# Poissons Ratio (y) = 0.26346 0.27222
# Poissons Ratio (z) = 0.20916 0.25896
#
# Static dielectric constant tensor:
#      x y z
#    x 1.564640 0.000000 0.000000 
#    y 0.000000 1.564020 0.000000 
#    z 0.000000 0.000000 1.582790 
# 
# From -- ./inp_files/24336.got.cif
#   From: 2010.05.17/outbox.cif.g08.bks.cpg/sg40_13_cif.got.tgz:24336.got - 2010.06.03 18:35:42.
