data_PCOD9363528
_publ_section_title
;
Structure prediction by ZEFSAII (Michael W. Deem and Ramdas Pophale) SiO2 
 PCOD9363528
Probable space group: A M A 2
;
_chemical_formula_sum "Si O2"
_cell_formula_units_Z 64
_cell_length_a 8.592274
_cell_length_b 15.823782
_cell_length_c 24.272662
_cell_angle_alpha 90.000000
_cell_angle_beta 90.000000
_cell_angle_gamma 90.000000
_cell_volume 3300.166240
_symmetry_space_group_name_H-M "A M A 2"
_symmetry_group_IT_number 40
_symmetry_cell_setting 'orthorhombic'
loop_
_space_group_symop_operation_xyz
x,y,z
-x,-y,z
1/2-x,y,z
1/2+x,-y,z
x,1/2+y,1/2+z
-x,1/2-y,1/2+z
1/2-x,1/2+y,1/2+z
1/2+x,1/2-y,1/2+z
loop_
_atom_site_type_symbol
_atom_site_label
_atom_site_fract_x
_atom_site_fract_y
_atom_site_fract_z
Si Si1 0.437037 0.591344 0.626370
Si Si2 0.061117 0.846979 0.748815
Si Si3 0.064163 0.248177 0.560057
Si Si4 0.937349 0.750557 0.936470
Si Si5 0.562830 0.591042 0.368394
Si Si6 0.562196 0.349893 0.748044
Si Si7 0.435750 0.910477 0.363598
Si Si8 0.937199 0.090770 0.629639
O O1 0.500000 0.500000 0.609254
O O2 0.250000 0.592799 0.623560
O O3 0.502898 0.667192 0.589728
O O4 0.483731 0.608948 0.689999
O O5 0.250000 0.847856 0.748612
O O6 0.009932 0.890340 0.805410
O O7 0.013821 0.748651 0.748153
O O8 0.009734 0.891858 0.692735
O O9 0.250000 0.247165 0.561230
O O10 0.003632 0.245894 0.497727
O O11 0.998870 0.167361 0.592812
O O12 0.750000 0.752542 0.938236
O O13 0.986729 0.668502 0.901042
O O14 0.999068 0.833904 0.906053
O O15 0.500000 0.500000 0.385801
O O16 0.750000 0.591649 0.369809
O O17 0.750000 0.352786 0.751768
O O18 0.493089 0.394518 0.801412
O O19 0.250000 0.913207 0.363831
O O20 0.500000 0.000000 0.383699
O O21 0.750000 0.091162 0.628312
O O22 0.000000 0.000000 0.611410
#
# Coordination Sequence:
#
# PCOD9363528 Si02
#       8
#     8   8   8   8   8   8   8   8
#     4  11  23  41  65  94 129 166 206 255 309 370
#     4   9  18  35  62  93 127 166 202 245 305 366
#     4  12  26  44  66  92 121 163 212 261 315 369
#     4  11  25  45  65  89 121 161 210 262 311 365
#     4  11  22  39  64  94 128 164 205 252 305 368
#     4  10  19  37  64  93 127 166 203 247 305 367
#     4  11  24  40  63  94 126 162 204 253 307 367
#     4  11  22  41  65  95 130 167 208 254 309 368
#
# _framework density 19.392963000000002
#
# number of rings (size 3 to 8) (size 9 to 14) (size 15 to 20)
#    0.000    1.250    2.500    3.750    0.000    4.500 
#    0.000    5.625    0.000    0.000    0.000    0.000 
#    0.000    0.000    0.000    0.000    0.000    0.000 
#
# Total GULP energy -178978.120185 kJ/mol
# GULP energy per Si atom -5593.066256 kJ/mol
# Density = 1.934882 g / cm^3
# Si number density = 19.392963 Si / 1000 Ang^3
#
#
#
# Elastic Constant Matrix: (Units=GPa)
#
#
# Indices 1 2 3 4 5 6 
#
# 1 71.3046 48.1024 42.8973 0.0000 0.0000 0.0000
# 2 48.1024 189.2376 73.3264 0.0000 0.0000 0.0000
# 3 42.8973 73.3264 139.8277 0.0000 0.0000 0.0000
# 4 0.0000 0.0000 0.0000 -5.3285 0.0000 0.0000
# 5 0.0000 0.0000 0.0000 0.0000 26.7035 0.0000
# 6 0.0000 0.0000 0.0000 0.0000 0.0000 18.6068
#
#
#
# Elastic Compliance Matrix: (Units=1/GPa)
#
#
# Indices 1 2 3 4 5 6 
#
# 1 0.018589 -0.003157 -0.004047 0.000000 0.000000 0.000000
# 2 -0.003157 0.007168 -0.002790 0.000000 0.000000 0.000000
# 3 -0.004047 -0.002790 0.009857 0.000000 0.000000 0.000000
# 4 0.000000 0.000000 0.000000 -0.187669 0.000000 0.000000
# 5 0.000000 0.000000 0.000000 0.000000 0.037448 0.000000
# 6 0.000000 0.000000 0.000000 0.000000 0.000000 0.053744
#
#
# Mechanical properties :
#
#
# Convention : Reuss Voigt Hill
#
# Bulk Modulus (GPa) = 64.00310 81.00246 72.50278
# Shear Modulus (GPa) = -140.18850 23.73261 -58.22795
#
# Velocity S-wave (km/s) = -8.51148 3.50204 -5.48548
# Velocity P-wave (km/s) = 7.96987 7.62968 1.62891
#
# Compressibility (1/GPa) = 0.01562424
#
# Stress axis : x y z
#
# Youngs Moduli (GPa) = 53.79558 139.50751 101.45392
#
# Poissons Ratio (x) = 0.44040 0.41062
# Poissons Ratio (y) = 0.16982 0.28311
# Poissons Ratio (z) = 0.21773 0.38930
#
# Static dielectric constant tensor:
#      x y z
#    x 1.649620 0.000000 0.000000 
#    y 0.000000 1.662490 0.000000 
#    z 0.000000 0.000000 1.655930 
# 
# From -- ./inp_files/24225.got.cif
#   From: 2010.05.17/outbox.cif.g08.bks.cpg/sg40_13_cif.got.tgz:24225.got - 2010.06.03 18:35:42.
