data_PCOD9363679
_publ_section_title
;
Structure prediction by ZEFSAII (Michael W. Deem and Ramdas Pophale) SiO2 
 PCOD9363679
Probable space group: A M A 2
;
_chemical_formula_sum "Si O2"
_cell_formula_units_Z 48
_cell_length_a 25.616486
_cell_length_b 6.293427
_cell_length_c 14.556529
_cell_angle_alpha 90.000000
_cell_angle_beta 90.000000
_cell_angle_gamma 90.000000
_cell_volume 2346.737877
_symmetry_space_group_name_H-M "A M A 2"
_symmetry_group_IT_number 40
_symmetry_cell_setting 'orthorhombic'
loop_
_space_group_symop_operation_xyz
x,y,z
-x,-y,z
1/2-x,y,z
1/2+x,-y,z
x,1/2+y,1/2+z
-x,1/2-y,1/2+z
1/2-x,1/2+y,1/2+z
1/2+x,1/2-y,1/2+z
loop_
_atom_site_type_symbol
_atom_site_label
_atom_site_fract_x
_atom_site_fract_y
_atom_site_fract_z
Si Si1 0.591233 0.265034 0.434180
Si Si2 0.693122 0.546186 0.381968
Si Si3 0.587718 0.509375 0.611263
Si Si4 0.850131 0.125921 0.687193
Si Si5 0.548350 0.846473 0.739623
Si Si6 0.650557 0.382472 0.010929
O O1 0.645021 0.393446 0.410591
O O2 0.567274 0.363554 0.527573
O O3 0.554313 0.287244 0.346638
O O4 0.609391 0.026670 0.455408
O O5 0.750000 0.447820 0.398154
O O6 0.686323 0.605675 0.275125
O O7 0.688071 0.761785 0.441134
O O8 0.627084 0.359792 0.668675
O O9 0.549242 0.634736 0.678303
O O10 0.620441 0.693506 0.561844
O O11 0.827367 0.033256 0.591781
O O12 0.900459 0.981811 0.712154
O O13 0.500000 0.000000 0.723230
#
# Coordination Sequence:
#
# PCOD9363679 Si02
#       6
#     8   8   8   8   8   8
#     4   9  19  37  55  77 112 144 180 231 280 329
#     4  10  20  33  54  80 105 140 184 227 280 336
#     4   9  18  36  56  76 107 146 177 226 279 325
#     4   9  19  36  55  75 111 143 178 234 280 328
#     4  10  20  35  54  83 109 145 189 224 280 341
#     4   9  18  35  56  74 103 144 179 220 274 331
#
# _framework density 20.453925999999999
#
# number of rings (size 3 to 8) (size 9 to 14) (size 15 to 20)
#    0.000    2.667    0.000    1.000    0.000    2.000 
#    9.000    6.667    0.000    0.000    0.000    0.000 
#    0.000    0.000    0.000    0.000    0.000    0.000 
#
# Total GULP energy -133861.889517 kJ/mol
# GULP energy per Si atom -5577.578730 kJ/mol
# Density = 2.040737 g / cm^3
# Si number density = 20.453926 Si / 1000 Ang^3
#
#
#
# Elastic Constant Matrix: (Units=GPa)
#
#
# Indices 1 2 3 4 5 6 
#
# 1 47.4691 9.0133 20.0870 0.0000 0.0000 0.0000
# 2 9.0133 81.4619 4.5017 0.0000 0.0000 0.0000
# 3 20.0870 4.5017 70.6284 0.0000 0.0000 0.0000
# 4 0.0000 0.0000 0.0000 4.6180 0.0000 0.0000
# 5 0.0000 0.0000 0.0000 0.0000 -5.8430 0.0000
# 6 0.0000 0.0000 0.0000 0.0000 0.0000 19.9982
#
#
#
# Elastic Compliance Matrix: (Units=1/GPa)
#
#
# Indices 1 2 3 4 5 6 
#
# 1 0.024379 -0.002322 -0.006785 0.000000 0.000000 0.000000
# 2 -0.002322 0.012540 -0.000139 0.000000 0.000000 0.000000
# 3 -0.006785 -0.000139 0.016097 0.000000 0.000000 0.000000
# 4 0.000000 0.000000 0.000000 0.216545 0.000000 0.000000
# 5 0.000000 0.000000 0.000000 0.000000 -0.171145 0.000000
# 6 0.000000 0.000000 0.000000 0.000000 0.000000 0.050004
#
#
# Mechanical properties :
#
#
# Convention : Reuss Voigt Hill
#
# Bulk Modulus (GPa) = 28.96613 29.64038 29.30325
# Shear Modulus (GPa) = 28.02359 14.81847 21.42103
#
# Velocity S-wave (km/s) = 3.70548 2.69454 3.23968
# Velocity P-wave (km/s) = 5.70086 4.91970 5.32463
#
# Compressibility (1/GPa) = 0.03452308
#
# Stress axis : x y z
#
# Youngs Moduli (GPa) = 41.01957 79.74285 62.12247
#
# Poissons Ratio (x) = 0.18519 0.42152
# Poissons Ratio (y) = 0.09526 0.00862
# Poissons Ratio (z) = 0.27833 0.01107
#
# Static dielectric constant tensor:
#      x y z
#    x 1.714510 0.000000 0.000000 
#    y 0.000000 1.718170 0.000000 
#    z 0.000000 0.000000 1.757900 
# 
# From -- ./inp_files/18640.got.cif
#   From: 2010.05.17/outbox.cif.g08.bks.cpg/sg40_10_cif.got.tgz:18640.got - 2010.06.03 18:35:42.
