data_PCOD9363931
_publ_section_title
;
Structure prediction by ZEFSAII (Michael W. Deem and Ramdas Pophale) SiO2 
 PCOD9363931
Probable space group: A M A 2
;
_chemical_formula_sum "Si O2"
_cell_formula_units_Z 48
_cell_length_a 8.111242
_cell_length_b 9.678824
_cell_length_c 32.496450
_cell_angle_alpha 90.000000
_cell_angle_beta 90.000000
_cell_angle_gamma 90.000000
_cell_volume 2551.208021
_symmetry_space_group_name_H-M "A M A 2"
_symmetry_group_IT_number 40
_symmetry_cell_setting 'orthorhombic'
loop_
_space_group_symop_operation_xyz
x,y,z
-x,-y,z
1/2-x,y,z
1/2+x,-y,z
x,1/2+y,1/2+z
-x,1/2-y,1/2+z
1/2-x,1/2+y,1/2+z
1/2+x,1/2-y,1/2+z
loop_
_atom_site_type_symbol
_atom_site_label
_atom_site_fract_x
_atom_site_fract_y
_atom_site_fract_z
Si Si1 0.053917 0.658452 0.478600
Si Si2 0.052992 0.157424 0.554733
Si Si3 0.949479 0.659769 0.722947
Si Si4 0.949176 0.842728 0.647291
Si Si5 0.949748 0.160376 0.402301
Si Si6 0.948594 0.160680 0.312312
O O1 0.250000 0.660641 0.475564
O O2 0.987537 0.745198 0.439499
O O3 0.000000 0.500000 0.478493
O O4 0.006161 0.737491 0.520229
O O5 0.250000 0.160258 0.555296
O O6 0.992399 0.192440 0.600995
O O7 0.000000 0.000000 0.545359
O O8 0.750000 0.665473 0.722806
O O9 0.011003 0.745184 0.683814
O O10 0.006479 0.715618 0.767868
O O11 0.000000 0.500000 0.719597
O O12 0.750000 0.835112 0.646914
O O13 0.000000 0.000000 0.655310
O O14 0.750000 0.163098 0.402474
O O15 0.006474 0.212426 0.357002
O O16 0.000000 0.000000 0.407511
O O17 0.750000 0.169784 0.312350
O O18 0.000000 0.000000 0.312062
#
# Coordination Sequence:
#
# PCOD9363931 Si02
#       6
#     8   8   8   8   8   8
#     4  11  23  37  52  73 102 133 165 204 252 300
#     4  10  20  36  56  76  99 129 168 208 247 295
#     4   9  17  30  49  73 100 129 162 200 242 287
#     4   9  19  34  51  73 100 130 163 200 241 287
#     4   9  18  32  52  75  97 126 164 203 243 289
#     4   8  14  27  47  70  96 125 159 199 239 282
#
# _framework density 18.814616999999998
#
# number of rings (size 3 to 8) (size 9 to 14) (size 15 to 20)
#    0.000    2.667    0.000    1.500    0.000    4.667 
#    0.000    2.500    0.000    0.000    0.000    0.000 
#    0.000    0.000    0.000    0.000    0.000    0.000 
#
# Total GULP energy -133743.466250 kJ/mol
# GULP energy per Si atom -5572.644427 kJ/mol
# Density = 1.877179 g / cm^3
# Si number density = 18.814617 Si / 1000 Ang^3
#
#
#
# Elastic Constant Matrix: (Units=GPa)
#
#
# Indices 1 2 3 4 5 6 
#
# 1 16.7507 8.2881 17.8713 0.0000 0.0000 0.0000
# 2 8.2881 95.9584 116.6885 0.0000 0.0000 0.0000
# 3 17.8713 116.6885 218.5278 0.0000 0.0000 0.0000
# 4 0.0000 0.0000 0.0000 29.2821 0.0000 0.0000
# 5 0.0000 0.0000 0.0000 0.0000 17.1283 0.0000
# 6 0.0000 0.0000 0.0000 0.0000 0.0000 25.9099
#
#
#
# Elastic Compliance Matrix: (Units=1/GPa)
#
#
# Indices 1 2 3 4 5 6 
#
# 1 0.065607 0.002446 -0.006672 0.000000 0.000000 0.000000
# 2 0.002446 0.029809 -0.016117 0.000000 0.000000 0.000000
# 3 -0.006672 -0.016117 0.013728 0.000000 0.000000 0.000000
# 4 0.000000 0.000000 0.000000 0.034151 0.000000 0.000000
# 5 0.000000 0.000000 0.000000 0.000000 0.058383 0.000000
# 6 0.000000 0.000000 0.000000 0.000000 0.000000 0.038595
#
#
# Mechanical properties :
#
#
# Convention : Reuss Voigt Hill
#
# Bulk Modulus (GPa) = 14.60740 68.54807 41.57773
# Shear Modulus (GPa) = 16.45941 27.02332 21.74137
#
# Velocity S-wave (km/s) = 2.96095 3.79396 3.40304
# Velocity P-wave (km/s) = 4.41252 7.46356 6.13086
#
# Compressibility (1/GPa) = 0.06845844
#
# Stress axis : x y z
#
# Youngs Moduli (GPa) = 15.24236 33.54665 72.84372
#
# Poissons Ratio (x) = -0.08207 0.48599
# Poissons Ratio (y) = -0.03729 1.17406
# Poissons Ratio (z) = 0.10169 0.54069
#
# Static dielectric constant tensor:
#      x y z
#    x 1.669520 0.000000 0.000000 
#    y 0.000000 1.590210 0.000000 
#    z 0.000000 0.000000 1.725070 
# 
# From -- ./inp_files/26120.got.cif
#   From: 2010.05.17/outbox.cif.g08.bks.cpg/sg40_14_cif.got.tgz:26120.got - 2010.06.03 18:35:42.
