data_PCOD9363218
_publ_section_title
;
Structure prediction by ZEFSAII (Michael W. Deem and Ramdas Pophale) SiO2 
 PCOD9363218
Probable space group: A M A 2
;
_chemical_formula_sum "Si O2"
_cell_formula_units_Z 64
_cell_length_a 18.291928
_cell_length_b 12.452126
_cell_length_c 15.935801
_cell_angle_alpha 90.000000
_cell_angle_beta 90.000000
_cell_angle_gamma 90.000000
_cell_volume 3629.751452
_symmetry_space_group_name_H-M "A M A 2"
_symmetry_group_IT_number 40
_symmetry_cell_setting 'orthorhombic'
loop_
_space_group_symop_operation_xyz
x,y,z
-x,-y,z
1/2-x,y,z
1/2+x,-y,z
x,1/2+y,1/2+z
-x,1/2-y,1/2+z
1/2-x,1/2+y,1/2+z
1/2+x,1/2-y,1/2+z
loop_
_atom_site_type_symbol
_atom_site_label
_atom_site_fract_x
_atom_site_fract_y
_atom_site_fract_z
Si Si1 0.420648 0.053119 0.778640
Si Si2 0.834951 0.772338 0.210036
Si Si3 0.587039 0.519561 0.952256
Si Si4 0.570664 0.747763 0.896601
Si Si5 0.664916 0.535570 0.129600
Si Si6 0.399904 0.712414 0.890516
Si Si7 0.836537 0.873680 0.036266
Si Si8 0.665922 0.570112 0.424304
O O1 0.421436 0.172879 0.817240
O O2 0.500000 0.000000 0.764518
O O3 0.374623 0.044725 0.693736
O O4 0.383027 0.979905 0.850495
O O5 0.750000 0.791832 0.234321
O O6 0.839109 0.652393 0.173057
O O7 0.885317 0.780806 0.291057
O O8 0.854706 0.850004 0.132674
O O9 0.500000 0.500000 0.961900
O O10 0.597345 0.624288 0.893553
O O11 0.618116 0.408085 0.917625
O O12 0.623344 0.541361 0.041775
O O13 0.483892 0.739306 0.911975
O O14 0.614190 0.803301 0.973380
O O15 0.750000 0.508905 0.117621
O O16 0.352638 0.805554 0.933525
O O17 0.750000 0.845324 0.025608
O O18 0.845606 0.996253 0.005934
O O19 0.750000 0.557946 0.398215
#
# Coordination Sequence:
#
# PCOD9363218 Si02
#       8
#     8   8   8   8   8   8   8   8
#     4  11  19  33  59  87 117 146 192 243 294 341
#     4  10  19  35  58  84 112 149 195 234 279 347
#     4  10  23  39  57  79 117 157 193 235 290 349
#     4  10  20  37  57  83 117 148 194 234 289 348
#     4  11  21  35  56  86 113 147 195 238 287 347
#     4  11  21  36  58  84 115 150 191 237 289 347
#     4   9  19  34  58  84 111 145 188 238 282 336
#     4  10  19  33  55  86 116 145 185 239 289 333
#
# _framework density 17.632061
#
# number of rings (size 3 to 8) (size 9 to 14) (size 15 to 20)
#    0.000    1.750    3.750    1.125    0.000    1.500 
#    0.000    1.250    5.500    1.500    0.000    0.000 
#    0.000    0.000    0.000    0.000    0.000    0.000 
#
# Total GULP energy -178477.398312 kJ/mol
# GULP energy per Si atom -5577.418697 kJ/mol
# Density = 1.759193 g / cm^3
# Si number density = 17.632061 Si / 1000 Ang^3
#
#
#
# Elastic Constant Matrix: (Units=GPa)
#
#
# Indices 1 2 3 4 5 6 
#
# 1 51.1671 31.1350 27.2209 0.0000 0.0000 0.0000
# 2 31.1350 114.0934 37.7349 0.0000 0.0000 0.0000
# 3 27.2209 37.7349 66.5357 0.0000 0.0000 0.0000
# 4 0.0000 0.0000 0.0000 21.6586 0.0000 0.0000
# 5 0.0000 0.0000 0.0000 0.0000 49.3698 0.0000
# 6 0.0000 0.0000 0.0000 0.0000 0.0000 16.1270
#
#
#
# Elastic Compliance Matrix: (Units=1/GPa)
#
#
# Indices 1 2 3 4 5 6 
#
# 1 0.026758 -0.004531 -0.008377 0.000000 0.000000 0.000000
# 2 -0.004531 0.011556 -0.004700 0.000000 0.000000 0.000000
# 3 -0.008377 -0.004700 0.021122 0.000000 0.000000 0.000000
# 4 0.000000 0.000000 0.000000 0.046171 0.000000 0.000000
# 5 0.000000 0.000000 0.000000 0.000000 0.020255 0.000000
# 6 0.000000 0.000000 0.000000 0.000000 0.000000 0.062008
#
#
# Mechanical properties :
#
#
# Convention : Reuss Voigt Hill
#
# Bulk Modulus (GPa) = 41.28980 47.10862 44.19921
# Shear Modulus (GPa) = 21.63010 26.47812 24.05411
#
# Velocity S-wave (km/s) = 3.50630 3.87939 3.69755
# Velocity P-wave (km/s) = 6.31351 6.84410 6.58416
#
# Compressibility (1/GPa) = 0.02421905
#
# Stress axis : x y z
#
# Youngs Moduli (GPa) = 37.37234 86.53731 47.34350
#
# Poissons Ratio (x) = 0.39213 0.39660
# Poissons Ratio (y) = 0.16935 0.22251
# Poissons Ratio (z) = 0.31307 0.40671
#
# Static dielectric constant tensor:
#      x y z
#    x 1.600740 0.000000 0.000000 
#    y 0.000000 1.627460 0.000000 
#    z 0.000000 0.000000 1.570480 
# 
# From -- ./inp_files/20814.got.cif
#   From: 2010.05.17/outbox.cif.g08.bks.cpg/sg40_11_cif.got.tgz:20814.got - 2010.06.03 18:35:42.
