data_PCOD9363046
_publ_section_title
;
Structure prediction by ZEFSAII (Michael W. Deem and Ramdas Pophale) SiO2 
 PCOD9363046
Probable space group: A M A 2
;
_chemical_formula_sum "Si O2"
_cell_formula_units_Z 64
_cell_length_a 14.623237
_cell_length_b 19.022527
_cell_length_c 10.132779
_cell_angle_alpha 90.000000
_cell_angle_beta 90.000000
_cell_angle_gamma 90.000000
_cell_volume 2818.644463
_symmetry_space_group_name_H-M "A M A 2"
_symmetry_group_IT_number 40
_symmetry_cell_setting 'orthorhombic'
loop_
_space_group_symop_operation_xyz
x,y,z
-x,-y,z
1/2-x,y,z
1/2+x,-y,z
x,1/2+y,1/2+z
-x,1/2-y,1/2+z
1/2-x,1/2+y,1/2+z
1/2+x,1/2-y,1/2+z
loop_
_atom_site_type_symbol
_atom_site_label
_atom_site_fract_x
_atom_site_fract_y
_atom_site_fract_z
Si Si1 0.148793 0.500348 0.394290
Si Si2 0.637734 0.645496 0.508891
Si Si3 0.861261 0.278702 0.824934
Si Si4 0.639814 0.190161 0.579200
Si Si5 0.591570 0.037474 0.620108
Si Si6 0.144292 0.579404 0.954390
Si Si7 0.359016 0.630615 0.257461
Si Si8 0.639130 0.713906 0.774800
O O1 0.250000 0.510343 0.454025
O O2 0.106331 0.431947 0.462810
O O3 0.158884 0.478098 0.240407
O O4 0.105248 0.577285 0.370095
O O5 0.750000 0.643252 0.499574
O O6 0.610675 0.712920 0.418782
O O7 0.609024 0.662645 0.658333
O O8 0.750000 0.282355 0.838782
O O9 0.881547 0.254789 0.675631
O O10 0.895937 0.356181 0.868470
O O11 0.750000 0.176722 0.594182
O O12 0.620452 0.198051 0.425775
O O13 0.585962 0.120411 0.617762
O O14 0.611422 0.001050 0.478348
O O15 0.500000 0.000000 0.665122
O O16 0.250000 0.572971 0.916158
O O17 0.136731 0.605544 0.106035
O O18 0.250000 0.635712 0.286620
O O19 0.398766 0.707991 0.255551
O O20 0.750000 0.716250 0.760626
#
# Coordination Sequence:
#
# PCOD9363046 Si02
#       8
#     8   8   8   8   8   8   8   8
#     4   9  16  28  50  75 100 129 171 219 260 301
#     4   9  14  24  45  75 102 127 163 209 256 307
#     4   9  15  26  49  77 100 125 166 214 257 301
#     4  10  19  32  51  77 106 135 170 219 268 310
#     4  11  21  32  49  71 106 140 178 215 262 315
#     4   9  16  29  52  76  97 128 174 220 261 308
#     4   8  13  23  41  68  94 120 156 204 251 296
#     4   9  16  26  44  73 105 130 159 204 263 314
#
# _framework density 22.705949
#
# number of rings (size 3 to 8) (size 9 to 14) (size 15 to 20)
#    0.000    2.750    2.500    1.875    0.000    0.000 
#    0.000    1.250    5.500    6.750    0.000    0.000 
#    0.000    0.000    0.000    0.000    0.000    0.000 
#
# Total GULP energy -178161.224186 kJ/mol
# GULP energy per Si atom -5567.538256 kJ/mol
# Density = 2.265427 g / cm^3
# Si number density = 22.705949 Si / 1000 Ang^3
#
#
#
# Elastic Constant Matrix: (Units=GPa)
#
#
# Indices 1 2 3 4 5 6 
#
# 1 48.4005 -2.0760 4.4644 0.0000 0.0000 0.0000
# 2 -2.0760 99.4681 43.5194 0.0000 0.0000 0.0000
# 3 4.4644 43.5194 98.0144 0.0000 0.0000 0.0000
# 4 0.0000 0.0000 0.0000 48.4773 0.0000 0.0000
# 5 0.0000 0.0000 0.0000 0.0000 -3.6499 0.0000
# 6 0.0000 0.0000 0.0000 0.0000 0.0000 -1.5020
#
#
#
# Elastic Compliance Matrix: (Units=1/GPa)
#
#
# Indices 1 2 3 4 5 6 
#
# 1 0.020837 0.001055 -0.001418 0.000000 0.000000 0.000000
# 2 0.001055 0.012531 -0.005612 0.000000 0.000000 0.000000
# 3 -0.001418 -0.005612 0.012759 0.000000 0.000000 0.000000
# 4 0.000000 0.000000 0.000000 0.020628 0.000000 0.000000
# 5 0.000000 0.000000 0.000000 0.000000 -0.273982 0.000000
# 6 0.000000 0.000000 0.000000 0.000000 0.000000 -0.665789
#
#
# Mechanical properties :
#
#
# Convention : Reuss Voigt Hill
#
# Bulk Modulus (GPa) = 29.25858 37.52204 33.39031
# Shear Modulus (GPa) = -5.88460 21.99679 8.05609
#
# Velocity S-wave (km/s) = -1.61161 3.11588 1.88566
# Velocity P-wave (km/s) = 3.07421 5.43194 4.41343
#
# Compressibility (1/GPa) = 0.03417801
#
# Stress axis : x y z
#
# Youngs Moduli (GPa) = 47.99163 79.80335 78.37689
#
# Poissons Ratio (x) = -0.08420 0.11110
# Poissons Ratio (y) = -0.05064 0.43984
# Poissons Ratio (z) = 0.06803 0.44784
#
# Static dielectric constant tensor:
#      x y z
#    x 1.933020 0.000000 0.000000 
#    y 0.000000 1.970950 0.000000 
#    z 0.000000 0.000000 1.859050 
# 
# From -- ./inp_files/7834.got.cif
#   From: 2010.05.17/outbox.cif.g08.bks.cpg/sg40_4_cif.got.tgz:7834.got - 2010.06.03 18:35:42.
