data_PCOD9363654
_publ_section_title
;
Structure prediction by ZEFSAII (Michael W. Deem and Ramdas Pophale) SiO2 
 PCOD9363654
Probable space group: A M A 2
;
_chemical_formula_sum "Si O2"
_cell_formula_units_Z 64
_cell_length_a 8.770661
_cell_length_b 28.700160
_cell_length_c 14.618362
_cell_angle_alpha 90.000000
_cell_angle_beta 90.000000
_cell_angle_gamma 90.000000
_cell_volume 3679.724932
_symmetry_space_group_name_H-M "A M A 2"
_symmetry_group_IT_number 40
_symmetry_cell_setting 'orthorhombic'
loop_
_space_group_symop_operation_xyz
x,y,z
-x,-y,z
1/2-x,y,z
1/2+x,-y,z
x,1/2+y,1/2+z
-x,1/2-y,1/2+z
1/2-x,1/2+y,1/2+z
1/2+x,1/2-y,1/2+z
loop_
_atom_site_type_symbol
_atom_site_label
_atom_site_fract_x
_atom_site_fract_y
_atom_site_fract_z
Si Si1 0.568046 0.678025 0.361350
Si Si2 0.567577 0.051315 0.151694
Si Si3 0.066974 0.550815 0.849403
Si Si4 0.070645 0.281261 0.644319
Si Si5 0.067860 0.136434 0.478664
Si Si6 0.431025 0.633287 0.533170
Si Si7 0.429710 0.779292 0.362498
Si Si8 0.931949 0.680001 0.148634
O O1 0.750000 0.675875 0.372813
O O2 0.487522 0.642919 0.430465
O O3 0.510232 0.730233 0.383194
O O4 0.530886 0.669752 0.254589
O O5 0.750000 0.049352 0.154339
O O6 0.504445 0.065321 0.251936
O O7 0.510635 0.088783 0.078703
O O8 0.500000 0.000000 0.133088
O O9 0.250000 0.547935 0.839371
O O10 0.030001 0.588686 0.926410
O O11 0.000000 0.500000 0.870954
O O12 0.250000 0.283439 0.621451
O O13 0.054038 0.288092 0.753684
O O14 0.982456 0.321334 0.590850
O O15 0.006021 0.229930 0.624077
O O16 0.250000 0.140184 0.484817
O O17 0.003617 0.178911 0.418298
O O18 0.995323 0.142243 0.578370
O O19 0.250000 0.628134 0.536913
O O20 0.250000 0.775686 0.383509
O O21 0.750000 0.683981 0.140600
#
# Coordination Sequence:
#
# PCOD9363654 Si02
#       8
#     8   8   8   8   8   8   8   8
#     4  10  21  37  54  74 103 139 178 221 265 308
#     4  11  22  38  59  83 111 140 171 211 260 313
#     4  10  21  37  57  82 110 140 172 211 261 313
#     4  10  20  34  52  76 108 143 178 218 262 311
#     4  11  22  34  52  77 106 139 175 216 261 312
#     4  12  23  35  54  79 107 140 178 218 261 313
#     4  10  20  33  51  76 106 141 178 215 258 309
#     4  10  21  36  54  75 103 140 180 222 264 309
#
# _framework density 17.392605
#
# number of rings (size 3 to 8) (size 9 to 14) (size 15 to 20)
#    0.000    1.500    0.000    6.750    0.000    7.000 
#    0.000    0.000    0.000    0.750    0.000    1.750 
#    0.000    0.000    0.000    0.000    0.000    0.000 
#
# Total GULP energy -178914.445805 kJ/mol
# GULP energy per Si atom -5591.076431 kJ/mol
# Density = 1.735302 g / cm^3
# Si number density = 17.392605 Si / 1000 Ang^3
#
#
#
# Elastic Constant Matrix: (Units=GPa)
#
#
# Indices 1 2 3 4 5 6 
#
# 1 103.1772 48.5520 53.9826 0.0000 0.0000 0.0000
# 2 48.5520 83.0703 72.2656 0.0000 0.0000 0.0000
# 3 53.9826 72.2656 93.9366 0.0000 0.0000 0.0000
# 4 0.0000 0.0000 0.0000 28.8671 0.0000 0.0000
# 5 0.0000 0.0000 0.0000 0.0000 33.0213 0.0000
# 6 0.0000 0.0000 0.0000 0.0000 0.0000 28.9541
#
#
#
# Elastic Compliance Matrix: (Units=1/GPa)
#
#
# Indices 1 2 3 4 5 6 
#
# 1 0.014213 -0.003633 -0.005373 0.000000 0.000000 0.000000
# 2 -0.003633 0.037324 -0.026625 0.000000 0.000000 0.000000
# 3 -0.005373 -0.026625 0.034216 0.000000 0.000000 0.000000
# 4 0.000000 0.000000 0.000000 0.034642 0.000000 0.000000
# 5 0.000000 0.000000 0.000000 0.000000 0.030284 0.000000
# 6 0.000000 0.000000 0.000000 0.000000 0.000000 0.034537
#
#
# Mechanical properties :
#
#
# Convention : Reuss Voigt Hill
#
# Bulk Modulus (GPa) = 69.01254 69.97605 69.49430
# Shear Modulus (GPa) = 19.13458 25.19409 22.16433
#
# Velocity S-wave (km/s) = 3.32046 3.81011 3.57368
# Velocity P-wave (km/s) = 7.38011 7.72506 7.55455
#
# Compressibility (1/GPa) = 0.01449012
#
# Stress axis : x y z
#
# Youngs Moduli (GPa) = 70.35978 26.79269 29.22603
#
# Poissons Ratio (x) = 0.09733 0.15703
# Poissons Ratio (y) = 0.25561 0.77816
# Poissons Ratio (z) = 0.37803 0.71337
#
# Static dielectric constant tensor:
#      x y z
#    x 1.578150 0.000000 0.000000 
#    y 0.000000 1.557880 0.000000 
#    z 0.000000 0.000000 1.605080 
# 
# From -- ./inp_files/15627.got.cif
#   From: 2010.05.17/outbox.cif.g08.bks.cpg/sg40_8_cif.got.tgz:15627.got - 2010.06.03 18:35:42.
