data_PCOD9363613
_publ_section_title
;
Structure prediction by ZEFSAII (Michael W. Deem and Ramdas Pophale) SiO2 
 PCOD9363613
Probable space group: A M A 2
;
_chemical_formula_sum "Si O2"
_cell_formula_units_Z 48
_cell_length_a 8.783819
_cell_length_b 14.076651
_cell_length_c 24.129167
_cell_angle_alpha 90.000000
_cell_angle_beta 90.000000
_cell_angle_gamma 90.000000
_cell_volume 2983.493189
_symmetry_space_group_name_H-M "A M A 2"
_symmetry_group_IT_number 40
_symmetry_cell_setting 'orthorhombic'
loop_
_space_group_symop_operation_xyz
x,y,z
-x,-y,z
1/2-x,y,z
1/2+x,-y,z
x,1/2+y,1/2+z
-x,1/2-y,1/2+z
1/2-x,1/2+y,1/2+z
1/2+x,1/2-y,1/2+z
loop_
_atom_site_type_symbol
_atom_site_label
_atom_site_fract_x
_atom_site_fract_y
_atom_site_fract_z
Si Si1 0.066938 0.395648 0.870340
Si Si2 0.566923 0.396889 0.326185
Si Si3 0.432261 0.283865 0.429645
Si Si4 0.931053 0.396991 0.658149
Si Si5 0.932951 0.395707 0.529844
Si Si6 0.068221 0.286487 0.757605
O O1 0.250000 0.395624 0.875230
O O2 0.028158 0.356647 0.808684
O O3 0.000000 0.500000 0.878225
O O4 0.996762 0.318981 0.912467
O O5 0.500000 0.500000 0.314342
O O6 0.750000 0.400267 0.331984
O O7 0.495975 0.355975 0.382873
O O8 0.529601 0.318978 0.279078
O O9 0.250000 0.283764 0.428769
O O10 0.494994 0.320408 0.488115
O O11 0.750000 0.403930 0.661443
O O12 0.971687 0.375558 0.594192
O O13 0.000000 0.500000 0.672240
O O14 0.989759 0.320515 0.701819
O O15 0.750000 0.397553 0.523967
O O16 0.000000 0.500000 0.516723
O O17 0.250000 0.291303 0.750373
#
# Coordination Sequence:
#
# PCOD9363613 Si02
#       6
#     8   8   8   8   8   8
#     4  10  20  34  51  74 102 132 164 201 243 290
#     4  10  20  34  51  73 100 131 163 201 245 292
#     4  11  21  33  51  74  99 131 165 202 245 290
#     4  10  20  32  50  73  99 130 163 200 243 288
#     4  10  20  34  50  72 100 130 163 202 245 293
#     4   9  19  33  50  72 100 130 161 198 241 287
#
# _framework density 16.088524
#
# number of rings (size 3 to 8) (size 9 to 14) (size 15 to 20)
#    0.000    2.000    0.000    5.500    0.000    7.333 
#    0.000    0.000    0.000    1.000    0.000    2.333 
#    0.000    0.000    0.000    0.000    0.000    0.000 
#
# Total GULP energy -133993.000060 kJ/mol
# GULP energy per Si atom -5583.041669 kJ/mol
# Density = 1.605191 g / cm^3
# Si number density = 16.088524 Si / 1000 Ang^3
#
#
#
# Elastic Constant Matrix: (Units=GPa)
#
#
# Indices 1 2 3 4 5 6 
#
# 1 79.1261 59.5431 49.7025 0.0000 0.0000 0.0000
# 2 59.5431 143.8468 76.7939 0.0000 0.0000 0.0000
# 3 49.7025 76.7939 92.2487 0.0000 0.0000 0.0000
# 4 0.0000 0.0000 0.0000 21.1898 0.0000 0.0000
# 5 0.0000 0.0000 0.0000 0.0000 26.5917 0.0000
# 6 0.0000 0.0000 0.0000 0.0000 0.0000 30.6816
#
#
#
# Elastic Compliance Matrix: (Units=1/GPa)
#
#
# Indices 1 2 3 4 5 6 
#
# 1 0.020740 -0.004715 -0.007249 0.000000 0.000000 0.000000
# 2 -0.004715 0.013585 -0.008768 0.000000 0.000000 0.000000
# 3 -0.007249 -0.008768 0.022046 0.000000 0.000000 0.000000
# 4 0.000000 0.000000 0.000000 0.047192 0.000000 0.000000
# 5 0.000000 0.000000 0.000000 0.000000 0.037606 0.000000
# 6 0.000000 0.000000 0.000000 0.000000 0.000000 0.032593
#
#
# Mechanical properties :
#
#
# Convention : Reuss Voigt Hill
#
# Bulk Modulus (GPa) = 67.09338 76.36674 71.73006
# Shear Modulus (GPa) = 22.70725 24.30477 23.50601
#
# Velocity S-wave (km/s) = 3.76093 3.89098 3.82650
# Velocity P-wave (km/s) = 7.78798 8.23140 8.01276
#
# Compressibility (1/GPa) = 0.01490460
#
# Stress axis : x y z
#
# Youngs Moduli (GPa) = 48.21711 73.61331 45.36039
#
# Poissons Ratio (x) = 0.34706 0.32884
# Poissons Ratio (y) = 0.22732 0.39774
# Poissons Ratio (z) = 0.34955 0.64548
#
# Static dielectric constant tensor:
#      x y z
#    x 1.535560 0.000000 0.000000 
#    y 0.000000 1.518120 0.000000 
#    z 0.000000 0.000000 1.530380 
# 
# From -- ./inp_files/21986.got.cif
#   From: 2010.05.17/outbox.cif.g08.bks.cpg/sg40_11_cif.got.tgz:21986.got - 2010.06.03 18:35:42.
