data_PCOD9363421
_publ_section_title
;
Structure prediction by ZEFSAII (Michael W. Deem and Ramdas Pophale) SiO2 
 PCOD9363421
Probable space group: A M A 2
;
_chemical_formula_sum "Si O2"
_cell_formula_units_Z 64
_cell_length_a 21.157842
_cell_length_b 8.968312
_cell_length_c 14.385106
_cell_angle_alpha 90.000000
_cell_angle_beta 90.000000
_cell_angle_gamma 90.000000
_cell_volume 2729.575709
_symmetry_space_group_name_H-M "A M A 2"
_symmetry_group_IT_number 40
_symmetry_cell_setting 'orthorhombic'
loop_
_space_group_symop_operation_xyz
x,y,z
-x,-y,z
1/2-x,y,z
1/2+x,-y,z
x,1/2+y,1/2+z
-x,1/2-y,1/2+z
1/2-x,1/2+y,1/2+z
1/2+x,1/2-y,1/2+z
loop_
_atom_site_type_symbol
_atom_site_label
_atom_site_fract_x
_atom_site_fract_y
_atom_site_fract_z
Si Si1 0.820142 0.662435 0.392410
Si Si2 0.905291 0.268371 0.137185
Si Si3 0.678536 0.740207 0.006951
Si Si4 0.643415 0.090902 0.687722
Si Si5 0.545848 0.139048 0.959517
Si Si6 0.325736 0.497270 0.860121
Si Si7 0.325394 0.508589 0.646022
Si Si8 0.013864 0.320335 0.259175
O O1 0.750000 0.626446 0.429985
O O2 0.819479 0.624320 0.282347
O O3 0.883978 0.584694 0.427634
O O4 0.832119 0.839662 0.406453
O O5 0.877555 0.422078 0.173032
O O6 0.848061 0.155919 0.122348
O O7 0.957755 0.228654 0.213778
O O8 0.944944 0.255698 0.042305
O O9 0.750000 0.781667 0.977927
O O10 0.680052 0.628431 0.094326
O O11 0.650636 0.879979 0.065371
O O12 0.649590 0.643598 0.921328
O O13 0.578857 0.186242 0.701808
O O14 0.521150 0.217831 0.866562
O O15 0.500000 0.000000 0.983069
O O16 0.250000 0.471942 0.854240
O O17 0.347768 0.521059 0.753687
O O18 0.250000 0.528368 0.648194
O O19 0.000000 0.500000 0.258847
#
# Coordination Sequence:
#
# PCOD9363421 Si02
#       8
#     8   8   8   8   8   8   8   8
#     4  10  19  37  70 103 135 179 239 301 363 438
#     4  11  23  41  65  93 130 178 236 288 362 438
#     4  10  19  35  61  90 130 180 222 271 350 428
#     4  10  19  36  65  94 126 170 230 298 357 424
#     4  10  22  42  64  92 140 182 225 290 365 441
#     4   9  18  36  61  94 134 178 228 285 356 438
#     4  10  22  40  59  95 144 178 223 294 364 439
#     4   8  19  41  62  85 122 171 222 283 347 417
#
# _framework density 23.446867000000001
#
# number of rings (size 3 to 8) (size 9 to 14) (size 15 to 20)
#    0.000    2.250    1.250    1.875    0.000    2.500 
#   11.250    0.000    0.000    0.000    0.000    0.000 
#    0.000    0.000    0.000    0.000    0.000    0.000 
#
# Total GULP energy -178325.990447 kJ/mol
# GULP energy per Si atom -5572.687201 kJ/mol
# Density = 2.339350 g / cm^3
# Si number density = 23.446867 Si / 1000 Ang^3
#
#
#
# Elastic Constant Matrix: (Units=GPa)
#
#
# Indices 1 2 3 4 5 6 
#
# 1 62.1297 21.1224 13.0367 0.0000 0.0000 0.0000
# 2 21.1224 101.1730 46.9614 0.0000 0.0000 0.0000
# 3 13.0367 46.9614 129.0769 0.0000 0.0000 0.0000
# 4 0.0000 0.0000 0.0000 48.0818 0.0000 0.0000
# 5 0.0000 0.0000 0.0000 0.0000 25.3838 0.0000
# 6 0.0000 0.0000 0.0000 0.0000 0.0000 18.9304
#
#
#
# Elastic Compliance Matrix: (Units=1/GPa)
#
#
# Indices 1 2 3 4 5 6 
#
# 1 0.017354 -0.003380 -0.000523 0.000000 0.000000 0.000000
# 2 -0.003380 0.012551 -0.004225 0.000000 0.000000 0.000000
# 3 -0.000523 -0.004225 0.009337 0.000000 0.000000 0.000000
# 4 0.000000 0.000000 0.000000 0.020798 0.000000 0.000000
# 5 0.000000 0.000000 0.000000 0.000000 0.039395 0.000000
# 6 0.000000 0.000000 0.000000 0.000000 0.000000 0.052825
#
#
# Mechanical properties :
#
#
# Convention : Reuss Voigt Hill
#
# Bulk Modulus (GPa) = 43.50472 50.51339 47.00906
# Shear Modulus (GPa) = 28.38020 32.56313 30.47166
#
# Velocity S-wave (km/s) = 3.48286 3.73071 3.60891
# Velocity P-wave (km/s) = 5.89649 6.33626 6.12033
#
# Compressibility (1/GPa) = 0.02298601
#
# Stress axis : x y z
#
# Youngs Moduli (GPa) = 57.62247 79.67566 107.09788
#
# Poissons Ratio (x) = 0.26934 0.05600
# Poissons Ratio (y) = 0.19479 0.45248
# Poissons Ratio (z) = 0.03013 0.33662
#
# Static dielectric constant tensor:
#      x y z
#    x 1.937650 0.000000 0.000000 
#    y 0.000000 1.941040 0.000000 
#    z 0.000000 0.000000 1.946380 
# 
# From -- ./inp_files/18529.got.cif
#   From: 2010.05.17/outbox.cif.g08.bks.cpg/sg40_10_cif.got.tgz:18529.got - 2010.06.03 18:35:42.
