data_PCOD9363501
_publ_section_title
;
Structure prediction by ZEFSAII (Michael W. Deem and Ramdas Pophale) SiO2 
 PCOD9363501
Probable space group: A M A 2
;
_chemical_formula_sum "Si O2"
_cell_formula_units_Z 64
_cell_length_a 18.186013
_cell_length_b 11.834125
_cell_length_c 16.729105
_cell_angle_alpha 90.000000
_cell_angle_beta 90.000000
_cell_angle_gamma 90.000000
_cell_volume 3600.363552
_symmetry_space_group_name_H-M "A M A 2"
_symmetry_group_IT_number 40
_symmetry_cell_setting 'orthorhombic'
loop_
_space_group_symop_operation_xyz
x,y,z
-x,-y,z
1/2-x,y,z
1/2+x,-y,z
x,1/2+y,1/2+z
-x,1/2-y,1/2+z
1/2-x,1/2+y,1/2+z
1/2+x,1/2-y,1/2+z
loop_
_atom_site_type_symbol
_atom_site_label
_atom_site_fract_x
_atom_site_fract_y
_atom_site_fract_z
Si Si1 0.836058 0.952060 0.818600
Si Si2 0.337054 0.112090 0.395533
Si Si3 0.661786 0.851491 0.215634
Si Si4 0.838227 0.596215 0.163741
Si Si5 0.387659 0.857218 0.939525
Si Si6 0.941256 0.814584 0.926656
Si Si7 0.585069 0.979035 0.073586
Si Si8 0.075693 0.933616 0.498282
O O1 0.750000 0.918164 0.820235
O O2 0.890101 0.855534 0.853295
O O3 0.854342 0.000744 0.730620
O O4 0.846995 0.058594 0.878598
O O5 0.250000 0.096462 0.394990
O O6 0.364006 0.117045 0.304121
O O7 0.355358 0.232903 0.434310
O O8 0.374910 0.012902 0.443207
O O9 0.750000 0.860192 0.213186
O O10 0.643836 0.720289 0.198778
O O11 0.628297 0.932511 0.148848
O O12 0.750000 0.592820 0.148974
O O13 0.882840 0.583631 0.082167
O O14 0.473923 0.851290 0.915072
O O15 0.384699 0.910296 0.028249
O O16 0.937736 0.684168 0.951934
O O17 0.913578 0.884564 0.003915
O O18 0.500000 0.000000 0.094631
O O19 0.000000 0.000000 0.512365
#
# Coordination Sequence:
#
# PCOD9363501 Si02
#       8
#     8   8   8   8   8   8   8   8
#     4  10  20  36  62  92 118 152 199 251 298 348
#     4  11  23  39  59  84 120 158 194 244 298 356
#     4  10  20  37  59  85 116 151 195 238 285 348
#     4  10  21  39  61  87 119 154 198 243 290 354
#     4  10  19  37  59  86 120 153 196 243 295 354
#     4  10  21  38  59  87 122 153 197 250 297 349
#     4   9  19  35  59  85 115 149 190 245 289 336
#     4  12  24  40  60  87 120 159 200 242 301 364
#
# _framework density 17.775983
#
# number of rings (size 3 to 8) (size 9 to 14) (size 15 to 20)
#    0.000    1.750    3.750    1.875    0.000    5.000 
#    0.000    1.250    0.000    1.500    0.000    0.000 
#    0.000    0.000    0.000    0.000    0.000    0.000 
#
# Total GULP energy -178606.936259 kJ/mol
# GULP energy per Si atom -5581.466758 kJ/mol
# Density = 1.773552 g / cm^3
# Si number density = 17.775983 Si / 1000 Ang^3
#
#
#
# Elastic Constant Matrix: (Units=GPa)
#
#
# Indices 1 2 3 4 5 6 
#
# 1 54.6524 16.7061 44.0711 0.0000 0.0000 0.0000
# 2 16.7061 48.5539 27.7037 0.0000 0.0000 0.0000
# 3 44.0711 27.7037 100.3783 0.0000 0.0000 0.0000
# 4 0.0000 0.0000 0.0000 24.7698 0.0000 0.0000
# 5 0.0000 0.0000 0.0000 0.0000 147.2512 0.0000
# 6 0.0000 0.0000 0.0000 0.0000 0.0000 27.5613
#
#
#
# Elastic Compliance Matrix: (Units=1/GPa)
#
#
# Indices 1 2 3 4 5 6 
#
# 1 0.028737 -0.003191 -0.011736 0.000000 0.000000 0.000000
# 2 -0.003191 0.024800 -0.005443 0.000000 0.000000 0.000000
# 3 -0.011736 -0.005443 0.016617 0.000000 0.000000 0.000000
# 4 0.000000 0.000000 0.000000 0.040372 0.000000 0.000000
# 5 0.000000 0.000000 0.000000 0.000000 0.006791 0.000000
# 6 0.000000 0.000000 0.000000 0.000000 0.000000 0.036283
#
#
# Mechanical properties :
#
#
# Convention : Reuss Voigt Hill
#
# Bulk Modulus (GPa) = 33.99938 42.28292 38.14115
# Shear Modulus (GPa) = 24.49237 47.59004 36.04120
#
# Velocity S-wave (km/s) = 3.71595 5.17979 4.50769
# Velocity P-wave (km/s) = 6.13018 7.72087 6.97104
#
# Compressibility (1/GPa) = 0.02941230
#
# Stress axis : x y z
#
# Youngs Moduli (GPa) = 34.79847 40.32332 60.17781
#
# Poissons Ratio (x) = 0.12868 0.70626
# Poissons Ratio (y) = 0.11105 0.32757
# Poissons Ratio (z) = 0.40840 0.21950
#
# Static dielectric constant tensor:
#      x y z
#    x 1.602550 0.000000 0.000000 
#    y 0.000000 1.600870 0.000000 
#    z 0.000000 0.000000 1.590010 
# 
# From -- ./inp_files/17851.got.cif
#   From: 2010.05.17/outbox.cif.g08.bks.cpg/sg40_9_cif.got.tgz:17851.got - 2010.06.03 18:35:42.
