data_PCOD9363859
_publ_section_title
;
Structure prediction by ZEFSAII (Michael W. Deem and Ramdas Pophale) SiO2 
 PCOD9363859
Probable space group: A M A 2
;
_chemical_formula_sum "Si O2"
_cell_formula_units_Z 48
_cell_length_a 10.912985
_cell_length_b 25.581838
_cell_length_c 8.961590
_cell_angle_alpha 90.000000
_cell_angle_beta 90.000000
_cell_angle_gamma 90.000000
_cell_volume 2501.844848
_symmetry_space_group_name_H-M "A M A 2"
_symmetry_group_IT_number 40
_symmetry_cell_setting 'orthorhombic'
loop_
_space_group_symop_operation_xyz
x,y,z
-x,-y,z
1/2-x,y,z
1/2+x,-y,z
x,1/2+y,1/2+z
-x,1/2-y,1/2+z
1/2-x,1/2+y,1/2+z
1/2+x,1/2-y,1/2+z
loop_
_atom_site_type_symbol
_atom_site_label
_atom_site_fract_x
_atom_site_fract_y
_atom_site_fract_z
Si Si1 0.619318 0.523700 0.369190
Si Si2 0.111463 0.648164 0.001612
Si Si3 0.388436 0.292043 0.153724
Si Si4 0.116661 0.026212 0.538041
Si Si5 0.112983 0.857830 0.946623
Si Si6 0.113414 0.166637 0.151021
O O1 0.500000 0.500000 0.445834
O O2 0.750000 0.510662 0.441515
O O3 0.622642 0.499904 0.202412
O O4 0.608728 0.586129 0.364394
O O5 0.250000 0.666214 0.044946
O O6 0.106212 0.649359 0.822647
O O7 0.098419 0.588182 0.053499
O O8 0.000755 0.682328 0.065401
O O9 0.250000 0.307538 0.102185
O O10 0.398912 0.312686 0.323144
O O11 0.395403 0.229639 0.147570
O O12 0.250000 0.017733 0.466064
O O13 0.000000 0.000000 0.460278
O O14 0.250000 0.853337 0.014962
O O15 0.000183 0.855190 0.058686
O O16 0.250000 0.152185 0.093265
#
# Coordination Sequence:
#
# PCOD9363859 Si02
#       6
#     8   8   8   8   8   8
#     4   9  17  30  51  79 105 131 171 221 270 320
#     4  10  21  37  58  84 113 146 185 230 278 328
#     4  10  20  35  57  83 111 147 190 232 272 321
#     4   9  17  31  53  79 104 132 171 221 273 321
#     4  10  21  37  57  82 113 148 185 228 278 330
#     4  10  22  38  54  79 116 152 186 226 275 330
#
# _framework density 19.185842000000001
#
# number of rings (size 3 to 8) (size 9 to 14) (size 15 to 20)
#    0.000    2.333    0.000    3.000    0.000    6.000 
#    0.000    0.833    0.000    4.000    0.000    0.000 
#    0.000    0.000    0.000    0.000    0.000    0.000 
#
# Total GULP energy -133757.449756 kJ/mol
# GULP energy per Si atom -5573.227073 kJ/mol
# Density = 1.914217 g / cm^3
# Si number density = 19.185842 Si / 1000 Ang^3
#
#
#
# Elastic Constant Matrix: (Units=GPa)
#
#
# Indices 1 2 3 4 5 6 
#
# 1 189.0434 49.8576 54.2199 0.0000 0.0000 0.0000
# 2 49.8576 74.5126 26.0871 0.0000 0.0000 0.0000
# 3 54.2199 26.0871 46.1563 0.0000 0.0000 0.0000
# 4 0.0000 0.0000 0.0000 72.1285 0.0000 0.0000
# 5 0.0000 0.0000 0.0000 0.0000 28.6811 0.0000
# 6 0.0000 0.0000 0.0000 0.0000 0.0000 20.8110
#
#
#
# Elastic Compliance Matrix: (Units=1/GPa)
#
#
# Indices 1 2 3 4 5 6 
#
# 1 0.008391 -0.002697 -0.008332 0.000000 0.000000 0.000000
# 2 -0.002697 0.017598 -0.006778 0.000000 0.000000 0.000000
# 3 -0.008332 -0.006778 0.035284 0.000000 0.000000 0.000000
# 4 0.000000 0.000000 0.000000 0.013864 0.000000 0.000000
# 5 0.000000 0.000000 0.000000 0.000000 0.034866 0.000000
# 6 0.000000 0.000000 0.000000 0.000000 0.000000 0.048052
#
#
# Mechanical properties :
#
#
# Convention : Reuss Voigt Hill
#
# Bulk Modulus (GPa) = 38.97336 63.33795 51.15566
# Shear Modulus (GPa) = 24.72510 36.29396 30.50953
#
# Velocity S-wave (km/s) = 3.59376 4.35409 3.99207
# Velocity P-wave (km/s) = 6.13008 7.63950 6.92603
#
# Compressibility (1/GPa) = 0.02565855
#
# Stress axis : x y z
#
# Youngs Moduli (GPa) = 119.17494 56.82358 28.34115
#
# Poissons Ratio (x) = 0.15327 0.23615
# Poissons Ratio (y) = 0.32146 0.19209
# Poissons Ratio (z) = 0.99302 0.38514
#
# Static dielectric constant tensor:
#      x y z
#    x 1.803800 0.000000 0.000000 
#    y 0.000000 1.658650 0.000000 
#    z 0.000000 0.000000 1.624900 
# 
# From -- ./inp_files/5426.got.cif
#   From: 2010.05.17/outbox.cif.g08.bks.cpg/sg40_3_cif.got.tgz:5426.got - 2010.06.03 18:35:42.
