data_PCOD9363435
_publ_section_title
;
Structure prediction by ZEFSAII (Michael W. Deem and Ramdas Pophale) SiO2 
 PCOD9363435
Probable space group: A M A 2
;
_chemical_formula_sum "Si O2"
_cell_formula_units_Z 64
_cell_length_a 13.229517
_cell_length_b 25.714594
_cell_length_c 9.715127
_cell_angle_alpha 90.000000
_cell_angle_beta 90.000000
_cell_angle_gamma 90.000000
_cell_volume 3305.005166
_symmetry_space_group_name_H-M "A M A 2"
_symmetry_group_IT_number 40
_symmetry_cell_setting 'orthorhombic'
loop_
_space_group_symop_operation_xyz
x,y,z
-x,-y,z
1/2-x,y,z
1/2+x,-y,z
x,1/2+y,1/2+z
-x,1/2-y,1/2+z
1/2-x,1/2+y,1/2+z
1/2+x,1/2-y,1/2+z
loop_
_atom_site_type_symbol
_atom_site_label
_atom_site_fract_x
_atom_site_fract_y
_atom_site_fract_z
Si Si1 0.066169 0.242715 0.360080
Si Si2 0.857601 0.799554 0.866097
Si Si3 0.862543 0.542168 0.797244
Si Si4 0.419212 0.574792 0.865330
Si Si5 0.571343 0.844295 0.589864
Si Si6 0.634317 0.108161 0.040419
Si Si7 0.570218 0.343707 0.636991
Si Si8 0.364491 0.850983 0.753711
O O1 0.086172 0.205455 0.489476
O O2 0.080781 0.208626 0.223902
O O3 0.126516 0.296066 0.336850
O O4 0.949839 0.259821 0.370062
O O5 0.750000 0.772659 0.872750
O O6 0.868557 0.832615 0.727968
O O7 0.871925 0.837276 0.995449
O O8 0.750000 0.559747 0.837922
O O9 0.875397 0.482014 0.837694
O O10 0.873059 0.555884 0.633758
O O11 0.958215 0.570342 0.865054
O O12 0.391953 0.610643 0.735513
O O13 0.393243 0.605656 0.003718
O O14 0.454436 0.850182 0.642018
O O15 0.750000 0.126993 0.058697
O O16 0.547215 0.145035 0.101549
O O17 0.617609 0.106560 0.875705
O O18 0.250000 0.856538 0.700335
#
# Coordination Sequence:
#
# PCOD9363435 Si02
#       8
#     8   8   8   8   8   8   8   8
#     4  10  21  35  52  78 112 154 192 227 269 325
#     4  11  22  34  51  76 113 151 187 226 269 324
#     4   9  18  35  60  86 107 133 183 233 277 336
#     4   9  20  36  60  82 108 146 179 230 288 330
#     4  10  21  37  54  80 116 149 187 230 279 332
#     4   9  17  32  57  83 105 138 185 235 278 320
#     4  10  19  36  54  77 111 146 189 228 270 330
#     4  10  20  33  54  80 115 152 188 234 282 327
#
# _framework density 19.364567999999998
#
# number of rings (size 3 to 8) (size 9 to 14) (size 15 to 20)
#    0.000    2.250    2.500    1.500    0.000    4.500 
#    0.000    5.000    5.500    0.000    0.000    0.000 
#    0.000    0.000    0.000    0.000    0.000    0.000 
#
# Total GULP energy -178331.107499 kJ/mol
# GULP energy per Si atom -5572.847109 kJ/mol
# Density = 1.932049 g / cm^3
# Si number density = 19.364568 Si / 1000 Ang^3
#
#
#
# Elastic Constant Matrix: (Units=GPa)
#
#
# Indices 1 2 3 4 5 6 
#
# 1 60.8095 -8.3418 6.1545 0.0000 0.0000 0.0000
# 2 -8.3418 63.3748 37.0442 0.0000 0.0000 0.0000
# 3 6.1545 37.0442 118.0030 0.0000 0.0000 0.0000
# 4 0.0000 0.0000 0.0000 191.2581 0.0000 0.0000
# 5 0.0000 0.0000 0.0000 0.0000 3.9494 0.0000
# 6 0.0000 0.0000 0.0000 0.0000 0.0000 -14.8369
#
#
#
# Elastic Compliance Matrix: (Units=1/GPa)
#
#
# Indices 1 2 3 4 5 6 
#
# 1 0.017109 0.003397 -0.001959 0.000000 0.000000 0.000000
# 2 0.003397 0.020000 -0.006456 0.000000 0.000000 0.000000
# 3 -0.001959 -0.006456 0.010603 0.000000 0.000000 0.000000
# 4 0.000000 0.000000 0.000000 0.005229 0.000000 0.000000
# 5 0.000000 0.000000 0.000000 0.000000 0.253206 0.000000
# 6 0.000000 0.000000 0.000000 0.000000 0.000000 -0.067399
#
#
# Mechanical properties :
#
#
# Convention : Reuss Voigt Hill
#
# Bulk Modulus (GPa) = 26.54137 34.65569 30.59853
# Shear Modulus (GPa) = 19.13214 49.89613 34.51413
#
# Velocity S-wave (km/s) = 3.14665 5.08160 4.22635
# Velocity P-wave (km/s) = 5.19016 7.23640 6.29696
#
# Compressibility (1/GPa) = 0.03767703
#
# Stress axis : x y z
#
# Youngs Moduli (GPa) = 58.44872 50.00067 94.31204
#
# Poissons Ratio (x) = -0.16985 0.18473
# Poissons Ratio (y) = -0.19854 0.60884
# Poissons Ratio (z) = 0.11448 0.32278
#
# Static dielectric constant tensor:
#      x y z
#    x 1.694430 0.000000 0.000000 
#    y 0.000000 1.515590 0.000000 
#    z 0.000000 0.000000 1.684350 
# 
# From -- ./inp_files/6962.got.cif
#   From: 2010.05.17/outbox.cif.g08.bks.cpg/sg40_4_cif.got.tgz:6962.got - 2010.06.03 18:35:42.
