data_PCOD9363388
_publ_section_title
;
Structure prediction by ZEFSAII (Michael W. Deem and Ramdas Pophale) SiO2 
 PCOD9363388
Probable space group: A M A 2
;
_chemical_formula_sum "Si O2"
_cell_formula_units_Z 64
_cell_length_a 8.312146
_cell_length_b 27.517864
_cell_length_c 13.486319
_cell_angle_alpha 90.000000
_cell_angle_beta 90.000000
_cell_angle_gamma 90.000000
_cell_volume 3084.759504
_symmetry_space_group_name_H-M "A M A 2"
_symmetry_group_IT_number 40
_symmetry_cell_setting 'orthorhombic'
loop_
_space_group_symop_operation_xyz
x,y,z
-x,-y,z
1/2-x,y,z
1/2+x,-y,z
x,1/2+y,1/2+z
-x,1/2-y,1/2+z
1/2-x,1/2+y,1/2+z
1/2+x,1/2-y,1/2+z
loop_
_atom_site_type_symbol
_atom_site_label
_atom_site_fract_x
_atom_site_fract_y
_atom_site_fract_z
Si Si1 0.437424 0.710018 0.712650
Si Si2 0.566554 0.213679 0.554653
Si Si3 0.056566 0.945582 0.712602
Si Si4 0.943564 0.555562 0.814180
Si Si5 0.559438 0.893375 0.515933
Si Si6 0.441014 0.887220 0.119692
Si Si7 0.447299 0.377138 0.396097
Si Si8 0.937355 0.732100 0.382916
O O1 0.250000 0.694320 0.716623
O O2 0.442491 0.763532 0.663521
O O3 0.526694 0.667967 0.654261
O O4 0.507250 0.722871 0.819853
O O5 0.750000 0.221275 0.520948
O O6 0.520524 0.158206 0.541948
O O7 0.452266 0.248865 0.493387
O O8 0.250000 0.943381 0.705225
O O9 0.006122 0.911278 0.804585
O O10 0.985182 0.928292 0.607624
O O11 0.000000 0.000000 0.732946
O O12 0.750000 0.557085 0.814459
O O13 0.003084 0.579142 0.710027
O O14 0.000000 0.500000 0.821897
O O15 0.002429 0.585306 0.910504
O O16 0.750000 0.886693 0.511246
O O17 0.250000 0.895387 0.115034
O O18 0.502075 0.893416 0.006554
O O19 0.250000 0.375924 0.398697
O O20 0.505444 0.321984 0.376749
O O21 0.750000 0.729099 0.354982
#
# Coordination Sequence:
#
# PCOD9363388 Si02
#       8
#     8   8   8   8   8   8   8   8
#     4  10  21  35  55  85 121 160 198 243 298 353
#     4  11  22  37  57  87 122 157 195 240 298 358
#     4  11  23  42  66  92 123 160 203 257 314 370
#     4  11  24  42  65  93 123 160 205 258 313 369
#     4  12  25  42  64  91 123 161 207 258 309 371
#     4  10  21  39  63  89 121 163 209 252 300 362
#     4   9  19  38  63  88 122 165 205 250 305 363
#     4  10  19  35  58  83 116 160 204 244 292 354
#
# _framework density 20.747160000000001
#
# number of rings (size 3 to 8) (size 9 to 14) (size 15 to 20)
#    0.000    1.500    1.250    4.125    0.000    6.500 
#    0.000    3.750    0.000    0.000    0.000    0.000 
#    0.000    0.000    0.000    0.000    0.000    0.000 
#
# Total GULP energy -178606.871631 kJ/mol
# GULP energy per Si atom -5581.464738 kJ/mol
# Density = 2.069994 g / cm^3
# Si number density = 20.747160 Si / 1000 Ang^3
#
#
#
# Elastic Constant Matrix: (Units=GPa)
#
#
# Indices 1 2 3 4 5 6 
#
# 1 14.4681 -10.4375 4.9632 0.0000 0.0000 0.0000
# 2 -10.4375 67.0820 -1.9251 0.0000 0.0000 0.0000
# 3 4.9632 -1.9251 79.2744 0.0000 0.0000 0.0000
# 4 0.0000 0.0000 0.0000 21.3431 0.0000 0.0000
# 5 0.0000 0.0000 0.0000 0.0000 26.7593 0.0000
# 6 0.0000 0.0000 0.0000 0.0000 0.0000 38.7981
#
#
#
# Elastic Compliance Matrix: (Units=1/GPa)
#
#
# Indices 1 2 3 4 5 6 
#
# 1 0.079557 0.012244 -0.004684 0.000000 0.000000 0.000000
# 2 0.012244 0.016802 -0.000359 0.000000 0.000000 0.000000
# 3 -0.004684 -0.000359 0.012899 0.000000 0.000000 0.000000
# 4 0.000000 0.000000 0.000000 0.046854 0.000000 0.000000
# 5 0.000000 0.000000 0.000000 0.000000 0.037370 0.000000
# 6 0.000000 0.000000 0.000000 0.000000 0.000000 0.025774
#
#
# Mechanical properties :
#
#
# Convention : Reuss Voigt Hill
#
# Bulk Modulus (GPa) = 8.08656 16.22508 12.15582
# Shear Modulus (GPa) = 20.31919 28.59503 24.45711
#
# Velocity S-wave (km/s) = 3.13289 3.71652 3.43712
# Velocity P-wave (km/s) = 4.12223 5.12387 4.65010
#
# Compressibility (1/GPa) = 0.12366197
#
# Stress axis : x y z
#
# Youngs Moduli (GPa) = 12.56959 59.51700 77.52584
#
# Poissons Ratio (x) = -0.72873 0.36309
# Poissons Ratio (y) = -0.15390 0.02780
# Poissons Ratio (z) = 0.05887 0.02134
#
# Static dielectric constant tensor:
#      x y z
#    x 1.721430 0.000000 0.000000 
#    y 0.000000 1.719480 0.000000 
#    z 0.000000 0.000000 1.764310 
# 
# From -- ./inp_files/15704.got.cif
#   From: 2010.05.17/outbox.cif.g08.bks.cpg/sg40_8_cif.got.tgz:15704.got - 2010.06.03 18:35:42.
