data_PCOD9363850
_publ_section_title
;
Structure prediction by ZEFSAII (Michael W. Deem and Ramdas Pophale) SiO2 
 PCOD9363850
Probable space group: A M A 2
;
_chemical_formula_sum "Si O2"
_cell_formula_units_Z 64
_cell_length_a 8.802214
_cell_length_b 13.788052
_cell_length_c 25.398187
_cell_angle_alpha 90.000000
_cell_angle_beta 90.000000
_cell_angle_gamma 90.000000
_cell_volume 3082.460727
_symmetry_space_group_name_H-M "A M A 2"
_symmetry_group_IT_number 40
_symmetry_cell_setting 'orthorhombic'
loop_
_space_group_symop_operation_xyz
x,y,z
-x,-y,z
1/2-x,y,z
1/2+x,-y,z
x,1/2+y,1/2+z
-x,1/2-y,1/2+z
1/2-x,1/2+y,1/2+z
1/2+x,1/2-y,1/2+z
loop_
_atom_site_type_symbol
_atom_site_label
_atom_site_fract_x
_atom_site_fract_y
_atom_site_fract_z
Si Si1 0.571434 0.726178 0.758740
Si Si2 0.575387 0.673346 0.568063
Si Si3 0.573555 0.156292 0.950865
Si Si4 0.071957 0.604973 0.671106
Si Si5 0.571177 0.601712 0.329578
Si Si6 0.574157 0.902765 0.340415
Si Si7 0.080027 0.338422 0.936253
Si Si8 0.431195 0.097710 0.541253
O O1 0.750000 0.739867 0.753291
O O2 0.496964 0.696336 0.703567
O O3 0.503749 0.813003 0.794512
O O4 0.529167 0.631556 0.792956
O O5 0.750000 0.663306 0.587109
O O6 0.568091 0.619524 0.511240
O O7 0.464760 0.627002 0.610429
O O8 0.547864 0.791288 0.562850
O O9 0.750000 0.195833 0.949836
O O10 0.554399 0.107421 0.893593
O O11 0.430122 0.228061 0.953812
O O12 0.250000 0.600012 0.681843
O O13 0.000000 0.500000 0.685047
O O14 0.500000 0.500000 0.312739
O O15 0.750000 0.605823 0.319182
O O16 0.750000 0.908157 0.326880
O O17 0.541981 0.834009 0.389339
O O18 0.500000 0.000000 0.361557
O O19 0.250000 0.366852 0.920154
O O20 0.016585 0.397747 0.985049
O O21 0.250000 0.085076 0.535247
O O22 0.500000 0.000000 0.568367
#
# Coordination Sequence:
#
# PCOD9363850 Si02
#       8
#     8   8   8   8   8   8   8   8
#     4  12  25  44  67  93 125 163 209 265 322 384
#     4   9  20  40  64  94 130 172 217 270 325 379
#     4   9  19  37  61  89 129 173 213 262 320 376
#     4  12  26  46  71  98 128 167 213 269 328 390
#     4  11  23  41  66  97 134 175 216 264 319 385
#     4  12  23  36  54  82 119 159 204 253 310 374
#     4  11  20  31  51  81 119 163 209 254 307 370
#     4  10  20  35  56  84 124 168 211 259 315 374
#
# _framework density 20.762632
#
# number of rings (size 3 to 8) (size 9 to 14) (size 15 to 20)
#    0.000    1.250    1.250    6.750    0.000    3.500 
#    0.000    1.875    0.000    1.500    0.000    0.000 
#    0.000    0.000    0.000    0.000    0.000    0.000 
#
# Total GULP energy -178185.218453 kJ/mol
# GULP energy per Si atom -5568.288077 kJ/mol
# Density = 2.071538 g / cm^3
# Si number density = 20.762632 Si / 1000 Ang^3
#
#
#
# Elastic Constant Matrix: (Units=GPa)
#
#
# Indices 1 2 3 4 5 6 
#
# 1 137.7913 57.7962 42.2496 0.0000 0.0000 0.0000
# 2 57.7962 65.4730 22.2335 0.0000 0.0000 0.0000
# 3 42.2496 22.2335 88.0070 0.0000 0.0000 0.0000
# 4 0.0000 0.0000 0.0000 47.5236 0.0000 0.0000
# 5 0.0000 0.0000 0.0000 0.0000 18.3867 0.0000
# 6 0.0000 0.0000 0.0000 0.0000 0.0000 20.5676
#
#
#
# Elastic Compliance Matrix: (Units=1/GPa)
#
#
# Indices 1 2 3 4 5 6 
#
# 1 0.012436 -0.009791 -0.003497 0.000000 0.000000 0.000000
# 2 -0.009791 0.024414 -0.001468 0.000000 0.000000 0.000000
# 3 -0.003497 -0.001468 0.013412 0.000000 0.000000 0.000000
# 4 0.000000 0.000000 0.000000 0.021042 0.000000 0.000000
# 5 0.000000 0.000000 0.000000 0.000000 0.054387 0.000000
# 6 0.000000 0.000000 0.000000 0.000000 0.000000 0.048620
#
#
# Mechanical properties :
#
#
# Convention : Reuss Voigt Hill
#
# Bulk Modulus (GPa) = 48.18659 59.53664 53.86162
# Shear Modulus (GPa) = 23.72589 28.56171 26.14380
#
# Velocity S-wave (km/s) = 3.38408 3.71297 3.55234
# Velocity P-wave (km/s) = 6.20710 6.86431 6.54396
#
# Compressibility (1/GPa) = 0.02075266
#
# Stress axis : x y z
#
# Youngs Moduli (GPa) = 80.41065 40.95928 74.55866
#
# Poissons Ratio (x) = 0.40101 0.26072
# Poissons Ratio (y) = 0.78726 0.10943
# Poissons Ratio (z) = 0.28118 0.06012
#
# Static dielectric constant tensor:
#      x y z
#    x 1.715860 0.000000 0.000000 
#    y 0.000000 0.928270 0.000000 
#    z 0.000000 0.000000 1.796860 
# 
# From -- ./inp_files/24234.got.cif
#   From: 2010.05.17/outbox.cif.g08.bks.cpg/sg40_13_cif.got.tgz:24234.got - 2010.06.03 18:35:42.
