data_PCOD9363343
_publ_section_title
;
Structure prediction by ZEFSAII (Michael W. Deem and Ramdas Pophale) SiO2 
 PCOD9363343
Probable space group: A M A 2
;
_chemical_formula_sum "Si O2"
_cell_formula_units_Z 64
_cell_length_a 16.135288
_cell_length_b 15.853474
_cell_length_c 12.680629
_cell_angle_alpha 90.000000
_cell_angle_beta 90.000000
_cell_angle_gamma 90.000000
_cell_volume 3243.709575
_symmetry_space_group_name_H-M "A M A 2"
_symmetry_group_IT_number 40
_symmetry_cell_setting 'orthorhombic'
loop_
_space_group_symop_operation_xyz
x,y,z
-x,-y,z
1/2-x,y,z
1/2+x,-y,z
x,1/2+y,1/2+z
-x,1/2-y,1/2+z
1/2-x,1/2+y,1/2+z
1/2+x,1/2-y,1/2+z
loop_
_atom_site_type_symbol
_atom_site_label
_atom_site_fract_x
_atom_site_fract_y
_atom_site_fract_z
Si Si1 0.849936 0.312005 0.181720
Si Si2 0.345110 0.294213 0.063985
Si Si3 0.095687 0.528145 0.303258
Si Si4 0.649086 0.660151 0.838479
Si Si5 0.594737 0.385400 0.529400
Si Si6 0.589055 0.687522 0.514554
Si Si7 0.346920 0.960440 0.156054
Si Si8 0.345796 0.342283 0.289298
O O1 0.750000 0.312482 0.171595
O O2 0.881675 0.403197 0.215682
O O3 0.872079 0.245643 0.275266
O O4 0.890000 0.272418 0.077197
O O5 0.250000 0.324583 0.070956
O O6 0.346090 0.193982 0.046870
O O7 0.383700 0.314391 0.177257
O O8 0.382394 0.335049 0.958082
O O9 0.110204 0.570823 0.417001
O O10 0.148373 0.443316 0.293977
O O11 0.000000 0.500000 0.298141
O O12 0.750000 0.658218 0.842171
O O13 0.623313 0.582086 0.765067
O O14 0.503745 0.345121 0.530610
O O15 0.605036 0.457831 0.616315
O O16 0.644353 0.613861 0.568810
O O17 0.607409 0.692721 0.391102
O O18 0.250000 0.982108 0.165579
O O19 0.250000 0.314821 0.295883
#
# Coordination Sequence:
#
# PCOD9363343 Si02
#       8
#     8   8   8   8   8   8   8   8
#     4  10  21  38  64  91 119 164 210 252 298 365
#     4  10  22  39  61  88 121 164 207 252 311 379
#     4  12  23  38  60  93 127 158 204 254 311 368
#     4   8  16  34  58  86 116 151 203 252 299 359
#     4  12  22  36  60  92 125 159 202 258 318 364
#     4  11  22  37  59  91 126 161 204 257 315 365
#     4  10  19  34  60  91 120 155 202 258 306 363
#     4  11  23  40  62  89 126 164 207 259 309 368
#
# _framework density 19.730495000000001
#
# number of rings (size 3 to 8) (size 9 to 14) (size 15 to 20)
#    0.000    1.500    3.750    3.000    1.750    1.000 
#    0.000    1.250    0.000    7.500    0.000    0.000 
#    0.000    0.000    0.000    0.000    0.000    0.000 
#
# Total GULP energy -178729.752529 kJ/mol
# GULP energy per Si atom -5585.304767 kJ/mol
# Density = 1.968559 g / cm^3
# Si number density = 19.730495 Si / 1000 Ang^3
#
#
#
# Elastic Constant Matrix: (Units=GPa)
#
#
# Indices 1 2 3 4 5 6 
#
# 1 29.5602 2.9547 21.6855 0.0000 0.0000 0.0000
# 2 2.9547 76.6258 64.9350 0.0000 0.0000 0.0000
# 3 21.6855 64.9350 175.8734 0.0000 0.0000 0.0000
# 4 0.0000 0.0000 0.0000 40.2111 0.0000 0.0000
# 5 0.0000 0.0000 0.0000 0.0000 7.8515 0.0000
# 6 0.0000 0.0000 0.0000 0.0000 0.0000 25.3560
#
#
#
# Elastic Compliance Matrix: (Units=1/GPa)
#
#
# Indices 1 2 3 4 5 6 
#
# 1 0.037876 0.003634 -0.006012 0.000000 0.000000 0.000000
# 2 0.003634 0.019342 -0.007589 0.000000 0.000000 0.000000
# 3 -0.006012 -0.007589 0.009229 0.000000 0.000000 0.000000
# 4 0.000000 0.000000 0.000000 0.024869 0.000000 0.000000
# 5 0.000000 0.000000 0.000000 0.000000 0.127364 0.000000
# 6 0.000000 0.000000 0.000000 0.000000 0.000000 0.039438
#
#
# Mechanical properties :
#
#
# Convention : Reuss Voigt Hill
#
# Bulk Modulus (GPa) = 21.49926 51.24554 36.37240
# Shear Modulus (GPa) = 17.03244 27.51601 22.27422
#
# Velocity S-wave (km/s) = 2.94131 3.73848 3.36359
# Velocity P-wave (km/s) = 4.73869 6.68312 5.79307
#
# Compressibility (1/GPa) = 0.04651323
#
# Stress axis : x y z
#
# Youngs Moduli (GPa) = 26.40160 51.70161 108.35049
#
# Poissons Ratio (x) = -0.18790 0.65141
# Poissons Ratio (y) = -0.09595 0.82231
# Poissons Ratio (z) = 0.15873 0.39238
#
# Static dielectric constant tensor:
#      x y z
#    x 1.728720 0.000000 0.000000 
#    y 0.000000 1.668970 0.000000 
#    z 0.000000 0.000000 1.717400 
# 
# From -- ./inp_files/13095.got.cif
#   From: 2010.05.17/outbox.cif.g08.bks.cpg/sg40_7_cif.got.tgz:13095.got - 2010.06.03 18:35:42.
