data_PCOD9363915
_publ_section_title
;
Structure prediction by ZEFSAII (Michael W. Deem and Ramdas Pophale) SiO2 
 PCOD9363915
Probable space group: A M A 2
;
_chemical_formula_sum "Si O2"
_cell_formula_units_Z 48
_cell_length_a 13.669874
_cell_length_b 9.491618
_cell_length_c 18.943257
_cell_angle_alpha 90.000000
_cell_angle_beta 90.000000
_cell_angle_gamma 90.000000
_cell_volume 2457.872860
_symmetry_space_group_name_H-M "A M A 2"
_symmetry_group_IT_number 40
_symmetry_cell_setting 'orthorhombic'
loop_
_space_group_symop_operation_xyz
x,y,z
-x,-y,z
1/2-x,y,z
1/2+x,-y,z
x,1/2+y,1/2+z
-x,1/2-y,1/2+z
1/2-x,1/2+y,1/2+z
1/2+x,1/2-y,1/2+z
loop_
_atom_site_type_symbol
_atom_site_label
_atom_site_fract_x
_atom_site_fract_y
_atom_site_fract_z
Si Si1 0.750000 0.410542 0.997360
Si Si2 0.250000 0.624929 0.834138
Si Si3 0.471452 0.654993 0.996705
Si Si4 0.546044 0.848241 0.110429
Si Si5 0.558666 0.858074 0.720646
Si Si6 0.521464 0.840909 0.333203
Si Si7 0.250000 0.668725 0.679878
Si Si8 0.250000 0.999462 0.656550
O O1 0.750000 0.453876 0.911966
O O2 0.646189 0.330172 0.003397
O O3 0.750000 0.506141 0.069670
O O4 0.360725 0.693039 0.831378
O O5 0.250000 0.576577 0.751926
O O6 0.500000 0.500000 0.025749
O O7 0.502125 0.657193 0.915552
O O8 0.529667 0.775182 0.035985
O O9 0.494706 0.740459 0.163995
O O10 0.655756 0.863206 0.134857
O O11 0.500000 0.000000 0.112534
O O12 0.548138 0.765186 0.791233
O O13 0.658509 0.912256 0.686088
O O14 0.500000 0.000000 0.734459
O O15 0.500000 0.000000 0.305929
O O16 0.250000 0.840694 0.688760
#
# Coordination Sequence:
#
# PCOD9363915 Si02
#       8
#     4   4   8   8   8   8   4   4
#     4  10  20  35  63  91 120 164 225 260 316 390
#     4  10  20  37  61  87 126 172 205 266 334 384
#     4  10  21  41  64  91 128 171 219 270 330 387
#     4  12  25  41  64  95 132 168 215 271 324 390
#     4  12  23  40  63  93 128 171 215 264 325 387
#     4  10  22  40  63  93 128 171 219 274 326 392
#     4  12  24  42  67  96 132 170 216 273 338 380
#     4  12  22  38  69  98 126 168 228 275 314 396
#
# _framework density 19.529081000000001
#
# number of rings (size 3 to 8) (size 9 to 14) (size 15 to 20)
#    0.000    1.000    5.000    2.000    0.000    2.667 
#    0.000    1.667    0.000    0.000    0.000    0.000 
#    0.000    0.000    0.000    0.000    0.000    0.000 
#
# Total GULP energy -133641.749625 kJ/mol
# GULP energy per Si atom -5568.406234 kJ/mol
# Density = 1.948463 g / cm^3
# Si number density = 19.529081 Si / 1000 Ang^3
#
#
#
# Elastic Constant Matrix: (Units=GPa)
#
#
# Indices 1 2 3 4 5 6 
#
# 1 124.9482 39.1384 41.2624 0.0000 0.0000 0.0000
# 2 39.1384 117.1140 45.2763 0.0000 0.0000 0.0000
# 3 41.2624 45.2763 95.8875 0.0000 0.0000 0.0000
# 4 0.0000 0.0000 0.0000 24.2623 0.0000 0.0000
# 5 0.0000 0.0000 0.0000 0.0000 33.7948 0.0000
# 6 0.0000 0.0000 0.0000 0.0000 0.0000 21.8477
#
#
#
# Elastic Compliance Matrix: (Units=1/GPa)
#
#
# Indices 1 2 3 4 5 6 
#
# 1 0.009694 -0.001990 -0.003232 0.000000 0.000000 0.000000
# 2 -0.001990 0.010854 -0.004269 0.000000 0.000000 0.000000
# 3 -0.003232 -0.004269 0.013835 0.000000 0.000000 0.000000
# 4 0.000000 0.000000 0.000000 0.041216 0.000000 0.000000
# 5 0.000000 0.000000 0.000000 0.000000 0.029590 0.000000
# 6 0.000000 0.000000 0.000000 0.000000 0.000000 0.045771
#
#
# Mechanical properties :
#
#
# Convention : Reuss Voigt Hill
#
# Bulk Modulus (GPa) = 64.92706 65.47823 65.20264
# Shear Modulus (GPa) = 28.55895 30.13246 29.34570
#
# Velocity S-wave (km/s) = 3.82826 3.93231 3.88063
# Velocity P-wave (km/s) = 7.27044 7.36334 7.31703
#
# Compressibility (1/GPa) = 0.01540190
#
# Stress axis : x y z
#
# Youngs Moduli (GPa) = 103.15681 92.13133 72.27958
#
# Poissons Ratio (x) = 0.18336 0.23359
# Poissons Ratio (y) = 0.20531 0.30854
# Poissons Ratio (z) = 0.33338 0.39328
#
# Static dielectric constant tensor:
#      x y z
#    x 1.663990 0.000000 0.000000 
#    y 0.000000 1.676320 0.000000 
#    z 0.000000 0.000000 1.753310 
# 
# From -- ./inp_files/20624.got.cif
#   From: 2010.05.17/outbox.cif.g08.bks.cpg/sg40_11_cif.got.tgz:20624.got - 2010.06.03 18:35:42.
