data_PCOD9363903
_publ_section_title
;
Structure prediction by ZEFSAII (Michael W. Deem and Ramdas Pophale) SiO2 
 PCOD9363903
Probable space group: A M A 2
;
_chemical_formula_sum "Si O2"
_cell_formula_units_Z 64
_cell_length_a 17.577937
_cell_length_b 12.928121
_cell_length_c 14.464811
_cell_angle_alpha 90.000000
_cell_angle_beta 90.000000
_cell_angle_gamma 90.000000
_cell_volume 3287.123909
_symmetry_space_group_name_H-M "A M A 2"
_symmetry_group_IT_number 40
_symmetry_cell_setting 'orthorhombic'
loop_
_space_group_symop_operation_xyz
x,y,z
-x,-y,z
1/2-x,y,z
1/2+x,-y,z
x,1/2+y,1/2+z
-x,1/2-y,1/2+z
1/2-x,1/2+y,1/2+z
1/2+x,1/2-y,1/2+z
loop_
_atom_site_type_symbol
_atom_site_label
_atom_site_fract_x
_atom_site_fract_y
_atom_site_fract_z
Si Si1 0.659914 0.662300 0.811940
Si Si2 0.420357 0.437749 0.448979
Si Si3 0.071475 0.806921 0.137450
Si Si4 0.661230 0.351117 0.441668
Si Si5 0.162516 0.934558 0.501237
Si Si6 0.339345 0.390225 0.275775
Si Si7 0.337518 0.594112 0.151299
Si Si8 0.900909 0.239190 0.615389
O O1 0.750000 0.670782 0.787718
O O2 0.608439 0.635152 0.724713
O O3 0.653906 0.577271 0.892728
O O4 0.632701 0.769882 0.863037
O O5 0.500000 0.500000 0.447517
O O6 0.414813 0.369643 0.541893
O O7 0.360512 0.530338 0.434955
O O8 0.399564 0.372549 0.357963
O O9 0.112465 0.695682 0.147222
O O10 0.982292 0.782614 0.143565
O O11 0.750000 0.338897 0.434173
O O12 0.635594 0.318436 0.543713
O O13 0.250000 0.895110 0.522508
O O14 0.099618 0.863950 0.551135
O O15 0.158981 0.044215 0.549380
O O16 0.250000 0.392565 0.302687
O O17 0.356653 0.499777 0.222113
O O18 0.352171 0.298683 0.201983
O O19 0.250000 0.621481 0.172369
#
# Coordination Sequence:
#
# PCOD9363903 Si02
#       8
#     8   8   8   8   8   8   8   8
#     4   9  19  36  63  89 108 148 204 243 286 351
#     4  12  26  41  55  85 125 161 197 244 292 349
#     4  12  24  35  56  86 122 158 190 238 300 343
#     4  10  20  41  68  85 111 158 204 243 290 351
#     4   8  16  35  61  85 112 144 190 244 286 342
#     4  10  22  39  64  93 117 152 200 249 298 350
#     4   9  19  37  61  90 118 145 188 242 299 358
#     4  10  20  35  60  89 121 147 192 244 297 352
#
# _framework density 19.469909000000001
#
# number of rings (size 3 to 8) (size 9 to 14) (size 15 to 20)
#    0.000    2.000    1.250    4.125    3.500    5.500 
#    0.000    1.250    5.500    3.000    0.000    0.000 
#    0.000    0.000    0.000    0.000    0.000    0.000 
#
# Total GULP energy -178268.363917 kJ/mol
# GULP energy per Si atom -5570.886372 kJ/mol
# Density = 1.942559 g / cm^3
# Si number density = 19.469909 Si / 1000 Ang^3
#
#
#
# Elastic Constant Matrix: (Units=GPa)
#
#
# Indices 1 2 3 4 5 6 
#
# 1 61.7140 3.9982 51.5762 0.0000 0.0000 0.0000
# 2 3.9982 18.1449 21.9889 0.0000 0.0000 0.0000
# 3 51.5762 21.9889 139.8466 0.0000 0.0000 0.0000
# 4 0.0000 0.0000 0.0000 28.3961 0.0000 0.0000
# 5 0.0000 0.0000 0.0000 0.0000 29.1688 0.0000
# 6 0.0000 0.0000 0.0000 0.0000 0.0000 0.4110
#
#
#
# Elastic Compliance Matrix: (Units=1/GPa)
#
#
# Indices 1 2 3 4 5 6 
#
# 1 0.024072 0.006739 -0.009938 0.000000 0.000000 0.000000
# 2 0.006739 0.069972 -0.013487 0.000000 0.000000 0.000000
# 3 -0.009938 -0.013487 0.012936 0.000000 0.000000 0.000000
# 4 0.000000 0.000000 0.000000 0.035216 0.000000 0.000000
# 5 0.000000 0.000000 0.000000 0.000000 0.034283 0.000000
# 6 0.000000 0.000000 0.000000 0.000000 0.000000 2.433137
#
#
# Mechanical properties :
#
#
# Convention : Reuss Voigt Hill
#
# Bulk Modulus (GPa) = 13.58550 41.64799 27.61675
# Shear Modulus (GPa) = 1.87440 21.07134 11.47287
#
# Velocity S-wave (km/s) = 0.98224 3.29333 2.43010
# Velocity P-wave (km/s) = 2.87737 5.99156 4.69989
#
# Compressibility (1/GPa) = 0.07360787
#
# Stress axis : x y z
#
# Youngs Moduli (GPa) = 41.54153 14.29150 77.30133
#
# Poissons Ratio (x) = -0.09630 0.76818
# Poissons Ratio (y) = -0.27993 1.04258
# Poissons Ratio (z) = 0.41282 0.19275
#
# Static dielectric constant tensor:
#      x y z
#    x 1.694350 0.000000 0.000000 
#    y 0.000000 1.722440 0.000000 
#    z 0.000000 0.000000 1.729310 
# 
# From -- ./inp_files/13089.got.cif
#   From: 2010.05.17/outbox.cif.g08.bks.cpg/sg40_7_cif.got.tgz:13089.got - 2010.06.03 18:35:42.
