data_PCOD9363921
_publ_section_title
;
Structure prediction by ZEFSAII (Michael W. Deem and Ramdas Pophale) SiO2 
 PCOD9363921
Probable space group: A M A 2
;
_chemical_formula_sum "Si O2"
_cell_formula_units_Z 64
_cell_length_a 8.774609
_cell_length_b 23.713390
_cell_length_c 19.441680
_cell_angle_alpha 90.000000
_cell_angle_beta 90.000000
_cell_angle_gamma 90.000000
_cell_volume 4045.341667
_symmetry_space_group_name_H-M "A M A 2"
_symmetry_group_IT_number 40
_symmetry_cell_setting 'orthorhombic'
loop_
_space_group_symop_operation_xyz
x,y,z
-x,-y,z
1/2-x,y,z
1/2+x,-y,z
x,1/2+y,1/2+z
-x,1/2-y,1/2+z
1/2-x,1/2+y,1/2+z
1/2+x,1/2-y,1/2+z
loop_
_atom_site_type_symbol
_atom_site_label
_atom_site_fract_x
_atom_site_fract_y
_atom_site_fract_z
Si Si1 0.068045 0.437942 0.417630
Si Si2 0.567510 0.664668 0.045309
Si Si3 0.567030 0.061743 0.641006
Si Si4 0.067594 0.160649 0.003066
Si Si5 0.932907 0.383592 0.279164
Si Si6 0.931934 0.273212 0.638022
Si Si7 0.569044 0.750085 0.781651
Si Si8 0.430566 0.231427 0.425343
O O1 0.250000 0.440140 0.415015
O O2 0.000000 0.500000 0.426988
O O3 0.012291 0.395637 0.477093
O O4 0.004358 0.412207 0.346364
O O5 0.750000 0.667785 0.033785
O O6 0.529433 0.605155 0.079581
O O7 0.530037 0.713814 0.100643
O O8 0.482963 0.681146 0.975489
O O9 0.750000 0.059381 0.647362
O O10 0.498555 0.087153 0.711180
O O11 0.500000 0.000000 0.629321
O O12 0.250000 0.155789 0.995775
O O13 0.032634 0.179259 0.081199
O O14 0.011637 0.212421 0.955389
O O15 0.750000 0.389716 0.281109
O O16 0.969563 0.316954 0.278581
O O17 0.750000 0.273427 0.650084
O O18 0.017705 0.276730 0.709774
O O19 0.750000 0.745299 0.790850
O O20 0.484862 0.724362 0.847385
O O21 0.250000 0.239017 0.428763
#
# Coordination Sequence:
#
# PCOD9363921 Si02
#       8
#     8   8   8   8   8   8   8   8
#     4  12  24  37  54  74 101 139 179 218 255 302
#     4   9  19  35  52  71 100 135 169 211 259 304
#     4  11  22  36  53  73 102 139 178 218 257 303
#     4  10  20  36  53  74 103 134 169 212 258 305
#     4  11  22  35  50  72 104 141 179 217 251 297
#     4   9  18  33  53  74 101 132 168 210 257 307
#     4  11  21  32  51  76 106 138 171 211 255 306
#     4  11  21  32  52  76 102 133 170 213 257 307
#
# _framework density 15.820665999999999
#
# number of rings (size 3 to 8) (size 9 to 14) (size 15 to 20)
#    0.000    1.500    2.500    4.875    0.000    4.500 
#    0.000    0.000    0.000    0.000    0.000    0.875 
#    0.000    2.000    0.000    0.000    0.000    0.000 
#
# Total GULP energy -178759.653836 kJ/mol
# GULP energy per Si atom -5586.239182 kJ/mol
# Density = 1.578466 g / cm^3
# Si number density = 15.820666 Si / 1000 Ang^3
#
#
#
# Elastic Constant Matrix: (Units=GPa)
#
#
# Indices 1 2 3 4 5 6 
#
# 1 76.7059 47.9112 55.8180 0.0000 0.0000 0.0000
# 2 47.9112 88.8047 59.2686 0.0000 0.0000 0.0000
# 3 55.8180 59.2686 116.0140 0.0000 0.0000 0.0000
# 4 0.0000 0.0000 0.0000 17.2660 0.0000 0.0000
# 5 0.0000 0.0000 0.0000 0.0000 29.3134 0.0000
# 6 0.0000 0.0000 0.0000 0.0000 0.0000 28.6394
#
#
#
# Elastic Compliance Matrix: (Units=1/GPa)
#
#
# Indices 1 2 3 4 5 6 
#
# 1 0.023029 -0.007632 -0.007181 0.000000 0.000000 0.000000
# 2 -0.007632 0.019616 -0.006349 0.000000 0.000000 0.000000
# 3 -0.007181 -0.006349 0.015318 0.000000 0.000000 0.000000
# 4 0.000000 0.000000 0.000000 0.057917 0.000000 0.000000
# 5 0.000000 0.000000 0.000000 0.000000 0.034114 0.000000
# 6 0.000000 0.000000 0.000000 0.000000 0.000000 0.034917
#
#
# Mechanical properties :
#
#
# Convention : Reuss Voigt Hill
#
# Bulk Modulus (GPa) = 63.94330 67.50222 65.72276
# Shear Modulus (GPa) = 21.51004 22.94554 22.22779
#
# Velocity S-wave (km/s) = 3.69130 3.81248 3.75238
# Velocity P-wave (km/s) = 7.65982 7.88288 7.77215
#
# Compressibility (1/GPa) = 0.01563886
#
# Stress axis : x y z
#
# Youngs Moduli (GPa) = 43.42260 50.97974 65.28084
#
# Poissons Ratio (x) = 0.38907 0.46880
# Poissons Ratio (y) = 0.33140 0.41448
# Poissons Ratio (z) = 0.31183 0.32368
#
# Static dielectric constant tensor:
#      x y z
#    x 1.524950 0.000000 0.000000 
#    y 0.000000 1.511350 0.000000 
#    z 0.000000 0.000000 1.518440 
# 
# From -- ./inp_files/19594.got.cif
#   From: 2010.05.17/outbox.cif.g08.bks.cpg/sg40_10_cif.got.tgz:19594.got - 2010.06.03 18:35:42.
