data_PCOD9363199
_publ_section_title
;
Structure prediction by ZEFSAII (Michael W. Deem and Ramdas Pophale) SiO2 
 PCOD9363199
Probable space group: A M A 2
;
_chemical_formula_sum "Si O2"
_cell_formula_units_Z 64
_cell_length_a 8.842527
_cell_length_b 29.053065
_cell_length_c 12.509271
_cell_angle_alpha 90.000000
_cell_angle_beta 90.000000
_cell_angle_gamma 90.000000
_cell_volume 3213.663139
_symmetry_space_group_name_H-M "A M A 2"
_symmetry_group_IT_number 40
_symmetry_cell_setting 'orthorhombic'
loop_
_space_group_symop_operation_xyz
x,y,z
-x,-y,z
1/2-x,y,z
1/2+x,-y,z
x,1/2+y,1/2+z
-x,1/2-y,1/2+z
1/2-x,1/2+y,1/2+z
1/2+x,1/2-y,1/2+z
loop_
_atom_site_type_symbol
_atom_site_label
_atom_site_fract_x
_atom_site_fract_y
_atom_site_fract_z
Si Si1 0.077612 0.858530 0.614630
Si Si2 0.430287 0.949794 0.087252
Si Si3 0.420857 0.566963 0.811375
Si Si4 0.931835 0.314969 0.300926
Si Si5 0.920875 0.829923 0.401856
Si Si6 0.420703 0.960243 0.526622
Si Si7 0.432211 0.650749 0.535805
Si Si8 0.072920 0.782970 0.216500
O O1 0.250000 0.840814 0.610957
O O2 0.080999 0.911744 0.583474
O O3 0.005148 0.854393 0.730198
O O4 0.974289 0.835307 0.523343
O O5 0.250000 0.950379 0.070963
O O6 0.471158 0.944431 0.213141
O O7 0.499170 0.901374 0.040610
O O8 0.500000 0.000000 0.053557
O O9 0.250000 0.552571 0.783776
O O10 0.417822 0.620886 0.841621
O O11 0.480696 0.545667 0.920330
O O12 0.750000 0.315316 0.296559
O O13 0.972399 0.323153 0.424679
O O14 0.982072 0.269278 0.235205
O O15 0.750000 0.810760 0.396404
O O16 0.043775 0.802360 0.335124
O O17 0.250000 0.972534 0.499101
O O18 0.500000 0.000000 0.593730
O O19 0.250000 0.646487 0.543635
O O20 0.489454 0.683805 0.632162
O O21 0.250000 0.783031 0.189541
#
# Coordination Sequence:
#
# PCOD9363199 Si02
#       8
#     8   8   8   8   8   8   8   8
#     4  10  22  39  61  88 122 160 207 258 308 366
#     4  12  24  39  62  91 126 168 214 267 322 388
#     4  10  19  33  54  84 123 162 201 248 307 372
#     4  10  25  45  65  91 126 166 212 261 319 381
#     4  10  20  35  59  89 124 164 202 247 306 369
#     4  10  20  34  54  84 119 159 205 255 310 369
#     4  11  24  45  67  93 130 171 215 269 324 385
#     4  11  23  40  64  96 127 162 206 256 315 379
#
# _framework density 19.914968999999999
#
# number of rings (size 3 to 8) (size 9 to 14) (size 15 to 20)
#    0.000    1.500    1.250    3.750    1.750    4.500 
#    0.000    0.625    0.000    1.500    0.000    0.000 
#    0.000    0.000    0.000    0.000    0.000    0.000 
#
# Total GULP energy -178465.636099 kJ/mol
# GULP energy per Si atom -5577.051128 kJ/mol
# Density = 1.986964 g / cm^3
# Si number density = 19.914969 Si / 1000 Ang^3
#
#
#
# Elastic Constant Matrix: (Units=GPa)
#
#
# Indices 1 2 3 4 5 6 
#
# 1 61.6059 35.2034 25.9005 0.0000 0.0000 0.0000
# 2 35.2034 79.1178 28.0583 0.0000 0.0000 0.0000
# 3 25.9005 28.0583 89.0037 0.0000 0.0000 0.0000
# 4 0.0000 0.0000 0.0000 498.6699 0.0000 0.0000
# 5 0.0000 0.0000 0.0000 0.0000 -33.9300 0.0000
# 6 0.0000 0.0000 0.0000 0.0000 0.0000 21.5682
#
#
#
# Elastic Compliance Matrix: (Units=1/GPa)
#
#
# Indices 1 2 3 4 5 6 
#
# 1 0.022901 -0.008812 -0.003887 0.000000 0.000000 0.000000
# 2 -0.008812 0.017621 -0.002991 0.000000 0.000000 0.000000
# 3 -0.003887 -0.002991 0.013309 0.000000 0.000000 0.000000
# 4 0.000000 0.000000 0.000000 0.002005 0.000000 0.000000
# 5 0.000000 0.000000 0.000000 0.000000 -0.029472 0.000000
# 6 0.000000 0.000000 0.000000 0.000000 0.000000 0.046365
#
#
# Mechanical properties :
#
#
# Convention : Reuss Voigt Hill
#
# Bulk Modulus (GPa) = 44.53612 45.33909 44.93761
# Shear Modulus (GPa) = 44.80636 106.63263 75.71949
#
# Velocity S-wave (km/s) = 4.74844 7.32531 6.17284
# Velocity P-wave (km/s) = 7.24398 9.71405 8.56849
#
# Compressibility (1/GPa) = 0.02245368
#
# Stress axis : x y z
#
# Youngs Moduli (GPa) = 43.66542 56.75138 75.13540
#
# Poissons Ratio (x) = 0.50007 0.29202
# Poissons Ratio (y) = 0.38476 0.22471
# Poissons Ratio (z) = 0.16971 0.16973
#
# Static dielectric constant tensor:
#      x y z
#    x 1.714820 0.000000 0.000000 
#    y 0.000000 1.456040 0.000000 
#    z 0.000000 0.000000 1.658380 
# 
# From -- ./inp_files/10633.got.cif
#   From: 2010.05.17/outbox.cif.g08.bks.cpg/sg40_6_cif.got.tgz:10633.got - 2010.06.03 18:35:42.
