data_PCOD9363356
_publ_section_title
;
Structure prediction by ZEFSAII (Michael W. Deem and Ramdas Pophale) SiO2 
 PCOD9363356
Probable space group: A M A 2
;
_chemical_formula_sum "Si O2"
_cell_formula_units_Z 64
_cell_length_a 8.626299
_cell_length_b 21.115582
_cell_length_c 20.201135
_cell_angle_alpha 90.000000
_cell_angle_beta 90.000000
_cell_angle_gamma 90.000000
_cell_volume 3679.623082
_symmetry_space_group_name_H-M "A M A 2"
_symmetry_group_IT_number 40
_symmetry_cell_setting 'orthorhombic'
loop_
_space_group_symop_operation_xyz
x,y,z
-x,-y,z
1/2-x,y,z
1/2+x,-y,z
x,1/2+y,1/2+z
-x,1/2-y,1/2+z
1/2-x,1/2+y,1/2+z
1/2+x,1/2-y,1/2+z
loop_
_atom_site_type_symbol
_atom_site_label
_atom_site_fract_x
_atom_site_fract_y
_atom_site_fract_z
Si Si1 0.934615 0.616700 0.845850
Si Si2 0.937574 0.735365 0.490531
Si Si3 0.434313 0.566792 0.710089
Si Si4 0.437010 0.307940 0.203540
Si Si5 0.063826 0.815082 0.128835
Si Si6 0.564479 0.566671 0.124534
Si Si7 0.436028 0.116488 0.488576
Si Si8 0.437206 0.258970 0.344255
O O1 0.750000 0.612692 0.845530
O O2 0.002907 0.578668 0.784231
O O3 0.999497 0.595996 0.917283
O O4 0.987685 0.689777 0.836292
O O5 0.750000 0.734168 0.492578
O O6 0.990773 0.694717 0.552975
O O7 0.982210 0.809350 0.498109
O O8 0.984578 0.715493 0.416513
O O9 0.500000 0.500000 0.685598
O O10 0.250000 0.565490 0.711650
O O11 0.491097 0.624883 0.665071
O O12 0.250000 0.301808 0.196922
O O13 0.514950 0.248763 0.166931
O O14 0.484060 0.373623 0.169564
O O15 0.475042 0.301853 0.281270
O O16 0.250000 0.820931 0.130505
O O17 0.500000 0.500000 0.149390
O O18 0.750000 0.564707 0.122880
O O19 0.501700 0.578660 0.050574
O O20 0.250000 0.113090 0.487664
O O21 0.250000 0.249766 0.345191
#
# Coordination Sequence:
#
# PCOD9363356 Si02
#       8
#     8   8   8   8   8   8   8   8
#     4  11  21  34  53  82 113 146 183 225 270 328
#     4   8  16  30  53  82 110 140 177 220 271 327
#     4  12  25  41  57  79 110 148 187 230 276 331
#     4  10  20  34  56  82 110 145 187 234 279 326
#     4  11  20  34  57  85 112 144 183 226 278 332
#     4  11  23  37  53  79 111 149 191 234 281 331
#     4  10  19  35  55  78 109 150 187 226 271 325
#     4   9  17  33  55  81 110 144 183 227 276 325
#
# _framework density 17.393084999999999
#
# number of rings (size 3 to 8) (size 9 to 14) (size 15 to 20)
#    0.000    1.750    2.500    4.125    0.000    1.000 
#    0.000    3.125    0.000    0.750    0.000    1.750 
#    0.000    0.000    0.000    0.000    0.000    0.000 
#
# Total GULP energy -178677.253448 kJ/mol
# GULP energy per Si atom -5583.664170 kJ/mol
# Density = 1.735350 g / cm^3
# Si number density = 17.393085 Si / 1000 Ang^3
#
#
#
# Elastic Constant Matrix: (Units=GPa)
#
#
# Indices 1 2 3 4 5 6 
#
# 1 69.4118 41.9637 38.4800 0.0000 0.0000 0.0000
# 2 41.9637 113.3392 63.3648 0.0000 0.0000 0.0000
# 3 38.4800 63.3648 117.6028 0.0000 0.0000 0.0000
# 4 0.0000 0.0000 0.0000 19.1666 0.0000 0.0000
# 5 0.0000 0.0000 0.0000 0.0000 20.0643 0.0000
# 6 0.0000 0.0000 0.0000 0.0000 0.0000 23.6262
#
#
#
# Elastic Compliance Matrix: (Units=1/GPa)
#
#
# Indices 1 2 3 4 5 6 
#
# 1 0.019558 -0.005243 -0.003575 0.000000 0.000000 0.000000
# 2 -0.005243 0.014032 -0.005845 0.000000 0.000000 0.000000
# 3 -0.003575 -0.005845 0.012822 0.000000 0.000000 0.000000
# 4 0.000000 0.000000 0.000000 0.052174 0.000000 0.000000
# 5 0.000000 0.000000 0.000000 0.000000 0.049840 0.000000
# 6 0.000000 0.000000 0.000000 0.000000 0.000000 0.042326
#
#
# Mechanical properties :
#
#
# Convention : Reuss Voigt Hill
#
# Bulk Modulus (GPa) = 58.52318 65.33011 61.92664
# Shear Modulus (GPa) = 22.14618 23.00778 22.57698
#
# Velocity S-wave (km/s) = 3.57217 3.64099 3.60675
# Velocity P-wave (km/s) = 7.12280 7.43763 7.28191
#
# Compressibility (1/GPa) = 0.01708725
#
# Stress axis : x y z
#
# Youngs Moduli (GPa) = 51.12979 71.26544 77.99019
#
# Poissons Ratio (x) = 0.37364 0.27878
# Poissons Ratio (y) = 0.26807 0.45585
# Poissons Ratio (z) = 0.18277 0.41655
#
# Static dielectric constant tensor:
#      x y z
#    x 1.583410 0.000000 0.000000 
#    y 0.000000 1.577750 0.000000 
#    z 0.000000 0.000000 1.609210 
# 
# From -- ./inp_files/22381.got.cif
#   From: 2010.05.17/outbox.cif.g08.bks.cpg/sg40_12_cif.got.tgz:22381.got - 2010.06.03 18:35:42.
