data_PCOD9363558
_publ_section_title
;
Structure prediction by ZEFSAII (Michael W. Deem and Ramdas Pophale) SiO2 
 PCOD9363558
Probable space group: A M A 2
;
_chemical_formula_sum "Si O2"
_cell_formula_units_Z 32
_cell_length_a 8.458929
_cell_length_b 29.001050
_cell_length_c 5.084111
_cell_angle_alpha 90.000000
_cell_angle_beta 90.000000
_cell_angle_gamma 90.000000
_cell_volume 1247.223042
_symmetry_space_group_name_H-M "A M A 2"
_symmetry_group_IT_number 40
_symmetry_cell_setting 'orthorhombic'
loop_
_space_group_symop_operation_xyz
x,y,z
-x,-y,z
1/2-x,y,z
1/2+x,-y,z
x,1/2+y,1/2+z
-x,1/2-y,1/2+z
1/2-x,1/2+y,1/2+z
1/2+x,1/2-y,1/2+z
loop_
_atom_site_type_symbol
_atom_site_label
_atom_site_fract_x
_atom_site_fract_y
_atom_site_fract_z
Si Si1 0.750000 0.574920 0.993201
Si Si2 0.426374 0.728583 0.028759
Si Si3 0.077090 0.649508 0.669968
Si Si4 0.931811 0.955774 0.323650
Si Si5 0.250000 0.362860 0.479317
O O1 0.579596 0.550194 0.026226
O O2 0.750000 0.595545 0.696591
O O3 0.750000 0.616923 0.191564
O O4 0.250000 0.738878 0.120462
O O5 0.457030 0.751959 0.745690
O O6 0.435079 0.674251 0.954226
O O7 0.250000 0.663332 0.562268
O O8 0.077913 0.594103 0.687158
O O9 0.914601 0.662609 0.529865
O O10 0.750000 0.964363 0.411013
O O11 0.000000 0.000000 0.164820
#
# Coordination Sequence:
#
# PCOD9363558 Si02
#       5
#     4   8   8   8   4
#     4  10  22  40  60  98 124 170 220 270 322 400
#     4  11  25  45  70 104 142 185 235 291 357 421
#     4   9  22  42  67 101 138 182 224 283 343 407
#     4  10  19  38  68  96 137 178 226 279 338 402
#     4  10  22  40  68  92 128 166 226 268 330 392
#
# _framework density 25.656998999999999
#
# number of rings (size 3 to 8) (size 9 to 14) (size 15 to 20)
#    0.000    2.000    1.250    0.750    3.500    5.000 
#    0.000   12.500    0.000    0.000    0.000    0.000 
#    0.000    0.000    0.000    0.000    0.000    0.000 
#
# Total GULP energy -89269.992918 kJ/mol
# GULP energy per Si atom -5579.374557 kJ/mol
# Density = 2.559860 g / cm^3
# Si number density = 25.656999 Si / 1000 Ang^3
#
#
#
# Elastic Constant Matrix: (Units=GPa)
#
#
# Indices 1 2 3 4 5 6 
#
# 1 293.5692 31.6781 27.1042 0.0000 0.0000 0.0000
# 2 31.6781 128.5272 27.6391 0.0000 0.0000 0.0000
# 3 27.1042 27.6391 35.7779 0.0000 0.0000 0.0000
# 4 0.0000 0.0000 0.0000 20.5973 0.0000 0.0000
# 5 0.0000 0.0000 0.0000 0.0000 12.3177 0.0000
# 6 0.0000 0.0000 0.0000 0.0000 0.0000 38.2689
#
#
#
# Elastic Compliance Matrix: (Units=1/GPa)
#
#
# Indices 1 2 3 4 5 6 
#
# 1 0.003677 -0.000368 -0.002501 0.000000 0.000000 0.000000
# 2 -0.000368 0.009367 -0.006957 0.000000 0.000000 0.000000
# 3 -0.002501 -0.006957 0.035220 0.000000 0.000000 0.000000
# 4 0.000000 0.000000 0.000000 0.048550 0.000000 0.000000
# 5 0.000000 0.000000 0.000000 0.000000 0.081184 0.000000
# 6 0.000000 0.000000 0.000000 0.000000 0.000000 0.026131
#
#
# Mechanical properties :
#
#
# Convention : Reuss Voigt Hill
#
# Bulk Modulus (GPa) = 34.95229 70.07967 52.51598
# Shear Modulus (GPa) = 21.42985 39.00030 30.21507
#
# Velocity S-wave (km/s) = 2.89319 3.90303 3.43542
# Velocity P-wave (km/s) = 4.98129 6.90542 6.02072
#
# Compressibility (1/GPa) = 0.02861043
#
# Stress axis : x y z
#
# Youngs Moduli (GPa) = 271.95977 106.75313 28.39333
#
# Poissons Ratio (x) = 0.03933 0.07101
# Poissons Ratio (y) = 0.10021 0.19754
# Poissons Ratio (z) = 0.68016 0.74272
#
# Static dielectric constant tensor:
#      x y z
#    x 2.030980 0.000000 0.000000 
#    y 0.000000 2.161280 0.000000 
#    z 0.000000 0.000000 1.936580 
# 
# From -- ./inp_files/342.got.cif
#   From: 2010.05.17/outbox.cif.g08.bks.cpg/sg40_1_cif.got.tgz:342.got - 2010.06.03 18:35:42.
