data_PCOD9363377
_publ_section_title
;
Structure prediction by ZEFSAII (Michael W. Deem and Ramdas Pophale) SiO2 
 PCOD9363377
Probable space group: A M A 2
;
_chemical_formula_sum "Si O2"
_cell_formula_units_Z 56
_cell_length_a 19.073332
_cell_length_b 17.337535
_cell_length_c 7.575880
_cell_angle_alpha 90.000000
_cell_angle_beta 90.000000
_cell_angle_gamma 90.000000
_cell_volume 2505.226553
_symmetry_space_group_name_H-M "A M A 2"
_symmetry_group_IT_number 40
_symmetry_cell_setting 'orthorhombic'
loop_
_space_group_symop_operation_xyz
x,y,z
-x,-y,z
1/2-x,y,z
1/2+x,-y,z
x,1/2+y,1/2+z
-x,1/2-y,1/2+z
1/2-x,1/2+y,1/2+z
1/2+x,1/2-y,1/2+z
loop_
_atom_site_type_symbol
_atom_site_label
_atom_site_fract_x
_atom_site_fract_y
_atom_site_fract_z
Si Si1 0.829129 0.053540 0.888730
Si Si2 0.171918 0.115900 0.046164
Si Si3 0.169454 0.301562 0.651377
Si Si4 0.569170 0.485284 0.135851
Si Si5 0.032239 0.649900 0.382552
Si Si6 0.621634 0.350168 0.934466
Si Si7 0.977422 0.187477 0.258898
O O1 0.750000 0.048856 0.816623
O O2 0.886247 0.050572 0.733412
O O3 0.833056 0.128811 0.009230
O O4 0.839451 0.975485 0.006571
O O5 0.250000 0.134931 0.988593
O O6 0.160949 0.138040 0.249708
O O7 0.113350 0.160701 0.937421
O O8 0.250000 0.297038 0.716897
O O9 0.148988 0.222795 0.545946
O O10 0.105986 0.321191 0.787647
O O11 0.500000 0.500000 0.017250
O O12 0.532829 0.429905 0.282029
O O13 0.624929 0.429318 0.042790
O O14 0.009043 0.720444 0.261808
O O15 0.991617 0.652187 0.566308
O O16 0.538836 0.341481 0.886246
#
# Coordination Sequence:
#
# PCOD9363377 Si02
#       7
#     8   8   8   8   8   8   8
#     4   9  21  40  60  82 120 160 195 246 310 367
#     4   9  20  38  59  84 116 154 200 248 302 361
#     4  11  22  37  62  91 119 160 204 248 305 372
#     4  11  22  37  60  91 116 155 206 251 300 362
#     4  10  19  35  57  85 114 159 194 246 303 352
#     4  11  23  38  63  89 120 158 205 259 304 358
#     4  11  20  37  59  85 122 156 198 252 305 360
#
# _framework density 22.353269000000001
#
# number of rings (size 3 to 8) (size 9 to 14) (size 15 to 20)
#    0.000    1.714    2.857    1.286    0.000    2.857 
#    0.000    1.429    0.000    0.857    0.000    0.000 
#    0.000    0.000    0.000    0.000    0.000    0.000 
#
# Total GULP energy -156187.692901 kJ/mol
# GULP energy per Si atom -5578.131889 kJ/mol
# Density = 2.230239 g / cm^3
# Si number density = 22.353269 Si / 1000 Ang^3
#
#
#
# Elastic Constant Matrix: (Units=GPa)
#
#
# Indices 1 2 3 4 5 6 
#
# 1 144.1136 -5.0753 -8.8001 0.0000 0.0000 0.0000
# 2 -5.0753 48.3330 -8.2246 0.0000 0.0000 0.0000
# 3 -8.8001 -8.2246 23.9198 0.0000 0.0000 0.0000
# 4 0.0000 0.0000 0.0000 20.8319 0.0000 0.0000
# 5 0.0000 0.0000 0.0000 0.0000 9.7874 0.0000
# 6 0.0000 0.0000 0.0000 0.0000 0.0000 32.0332
#
#
#
# Elastic Compliance Matrix: (Units=1/GPa)
#
#
# Indices 1 2 3 4 5 6 
#
# 1 0.007172 0.001277 0.003078 0.000000 0.000000 0.000000
# 2 0.001277 0.022203 0.008104 0.000000 0.000000 0.000000
# 3 0.003078 0.008104 0.045725 0.000000 0.000000 0.000000
# 4 0.000000 0.000000 0.000000 0.048003 0.000000 0.000000
# 5 0.000000 0.000000 0.000000 0.000000 0.102172 0.000000
# 6 0.000000 0.000000 0.000000 0.000000 0.000000 0.031218
#
#
# Mechanical properties :
#
#
# Convention : Reuss Voigt Hill
#
# Bulk Modulus (GPa) = 9.99835 19.12961 14.56398
# Shear Modulus (GPa) = 18.87400 28.42827 23.65113
#
# Velocity S-wave (km/s) = 2.90892 3.57006 3.25631
# Velocity P-wave (km/s) = 3.97052 5.05670 4.54617
#
# Compressibility (1/GPa) = 0.10001650
#
# Stress axis : x y z
#
# Youngs Moduli (GPa) = 139.43386 45.03923 21.86980
#
# Poissons Ratio (x) = -0.05751 -0.06731
# Poissons Ratio (y) = -0.17803 -0.17723
# Poissons Ratio (z) = -0.42911 -0.36500
#
# Static dielectric constant tensor:
#      x y z
#    x 1.901080 0.000000 0.000000 
#    y 0.000000 1.842960 0.000000 
#    z 0.000000 0.000000 1.815740 
# 
# From -- ./inp_files/8392.got.cif
#   From: 2010.05.17/outbox.cif.g08.bks.cpg/sg40_5_cif.got.tgz:8392.got - 2010.06.03 18:35:42.
