data_PCOD9363586
_publ_section_title
;
Structure prediction by ZEFSAII (Michael W. Deem and Ramdas Pophale) SiO2 
 PCOD9363586
Probable space group: A M A 2
;
_chemical_formula_sum "Si O2"
_cell_formula_units_Z 60
_cell_length_a 9.236275
_cell_length_b 18.177552
_cell_length_c 17.268567
_cell_angle_alpha 90.000000
_cell_angle_beta 90.000000
_cell_angle_gamma 90.000000
_cell_volume 2899.269259
_symmetry_space_group_name_H-M "A M A 2"
_symmetry_group_IT_number 40
_symmetry_cell_setting 'orthorhombic'
loop_
_space_group_symop_operation_xyz
x,y,z
-x,-y,z
1/2-x,y,z
1/2+x,-y,z
x,1/2+y,1/2+z
-x,1/2-y,1/2+z
1/2-x,1/2+y,1/2+z
1/2+x,1/2-y,1/2+z
loop_
_atom_site_type_symbol
_atom_site_label
_atom_site_fract_x
_atom_site_fract_y
_atom_site_fract_z
Si Si1 0.925255 0.662258 0.057550
Si Si2 0.924009 0.920690 0.169201
Si Si3 0.082694 0.793870 0.265960
Si Si4 0.574290 0.924813 0.876376
Si Si5 0.578446 0.325379 0.515989
Si Si6 0.472568 0.393350 0.893508
Si Si7 0.424189 0.356881 0.232043
Si Si8 0.250000 0.524141 0.858007
O O1 0.750000 0.663364 0.055409
O O2 0.963741 0.631751 0.141942
O O3 0.979639 0.746327 0.044356
O O4 0.976423 0.613705 0.985871
O O5 0.750000 0.926750 0.189234
O O6 0.014586 0.863087 0.220519
O O7 0.936484 0.886598 0.083153
O O8 0.000000 0.000000 0.175222
O O9 0.250000 0.779895 0.243227
O O10 0.081119 0.817386 0.355882
O O11 0.979898 0.725263 0.250281
O O12 0.750000 0.929805 0.875325
O O13 0.527324 0.859921 0.935329
O O14 0.509767 0.907693 0.791968
O O15 0.500000 0.000000 0.904168
O O16 0.750000 0.314213 0.506579
O O17 0.370456 0.458784 0.867102
O O18 0.626437 0.412863 0.860777
O O19 0.250000 0.363193 0.241154
#
# Coordination Sequence:
#
# PCOD9363586 Si02
#       8
#     8   8   8   8   8   8   8   4
#     4  10  19  41  66  92 124 168 212 260 322 381
#     4  11  23  38  60  92 129 169 211 260 318 380
#     4  12  24  40  65  93 129 169 211 258 316 383
#     4  11  23  43  69  96 130 170 220 270 325 383
#     4   9  19  39  66  90 123 168 213 263 320 380
#     4  11  23  42  64  92 123 172 209 263 313 381
#     4  11  24  43  67  97 131 166 213 268 320 385
#     4  10  24  42  62  92 128 158 218 262 314 374
#
# _framework density 20.694872
#
# number of rings (size 3 to 8) (size 9 to 14) (size 15 to 20)
#    0.000    1.333    2.667    2.800    3.733    1.067 
#    4.800    2.000    0.000    0.000    0.000    0.000 
#    0.000    0.000    0.000    0.000    0.000    0.000 
#
# Total GULP energy -167029.420875 kJ/mol
# GULP energy per Si atom -5567.647362 kJ/mol
# Density = 2.064777 g / cm^3
# Si number density = 20.694872 Si / 1000 Ang^3
#
#
#
# Elastic Constant Matrix: (Units=GPa)
#
#
# Indices 1 2 3 4 5 6 
#
# 1 113.7220 3.2574 15.2717 0.0000 0.0000 0.0000
# 2 3.2574 22.6779 -17.4306 0.0000 0.0000 0.0000
# 3 15.2717 -17.4306 88.4411 0.0000 0.0000 0.0000
# 4 0.0000 0.0000 0.0000 -38.8870 0.0000 0.0000
# 5 0.0000 0.0000 0.0000 0.0000 71.9068 0.0000
# 6 0.0000 0.0000 0.0000 0.0000 0.0000 20.2153
#
#
#
# Elastic Compliance Matrix: (Units=1/GPa)
#
#
# Indices 1 2 3 4 5 6 
#
# 1 0.009171 -0.002987 -0.002172 0.000000 0.000000 0.000000
# 2 -0.002987 0.052941 0.010950 0.000000 0.000000 0.000000
# 3 -0.002172 0.010950 0.013840 0.000000 0.000000 0.000000
# 4 0.000000 0.000000 0.000000 -0.025716 0.000000 0.000000
# 5 0.000000 0.000000 0.000000 0.000000 0.013907 0.000000
# 6 0.000000 0.000000 0.000000 0.000000 0.000000 0.049467
#
#
# Mechanical properties :
#
#
# Convention : Reuss Voigt Hill
#
# Bulk Modulus (GPa) = 11.42427 25.22644 18.32535
# Shear Modulus (GPa) = 38.10780 25.56320 31.83550
#
# Velocity S-wave (km/s) = 4.29582 3.51842 3.92641
# Velocity P-wave (km/s) = 5.48979 5.35928 5.42493
#
# Compressibility (1/GPa) = 0.08753298
#
# Stress axis : x y z
#
# Youngs Moduli (GPa) = 109.04368 18.88897 72.25385
#
# Poissons Ratio (x) = 0.05642 0.15695
# Poissons Ratio (y) = 0.32570 -0.79116
# Poissons Ratio (z) = 0.23687 -0.20683
#
# Static dielectric constant tensor:
#      x y z
#    x 1.630380 0.000000 0.000000 
#    y 0.000000 1.799230 0.000000 
#    z 0.000000 0.000000 1.853410 
# 
# From -- ./inp_files/19400.got.cif
#   From: 2010.05.17/outbox.cif.g08.bks.cpg/sg40_10_cif.got.tgz:19400.got - 2010.06.03 18:35:42.
