data_PCOD9363826
_publ_section_title
;
Structure prediction by ZEFSAII (Michael W. Deem and Ramdas Pophale) SiO2 
 PCOD9363826
Probable space group: A M A 2
;
_chemical_formula_sum "Si O2"
_cell_formula_units_Z 56
_cell_length_a 19.975182
_cell_length_b 12.261757
_cell_length_c 10.438942
_cell_angle_alpha 90.000000
_cell_angle_beta 90.000000
_cell_angle_gamma 90.000000
_cell_volume 2556.818705
_symmetry_space_group_name_H-M "A M A 2"
_symmetry_group_IT_number 40
_symmetry_cell_setting 'orthorhombic'
loop_
_space_group_symop_operation_xyz
x,y,z
-x,-y,z
1/2-x,y,z
1/2+x,-y,z
x,1/2+y,1/2+z
-x,1/2-y,1/2+z
1/2-x,1/2+y,1/2+z
1/2+x,1/2-y,1/2+z
loop_
_atom_site_type_symbol
_atom_site_label
_atom_site_fract_x
_atom_site_fract_y
_atom_site_fract_z
Si Si1 0.327147 0.780429 0.750000
Si Si2 0.407768 0.249387 0.695744
Si Si3 0.822358 0.431570 0.584321
Si Si4 0.172674 0.915238 0.340913
Si Si5 0.533538 0.110627 0.737969
Si Si6 0.670022 0.378487 0.996043
Si Si7 0.940451 0.055616 0.019503
O O1 0.250000 0.822628 0.758750
O O2 0.327973 0.689642 0.638385
O O3 0.387942 0.862638 0.720433
O O4 0.341504 0.711234 0.881597
O O5 0.372988 0.309417 0.816169
O O6 0.483507 0.208609 0.706258
O O7 0.363602 0.156488 0.628524
O O8 0.409146 0.344879 0.592141
O O9 0.750000 0.448295 0.523218
O O10 0.825060 0.509361 0.711358
O O11 0.882741 0.467797 0.495573
O O12 0.250000 0.883664 0.367027
O O13 0.148140 0.002249 0.446022
O O14 0.527981 0.098795 0.890734
O O15 0.500000 0.000000 0.682294
O O16 0.750000 0.382390 0.010378
O O17 0.000000 0.000000 0.099543
#
# Coordination Sequence:
#
# PCOD9363826 Si02
#       7
#     8   8   8   8   8   8   8
#     4   9  17  35  61  87 117 152 202 262 315 370
#     4  11  20  36  59  87 122 170 200 257 324 372
#     4   8  15  29  57  91 113 137 190 259 311 353
#     4   8  16  31  55  91 123 149 200 258 307 374
#     4  11  24  39  52  84 123 163 204 242 299 386
#     4   9  17  33  60  93 121 156 210 267 318 375
#     4  10  20  35  55  79 116 155 198 248 297 367
#
# _framework density 21.902217
#
# number of rings (size 3 to 8) (size 9 to 14) (size 15 to 20)
#    0.000    2.571    1.429    3.000    0.000    1.143 
#    2.571    1.429    0.000    1.714    0.000    0.000 
#    0.000    0.000    0.000    0.000    0.000    0.000 
#
# Total GULP energy -156061.232574 kJ/mol
# GULP energy per Si atom -5573.615449 kJ/mol
# Density = 2.185237 g / cm^3
# Si number density = 21.902217 Si / 1000 Ang^3
#
#
#
# Elastic Constant Matrix: (Units=GPa)
#
#
# Indices 1 2 3 4 5 6 
#
# 1 129.9762 62.4103 14.5186 0.0000 0.0000 0.0000
# 2 62.4103 82.0089 16.1173 0.0000 0.0000 0.0000
# 3 14.5186 16.1173 27.1482 0.0000 0.0000 0.0000
# 4 0.0000 0.0000 0.0000 -1.6747 0.0000 0.0000
# 5 0.0000 0.0000 0.0000 0.0000 -0.7647 0.0000
# 6 0.0000 0.0000 0.0000 0.0000 0.0000 10.7460
#
#
#
# Elastic Compliance Matrix: (Units=1/GPa)
#
#
# Indices 1 2 3 4 5 6 
#
# 1 0.012155 -0.009026 -0.001142 0.000000 0.000000 0.000000
# 2 -0.009026 0.020507 -0.007347 0.000000 0.000000 0.000000
# 3 -0.001142 -0.007347 0.041808 0.000000 0.000000 0.000000
# 4 0.000000 0.000000 0.000000 -0.597136 0.000000 0.000000
# 5 0.000000 0.000000 0.000000 0.000000 -1.307680 0.000000
# 6 0.000000 0.000000 0.000000 0.000000 0.000000 0.093058
#
#
# Mechanical properties :
#
#
# Convention : Reuss Voigt Hill
#
# Bulk Modulus (GPa) = 25.35574 47.24731 36.30153
# Shear Modulus (GPa) = -2.96014 11.40047 4.22017
#
# Velocity S-wave (km/s) = -1.16381 2.28396 1.38961
# Velocity P-wave (km/s) = 3.12985 5.34547 4.38007
#
# Compressibility (1/GPa) = 0.03943880
#
# Stress axis : x y z
#
# Youngs Moduli (GPa) = 82.26912 48.76458 23.91914
#
# Poissons Ratio (x) = 0.44015 0.02732
# Poissons Ratio (y) = 0.74255 0.17574
# Poissons Ratio (z) = 0.09395 0.35829
#
# Static dielectric constant tensor:
#      x y z
#    x 1.835430 0.000000 0.000000 
#    y 0.000000 1.848010 0.000000 
#    z 0.000000 0.000000 1.826560 
# 
# From -- ./inp_files/13575.got.cif
#   From: 2010.05.17/outbox.cif.g08.bks.cpg/sg40_7_cif.got.tgz:13575.got - 2010.06.03 18:35:42.
