data_PCOD9363904
_publ_section_title
;
Structure prediction by ZEFSAII (Michael W. Deem and Ramdas Pophale) SiO2 
 PCOD9363904
Probable space group: A M A 2
;
_chemical_formula_sum "Si O2"
_cell_formula_units_Z 48
_cell_length_a 8.564911
_cell_length_b 28.630599
_cell_length_c 10.444413
_cell_angle_alpha 90.000000
_cell_angle_beta 90.000000
_cell_angle_gamma 90.000000
_cell_volume 2561.163627
_symmetry_space_group_name_H-M "A M A 2"
_symmetry_group_IT_number 40
_symmetry_cell_setting 'orthorhombic'
loop_
_space_group_symop_operation_xyz
x,y,z
-x,-y,z
1/2-x,y,z
1/2+x,-y,z
x,1/2+y,1/2+z
-x,1/2-y,1/2+z
1/2-x,1/2+y,1/2+z
1/2+x,1/2-y,1/2+z
loop_
_atom_site_type_symbol
_atom_site_label
_atom_site_fract_x
_atom_site_fract_y
_atom_site_fract_z
Si Si1 0.436908 0.450274 0.186940
Si Si2 0.434513 0.697940 0.818287
Si Si3 0.935669 0.301726 0.318929
Si Si4 0.063989 0.353699 0.569700
Si Si5 0.063221 0.352244 0.066507
Si Si6 0.063657 0.050882 0.974915
O O1 0.500000 0.500000 0.139131
O O2 0.250000 0.452861 0.204182
O O3 0.472707 0.406386 0.097087
O O4 0.512474 0.442192 0.326643
O O5 0.250000 0.707122 0.817343
O O6 0.524009 0.747115 0.825607
O O7 0.484680 0.671173 0.690097
O O8 0.480583 0.667182 0.940868
O O9 0.750000 0.308933 0.319962
O O10 0.010356 0.327557 0.440558
O O11 0.007149 0.323003 0.189494
O O12 0.250000 0.351072 0.581735
O O13 0.009841 0.407167 0.555400
O O14 0.250000 0.347478 0.052863
O O15 0.250000 0.051984 0.982855
O O16 0.000000 0.000000 0.013033
#
# Coordination Sequence:
#
# PCOD9363904 Si02
#       6
#     8   8   8   8   8   8
#     4  10  20  35  60  90 123 157 199 250 301 355
#     4  12  26  43  62  88 124 164 205 254 310 368
#     4  12  24  41  65  92 121 161 208 254 304 363
#     4  12  24  42  64  91 125 162 206 256 308 364
#     4  11  23  41  63  91 125 162 204 252 305 360
#     4  11  21  36  61  92 124 158 202 251 305 361
#
# _framework density 18.741479999999999
#
# number of rings (size 3 to 8) (size 9 to 14) (size 15 to 20)
#    0.000    0.667    1.667    9.000    0.000    2.000 
#    0.000    0.833    0.000    2.000    0.000    0.000 
#    0.000    0.000    0.000    0.000    0.000    0.000 
#
# Total GULP energy -134323.483514 kJ/mol
# GULP energy per Si atom -5596.811813 kJ/mol
# Density = 1.869882 g / cm^3
# Si number density = 18.741480 Si / 1000 Ang^3
#
#
#
# Elastic Constant Matrix: (Units=GPa)
#
#
# Indices 1 2 3 4 5 6 
#
# 1 60.7349 -13.8487 -4.8435 0.0000 0.0000 0.0000
# 2 -13.8487 87.7646 12.3533 0.0000 0.0000 0.0000
# 3 -4.8435 12.3533 76.7813 0.0000 0.0000 0.0000
# 4 0.0000 0.0000 0.0000 21.2785 0.0000 0.0000
# 5 0.0000 0.0000 0.0000 0.0000 36.1949 0.0000
# 6 0.0000 0.0000 0.0000 0.0000 0.0000 42.7566
#
#
#
# Elastic Compliance Matrix: (Units=1/GPa)
#
#
# Indices 1 2 3 4 5 6 
#
# 1 0.017112 0.002607 0.000660 0.000000 0.000000 0.000000
# 2 0.002607 0.012055 -0.001775 0.000000 0.000000 0.000000
# 3 0.000660 -0.001775 0.013351 0.000000 0.000000 0.000000
# 4 0.000000 0.000000 0.000000 0.046996 0.000000 0.000000
# 5 0.000000 0.000000 0.000000 0.000000 0.027628 0.000000
# 6 0.000000 0.000000 0.000000 0.000000 0.000000 0.023388
#
#
# Mechanical properties :
#
#
# Convention : Reuss Voigt Hill
#
# Bulk Modulus (GPa) = 21.97651 23.62253 22.79952
# Shear Modulus (GPa) = 32.74088 35.48732 34.11410
#
# Velocity S-wave (km/s) = 4.18422 4.35618 4.27106
# Velocity P-wave (km/s) = 5.92412 6.15902 6.04271
#
# Compressibility (1/GPa) = 0.04550314
#
# Stress axis : x y z
#
# Youngs Moduli (GPa) = 58.43798 82.95050 74.89944
#
# Poissons Ratio (x) = -0.21628 -0.04943
# Poissons Ratio (y) = -0.15237 0.13295
# Poissons Ratio (z) = -0.03857 0.14725
#
# Static dielectric constant tensor:
#      x y z
#    x 1.623520 0.000000 0.000000 
#    y 0.000000 1.645150 0.000000 
#    z 0.000000 0.000000 1.605080 
# 
# From -- ./inp_files/4610.got.cif
#   From: 2010.05.17/outbox.cif.g08.bks.cpg/sg40_3_cif.got.tgz:4610.got - 2010.06.03 18:35:42.
