data_PCOD9363284
_publ_section_title
;
Structure prediction by ZEFSAII (Michael W. Deem and Ramdas Pophale) SiO2 
 PCOD9363284
Probable space group: A M A 2
;
_chemical_formula_sum "Si O2"
_cell_formula_units_Z 48
_cell_length_a 8.411843
_cell_length_b 15.778898
_cell_length_c 19.364715
_cell_angle_alpha 90.000000
_cell_angle_beta 90.000000
_cell_angle_gamma 90.000000
_cell_volume 2570.271122
_symmetry_space_group_name_H-M "A M A 2"
_symmetry_group_IT_number 40
_symmetry_cell_setting 'orthorhombic'
loop_
_space_group_symop_operation_xyz
x,y,z
-x,-y,z
1/2-x,y,z
1/2+x,-y,z
x,1/2+y,1/2+z
-x,1/2-y,1/2+z
1/2-x,1/2+y,1/2+z
1/2+x,1/2-y,1/2+z
loop_
_atom_site_type_symbol
_atom_site_label
_atom_site_fract_x
_atom_site_fract_y
_atom_site_fract_z
Si Si1 0.441839 0.093392 0.975570
Si Si2 0.559270 0.406304 0.830996
Si Si3 0.940484 0.406341 0.316704
Si Si4 0.057924 0.745951 0.732405
Si Si5 0.940544 0.093338 0.486314
Si Si6 0.444371 0.245515 0.074223
O O1 0.250000 0.093371 0.975774
O O2 0.493502 0.109463 0.896277
O O3 0.500000 0.000000 0.995545
O O4 0.496896 0.166424 0.027404
O O5 0.500000 0.500000 0.811361
O O6 0.750000 0.407328 0.831984
O O7 0.503537 0.333513 0.778751
O O8 0.499587 0.388833 0.908615
O O9 0.750000 0.405730 0.315478
O O10 0.000000 0.500000 0.297122
O O11 0.004119 0.332898 0.267733
O O12 0.250000 0.744426 0.731951
O O13 0.002802 0.739682 0.653315
O O14 0.750000 0.092264 0.484970
O O15 0.994322 0.167090 0.537852
O O16 0.000000 0.000000 0.506181
O O17 0.250000 0.244831 0.074198
#
# Coordination Sequence:
#
# PCOD9363284 Si02
#       6
#     8   8   8   8   8   8
#     4   9  18  34  55  77 101 132 170 211 254 300
#     4  10  20  34  54  78 105 136 172 215 258 304
#     4  10  20  35  56  80 105 135 173 215 257 304
#     4  10  21  36  53  76 107 140 172 210 258 308
#     4  10  19  34  56  77 100 132 172 215 256 303
#     4   9  19  35  53  74 104 139 169 204 256 309
#
# _framework density 18.675073000000001
#
# number of rings (size 3 to 8) (size 9 to 14) (size 15 to 20)
#    0.000    2.333    0.000    3.500    0.000    4.667 
#    0.000    5.833    0.000    0.000    0.000    0.000 
#    0.000    0.000    0.000    0.000    0.000    0.000 
#
# Total GULP energy -133989.200539 kJ/mol
# GULP energy per Si atom -5582.883356 kJ/mol
# Density = 1.863257 g / cm^3
# Si number density = 18.675073 Si / 1000 Ang^3
#
#
#
# Elastic Constant Matrix: (Units=GPa)
#
#
# Indices 1 2 3 4 5 6 
#
# 1 18.1670 2.4213 3.8673 0.0000 0.0000 0.0000
# 2 2.4213 88.4551 54.3035 0.0000 0.0000 0.0000
# 3 3.8673 54.3035 65.3198 0.0000 0.0000 0.0000
# 4 0.0000 0.0000 0.0000 11.0148 0.0000 0.0000
# 5 0.0000 0.0000 0.0000 0.0000 15.4726 0.0000
# 6 0.0000 0.0000 0.0000 0.0000 0.0000 17.0306
#
#
#
# Elastic Compliance Matrix: (Units=1/GPa)
#
#
# Indices 1 2 3 4 5 6 
#
# 1 0.055793 0.001023 -0.004153 0.000000 0.000000 0.000000
# 2 0.001023 0.023108 -0.019271 0.000000 0.000000 0.000000
# 3 -0.004153 -0.019271 0.031576 0.000000 0.000000 0.000000
# 4 0.000000 0.000000 0.000000 0.090787 0.000000 0.000000
# 5 0.000000 0.000000 0.000000 0.000000 0.064631 0.000000
# 6 0.000000 0.000000 0.000000 0.000000 0.000000 0.058718
#
#
# Mechanical properties :
#
#
# Convention : Reuss Voigt Hill
#
# Bulk Modulus (GPa) = 15.22697 32.56955 23.89826
# Shear Modulus (GPa) = 12.77765 16.12691 14.45228
#
# Velocity S-wave (km/s) = 2.61858 2.94181 2.78489
# Velocity P-wave (km/s) = 4.16100 5.38674 4.81305
#
# Compressibility (1/GPa) = 0.06567293
#
# Stress axis : x y z
#
# Youngs Moduli (GPa) = 17.92346 43.27487 31.66918
#
# Poissons Ratio (x) = -0.04425 0.13153
# Poissons Ratio (y) = -0.01833 0.61031
# Poissons Ratio (z) = 0.07444 0.83397
#
# Static dielectric constant tensor:
#      x y z
#    x 1.641730 0.000000 0.000000 
#    y 0.000000 1.622190 0.000000 
#    z 0.000000 0.000000 1.631550 
# 
# From -- ./inp_files/19202.got.cif
#   From: 2010.05.17/outbox.cif.g08.bks.cpg/sg40_10_cif.got.tgz:19202.got - 2010.06.03 18:35:42.
