data_PCOD9363505
_publ_section_title
;
Structure prediction by ZEFSAII (Michael W. Deem and Ramdas Pophale) SiO2 
 PCOD9363505
Probable space group: A M A 2
;
_chemical_formula_sum "Si O2"
_cell_formula_units_Z 40
_cell_length_a 28.832546
_cell_length_b 12.811286
_cell_length_c 5.254788
_cell_angle_alpha 90.000000
_cell_angle_beta 90.000000
_cell_angle_gamma 90.000000
_cell_volume 1941.024064
_symmetry_space_group_name_H-M "A M A 2"
_symmetry_group_IT_number 40
_symmetry_cell_setting 'orthorhombic'
loop_
_space_group_symop_operation_xyz
x,y,z
-x,-y,z
1/2-x,y,z
1/2+x,-y,z
x,1/2+y,1/2+z
-x,1/2-y,1/2+z
1/2-x,1/2+y,1/2+z
1/2+x,1/2-y,1/2+z
loop_
_atom_site_type_symbol
_atom_site_label
_atom_site_fract_x
_atom_site_fract_y
_atom_site_fract_z
Si Si1 0.107571 0.091430 0.608910
Si Si2 0.848479 0.049893 0.261582
Si Si3 0.303217 0.018671 0.757551
Si Si4 0.039454 0.415118 0.232972
Si Si5 0.064204 0.804645 0.229522
O O1 0.119411 0.054079 0.320854
O O2 0.072921 0.185025 0.657828
O O3 0.158403 0.110321 0.727409
O O4 0.086188 0.985595 0.728267
O O5 0.817355 0.053516 0.516793
O O6 0.884724 0.142616 0.231142
O O7 0.815780 0.035606 0.021637
O O8 0.250000 0.550025 0.244804
O O9 0.035736 0.360325 0.504603
O O10 0.000000 0.500000 0.183732
O O11 0.043068 0.332233 0.003952
#
# Coordination Sequence:
#
# PCOD9363505 Si02
#       5
#     8   8   8   8   8
#     4   9  23  37  63  82 121 154 193 239 300 342
#     4   9  19  37  56  83 115 151 191 236 287 345
#     4  10  19  37  60  82 118 153 190 245 293 340
#     4  11  24  40  59  91 119 151 202 245 288 354
#     4  11  21  39  64  82 118 157 192 237 300 347
#
# _framework density 20.607678
#
# number of rings (size 3 to 8) (size 9 to 14) (size 15 to 20)
#    1.200    0.800    2.000    1.200    2.800    1.600 
#    0.000    2.000    0.000    0.000    0.000    0.000 
#    0.000    0.000    0.000    0.000    0.000    0.000 
#
# Total GULP energy -111412.572087 kJ/mol
# GULP energy per Si atom -5570.628604 kJ/mol
# Density = 2.056077 g / cm^3
# Si number density = 20.607678 Si / 1000 Ang^3
#
#
#
# Elastic Constant Matrix: (Units=GPa)
#
#
# Indices 1 2 3 4 5 6 
#
# 1 84.4243 11.6233 3.7089 0.0000 0.0000 0.0000
# 2 11.6233 76.3971 19.3984 0.0000 0.0000 0.0000
# 3 3.7089 19.3984 126.1822 0.0000 0.0000 0.0000
# 4 0.0000 0.0000 0.0000 1.1697 0.0000 0.0000
# 5 0.0000 0.0000 0.0000 0.0000 19.3998 0.0000
# 6 0.0000 0.0000 0.0000 0.0000 0.0000 23.6890
#
#
#
# Elastic Compliance Matrix: (Units=1/GPa)
#
#
# Indices 1 2 3 4 5 6 
#
# 1 0.012099 -0.001822 -0.000076 0.000000 0.000000 0.000000
# 2 -0.001822 0.013895 -0.002083 0.000000 0.000000 0.000000
# 3 -0.000076 -0.002083 0.008247 0.000000 0.000000 0.000000
# 4 0.000000 0.000000 0.000000 0.854952 0.000000 0.000000
# 5 0.000000 0.000000 0.000000 0.000000 0.051547 0.000000
# 6 0.000000 0.000000 0.000000 0.000000 0.000000 0.042214
#
#
# Mechanical properties :
#
#
# Convention : Reuss Voigt Hill
#
# Bulk Modulus (GPa) = 38.04845 39.60720 38.82783
# Shear Modulus (GPa) = 5.00163 25.66990 15.33576
#
# Velocity S-wave (km/s) = 1.55960 3.53320 2.73092
# Velocity P-wave (km/s) = 4.66331 5.99217 5.36901
#
# Compressibility (1/GPa) = 0.02628228
#
# Stress axis : x y z
#
# Youngs Moduli (GPa) = 82.65117 71.96593 121.24970
#
# Poissons Ratio (x) = 0.13109 0.00917
# Poissons Ratio (y) = 0.15056 0.25252
# Poissons Ratio (z) = 0.00625 0.14988
#
# Static dielectric constant tensor:
#      x y z
#    x 1.777560 0.000000 0.000000 
#    y 0.000000 1.731090 0.000000 
#    z 0.000000 0.000000 1.759860 
# 
# From -- ./inp_files/3326.got.cif
#   From: 2010.05.17/outbox.cif.g08.bks.cpg/sg40_2_cif.got.tgz:3326.got - 2010.06.03 18:35:42.
