data_PCOD9363782
_publ_section_title
;
Structure prediction by ZEFSAII (Michael W. Deem and Ramdas Pophale) SiO2 
 PCOD9363782
Probable space group: A M A 2
;
_chemical_formula_sum "Si O2"
_cell_formula_units_Z 64
_cell_length_a 15.749069
_cell_length_b 17.463570
_cell_length_c 11.878558
_cell_angle_alpha 90.000000
_cell_angle_beta 90.000000
_cell_angle_gamma 90.000000
_cell_volume 3267.018830
_symmetry_space_group_name_H-M "A M A 2"
_symmetry_group_IT_number 40
_symmetry_cell_setting 'orthorhombic'
loop_
_space_group_symop_operation_xyz
x,y,z
-x,-y,z
1/2-x,y,z
1/2+x,-y,z
x,1/2+y,1/2+z
-x,1/2-y,1/2+z
1/2-x,1/2+y,1/2+z
1/2+x,1/2-y,1/2+z
loop_
_atom_site_type_symbol
_atom_site_label
_atom_site_fract_x
_atom_site_fract_y
_atom_site_fract_z
Si Si1 0.581397 0.449568 0.267690
Si Si2 0.153518 0.792915 0.753180
Si Si3 0.029859 0.210885 0.853097
Si Si4 0.650932 0.559498 0.096885
Si Si5 0.343129 0.007225 0.999674
Si Si6 0.055192 0.928716 0.179504
Si Si7 0.349936 0.357504 0.867749
Si Si8 0.591811 0.337625 0.596859
O O1 0.500000 0.500000 0.299231
O O2 0.560190 0.359836 0.273840
O O3 0.609421 0.483133 0.147457
O O4 0.644897 0.470531 0.369427
O O5 0.250000 0.788743 0.800570
O O6 0.143404 0.875546 0.693607
O O7 0.144481 0.729490 0.654479
O O8 0.071135 0.779517 0.831722
O O9 0.092064 0.283631 0.843953
O O10 0.049219 0.185422 0.979940
O O11 0.750000 0.543435 0.079486
O O12 0.620199 0.597981 0.980795
O O13 0.250000 0.974507 0.015408
O O14 0.411844 0.950610 0.054700
O O15 0.354996 0.085935 0.070010
O O16 0.132807 0.911609 0.260986
O O17 0.987590 0.860724 0.174077
O O18 0.000000 0.000000 0.222100
O O19 0.250000 0.338357 0.880522
#
# Coordination Sequence:
#
# PCOD9363782 Si02
#       8
#     8   8   8   8   8   8   8   8
#     4  11  21  37  58  89 120 156 200 254 319 372
#     4  11  21  37  61  89 120 164 211 254 309 381
#     4  11  22  38  63  93 125 162 205 268 320 372
#     4  10  22  38  59  87 118 158 205 249 304 379
#     4  10  20  34  57  87 118 150 192 255 307 356
#     4  10  21  38  59  86 115 156 202 248 307 368
#     4  11  23  40  62  90 124 166 211 253 312 387
#     4  10  20  37  60  85 117 153 206 249 306 365
#
# _framework density 19.589724
#
# number of rings (size 3 to 8) (size 9 to 14) (size 15 to 20)
#    0.000    1.500    3.750    3.000    0.000    3.000 
#    0.000    0.625    0.000    0.000    0.000    0.875 
#    0.000    0.000    0.000    0.000    0.000    0.000 
#
# Total GULP energy -178396.425081 kJ/mol
# GULP energy per Si atom -5574.888284 kJ/mol
# Density = 1.954514 g / cm^3
# Si number density = 19.589724 Si / 1000 Ang^3
#
#
#
# Elastic Constant Matrix: (Units=GPa)
#
#
# Indices 1 2 3 4 5 6 
#
# 1 111.1749 34.1384 31.7148 0.0000 0.0000 0.0000
# 2 34.1384 77.1457 30.7248 0.0000 0.0000 0.0000
# 3 31.7148 30.7248 47.0178 0.0000 0.0000 0.0000
# 4 0.0000 0.0000 0.0000 13.7378 0.0000 0.0000
# 5 0.0000 0.0000 0.0000 0.0000 22.5385 0.0000
# 6 0.0000 0.0000 0.0000 0.0000 0.0000 8.0922
#
#
#
# Elastic Compliance Matrix: (Units=1/GPa)
#
#
# Indices 1 2 3 4 5 6 
#
# 1 0.011543 -0.002713 -0.006013 0.000000 0.000000 0.000000
# 2 -0.002713 0.018161 -0.010037 0.000000 0.000000 0.000000
# 3 -0.006013 -0.010037 0.031884 0.000000 0.000000 0.000000
# 4 0.000000 0.000000 0.000000 0.072792 0.000000 0.000000
# 5 0.000000 0.000000 0.000000 0.000000 0.044369 0.000000
# 6 0.000000 0.000000 0.000000 0.000000 0.000000 0.123575
#
#
# Mechanical properties :
#
#
# Convention : Reuss Voigt Hill
#
# Bulk Modulus (GPa) = 41.56258 47.61050 44.58654
# Shear Modulus (GPa) = 14.37312 18.12439 16.24876
#
# Velocity S-wave (km/s) = 2.71164 3.04501 2.88315
# Velocity P-wave (km/s) = 5.57374 6.05965 5.82177
#
# Compressibility (1/GPa) = 0.02406011
#
# Stress axis : x y z
#
# Youngs Moduli (GPa) = 86.62953 55.06392 31.36387
#
# Poissons Ratio (x) = 0.14940 0.18860
# Poissons Ratio (y) = 0.23505 0.31481
# Poissons Ratio (z) = 0.52093 0.55270
#
# Static dielectric constant tensor:
#      x y z
#    x 1.701500 0.000000 0.000000 
#    y 0.000000 1.755640 0.000000 
#    z 0.000000 0.000000 1.703480 
# 
# From -- ./inp_files/12424.got.cif
#   From: 2010.05.17/outbox.cif.g08.bks.cpg/sg40_7_cif.got.tgz:12424.got - 2010.06.03 18:35:42.
