data_PCOD9363744
_publ_section_title
;
Structure prediction by ZEFSAII (Michael W. Deem and Ramdas Pophale) SiO2 
 PCOD9363744
Probable space group: A M A 2
;
_chemical_formula_sum "Si O2"
_cell_formula_units_Z 64
_cell_length_a 9.023926
_cell_length_b 29.554106
_cell_length_c 12.450088
_cell_angle_alpha 90.000000
_cell_angle_beta 90.000000
_cell_angle_gamma 90.000000
_cell_volume 3320.364585
_symmetry_space_group_name_H-M "A M A 2"
_symmetry_group_IT_number 40
_symmetry_cell_setting 'orthorhombic'
loop_
_space_group_symop_operation_xyz
x,y,z
-x,-y,z
1/2-x,y,z
1/2+x,-y,z
x,1/2+y,1/2+z
-x,1/2-y,1/2+z
1/2-x,1/2+y,1/2+z
1/2+x,1/2-y,1/2+z
loop_
_atom_site_type_symbol
_atom_site_label
_atom_site_fract_x
_atom_site_fract_y
_atom_site_fract_z
Si Si1 0.919952 0.864061 0.687880
Si Si2 0.573807 0.952018 0.185687
Si Si3 0.586055 0.565750 0.900339
Si Si4 0.921381 0.308729 0.393279
Si Si5 0.419949 0.831929 0.488989
Si Si6 0.079280 0.956369 0.644615
Si Si7 0.430849 0.650764 0.620655
Si Si8 0.924411 0.779693 0.309665
O O1 0.750000 0.859923 0.650059
O O2 0.925350 0.850121 0.810915
O O3 0.026146 0.834948 0.610972
O O4 0.980302 0.914076 0.674813
O O5 0.750000 0.955291 0.170134
O O6 0.534090 0.947214 0.312441
O O7 0.524134 0.902324 0.137688
O O8 0.500000 0.000000 0.149384
O O9 0.750000 0.557962 0.852155
O O10 0.575296 0.618138 0.936101
O O11 0.579757 0.541192 0.014663
O O12 0.750000 0.294973 0.409916
O O13 0.979510 0.325982 0.508484
O O14 0.999796 0.268715 0.327106
O O15 0.250000 0.815828 0.481972
O O16 0.534588 0.803073 0.421819
O O17 0.250000 0.950847 0.677694
O O18 0.000000 0.000000 0.690324
O O19 0.250000 0.649729 0.621177
O O20 0.477250 0.685178 0.716763
O O21 0.750000 0.773805 0.294400
#
# Coordination Sequence:
#
# PCOD9363744 Si02
#       8
#     8   8   8   8   8   8   8   8
#     4  10  21  37  59  85 117 154 199 246 293 352
#     4  11  21  35  57  84 116 157 199 243 297 358
#     4   9  18  32  51  80 115 151 187 233 289 347
#     4  10  23  43  63  86 118 160 202 247 304 362
#     4  10  20  35  57  84 119 156 191 238 294 350
#     4  10  20  34  54  82 117 157 200 246 303 356
#     4   9  21  42  63  85 121 162 198 245 306 366
#     4  11  22  38  62  92 119 152 197 241 298 364
#
# _framework density 19.274992000000001
#
# number of rings (size 3 to 8) (size 9 to 14) (size 15 to 20)
#    0.000    2.000    1.250    3.000    1.750    4.500 
#    0.000    2.500    0.000    1.500    0.000    0.000 
#    0.000    0.000    0.000    0.000    0.000    0.000 
#
# Total GULP energy -178309.554438 kJ/mol
# GULP energy per Si atom -5572.173576 kJ/mol
# Density = 1.923112 g / cm^3
# Si number density = 19.274992 Si / 1000 Ang^3
#
#
#
# Elastic Constant Matrix: (Units=GPa)
#
#
# Indices 1 2 3 4 5 6 
#
# 1 41.5682 26.2275 17.1270 0.0000 0.0000 0.0000
# 2 26.2275 90.6974 43.6167 0.0000 0.0000 0.0000
# 3 17.1270 43.6167 74.1540 0.0000 0.0000 0.0000
# 4 0.0000 0.0000 0.0000 9.1102 0.0000 0.0000
# 5 0.0000 0.0000 0.0000 0.0000 16.5717 0.0000
# 6 0.0000 0.0000 0.0000 0.0000 0.0000 31.8630
#
#
#
# Elastic Compliance Matrix: (Units=1/GPa)
#
#
# Indices 1 2 3 4 5 6 
#
# 1 0.029761 -0.007391 -0.002526 0.000000 0.000000 0.000000
# 2 -0.007391 0.017210 -0.008416 0.000000 0.000000 0.000000
# 3 -0.002526 -0.008416 0.019019 0.000000 0.000000 0.000000
# 4 0.000000 0.000000 0.000000 0.109767 0.000000 0.000000
# 5 0.000000 0.000000 0.000000 0.000000 0.060344 0.000000
# 6 0.000000 0.000000 0.000000 0.000000 0.000000 0.031384
#
#
# Mechanical properties :
#
#
# Convention : Reuss Voigt Hill
#
# Bulk Modulus (GPa) = 34.10207 42.26245 38.18226
# Shear Modulus (GPa) = 15.92726 19.47221 17.69974
#
# Velocity S-wave (km/s) = 2.87769 3.18186 3.03359
# Velocity P-wave (km/s) = 5.36398 5.95589 5.66767
#
# Compressibility (1/GPa) = 0.02932373
#
# Stress axis : x y z
#
# Youngs Moduli (GPa) = 33.60070 58.10493 52.57896
#
# Poissons Ratio (x) = 0.42947 0.13283
# Poissons Ratio (y) = 0.24835 0.44249
# Poissons Ratio (z) = 0.08489 0.48900
#
# Static dielectric constant tensor:
#      x y z
#    x 1.669810 0.000000 0.000000 
#    y 0.000000 1.695970 0.000000 
#    z 0.000000 0.000000 1.648880 
# 
# From -- ./inp_files/10635.got.cif
#   From: 2010.05.17/outbox.cif.g08.bks.cpg/sg40_6_cif.got.tgz:10635.got - 2010.06.03 18:35:42.
