data_PCOD9363078
_publ_section_title
;
Structure prediction by ZEFSAII (Michael W. Deem and Ramdas Pophale) SiO2 
 PCOD9363078
Probable space group: A M A 2
;
_chemical_formula_sum "Si O2"
_cell_formula_units_Z 40
_cell_length_a 8.794430
_cell_length_b 21.076503
_cell_length_c 12.838512
_cell_angle_alpha 90.000000
_cell_angle_beta 90.000000
_cell_angle_gamma 90.000000
_cell_volume 2379.693051
_symmetry_space_group_name_H-M "A M A 2"
_symmetry_group_IT_number 40
_symmetry_cell_setting 'orthorhombic'
loop_
_space_group_symop_operation_xyz
x,y,z
-x,-y,z
1/2-x,y,z
1/2+x,-y,z
x,1/2+y,1/2+z
-x,1/2-y,1/2+z
1/2-x,1/2+y,1/2+z
1/2+x,1/2-y,1/2+z
loop_
_atom_site_type_symbol
_atom_site_label
_atom_site_fract_x
_atom_site_fract_y
_atom_site_fract_z
Si Si1 0.567909 0.297821 0.112550
Si Si2 0.070140 0.159693 0.386139
Si Si3 0.430592 0.430230 0.716833
Si Si4 0.931751 0.337966 0.546941
Si Si5 0.069156 0.807637 0.830653
O O1 0.750000 0.290251 0.119989
O O2 0.495023 0.228755 0.091737
O O3 0.500634 0.324611 0.219210
O O4 0.535827 0.339052 0.009264
O O5 0.250000 0.146622 0.371632
O O6 0.043354 0.231906 0.347447
O O7 0.975043 0.111150 0.317988
O O8 0.500000 0.500000 0.725441
O O9 0.250000 0.433170 0.705564
O O10 0.502710 0.393411 0.618723
O O11 0.750000 0.337348 0.551015
O O12 0.990431 0.341435 0.428398
O O13 0.250000 0.818029 0.833352
#
# Coordination Sequence:
#
# PCOD9363078 Si02
#       5
#     8   8   8   8   8
#     4  10  19  32  53  80 111 143 176 220 274 325
#     4   9  19  34  51  77 110 141 179 221 267 320
#     4  12  24  38  57  78 107 144 186 226 271 322
#     4  11  21  34  52  77 110 143 182 223 269 322
#     4  10  19  32  53  80 112 143 176 221 273 324
#
# _framework density 16.808889000000001
#
# number of rings (size 3 to 8) (size 9 to 14) (size 15 to 20)
#    0.000    1.600    2.000    6.000    0.000    4.000 
#    0.000    0.000    0.000    1.200    0.000    2.800 
#    0.000    0.000    0.000    0.000    0.000    0.000 
#
# Total GULP energy -111701.677060 kJ/mol
# GULP energy per Si atom -5585.083853 kJ/mol
# Density = 1.677063 g / cm^3
# Si number density = 16.808889 Si / 1000 Ang^3
#
#
#
# Elastic Constant Matrix: (Units=GPa)
#
#
# Indices 1 2 3 4 5 6 
#
# 1 136.4518 60.3859 79.9200 0.0000 0.0000 0.0000
# 2 60.3859 67.5022 44.6052 0.0000 0.0000 0.0000
# 3 79.9200 44.6052 156.4755 0.0000 0.0000 0.0000
# 4 0.0000 0.0000 0.0000 13.3432 0.0000 0.0000
# 5 0.0000 0.0000 0.0000 0.0000 50.7204 0.0000
# 6 0.0000 0.0000 0.0000 0.0000 0.0000 14.7966
#
#
#
# Elastic Compliance Matrix: (Units=1/GPa)
#
#
# Indices 1 2 3 4 5 6 
#
# 1 0.014322 -0.009830 -0.004513 0.000000 0.000000 0.000000
# 2 -0.009830 0.025000 -0.002106 0.000000 0.000000 0.000000
# 3 -0.004513 -0.002106 0.009296 0.000000 0.000000 0.000000
# 4 0.000000 0.000000 0.000000 0.074944 0.000000 0.000000
# 5 0.000000 0.000000 0.000000 0.000000 0.019716 0.000000
# 6 0.000000 0.000000 0.000000 0.000000 0.000000 0.067583
#
#
# Mechanical properties :
#
#
# Convention : Reuss Voigt Hill
#
# Bulk Modulus (GPa) = 63.61187 81.13909 72.37548
# Shear Modulus (GPa) = 20.08046 27.47326 23.77686
#
# Velocity S-wave (km/s) = 3.46010 4.04722 3.76512
# Velocity P-wave (km/s) = 7.34094 8.37952 7.87736
#
# Compressibility (1/GPa) = 0.01572034
#
# Stress axis : x y z
#
# Youngs Moduli (GPa) = 69.82277 40.00076 107.57382
#
# Poissons Ratio (x) = 0.39321 0.48546
# Poissons Ratio (y) = 0.68636 0.22652
# Poissons Ratio (z) = 0.31510 0.08423
#
# Static dielectric constant tensor:
#      x y z
#    x 1.510620 0.000000 0.000000 
#    y 0.000000 1.531430 0.000000 
#    z 0.000000 0.000000 1.587810 
# 
# From -- ./inp_files/9995.got.cif
#   From: 2010.05.17/outbox.cif.g08.bks.cpg/sg40_5_cif.got.tgz:9995.got - 2010.06.03 18:35:42.
