data_PCOD9363792
_publ_section_title
;
Structure prediction by ZEFSAII (Michael W. Deem and Ramdas Pophale) SiO2 
 PCOD9363792
Probable space group: A M A 2
;
_chemical_formula_sum "Si O2"
_cell_formula_units_Z 56
_cell_length_a 15.019015
_cell_length_b 11.638592
_cell_length_c 15.416840
_cell_angle_alpha 90.000000
_cell_angle_beta 90.000000
_cell_angle_gamma 90.000000
_cell_volume 2694.866528
_symmetry_space_group_name_H-M "A M A 2"
_symmetry_group_IT_number 40
_symmetry_cell_setting 'orthorhombic'
loop_
_space_group_symop_operation_xyz
x,y,z
-x,-y,z
1/2-x,y,z
1/2+x,-y,z
x,1/2+y,1/2+z
-x,1/2-y,1/2+z
1/2-x,1/2+y,1/2+z
1/2+x,1/2-y,1/2+z
loop_
_atom_site_type_symbol
_atom_site_label
_atom_site_fract_x
_atom_site_fract_y
_atom_site_fract_z
Si Si1 0.652309 0.540349 0.351950
Si Si2 0.601996 0.457415 0.537340
Si Si3 0.453806 0.829510 0.709793
Si Si4 0.851651 0.810314 0.742864
Si Si5 0.147342 0.903491 0.361420
Si Si6 0.905927 0.936388 0.225406
Si Si7 0.642395 0.186141 0.539082
O O1 0.750000 0.592597 0.333258
O O2 0.641097 0.524388 0.454964
O O3 0.576133 0.606012 0.297766
O O4 0.652987 0.412070 0.312921
O O5 0.500000 0.500000 0.540531
O O6 0.639294 0.476514 0.634971
O O7 0.612350 0.319508 0.525358
O O8 0.559099 0.837581 0.688922
O O9 0.423445 0.697888 0.720820
O O10 0.397959 0.867811 0.626210
O O11 0.750000 0.799657 0.706239
O O12 0.878810 0.693788 0.792409
O O13 0.250000 0.877714 0.376144
O O14 0.107195 0.883694 0.455525
O O15 0.139546 0.024087 0.313672
O O16 0.000000 0.000000 0.228787
O O17 0.750000 0.186775 0.547568
#
# Coordination Sequence:
#
# PCOD9363792 Si02
#       7
#     8   8   8   8   8   8   8
#     4  11  22  37  61  93 128 162 203 256 313 364
#     4  10  20  34  60  90 121 161 210 253 303 360
#     4  11  22  38  65  93 125 158 208 261 311 357
#     4  10  20  37  63  91 119 161 209 252 305 371
#     4  10  20  37  63  87 116 164 210 244 291 370
#     4  10  21  37  58  89 122 156 200 252 306 363
#     4  10  21  39  63  90 121 166 214 247 297 380
#
# _framework density 20.780251
#
# number of rings (size 3 to 8) (size 9 to 14) (size 15 to 20)
#    0.000    1.714    2.857    2.143    0.000    3.429 
#    0.000    1.429    3.143    0.000    0.000    0.000 
#    0.000    0.000    0.000    0.000    0.000    0.000 
#
# Total GULP energy -155994.024542 kJ/mol
# GULP energy per Si atom -5571.215162 kJ/mol
# Density = 2.073295 g / cm^3
# Si number density = 20.780251 Si / 1000 Ang^3
#
#
#
# Elastic Constant Matrix: (Units=GPa)
#
#
# Indices 1 2 3 4 5 6 
#
# 1 107.8819 7.8846 39.5628 0.0000 0.0000 0.0000
# 2 7.8846 46.5494 26.7136 0.0000 0.0000 0.0000
# 3 39.5628 26.7136 114.5239 0.0000 0.0000 0.0000
# 4 0.0000 0.0000 0.0000 22.3763 0.0000 0.0000
# 5 0.0000 0.0000 0.0000 0.0000 -31.6301 0.0000
# 6 0.0000 0.0000 0.0000 0.0000 0.0000 25.1851
#
#
#
# Elastic Compliance Matrix: (Units=1/GPa)
#
#
# Indices 1 2 3 4 5 6 
#
# 1 0.010619 0.000354 -0.003751 0.000000 0.000000 0.000000
# 2 0.000354 0.024814 -0.005910 0.000000 0.000000 0.000000
# 3 -0.003751 -0.005910 0.011406 0.000000 0.000000 0.000000
# 4 0.000000 0.000000 0.000000 0.044690 0.000000 0.000000
# 5 0.000000 0.000000 0.000000 0.000000 -0.031615 0.000000
# 6 0.000000 0.000000 0.000000 0.000000 0.000000 0.039706
#
#
# Mechanical properties :
#
#
# Convention : Reuss Voigt Hill
#
# Bulk Modulus (GPa) = 35.42976 46.36412 40.89694
# Shear Modulus (GPa) = 39.17156 16.17256 27.67206
#
# Velocity S-wave (km/s) = 4.34641 2.79277 3.65314
# Velocity P-wave (km/s) = 6.50193 5.72359 6.12514
#
# Compressibility (1/GPa) = 0.02822486
#
# Stress axis : x y z
#
# Youngs Moduli (GPa) = 94.16994 40.29904 87.67128
#
# Poissons Ratio (x) = -0.01426 0.32885
# Poissons Ratio (y) = -0.03333 0.51818
# Poissons Ratio (z) = 0.35323 0.23818
#
# Static dielectric constant tensor:
#      x y z
#    x 1.832380 0.000000 0.000000 
#    y 0.000000 1.749070 0.000000 
#    z 0.000000 0.000000 1.796960 
# 
# From -- ./inp_files/17048.got.cif
#   From: 2010.05.17/outbox.cif.g08.bks.cpg/sg40_9_cif.got.tgz:17048.got - 2010.06.03 18:35:42.
