data_PCOD9363816
_publ_section_title
;
Structure prediction by ZEFSAII (Michael W. Deem and Ramdas Pophale) SiO2 
 PCOD9363816
Probable space group: A M A 2
;
_chemical_formula_sum "Si O2"
_cell_formula_units_Z 48
_cell_length_a 13.878707
_cell_length_b 12.093118
_cell_length_c 15.561252
_cell_angle_alpha 90.000000
_cell_angle_beta 90.000000
_cell_angle_gamma 90.000000
_cell_volume 2611.751385
_symmetry_space_group_name_H-M "A M A 2"
_symmetry_group_IT_number 40
_symmetry_cell_setting 'orthorhombic'
loop_
_space_group_symop_operation_xyz
x,y,z
-x,-y,z
1/2-x,y,z
1/2+x,-y,z
x,1/2+y,1/2+z
-x,1/2-y,1/2+z
1/2-x,1/2+y,1/2+z
1/2+x,1/2-y,1/2+z
loop_
_atom_site_type_symbol
_atom_site_label
_atom_site_fract_x
_atom_site_fract_y
_atom_site_fract_z
Si Si1 0.865353 0.969141 0.446150
Si Si2 0.634912 0.233669 0.424826
Si Si3 0.866388 0.218370 0.236558
Si Si4 0.365693 0.707324 0.602915
Si Si5 0.024633 0.617425 0.115092
Si Si6 0.866741 0.963449 0.251660
O O1 0.750000 0.950021 0.457123
O O2 0.924657 0.912206 0.523169
O O3 0.895749 0.932598 0.349458
O O4 0.879571 0.102733 0.444875
O O5 0.750000 0.245182 0.418747
O O6 0.596721 0.257127 0.330228
O O7 0.604945 0.312533 0.503226
O O8 0.750000 0.219859 0.234868
O O9 0.905533 0.299776 0.164958
O O10 0.895714 0.089274 0.230249
O O11 0.250000 0.720930 0.606193
O O12 0.422916 0.819595 0.617852
O O13 0.393231 0.618884 0.674977
O O14 0.000000 0.500000 0.156679
O O15 0.750000 0.964380 0.255207
#
# Coordination Sequence:
#
# PCOD9363816 Si02
#       6
#     8   8   8   8   8   8
#     4   9  17  34  58  83 107 135 183 233 273 323
#     4   8  15  32  58  79 102 140 176 220 272 323
#     4   9  19  36  59  84 107 136 183 231 275 329
#     4  10  20  35  54  78 109 142 185 225 270 329
#     4  12  23  32  52  84 113 149 179 218 279 321
#     4   8  17  36  62  84 105 140 180 231 286 324
#
# _framework density 18.378471999999999
#
# number of rings (size 3 to 8) (size 9 to 14) (size 15 to 20)
#    0.000    2.667    1.667    2.500    0.000    2.667 
#    0.000    0.000    7.333    0.000    0.000    0.000 
#    0.000    0.000    0.000    0.000    0.000    0.000 
#
# Total GULP energy -133607.783947 kJ/mol
# GULP energy per Si atom -5566.990998 kJ/mol
# Density = 1.833664 g / cm^3
# Si number density = 18.378472 Si / 1000 Ang^3
#
#
#
# Elastic Constant Matrix: (Units=GPa)
#
#
# Indices 1 2 3 4 5 6 
#
# 1 59.0458 14.2788 16.8839 0.0000 0.0000 0.0000
# 2 14.2788 75.7090 70.7633 0.0000 0.0000 0.0000
# 3 16.8839 70.7633 143.3226 0.0000 0.0000 0.0000
# 4 0.0000 0.0000 0.0000 39.9157 0.0000 0.0000
# 5 0.0000 0.0000 0.0000 0.0000 15.2013 0.0000
# 6 0.0000 0.0000 0.0000 0.0000 0.0000 27.2146
#
#
#
# Elastic Compliance Matrix: (Units=1/GPa)
#
#
# Indices 1 2 3 4 5 6 
#
# 1 0.017797 -0.002594 -0.000816 0.000000 0.000000 0.000000
# 2 -0.002594 0.024905 -0.011991 0.000000 0.000000 0.000000
# 3 -0.000816 -0.011991 0.012994 0.000000 0.000000 0.000000
# 4 0.000000 0.000000 0.000000 0.025053 0.000000 0.000000
# 5 0.000000 0.000000 0.000000 0.000000 0.065784 0.000000
# 6 0.000000 0.000000 0.000000 0.000000 0.000000 0.036745
#
#
# Mechanical properties :
#
#
# Convention : Reuss Voigt Hill
#
# Bulk Modulus (GPa) = 40.17013 53.54770 46.85892
# Shear Modulus (GPa) = 22.48431 28.20974 25.34702
#
# Velocity S-wave (km/s) = 3.50152 3.92207 3.71775
# Velocity P-wave (km/s) = 6.18483 7.05050 6.63180
#
# Compressibility (1/GPa) = 0.02489412
#
# Stress axis : x y z
#
# Youngs Moduli (GPa) = 56.19066 40.15181 76.95988
#
# Poissons Ratio (x) = 0.10415 0.06278
# Poissons Ratio (y) = 0.14576 0.92283
# Poissons Ratio (z) = 0.04584 0.48146
#
# Static dielectric constant tensor:
#      x y z
#    x 1.684180 0.000000 0.000000 
#    y 0.000000 1.596620 0.000000 
#    z 0.000000 0.000000 1.700600 
# 
# From -- ./inp_files/16963.got.cif
#   From: 2010.05.17/outbox.cif.g08.bks.cpg/sg40_9_cif.got.tgz:16963.got - 2010.06.03 18:35:42.
