data_PCOD9363584
_publ_section_title
;
Structure prediction by ZEFSAII (Michael W. Deem and Ramdas Pophale) SiO2 
 PCOD9363584
Probable space group: A M A 2
;
_chemical_formula_sum "Si O2"
_cell_formula_units_Z 32
_cell_length_a 13.250721
_cell_length_b 10.385498
_cell_length_c 9.637358
_cell_angle_alpha 90.000000
_cell_angle_beta 90.000000
_cell_angle_gamma 90.000000
_cell_volume 1326.248264
_symmetry_space_group_name_H-M "A M A 2"
_symmetry_group_IT_number 40
_symmetry_cell_setting 'orthorhombic'
loop_
_space_group_symop_operation_xyz
x,y,z
-x,-y,z
1/2-x,y,z
1/2+x,-y,z
x,1/2+y,1/2+z
-x,1/2-y,1/2+z
1/2-x,1/2+y,1/2+z
1/2+x,1/2-y,1/2+z
loop_
_atom_site_type_symbol
_atom_site_label
_atom_site_fract_x
_atom_site_fract_y
_atom_site_fract_z
Si Si1 0.000000 0.500000 0.859051
Si Si2 0.586901 0.738276 0.973855
Si Si3 0.750000 0.845296 0.759869
Si Si4 0.250000 0.859558 0.687092
Si Si5 0.750000 0.205366 0.981082
Si Si6 0.364433 0.014950 0.106070
O O1 0.097403 0.491023 0.760154
O O2 0.000648 0.364133 0.937957
O O3 0.654895 0.662716 0.087258
O O4 0.564097 0.875834 0.043285
O O5 0.654491 0.782984 0.840928
O O6 0.750000 0.999863 0.759892
O O7 0.750000 0.812953 0.597604
O O8 0.250000 0.765617 0.820150
O O9 0.654462 0.114249 0.019900
O O10 0.250000 0.070975 0.103615
#
# Coordination Sequence:
#
# PCOD9363584 Si02
#       6
#     4   8   4   4   4   8
#     4  12  26  42  70 108 134 188 234 284 354 412
#     4  11  23  44  65 103 139 170 229 291 330 416
#     4  11  19  41  74  94 128 177 223 275 342 410
#     4  11  22  39  71 101 128 179 230 274 346 411
#     4  10  19  40  71  95 126 188 215 269 356 403
#     4  10  21  46  71  94 137 181 220 289 347 404
#
# _framework density 24.128209999999999
#
# number of rings (size 3 to 8) (size 9 to 14) (size 15 to 20)
#    0.750    0.500    7.500    0.000    1.750    4.000 
#    4.500    0.000    0.000    0.000    0.000    0.000 
#    0.000    0.000    0.000    0.000    0.000    0.000 
#
# Total GULP energy -89344.376546 kJ/mol
# GULP energy per Si atom -5584.023534 kJ/mol
# Density = 2.407329 g / cm^3
# Si number density = 24.128210 Si / 1000 Ang^3
#
#
#
# Elastic Constant Matrix: (Units=GPa)
#
#
# Indices 1 2 3 4 5 6 
#
# 1 56.3784 -14.0415 4.9365 0.0000 0.0000 0.0000
# 2 -14.0415 80.4382 15.4739 0.0000 0.0000 0.0000
# 3 4.9365 15.4739 125.3031 0.0000 0.0000 0.0000
# 4 0.0000 0.0000 0.0000 47.0142 0.0000 0.0000
# 5 0.0000 0.0000 0.0000 0.0000 21.1085 0.0000
# 6 0.0000 0.0000 0.0000 0.0000 0.0000 27.3646
#
#
#
# Elastic Compliance Matrix: (Units=1/GPa)
#
#
# Indices 1 2 3 4 5 6 
#
# 1 0.018709 0.003491 -0.001168 0.000000 0.000000 0.000000
# 2 0.003491 0.013386 -0.001791 0.000000 0.000000 0.000000
# 3 -0.001168 -0.001791 0.008248 0.000000 0.000000 0.000000
# 4 0.000000 0.000000 0.000000 0.021270 0.000000 0.000000
# 5 0.000000 0.000000 0.000000 0.000000 0.047374 0.000000
# 6 0.000000 0.000000 0.000000 0.000000 0.000000 0.036544
#
#
# Mechanical properties :
#
#
# Convention : Reuss Voigt Hill
#
# Bulk Modulus (GPa) = 24.15094 30.53973 27.34534
# Shear Modulus (GPa) = 31.59188 36.14752 33.86970
#
# Velocity S-wave (km/s) = 3.62240 3.87478 3.75071
# Velocity P-wave (km/s) = 5.24660 5.71869 5.48772
#
# Compressibility (1/GPa) = 0.04140626
#
# Stress axis : x y z
#
# Youngs Moduli (GPa) = 53.45037 74.70672 121.24467
#
# Poissons Ratio (x) = -0.26077 0.14163
# Poissons Ratio (y) = -0.18657 0.21709
# Poissons Ratio (z) = 0.06244 0.13377
#
# Static dielectric constant tensor:
#      x y z
#    x 1.988630 0.000000 0.000000 
#    y 0.000000 1.955090 0.000000 
#    z 0.000000 0.000000 1.880530 
# 
# From -- ./inp_files/5939.got.cif
#   From: 2010.05.17/outbox.cif.g08.bks.cpg/sg40_3_cif.got.tgz:5939.got - 2010.06.03 18:35:42.
