data_PCOD9363278
_publ_section_title
;
Structure prediction by ZEFSAII (Michael W. Deem and Ramdas Pophale) SiO2 
 PCOD9363278
Probable space group: A M A 2
;
_chemical_formula_sum "Si O2"
_cell_formula_units_Z 64
_cell_length_a 8.231706
_cell_length_b 29.015383
_cell_length_c 12.715029
_cell_angle_alpha 90.000000
_cell_angle_beta 90.000000
_cell_angle_gamma 90.000000
_cell_volume 3036.935118
_symmetry_space_group_name_H-M "A M A 2"
_symmetry_group_IT_number 40
_symmetry_cell_setting 'orthorhombic'
loop_
_space_group_symop_operation_xyz
x,y,z
-x,-y,z
1/2-x,y,z
1/2+x,-y,z
x,1/2+y,1/2+z
-x,1/2-y,1/2+z
1/2-x,1/2+y,1/2+z
1/2+x,1/2-y,1/2+z
loop_
_atom_site_type_symbol
_atom_site_label
_atom_site_fract_x
_atom_site_fract_y
_atom_site_fract_z
Si Si1 0.064070 0.451410 0.506020
Si Si2 0.559778 0.189853 0.416794
Si Si3 0.945088 0.448598 0.176521
Si Si4 0.554985 0.585614 0.950330
Si Si5 0.433779 0.566119 0.725750
Si Si6 0.941215 0.377729 0.352067
Si Si7 0.061511 0.835522 0.183420
Si Si8 0.051945 0.210282 0.970055
O O1 0.250000 0.444769 0.477416
O O2 0.000000 0.500000 0.464244
O O3 0.043831 0.452687 0.631787
O O4 0.965053 0.409582 0.455233
O O5 0.750000 0.188694 0.448190
O O6 0.494788 0.139255 0.448214
O O7 0.554399 0.193272 0.290493
O O8 0.489429 0.237557 0.458694
O O9 0.750000 0.447844 0.179083
O O10 0.007998 0.408646 0.255999
O O11 0.000000 0.500000 0.206797
O O12 0.003389 0.437707 0.058556
O O13 0.750000 0.586415 0.941278
O O14 0.489591 0.560326 0.845766
O O15 0.250000 0.550029 0.711517
O O16 0.449121 0.620713 0.704799
O O17 0.750000 0.372262 0.331788
O O18 0.004911 0.326911 0.381954
O O19 0.250000 0.851153 0.171322
O O20 0.005343 0.809001 0.081401
O O21 0.250000 0.210847 0.966215
#
# Coordination Sequence:
#
# PCOD9363278 Si02
#       8
#     8   8   8   8   8   8   8   8
#     4  12  24  38  59  87 120 152 193 242 299 360
#     4   8  18  35  56  84 119 159 201 247 306 362
#     4  11  24  42  63  89 121 164 214 261 316 377
#     4  10  21  40  63  88 122 161 205 256 309 364
#     4  11  21  37  60  86 116 152 194 241 301 365
#     4  10  22  39  60  87 121 160 206 252 304 365
#     4  10  19  34  55  82 116 154 196 248 302 358
#     4  10  19  35  59  85 118 162 205 250 305 367
#
# _framework density 21.073879000000002
#
# number of rings (size 3 to 8) (size 9 to 14) (size 15 to 20)
#    0.000    1.750    1.250    4.500    0.000    3.500 
#    0.000    7.500    0.000    0.000    0.000    0.000 
#    0.000    0.000    0.000    0.000    0.000    0.000 
#
# Total GULP energy -178640.150882 kJ/mol
# GULP energy per Si atom -5582.504715 kJ/mol
# Density = 2.102591 g / cm^3
# Si number density = 21.073879 Si / 1000 Ang^3
#
#
#
# Elastic Constant Matrix: (Units=GPa)
#
#
# Indices 1 2 3 4 5 6 
#
# 1 41.8323 -0.9042 1.2548 0.0000 0.0000 0.0000
# 2 -0.9042 68.6228 9.4355 0.0000 0.0000 0.0000
# 3 1.2548 9.4355 81.8151 0.0000 0.0000 0.0000
# 4 0.0000 0.0000 0.0000 23.8173 0.0000 0.0000
# 5 0.0000 0.0000 0.0000 0.0000 23.0562 0.0000
# 6 0.0000 0.0000 0.0000 0.0000 0.0000 14.7315
#
#
#
# Elastic Compliance Matrix: (Units=1/GPa)
#
#
# Indices 1 2 3 4 5 6 
#
# 1 0.023925 0.000372 -0.000410 0.000000 0.000000 0.000000
# 2 0.000372 0.014813 -0.001714 0.000000 0.000000 0.000000
# 3 -0.000410 -0.001714 0.012427 0.000000 0.000000 0.000000
# 4 0.000000 0.000000 0.000000 0.041986 0.000000 0.000000
# 5 0.000000 0.000000 0.000000 0.000000 0.043372 0.000000
# 6 0.000000 0.000000 0.000000 0.000000 0.000000 0.067882
#
#
# Mechanical properties :
#
#
# Convention : Reuss Voigt Hill
#
# Bulk Modulus (GPa) = 20.98177 23.53805 22.25991
# Shear Modulus (GPa) = 22.34171 24.48661 23.41416
#
# Velocity S-wave (km/s) = 3.25954 3.41242 3.33686
# Velocity P-wave (km/s) = 4.91366 5.16911 5.04301
#
# Compressibility (1/GPa) = 0.04766043
#
# Stress axis : x y z
#
# Youngs Moduli (GPa) = 41.79681 67.50833 80.47228
#
# Poissons Ratio (x) = -0.02508 0.03298
# Poissons Ratio (y) = -0.01553 0.13793
# Poissons Ratio (z) = 0.01713 0.11571
#
# Static dielectric constant tensor:
#      x y z
#    x 1.738480 0.000000 0.000000 
#    y 0.000000 1.792720 0.000000 
#    z 0.000000 0.000000 1.747490 
# 
# From -- ./inp_files/10652.got.cif
#   From: 2010.05.17/outbox.cif.g08.bks.cpg/sg40_6_cif.got.tgz:10652.got - 2010.06.03 18:35:42.
