data_PCOD9363361
_publ_section_title
;
Structure prediction by ZEFSAII (Michael W. Deem and Ramdas Pophale) SiO2 
 PCOD9363361
Probable space group: A M A 2
;
_chemical_formula_sum "Si O2"
_cell_formula_units_Z 60
_cell_length_a 9.273831
_cell_length_b 15.055824
_cell_length_c 24.489426
_cell_angle_alpha 90.000000
_cell_angle_beta 90.000000
_cell_angle_gamma 90.000000
_cell_volume 3419.340203
_symmetry_space_group_name_H-M "A M A 2"
_symmetry_group_IT_number 40
_symmetry_cell_setting 'orthorhombic'
loop_
_space_group_symop_operation_xyz
x,y,z
-x,-y,z
1/2-x,y,z
1/2+x,-y,z
x,1/2+y,1/2+z
-x,1/2-y,1/2+z
1/2-x,1/2+y,1/2+z
1/2+x,1/2-y,1/2+z
loop_
_atom_site_type_symbol
_atom_site_label
_atom_site_fract_x
_atom_site_fract_y
_atom_site_fract_z
Si Si1 0.578883 0.592511 0.764830
Si Si2 0.419633 0.771325 0.177494
Si Si3 0.575716 0.712625 0.866699
Si Si4 0.577170 0.595654 0.971539
Si Si5 0.914226 0.836156 0.573565
Si Si6 0.923178 0.912243 0.848873
Si Si7 0.590404 0.622289 0.239961
Si Si8 0.000000 0.000000 0.648100
O O1 0.500000 0.500000 0.772728
O O2 0.750000 0.579942 0.772794
O O3 0.558013 0.632462 0.704042
O O4 0.530085 0.664879 0.810297
O O5 0.250000 0.748211 0.188191
O O6 0.443712 0.746485 0.114267
O O7 0.524740 0.708569 0.211556
O O8 0.750000 0.715598 0.864838
O O9 0.535455 0.650724 0.917492
O O10 0.531698 0.815669 0.872359
O O11 0.500000 0.500000 0.972113
O O12 0.750000 0.584082 0.972674
O O13 0.523889 0.649953 0.024346
O O14 0.750000 0.829576 0.553311
O O15 0.926965 0.925239 0.610727
O O16 0.750000 0.921399 0.851041
O O17 0.978227 0.905666 0.786427
O O18 0.000000 0.000000 0.872643
O O19 0.750000 0.634793 0.263639
O O20 0.599046 0.552525 0.190543
#
# Coordination Sequence:
#
# PCOD9363361 Si02
#       8
#     8   8   8   8   8   8   8   4
#     4  10  19  35  56  80 109 146 184 225 271 323
#     4   9  19  35  53  73 107 145 177 216 274 324
#     4   9  20  38  57  76 108 148 182 221 276 324
#     4  11  22  37  57  81 108 144 184 226 272 323
#     4  10  20  34  53  78 108 144 179 217 266 325
#     4  11  21  36  55  78 110 144 180 222 271 329
#     4  11  20  29  47  76 108 141 176 212 258 318
#     4  10  20  30  48  74 116 142 174 210 266 312
#
# _framework density 17.547243999999999
#
# number of rings (size 3 to 8) (size 9 to 14) (size 15 to 20)
#    0.000    1.867    2.667    2.000    0.000    3.733 
#    0.000    3.333    0.000    0.800    0.000    5.600 
#    0.000    0.000    0.000    0.000    0.000    0.000 
#
# Total GULP energy -167157.974509 kJ/mol
# GULP energy per Si atom -5571.932484 kJ/mol
# Density = 1.750731 g / cm^3
# Si number density = 17.547244 Si / 1000 Ang^3
#
#
#
# Elastic Constant Matrix: (Units=GPa)
#
#
# Indices 1 2 3 4 5 6 
#
# 1 64.3610 36.4731 26.5606 0.0000 0.0000 0.0000
# 2 36.4731 104.8456 40.1632 0.0000 0.0000 0.0000
# 3 26.5606 40.1632 81.1387 0.0000 0.0000 0.0000
# 4 0.0000 0.0000 0.0000 24.3857 0.0000 0.0000
# 5 0.0000 0.0000 0.0000 0.0000 7.6044 0.0000
# 6 0.0000 0.0000 0.0000 0.0000 0.0000 18.3906
#
#
#
# Elastic Compliance Matrix: (Units=1/GPa)
#
#
# Indices 1 2 3 4 5 6 
#
# 1 0.020299 -0.005573 -0.003886 0.000000 0.000000 0.000000
# 2 -0.005573 0.013299 -0.004759 0.000000 0.000000 0.000000
# 3 -0.003886 -0.004759 0.015952 0.000000 0.000000 0.000000
# 4 0.000000 0.000000 0.000000 0.041008 0.000000 0.000000
# 5 0.000000 0.000000 0.000000 0.000000 0.131503 0.000000
# 6 0.000000 0.000000 0.000000 0.000000 0.000000 0.054376
#
#
# Mechanical properties :
#
#
# Convention : Reuss Voigt Hill
#
# Bulk Modulus (GPa) = 47.35998 50.74880 49.05439
# Shear Modulus (GPa) = 16.03017 19.88604 17.95810
#
# Velocity S-wave (km/s) = 3.02577 3.37008 3.20256
# Velocity P-wave (km/s) = 6.26543 6.64284 6.45689
#
# Compressibility (1/GPa) = 0.02111487
#
# Stress axis : x y z
#
# Youngs Moduli (GPa) = 49.26276 75.19087 62.68643
#
# Poissons Ratio (x) = 0.41903 0.24363
# Poissons Ratio (y) = 0.27453 0.29832
# Poissons Ratio (z) = 0.19146 0.35783
#
# Static dielectric constant tensor:
#      x y z
#    x 1.599870 0.000000 0.000000 
#    y 0.000000 1.622150 0.000000 
#    z 0.000000 0.000000 1.598240 
# 
# From -- ./inp_files/24174.got.cif
#   From: 2010.05.17/outbox.cif.g08.bks.cpg/sg40_13_cif.got.tgz:24174.got - 2010.06.03 18:35:42.
