data_PCOD9363875
_publ_section_title
;
Structure prediction by ZEFSAII (Michael W. Deem and Ramdas Pophale) SiO2 
 PCOD9363875
Probable space group: A M A 2
;
_chemical_formula_sum "Si O2"
_cell_formula_units_Z 40
_cell_length_a 7.876994
_cell_length_b 18.061916
_cell_length_c 13.209115
_cell_angle_alpha 90.000000
_cell_angle_beta 90.000000
_cell_angle_gamma 90.000000
_cell_volume 1879.308396
_symmetry_space_group_name_H-M "A M A 2"
_symmetry_group_IT_number 40
_symmetry_cell_setting 'orthorhombic'
loop_
_space_group_symop_operation_xyz
x,y,z
-x,-y,z
1/2-x,y,z
1/2+x,-y,z
x,1/2+y,1/2+z
-x,1/2-y,1/2+z
1/2-x,1/2+y,1/2+z
1/2+x,1/2-y,1/2+z
loop_
_atom_site_type_symbol
_atom_site_label
_atom_site_fract_x
_atom_site_fract_y
_atom_site_fract_z
Si Si1 0.453558 0.585675 0.233130
Si Si2 0.453179 0.085504 0.949030
Si Si3 0.041319 0.172928 0.144490
Si Si4 0.942697 0.674399 0.046534
Si Si5 0.949620 0.412400 0.845150
O O1 0.500000 0.500000 0.240807
O O2 0.250000 0.594685 0.220708
O O3 0.509483 0.619788 0.341450
O O4 0.548893 0.615806 0.136622
O O5 0.250000 0.091698 0.948124
O O6 0.500000 0.000000 0.950767
O O7 0.513719 0.121284 0.051776
O O8 0.250000 0.176549 0.150605
O O9 0.982310 0.253345 0.103831
O O10 0.980357 0.135320 0.249225
O O11 0.750000 0.693944 0.018063
O O12 0.017941 0.634678 0.947523
O O13 0.750000 0.415490 0.829500
O O14 0.000000 0.500000 0.851186
#
# Coordination Sequence:
#
# PCOD9363875 Si02
#       5
#     8   8   8   8   8
#     4  10  20  35  58  85 115 150 192 238 288 349
#     4   9  18  35  58  84 113 148 187 234 288 347
#     4   9  21  39  60  86 120 155 193 244 300 352
#     4  11  23  39  60  86 120 158 197 245 299 352
#     4  11  23  42  65  91 122 161 206 251 300 362
#
# _framework density 21.284426
#
# number of rings (size 3 to 8) (size 9 to 14) (size 15 to 20)
#    0.000    2.000    0.000    3.000    2.800    0.800 
#    0.000    6.000    0.000    0.000    0.000    0.000 
#    0.000    0.000    0.000    0.000    0.000    0.000 
#
# Total GULP energy -111420.732082 kJ/mol
# GULP energy per Si atom -5571.036604 kJ/mol
# Density = 2.123598 g / cm^3
# Si number density = 21.284426 Si / 1000 Ang^3
#
#
#
# Elastic Constant Matrix: (Units=GPa)
#
#
# Indices 1 2 3 4 5 6 
#
# 1 32.9300 2.7237 4.3119 0.0000 0.0000 0.0000
# 2 2.7237 117.7096 80.4816 0.0000 0.0000 0.0000
# 3 4.3119 80.4816 200.9856 0.0000 0.0000 0.0000
# 4 0.0000 0.0000 0.0000 339.4792 0.0000 0.0000
# 5 0.0000 0.0000 0.0000 0.0000 -9.4844 0.0000
# 6 0.0000 0.0000 0.0000 0.0000 0.0000 5.4582
#
#
#
# Elastic Compliance Matrix: (Units=1/GPa)
#
#
# Indices 1 2 3 4 5 6 
#
# 1 0.030464 -0.000355 -0.000511 0.000000 0.000000 0.000000
# 2 -0.000355 0.011703 -0.004678 0.000000 0.000000 0.000000
# 3 -0.000511 -0.004678 0.006860 0.000000 0.000000 0.000000
# 4 0.000000 0.000000 0.000000 0.002946 0.000000 0.000000
# 5 0.000000 0.000000 0.000000 0.000000 -0.105436 0.000000
# 6 0.000000 0.000000 0.000000 0.000000 0.000000 0.183210
#
#
# Mechanical properties :
#
#
# Convention : Reuss Voigt Hill
#
# Bulk Modulus (GPa) = 26.36017 58.51772 42.43894
# Shear Modulus (GPa) = 32.57726 84.69782 58.63754
#
# Velocity S-wave (km/s) = 3.91649 6.31504 5.25446
# Velocity P-wave (km/s) = 5.73267 8.98476 7.53622
#
# Compressibility (1/GPa) = 0.03793602
#
# Stress axis : x y z
#
# Youngs Moduli (GPa) = 32.82587 85.45171 145.77538
#
# Poissons Ratio (x) = 0.03036 0.07453
# Poissons Ratio (y) = 0.01166 0.68201
# Poissons Ratio (z) = 0.01678 0.39978
#
# Static dielectric constant tensor:
#      x y z
#    x 1.792860 0.000000 0.000000 
#    y 0.000000 -0.614140 0.000000 
#    z 0.000000 0.000000 1.802690 
# 
# From -- ./inp_files/9997.got.cif
#   From: 2010.05.17/outbox.cif.g08.bks.cpg/sg40_5_cif.got.tgz:9997.got - 2010.06.03 18:35:42.
