data_PCOD9363615
_publ_section_title
;
Structure prediction by ZEFSAII (Michael W. Deem and Ramdas Pophale) SiO2 
 PCOD9363615
Probable space group: A M A 2
;
_chemical_formula_sum "Si O2"
_cell_formula_units_Z 64
_cell_length_a 7.718494
_cell_length_b 28.523145
_cell_length_c 13.115879
_cell_angle_alpha 90.000000
_cell_angle_beta 90.000000
_cell_angle_gamma 90.000000
_cell_volume 2887.535831
_symmetry_space_group_name_H-M "A M A 2"
_symmetry_group_IT_number 40
_symmetry_cell_setting 'orthorhombic'
loop_
_space_group_symop_operation_xyz
x,y,z
-x,-y,z
1/2-x,y,z
1/2+x,-y,z
x,1/2+y,1/2+z
-x,1/2-y,1/2+z
1/2-x,1/2+y,1/2+z
1/2+x,1/2-y,1/2+z
loop_
_atom_site_type_symbol
_atom_site_label
_atom_site_fract_x
_atom_site_fract_y
_atom_site_fract_z
Si Si1 0.044357 0.288448 0.348670
Si Si2 0.953142 0.916934 0.331457
Si Si3 0.551008 0.935406 0.113198
Si Si4 0.548262 0.687375 0.780548
Si Si5 0.041439 0.622253 0.232523
Si Si6 0.959998 0.668590 0.560636
Si Si7 0.541751 0.951013 0.896114
Si Si8 0.459034 0.053873 0.552654
O O1 0.250000 0.286169 0.356047
O O2 0.977534 0.310620 0.454405
O O3 0.980712 0.235529 0.338518
O O4 0.002038 0.323810 0.255739
O O5 0.750000 0.929218 0.330548
O O6 0.028412 0.938622 0.226159
O O7 0.026187 0.934905 0.438491
O O8 0.962170 0.860228 0.321860
O O9 0.750000 0.952307 0.118677
O O10 0.548439 0.880436 0.086418
O O11 0.464114 0.953709 0.009881
O O12 0.750000 0.675360 0.781589
O O13 0.500665 0.697798 0.662601
O O14 0.250000 0.619549 0.230903
O O15 0.976997 0.592403 0.330228
O O16 0.979459 0.593484 0.133206
O O17 0.750000 0.662147 0.554668
O O18 0.750000 0.946394 0.904418
O O19 0.500000 0.000000 0.842607
O O20 0.250000 0.057733 0.550553
O O21 0.500000 0.000000 0.580356
#
# Coordination Sequence:
#
# PCOD9363615 Si02
#       8
#     8   8   8   8   8   8   8   8
#     4  11  22  36  57  84 112 146 189 236 287 343
#     4   9  19  37  58  81 112 148 189 235 284 333
#     4   9  17  32  54  77 103 137 176 221 272 326
#     4  10  21  37  57  83 113 149 189 233 286 343
#     4  10  21  38  56  78 110 148 190 234 283 337
#     4   9  19  35  54  76 105 139 176 222 275 328
#     4  10  20  32  50  77 106 137 174 219 271 324
#     4  10  22  39  60  84 116 158 198 242 293 346
#
# _framework density 22.164227
#
# number of rings (size 3 to 8) (size 9 to 14) (size 15 to 20)
#    0.000    2.250    1.250    1.125    0.000    4.500 
#    0.000    5.000    0.000    0.000    0.000    0.000 
#    0.000    0.000    0.000    0.000    0.000    0.000 
#
# Total GULP energy -178472.021161 kJ/mol
# GULP energy per Si atom -5577.250661 kJ/mol
# Density = 2.211378 g / cm^3
# Si number density = 22.164227 Si / 1000 Ang^3
#
#
#
# Elastic Constant Matrix: (Units=GPa)
#
#
# Indices 1 2 3 4 5 6 
#
# 1 36.1451 -10.8570 8.4875 0.0000 0.0000 0.0000
# 2 -10.8570 53.4294 8.9234 0.0000 0.0000 0.0000
# 3 8.4875 8.9234 106.6779 0.0000 0.0000 0.0000
# 4 0.0000 0.0000 0.0000 20.7146 0.0000 0.0000
# 5 0.0000 0.0000 0.0000 0.0000 4.0440 0.0000
# 6 0.0000 0.0000 0.0000 0.0000 0.0000 8.0809
#
#
#
# Elastic Compliance Matrix: (Units=1/GPa)
#
#
# Indices 1 2 3 4 5 6 
#
# 1 0.030367 0.006667 -0.002974 0.000000 0.000000 0.000000
# 2 0.006667 0.020445 -0.002241 0.000000 0.000000 0.000000
# 3 -0.002974 -0.002241 0.009798 0.000000 0.000000 0.000000
# 4 0.000000 0.000000 0.000000 0.048275 0.000000 0.000000
# 5 0.000000 0.000000 0.000000 0.000000 0.247282 0.000000
# 6 0.000000 0.000000 0.000000 0.000000 0.000000 0.123748
#
#
# Mechanical properties :
#
#
# Convention : Reuss Voigt Hill
#
# Bulk Modulus (GPa) = 15.74397 23.26225 19.50311
# Shear Modulus (GPa) = 10.03649 19.21447 14.62548
#
# Velocity S-wave (km/s) = 2.13027 2.94753 2.57158
# Velocity P-wave (km/s) = 3.62898 4.70129 4.19950
#
# Compressibility (1/GPa) = 0.06351640
#
# Stress axis : x y z
#
# Youngs Moduli (GPa) = 32.93024 48.91096 102.06129
#
# Poissons Ratio (x) = -0.32611 0.30351
# Poissons Ratio (y) = -0.21956 0.22869
# Poissons Ratio (z) = 0.09793 0.10959
#
# Static dielectric constant tensor:
#      x y z
#    x 1.807400 0.000000 0.000000 
#    y 0.000000 1.817920 0.000000 
#    z 0.000000 0.000000 1.880500 
# 
# From -- ./inp_files/10632.got.cif
#   From: 2010.05.17/outbox.cif.g08.bks.cpg/sg40_6_cif.got.tgz:10632.got - 2010.06.03 18:35:42.
