data_PCOD9363780
_publ_section_title
;
Structure prediction by ZEFSAII (Michael W. Deem and Ramdas Pophale) SiO2 
 PCOD9363780
Probable space group: A M A 2
;
_chemical_formula_sum "Si O2"
_cell_formula_units_Z 64
_cell_length_a 9.020240
_cell_length_b 17.402607
_cell_length_c 20.586930
_cell_angle_alpha 90.000000
_cell_angle_beta 90.000000
_cell_angle_gamma 90.000000
_cell_volume 3231.647578
_symmetry_space_group_name_H-M "A M A 2"
_symmetry_group_IT_number 40
_symmetry_cell_setting 'orthorhombic'
loop_
_space_group_symop_operation_xyz
x,y,z
-x,-y,z
1/2-x,y,z
1/2+x,-y,z
x,1/2+y,1/2+z
-x,1/2-y,1/2+z
1/2-x,1/2+y,1/2+z
1/2+x,1/2-y,1/2+z
loop_
_atom_site_type_symbol
_atom_site_label
_atom_site_fract_x
_atom_site_fract_y
_atom_site_fract_z
Si Si1 0.927083 0.128852 0.953980
Si Si2 0.918041 0.697911 0.090536
Si Si3 0.573030 0.921470 0.352444
Si Si4 0.420461 0.696661 0.220008
Si Si5 0.923354 0.617869 0.719478
Si Si6 0.424872 0.922592 0.810144
Si Si7 0.920768 0.385146 0.586123
Si Si8 0.427944 0.296751 0.944683
O O1 0.750000 0.134367 0.964093
O O2 0.956694 0.085434 0.886862
O O3 0.996504 0.213420 0.943557
O O4 0.003147 0.094024 0.018055
O O5 0.750000 0.675101 0.107416
O O6 0.919594 0.791292 0.086920
O O7 0.026620 0.674153 0.147793
O O8 0.953028 0.671182 0.017734
O O9 0.750000 0.922321 0.357958
O O10 0.522543 0.913486 0.277718
O O11 0.501559 0.851114 0.391714
O O12 0.500000 0.000000 0.377776
O O13 0.250000 0.676628 0.230405
O O14 0.434430 0.789025 0.223850
O O15 0.516028 0.652014 0.272821
O O16 0.750000 0.597060 0.727161
O O17 0.985912 0.592810 0.649566
O O18 0.250000 0.927541 0.801860
O O19 0.500000 0.000000 0.784699
O O20 0.750000 0.410934 0.589501
O O21 0.250000 0.289853 0.935203
#
# Coordination Sequence:
#
# PCOD9363780 Si02
#       8
#     8   8   8   8   8   8   8   8
#     4  10  20  35  57  85 112 143 183 229 278 329
#     4   8  16  31  53  81 112 141 175 220 268 318
#     4  12  25  40  57  79 111 149 187 230 277 329
#     4  10  20  34  57  85 112 142 179 223 271 323
#     4  10  20  36  59  86 114 145 183 227 272 326
#     4  11  24  39  55  76 108 146 185 228 273 323
#     4   9  17  31  54  84 114 144 179 225 275 324
#     4  10  20  36  59  86 113 144 182 226 274 328
#
# _framework density 19.80414
#
# number of rings (size 3 to 8) (size 9 to 14) (size 15 to 20)
#    0.000    2.000    0.000    4.875    0.000    9.000 
#    0.000    1.250    0.000    4.500    0.000    0.000 
#    0.000    0.000    0.000    0.000    0.000    0.000 
#
# Total GULP energy -178799.533034 kJ/mol
# GULP energy per Si atom -5587.485407 kJ/mol
# Density = 1.975906 g / cm^3
# Si number density = 19.804140 Si / 1000 Ang^3
#
#
#
# Elastic Constant Matrix: (Units=GPa)
#
#
# Indices 1 2 3 4 5 6 
#
# 1 70.0150 27.2305 47.8338 0.0000 0.0000 0.0000
# 2 27.2305 50.0992 20.3917 0.0000 0.0000 0.0000
# 3 47.8338 20.3917 80.3870 0.0000 0.0000 0.0000
# 4 0.0000 0.0000 0.0000 -22.2366 0.0000 0.0000
# 5 0.0000 0.0000 0.0000 0.0000 26.1098 0.0000
# 6 0.0000 0.0000 0.0000 0.0000 0.0000 -9.8898
#
#
#
# Elastic Compliance Matrix: (Units=1/GPa)
#
#
# Indices 1 2 3 4 5 6 
#
# 1 0.027413 -0.009212 -0.013975 0.000000 0.000000 0.000000
# 2 -0.009212 0.025354 -0.000950 0.000000 0.000000 0.000000
# 3 -0.013975 -0.000950 0.020997 0.000000 0.000000 0.000000
# 4 0.000000 0.000000 0.000000 -0.044971 0.000000 0.000000
# 5 0.000000 0.000000 0.000000 0.000000 0.038300 0.000000
# 6 0.000000 0.000000 0.000000 0.000000 0.000000 -0.101114
#
#
# Mechanical properties :
#
#
# Convention : Reuss Voigt Hill
#
# Bulk Modulus (GPa) = 39.23166 43.49036 41.36101
# Shear Modulus (GPa) = 219.78789 5.79969 112.79379
#
# Velocity S-wave (km/s) = 10.54617 1.71315 7.55502
# Velocity P-wave (km/s) = 12.96721 5.09128 9.85062
#
# Compressibility (1/GPa) = 0.02548961
#
# Stress axis : x y z
#
# Youngs Moduli (GPa) = 36.47891 39.44166 47.62627
#
# Poissons Ratio (x) = 0.36332 0.66559
# Poissons Ratio (y) = 0.33603 0.04526
# Poissons Ratio (z) = 0.50980 0.03748
#
# Static dielectric constant tensor:
#      x y z
#    x 1.659150 0.000000 0.000000 
#    y 0.000000 1.701040 0.000000 
#    z 0.000000 0.000000 1.695120 
# 
# From -- ./inp_files/22421.got.cif
#   From: 2010.05.17/outbox.cif.g08.bks.cpg/sg40_12_cif.got.tgz:22421.got - 2010.06.03 18:35:42.
