data_PCOD9363561
_publ_section_title
;
Structure prediction by ZEFSAII (Michael W. Deem and Ramdas Pophale) SiO2 
 PCOD9363561
Probable space group: A M A 2
;
_chemical_formula_sum "Si O2"
_cell_formula_units_Z 64
_cell_length_a 18.329682
_cell_length_b 11.950224
_cell_length_c 16.435779
_cell_angle_alpha 90.000000
_cell_angle_beta 90.000000
_cell_angle_gamma 90.000000
_cell_volume 3600.155583
_symmetry_space_group_name_H-M "A M A 2"
_symmetry_group_IT_number 40
_symmetry_cell_setting 'orthorhombic'
loop_
_space_group_symop_operation_xyz
x,y,z
-x,-y,z
1/2-x,y,z
1/2+x,-y,z
x,1/2+y,1/2+z
-x,1/2-y,1/2+z
1/2-x,1/2+y,1/2+z
1/2+x,1/2-y,1/2+z
loop_
_atom_site_type_symbol
_atom_site_label
_atom_site_fract_x
_atom_site_fract_y
_atom_site_fract_z
Si Si1 0.335936 0.464011 0.887200
Si Si2 0.664282 0.796373 0.935674
Si Si3 0.916031 0.959029 0.543377
Si Si4 0.948268 0.266221 0.157609
Si Si5 0.913830 0.026151 0.215871
Si Si6 0.613483 0.807700 0.121954
Si Si7 0.834213 0.587520 0.186738
Si Si8 0.426505 0.561135 0.306478
O O1 0.250000 0.489788 0.888509
O O2 0.344656 0.332291 0.907835
O O3 0.371416 0.484164 0.800058
O O4 0.378875 0.531796 0.956274
O O5 0.750000 0.824799 0.928753
O O6 0.616254 0.875324 0.877597
O O7 0.639649 0.802741 0.029280
O O8 0.914295 0.836920 0.584002
O O9 0.872356 0.038898 0.605531
O O10 0.000000 0.000000 0.540466
O O11 0.908414 0.151777 0.181476
O O12 0.947574 0.349274 0.235566
O O13 0.030078 0.233781 0.131886
O O14 0.883785 0.933511 0.154393
O O15 0.000000 0.000000 0.228797
O O16 0.658110 0.720750 0.177782
O O17 0.750000 0.554681 0.188620
O O18 0.876303 0.531426 0.261817
O O19 0.500000 0.500000 0.335089
#
# Coordination Sequence:
#
# PCOD9363561 Si02
#       8
#     8   8   8   8   8   8   8   8
#     4  11  22  38  58  90 122 160 204 247 306 363
#     4  11  23  39  61  89 126 165 204 248 302 370
#     4  11  19  35  62  88 120 151 203 257 299 352
#     4  10  19  39  60  91 118 154 208 257 305 350
#     4  10  23  39  63  86 120 162 204 247 307 367
#     4  11  21  39  61  88 123 162 203 246 304 369
#     4  11  20  34  59  90 119 154 198 246 302 364
#     4  11  21  38  64  89 121 155 204 262 304 352
#
# _framework density 17.777007999999999
#
# number of rings (size 3 to 8) (size 9 to 14) (size 15 to 20)
#    0.000    1.250    5.000    2.250    0.000    2.500 
#    0.000    1.875    0.000    1.500    0.000    0.000 
#    0.000    0.000    0.000    0.000    0.000    0.000 
#
# Total GULP energy -178730.074875 kJ/mol
# GULP energy per Si atom -5585.314840 kJ/mol
# Density = 1.773655 g / cm^3
# Si number density = 17.777008 Si / 1000 Ang^3
#
#
#
# Elastic Constant Matrix: (Units=GPa)
#
#
# Indices 1 2 3 4 5 6 
#
# 1 99.7229 33.6005 46.2691 0.0000 0.0000 0.0000
# 2 33.6005 99.3696 43.9021 0.0000 0.0000 0.0000
# 3 46.2691 43.9021 95.2568 0.0000 0.0000 0.0000
# 4 0.0000 0.0000 0.0000 30.7879 0.0000 0.0000
# 5 0.0000 0.0000 0.0000 0.0000 -20.5598 0.0000
# 6 0.0000 0.0000 0.0000 0.0000 0.0000 20.8219
#
#
#
# Elastic Compliance Matrix: (Units=1/GPa)
#
#
# Indices 1 2 3 4 5 6 
#
# 1 0.013272 -0.002059 -0.005498 0.000000 0.000000 0.000000
# 2 -0.002059 0.012956 -0.004971 0.000000 0.000000 0.000000
# 3 -0.005498 -0.004971 0.015460 0.000000 0.000000 0.000000
# 4 0.000000 0.000000 0.000000 0.032480 0.000000 0.000000
# 5 0.000000 0.000000 0.000000 0.000000 -0.048639 0.000000
# 6 0.000000 0.000000 0.000000 0.000000 0.000000 0.048026
#
#
# Mechanical properties :
#
#
# Convention : Reuss Voigt Hill
#
# Bulk Modulus (GPa) = 60.12474 60.21030 60.16752
# Shear Modulus (GPa) = 48.00510 17.58183 32.79347
#
# Velocity S-wave (km/s) = 5.20218 3.14828 4.29967
# Velocity P-wave (km/s) = 8.36532 6.86723 7.65302
#
# Compressibility (1/GPa) = 0.01663209
#
# Stress axis : x y z
#
# Youngs Moduli (GPa) = 75.34426 77.18512 64.68508
#
# Poissons Ratio (x) = 0.15891 0.35563
# Poissons Ratio (y) = 0.15512 0.32155
# Poissons Ratio (z) = 0.41424 0.38369
#
# Static dielectric constant tensor:
#      x y z
#    x 1.602090 0.000000 0.000000 
#    y 0.000000 1.620910 0.000000 
#    z 0.000000 0.000000 1.569890 
# 
# From -- ./inp_files/17818.got.cif
#   From: 2010.05.17/outbox.cif.g08.bks.cpg/sg40_9_cif.got.tgz:17818.got - 2010.06.03 18:35:42.
