data_PCOD9363061
_publ_section_title
;
Structure prediction by ZEFSAII (Michael W. Deem and Ramdas Pophale) SiO2 
 PCOD9363061
Probable space group: A M A 2
;
_chemical_formula_sum "Si O2"
_cell_formula_units_Z 56
_cell_length_a 8.468995
_cell_length_b 24.540358
_cell_length_c 14.214367
_cell_angle_alpha 90.000000
_cell_angle_beta 90.000000
_cell_angle_gamma 90.000000
_cell_volume 2954.202727
_symmetry_space_group_name_H-M "A M A 2"
_symmetry_group_IT_number 40
_symmetry_cell_setting 'orthorhombic'
loop_
_space_group_symop_operation_xyz
x,y,z
-x,-y,z
1/2-x,y,z
1/2+x,-y,z
x,1/2+y,1/2+z
-x,1/2-y,1/2+z
1/2-x,1/2+y,1/2+z
1/2+x,1/2-y,1/2+z
loop_
_atom_site_type_symbol
_atom_site_label
_atom_site_fract_x
_atom_site_fract_y
_atom_site_fract_z
Si Si1 0.058138 0.378399 0.072850
Si Si2 0.439000 0.939828 0.969643
Si Si3 0.940756 0.834398 0.071209
Si Si4 0.559071 0.560508 0.254750
Si Si5 0.559113 0.728446 0.962922
Si Si6 0.060994 0.666986 0.784720
Si Si7 0.060877 0.439917 0.885880
O O1 0.250000 0.377393 0.075482
O O2 0.003006 0.397571 0.175048
O O3 0.007349 0.319384 0.035141
O O4 0.012832 0.421625 0.991756
O O5 0.250000 0.940413 0.971314
O O6 0.492075 0.927838 0.861776
O O7 0.500000 0.000000 0.994395
O O8 0.501143 0.892848 0.036940
O O9 0.750000 0.834391 0.070401
O O10 0.991924 0.822646 0.178070
O O11 0.995368 0.786699 0.000897
O O12 0.500000 0.500000 0.230539
O O13 0.750000 0.560188 0.254067
O O14 0.750000 0.728062 0.961555
O O15 0.501423 0.710361 0.860477
O O16 0.250000 0.667973 0.787240
O O17 0.003573 0.607476 0.818471
O O18 0.250000 0.439149 0.881470
O O19 0.000000 0.500000 0.863907
#
# Coordination Sequence:
#
# PCOD9363061 Si02
#       7
#     8   8   8   8   8   8   8
#     4   8  15  29  50  75 105 139 174 211 259 314
#     4  10  21  36  56  80 108 140 178 223 267 314
#     4  10  22  39  59  80 106 141 177 215 266 319
#     4   9  17  30  49  75 105 138 174 214 259 309
#     4   9  19  37  57  78 107 141 174 215 264 315
#     4  10  21  37  56  80 108 139 177 221 265 316
#     4  10  19  32  52  78 109 146 183 223 269 317
#
# _framework density 18.956046000000001
#
# number of rings (size 3 to 8) (size 9 to 14) (size 15 to 20)
#    0.000    2.571    0.000    2.571    0.000    4.000 
#    0.000    5.714    0.000    1.714    0.000    0.000 
#    0.000    0.000    0.000    0.000    0.000    0.000 
#
# Total GULP energy -156222.310701 kJ/mol
# GULP energy per Si atom -5579.368239 kJ/mol
# Density = 1.891290 g / cm^3
# Si number density = 18.956046 Si / 1000 Ang^3
#
#
#
# Elastic Constant Matrix: (Units=GPa)
#
#
# Indices 1 2 3 4 5 6 
#
# 1 19.8650 22.8725 25.4154 0.0000 0.0000 0.0000
# 2 22.8725 123.4038 88.6455 0.0000 0.0000 0.0000
# 3 25.4154 88.6455 126.8878 0.0000 0.0000 0.0000
# 4 0.0000 0.0000 0.0000 19.2531 0.0000 0.0000
# 5 0.0000 0.0000 0.0000 0.0000 22.1290 0.0000
# 6 0.0000 0.0000 0.0000 0.0000 0.0000 21.4186
#
#
#
# Elastic Compliance Matrix: (Units=1/GPa)
#
#
# Indices 1 2 3 4 5 6 
#
# 1 0.069694 -0.005801 -0.009907 0.000000 0.000000 0.000000
# 2 -0.005801 0.016750 -0.010540 0.000000 0.000000 0.000000
# 3 -0.009907 -0.010540 0.017228 0.000000 0.000000 0.000000
# 4 0.000000 0.000000 0.000000 0.051940 0.000000 0.000000
# 5 0.000000 0.000000 0.000000 0.000000 0.045190 0.000000
# 6 0.000000 0.000000 0.000000 0.000000 0.000000 0.046688
#
#
# Mechanical properties :
#
#
# Convention : Reuss Voigt Hill
#
# Bulk Modulus (GPa) = 19.54006 60.44703 39.99354
# Shear Modulus (GPa) = 15.77069 21.44168 18.60619
#
# Velocity S-wave (km/s) = 2.88750 3.36687 3.13636
# Velocity P-wave (km/s) = 4.63113 6.86088 5.85316
#
# Compressibility (1/GPa) = 0.05117693
#
# Stress axis : x y z
#
# Youngs Moduli (GPa) = 14.34846 59.70260 58.04365
#
# Poissons Ratio (x) = 0.34634 0.57503
# Poissons Ratio (y) = 0.08324 0.61176
# Poissons Ratio (z) = 0.14215 0.62924
#
# Static dielectric constant tensor:
#      x y z
#    x 1.645280 0.000000 0.000000 
#    y 0.000000 1.632640 0.000000 
#    z 0.000000 0.000000 1.668330 
# 
# From -- ./inp_files/15309.got.cif
#   From: 2010.05.17/outbox.cif.g08.bks.cpg/sg40_8_cif.got.tgz:15309.got - 2010.06.03 18:35:42.
