data_PCOD9363631
_publ_section_title
;
Structure prediction by ZEFSAII (Michael W. Deem and Ramdas Pophale) SiO2 
 PCOD9363631
Probable space group: A M A 2
;
_chemical_formula_sum "Si O2"
_cell_formula_units_Z 36
_cell_length_a 9.189035
_cell_length_b 18.689852
_cell_length_c 11.372639
_cell_angle_alpha 90.000000
_cell_angle_beta 90.000000
_cell_angle_gamma 90.000000
_cell_volume 1953.156403
_symmetry_space_group_name_H-M "A M A 2"
_symmetry_group_IT_number 40
_symmetry_cell_setting 'orthorhombic'
loop_
_space_group_symop_operation_xyz
x,y,z
-x,-y,z
1/2-x,y,z
1/2+x,-y,z
x,1/2+y,1/2+z
-x,1/2-y,1/2+z
1/2-x,1/2+y,1/2+z
1/2+x,1/2-y,1/2+z
loop_
_atom_site_type_symbol
_atom_site_label
_atom_site_fract_x
_atom_site_fract_y
_atom_site_fract_z
Si Si1 0.750000 0.234524 0.104491
Si Si2 0.250000 0.907672 0.687277
Si Si3 0.250000 0.102286 0.838874
Si Si4 0.250000 0.271829 0.877684
Si Si5 0.750000 0.090899 0.971095
Si Si6 0.996388 0.159066 0.537966
Si Si7 0.750000 0.435748 0.072095
Si Si8 0.000000 0.000000 0.944209
O O1 0.750000 0.211912 0.239728
O O2 0.605742 0.279518 0.077942
O O3 0.750000 0.170176 0.013725
O O4 0.250000 0.915412 0.827984
O O5 0.107525 0.866091 0.644049
O O6 0.250000 0.982199 0.613989
O O7 0.250000 0.183955 0.887619
O O8 0.250000 0.104809 0.698351
O O9 0.392736 0.055292 0.874932
O O10 0.110102 0.308436 0.939380
O O11 0.891499 0.049717 0.015149
O O12 0.104025 0.092314 0.508133
#
# Coordination Sequence:
#
# PCOD9363631 Si02
#       8
#     4   4   4   4   4   8   4   4
#     4  11  24  39  63  84 132 165 199 249 298 378
#     4  11  21  35  65  95 122 144 203 264 315 353
#     4  11  19  33  58  88 124 150 189 255 309 345
#     4  11  23  41  58  84 134 166 203 241 304 379
#     4  11  22  35  61  93 114 155 195 256 310 357
#     4  10  23  37  57  94 120 165 198 244 312 358
#     4  11  19  35  61  92 118 148 201 261 308 338
#     4  10  20  32  58  92 116 148 190 262 306 342
#
# _framework density 18.431702999999999
#
# number of rings (size 3 to 8) (size 9 to 14) (size 15 to 20)
#    0.000    1.333    4.444    3.333    3.111    0.000 
#    0.000    0.000    9.778    0.000    0.000    0.000 
#    0.000    0.000    0.000    0.000    0.000    0.000 
#
# Total GULP energy -100329.540139 kJ/mol
# GULP energy per Si atom -5573.863341 kJ/mol
# Density = 1.838975 g / cm^3
# Si number density = 18.431703 Si / 1000 Ang^3
#
#
#
# Elastic Constant Matrix: (Units=GPa)
#
#
# Indices 1 2 3 4 5 6 
#
# 1 154.6684 60.3846 32.8855 0.0000 0.0000 0.0000
# 2 60.3846 135.4342 33.6603 0.0000 0.0000 0.0000
# 3 32.8855 33.6603 53.2797 0.0000 0.0000 0.0000
# 4 0.0000 0.0000 0.0000 20.2343 0.0000 0.0000
# 5 0.0000 0.0000 0.0000 0.0000 -1.5677 0.0000
# 6 0.0000 0.0000 0.0000 0.0000 0.0000 34.3644
#
#
#
# Elastic Compliance Matrix: (Units=1/GPa)
#
#
# Indices 1 2 3 4 5 6 
#
# 1 0.008290 -0.002876 -0.003300 0.000000 0.000000 0.000000
# 2 -0.002876 0.009757 -0.004389 0.000000 0.000000 0.000000
# 3 -0.003300 -0.004389 0.023578 0.000000 0.000000 0.000000
# 4 0.000000 0.000000 0.000000 0.049421 0.000000 0.000000
# 5 0.000000 0.000000 0.000000 0.000000 -0.637881 0.000000
# 6 0.000000 0.000000 0.000000 0.000000 0.000000 0.029100
#
#
# Mechanical properties :
#
#
# Convention : Reuss Voigt Hill
#
# Bulk Modulus (GPa) = 48.79069 66.36034 57.57551
# Shear Modulus (GPa) = -10.20879 25.03633 7.41377
#
# Velocity S-wave (km/s) = -2.35600 3.68955 2.00774
# Velocity P-wave (km/s) = 4.37351 7.36423 6.05638
#
# Compressibility (1/GPa) = 0.02049572
#
# Stress axis : x y z
#
# Youngs Moduli (GPa) = 120.62931 102.49326 42.41192
#
# Poissons Ratio (x) = 0.29477 0.13995
# Poissons Ratio (y) = 0.34693 0.18614
# Poissons Ratio (z) = 0.39804 0.44983
#
# Static dielectric constant tensor:
#      x y z
#    x 1.683270 0.000000 0.000000 
#    y 0.000000 1.697580 0.000000 
#    z 0.000000 0.000000 1.596630 
# 
# From -- ./inp_files/4174.got.cif
#   From: 2010.05.17/outbox.cif.g08.bks.cpg/sg40_3_cif.got.tgz:4174.got - 2010.06.03 18:35:42.
