data_PCOD9363680
_publ_section_title
;
Structure prediction by ZEFSAII (Michael W. Deem and Ramdas Pophale) SiO2 
 PCOD9363680
Probable space group: A M A 2
;
_chemical_formula_sum "Si O2"
_cell_formula_units_Z 56
_cell_length_a 9.052245
_cell_length_b 19.575106
_cell_length_c 17.829819
_cell_angle_alpha 90.000000
_cell_angle_beta 90.000000
_cell_angle_gamma 90.000000
_cell_volume 3159.419953
_symmetry_space_group_name_H-M "A M A 2"
_symmetry_group_IT_number 40
_symmetry_cell_setting 'orthorhombic'
loop_
_space_group_symop_operation_xyz
x,y,z
-x,-y,z
1/2-x,y,z
1/2+x,-y,z
x,1/2+y,1/2+z
-x,1/2-y,1/2+z
1/2-x,1/2+y,1/2+z
1/2+x,1/2-y,1/2+z
loop_
_atom_site_type_symbol
_atom_site_label
_atom_site_fract_x
_atom_site_fract_y
_atom_site_fract_z
Si Si1 0.079989 0.786725 0.516480
Si Si2 0.427765 0.299280 0.773622
Si Si3 0.919950 0.067441 0.540573
Si Si4 0.580244 0.345138 0.620311
Si Si5 0.574191 0.705405 0.386056
Si Si6 0.580226 0.566773 0.859623
Si Si7 0.071647 0.926271 0.986530
O O1 0.250000 0.799961 0.489023
O O2 0.024181 0.856026 0.555785
O O3 0.087831 0.725267 0.574219
O O4 0.980697 0.759102 0.449181
O O5 0.250000 0.293341 0.771447
O O6 0.491682 0.324751 0.694629
O O7 0.495828 0.230421 0.809651
O O8 0.473681 0.361553 0.828539
O O9 0.750000 0.063515 0.563799
O O10 0.928796 0.065713 0.449695
O O11 0.000000 0.000000 0.569498
O O12 0.750000 0.367392 0.635708
O O13 0.497162 0.397772 0.564706
O O14 0.750000 0.708803 0.376845
O O15 0.537507 0.630977 0.422159
O O16 0.500000 0.500000 0.829662
O O17 0.750000 0.561185 0.838003
O O18 0.250000 0.930946 0.992445
O O19 0.000000 0.000000 0.970273
#
# Coordination Sequence:
#
# PCOD9363680 Si02
#       7
#     8   8   8   8   8   8   8
#     4   9  17  33  52  71 100 134 169 210 261 314
#     4  11  21  35  52  74 108 145 180 219 266 322
#     4   9  16  28  45  69  96 125 160 197 241 291
#     4  10  21  35  54  78 105 140 178 220 271 325
#     4  10  20  33  54  81 105 133 178 227 268 316
#     4   9  18  30  45  67  97 131 163 198 240 291
#     4  10  21  38  59  84 111 142 182 229 279 335
#
# _framework density 17.724772000000002
#
# number of rings (size 3 to 8) (size 9 to 14) (size 15 to 20)
#    0.000    2.286    1.429    1.714    0.000    4.571 
#    0.000    1.429    0.000    0.857    0.000    2.000 
#    0.000    0.000    0.000    0.000    0.000    0.000 
#
# Total GULP energy -155930.642450 kJ/mol
# GULP energy per Si atom -5568.951516 kJ/mol
# Density = 1.768443 g / cm^3
# Si number density = 17.724772 Si / 1000 Ang^3
#
#
#
# Elastic Constant Matrix: (Units=GPa)
#
#
# Indices 1 2 3 4 5 6 
#
# 1 64.3648 43.4999 28.1453 0.0000 0.0000 0.0000
# 2 43.4999 119.2991 23.0096 0.0000 0.0000 0.0000
# 3 28.1453 23.0096 41.2220 0.0000 0.0000 0.0000
# 4 0.0000 0.0000 0.0000 10.0896 0.0000 0.0000
# 5 0.0000 0.0000 0.0000 0.0000 18.9349 0.0000
# 6 0.0000 0.0000 0.0000 0.0000 0.0000 28.1744
#
#
#
# Elastic Compliance Matrix: (Units=1/GPa)
#
#
# Indices 1 2 3 4 5 6 
#
# 1 0.026390 -0.006889 -0.014173 0.000000 0.000000 0.000000
# 2 -0.006889 0.011192 -0.001544 0.000000 0.000000 0.000000
# 3 -0.014173 -0.001544 0.034797 0.000000 0.000000 0.000000
# 4 0.000000 0.000000 0.000000 0.099112 0.000000 0.000000
# 5 0.000000 0.000000 0.000000 0.000000 0.052813 0.000000
# 6 0.000000 0.000000 0.000000 0.000000 0.000000 0.035493
#
#
# Mechanical properties :
#
#
# Convention : Reuss Voigt Hill
#
# Bulk Modulus (GPa) = 36.80779 46.02174 41.41476
# Shear Modulus (GPa) = 15.92036 20.12186 18.02111
#
# Velocity S-wave (km/s) = 3.00025 3.37299 3.19206
# Velocity P-wave (km/s) = 5.72829 6.41797 6.08292
#
# Compressibility (1/GPa) = 0.02716816
#
# Stress axis : x y z
#
# Youngs Moduli (GPa) = 37.89369 89.35034 28.73785
#
# Poissons Ratio (x) = 0.61552 0.40730
# Poissons Ratio (y) = 0.26104 0.04436
# Poissons Ratio (z) = 0.53706 0.13793
#
# Static dielectric constant tensor:
#      x y z
#    x 1.617070 0.000000 0.000000 
#    y 0.000000 1.646610 0.000000 
#    z 0.000000 0.000000 1.609060 
# 
# From -- ./inp_files/19473.got.cif
#   From: 2010.05.17/outbox.cif.g08.bks.cpg/sg40_10_cif.got.tgz:19473.got - 2010.06.03 18:35:42.
