data_PCOD9363352
_publ_section_title
;
Structure prediction by ZEFSAII (Michael W. Deem and Ramdas Pophale) SiO2 
 PCOD9363352
Probable space group: A M A 2
;
_chemical_formula_sum "Si O2"
_cell_formula_units_Z 64
_cell_length_a 8.233898
_cell_length_b 29.711606
_cell_length_c 13.394637
_cell_angle_alpha 90.000000
_cell_angle_beta 90.000000
_cell_angle_gamma 90.000000
_cell_volume 3276.895248
_symmetry_space_group_name_H-M "A M A 2"
_symmetry_group_IT_number 40
_symmetry_cell_setting 'orthorhombic'
loop_
_space_group_symop_operation_xyz
x,y,z
-x,-y,z
1/2-x,y,z
1/2+x,-y,z
x,1/2+y,1/2+z
-x,1/2-y,1/2+z
1/2-x,1/2+y,1/2+z
1/2+x,1/2-y,1/2+z
loop_
_atom_site_type_symbol
_atom_site_label
_atom_site_fract_x
_atom_site_fract_y
_atom_site_fract_z
Si Si1 0.936048 0.799163 0.051120
Si Si2 0.563259 0.217688 0.404732
Si Si3 0.944840 0.551594 0.579019
Si Si4 0.446213 0.948255 0.302823
Si Si5 0.945521 0.879032 0.914508
Si Si6 0.059362 0.259747 0.212619
Si Si7 0.942269 0.361309 0.192259
Si Si8 0.445633 0.379979 0.974063
O O1 0.750000 0.814628 0.070364
O O2 0.012753 0.783961 0.154732
O O3 0.930241 0.750775 0.998367
O O4 0.009018 0.835775 0.976923
O O5 0.750000 0.213137 0.368557
O O6 0.460636 0.245203 0.325830
O O7 0.498916 0.168972 0.434783
O O8 0.750000 0.554258 0.575073
O O9 0.997694 0.567549 0.690873
O O10 0.000000 0.500000 0.571696
O O11 0.014637 0.579455 0.486347
O O12 0.250000 0.947262 0.303140
O O13 0.503868 0.917662 0.395392
O O14 0.500000 0.000000 0.314215
O O15 0.750000 0.874404 0.905957
O O16 0.006411 0.879312 0.799929
O O17 0.250000 0.264729 0.189092
O O18 0.977624 0.307674 0.192144
O O19 0.750000 0.368022 0.190260
O O20 0.009002 0.383356 0.090697
O O21 0.250000 0.379729 0.970399
#
# Coordination Sequence:
#
# PCOD9363352 Si02
#       8
#     8   8   8   8   8   8   8   8
#     4   9  18  34  52  73 108 152 188 224 279 328
#     4  10  19  35  54  75 111 153 188 232 282 328
#     4  10  21  39  63  90 115 143 181 227 282 342
#     4   9  20  39  62  88 116 146 179 227 287 340
#     4  10  21  38  57  80 113 152 190 233 283 333
#     4  11  21  34  52  77 110 151 195 236 281 334
#     4  11  22  37  57  81 113 154 196 235 282 334
#     4  10  21  38  59  82 115 153 190 235 286 334
#
# _framework density 19.530681999999999
#
# number of rings (size 3 to 8) (size 9 to 14) (size 15 to 20)
#    0.000    2.000    2.500    1.125    1.750    2.500 
#    0.000    1.250    0.000    1.500    0.000    0.000 
#    0.000    0.000    0.000    0.000    0.000    0.000 
#
# Total GULP energy -178306.021945 kJ/mol
# GULP energy per Si atom -5572.063186 kJ/mol
# Density = 1.948623 g / cm^3
# Si number density = 19.530682 Si / 1000 Ang^3
#
#
#
# Elastic Constant Matrix: (Units=GPa)
#
#
# Indices 1 2 3 4 5 6 
#
# 1 6.0659 -4.8452 -0.3782 0.0000 0.0000 0.0000
# 2 -4.8452 63.7467 34.8673 0.0000 0.0000 0.0000
# 3 -0.3782 34.8673 99.3106 0.0000 0.0000 0.0000
# 4 0.0000 0.0000 0.0000 35.0778 0.0000 0.0000
# 5 0.0000 0.0000 0.0000 0.0000 25.1609 0.0000
# 6 0.0000 0.0000 0.0000 0.0000 0.0000 21.8304
#
#
#
# Elastic Compliance Matrix: (Units=1/GPa)
#
#
# Indices 1 2 3 4 5 6 
#
# 1 0.177516 0.016242 -0.005026 0.000000 0.000000 0.000000
# 2 0.016242 0.020902 -0.007277 0.000000 0.000000 0.000000
# 3 -0.005026 -0.007277 0.012605 0.000000 0.000000 0.000000
# 4 0.000000 0.000000 0.000000 0.028508 0.000000 0.000000
# 5 0.000000 0.000000 0.000000 0.000000 0.039744 0.000000
# 6 0.000000 0.000000 0.000000 0.000000 0.000000 0.045808
#
#
# Mechanical properties :
#
#
# Convention : Reuss Voigt Hill
#
# Bulk Modulus (GPa) = 4.56830 25.37901 14.97365
# Shear Modulus (GPa) = 12.81488 25.71243 19.26365
#
# Velocity S-wave (km/s) = 2.56430 3.63232 3.14399
# Velocity P-wave (km/s) = 3.33341 5.53302 4.56760
#
# Compressibility (1/GPa) = 0.21889991
#
# Stress axis : x y z
#
# Youngs Moduli (GPa) = 5.63330 47.84328 79.33344
#
# Poissons Ratio (x) = -0.77705 0.39875
# Poissons Ratio (y) = -0.09149 0.57727
# Poissons Ratio (z) = 0.02831 0.34813
#
# Static dielectric constant tensor:
#      x y z
#    x 1.696420 0.000000 0.000000 
#    y 0.000000 1.667490 0.000000 
#    z 0.000000 0.000000 1.743200 
# 
# From -- ./inp_files/10707.got.cif
#   From: 2010.05.17/outbox.cif.g08.bks.cpg/sg40_6_cif.got.tgz:10707.got - 2010.06.03 18:35:42.
