data_PCOD9363941
_publ_section_title
;
Structure prediction by ZEFSAII (Michael W. Deem and Ramdas Pophale) SiO2 
 PCOD9363941
Probable space group: A M A 2
;
_chemical_formula_sum "Si O2"
_cell_formula_units_Z 64
_cell_length_a 8.757259
_cell_length_b 20.180265
_cell_length_c 20.608574
_cell_angle_alpha 90.000000
_cell_angle_beta 90.000000
_cell_angle_gamma 90.000000
_cell_volume 3642.025660
_symmetry_space_group_name_H-M "A M A 2"
_symmetry_group_IT_number 40
_symmetry_cell_setting 'orthorhombic'
loop_
_space_group_symop_operation_xyz
x,y,z
-x,-y,z
1/2-x,y,z
1/2+x,-y,z
x,1/2+y,1/2+z
-x,1/2-y,1/2+z
1/2-x,1/2+y,1/2+z
1/2+x,1/2-y,1/2+z
loop_
_atom_site_type_symbol
_atom_site_label
_atom_site_fract_x
_atom_site_fract_y
_atom_site_fract_z
Si Si1 0.067970 0.825647 0.388670
Si Si2 0.067012 0.327113 0.532385
Si Si3 0.567105 0.073228 0.783854
Si Si4 0.433133 0.072376 0.136351
Si Si5 0.565959 0.427177 0.143461
Si Si6 0.932396 0.427937 0.786861
Si Si7 0.933255 0.829237 0.891169
Si Si8 0.433109 0.673053 0.028702
O O1 0.250000 0.831451 0.385872
O O2 0.027666 0.748116 0.378810
O O3 0.994728 0.872345 0.334810
O O4 0.010697 0.844434 0.460538
O O5 0.250000 0.333315 0.529045
O O6 0.028964 0.249628 0.544185
O O7 0.001676 0.373239 0.588564
O O8 0.994768 0.345540 0.462948
O O9 0.750000 0.070223 0.782291
O O10 0.503052 0.092836 0.713007
O O11 0.509124 0.123955 0.837935
O O12 0.500000 0.000000 0.797240
O O13 0.250000 0.070968 0.130887
O O14 0.473692 0.086234 0.211676
O O15 0.500000 0.000000 0.120331
O O16 0.500000 0.500000 0.128630
O O17 0.750000 0.430526 0.148614
O O18 0.524418 0.375725 0.087021
O O19 0.750000 0.431004 0.791220
O O20 0.000000 0.500000 0.803480
O O21 0.750000 0.836088 0.889426
O O22 0.250000 0.669188 0.020169
#
# Coordination Sequence:
#
# PCOD9363941 Si02
#       8
#     8   8   8   8   8   8   8   8
#     4  10  21  36  57  82 110 143 180 223 271 319
#     4  10  20  36  57  81 108 141 179 222 269 318
#     4  11  22  37  57  81 109 142 179 223 270 320
#     4  10  21  37  56  80 108 141 178 220 267 318
#     4  10  20  36  56  80 109 143 180 221 267 317
#     4  10  21  37  57  80 110 144 182 225 269 319
#     4  10  21  38  57  80 110 143 180 223 267 319
#     4   9  20  37  56  78 109 145 181 221 267 318
#
# _framework density 17.572638000000001
#
# number of rings (size 3 to 8) (size 9 to 14) (size 15 to 20)
#    0.000    2.000    0.000    4.125    0.000    6.500 
#    0.000    7.500    0.000    0.000    0.000    0.000 
#    0.000    0.000    0.000    0.000    0.000    0.000 
#
# Total GULP energy -178722.276780 kJ/mol
# GULP energy per Si atom -5585.071149 kJ/mol
# Density = 1.753264 g / cm^3
# Si number density = 17.572638 Si / 1000 Ang^3
#
#
#
# Elastic Constant Matrix: (Units=GPa)
#
#
# Indices 1 2 3 4 5 6 
#
# 1 78.6741 56.9996 67.8716 0.0000 0.0000 0.0000
# 2 56.9996 103.3410 113.2564 0.0000 0.0000 0.0000
# 3 67.8716 113.2564 149.6466 0.0000 0.0000 0.0000
# 4 0.0000 0.0000 0.0000 45.0882 0.0000 0.0000
# 5 0.0000 0.0000 0.0000 0.0000 22.7381 0.0000
# 6 0.0000 0.0000 0.0000 0.0000 0.0000 30.0019
#
#
#
# Elastic Compliance Matrix: (Units=1/GPa)
#
#
# Indices 1 2 3 4 5 6 
#
# 1 0.021696 -0.006933 -0.004593 0.000000 0.000000 0.000000
# 2 -0.006933 0.058951 -0.041471 0.000000 0.000000 0.000000
# 3 -0.004593 -0.041471 0.040152 0.000000 0.000000 0.000000
# 4 0.000000 0.000000 0.000000 0.022179 0.000000 0.000000
# 5 0.000000 0.000000 0.000000 0.000000 0.043979 0.000000
# 6 0.000000 0.000000 0.000000 0.000000 0.000000 0.033331
#
#
# Mechanical properties :
#
#
# Convention : Reuss Voigt Hill
#
# Bulk Modulus (GPa) = 67.54727 89.76855 78.65791
# Shear Modulus (GPa) = 15.09581 25.80125 20.44853
#
# Velocity S-wave (km/s) = 2.93414 3.83595 3.41494
# Velocity P-wave (km/s) = 7.07115 8.41514 7.77225
#
# Compressibility (1/GPa) = 0.01480445
#
# Stress axis : x y z
#
# Youngs Moduli (GPa) = 46.09120 16.96317 24.90544
#
# Poissons Ratio (x) = 0.11761 0.11438
# Poissons Ratio (y) = 0.31957 1.03286
# Poissons Ratio (z) = 0.21169 0.70348
#
# Static dielectric constant tensor:
#      x y z
#    x 1.586900 0.000000 0.000000 
#    y 0.000000 1.576100 0.000000 
#    z 0.000000 0.000000 1.571080 
# 
# From -- ./inp_files/19577.got.cif
#   From: 2010.05.17/outbox.cif.g08.bks.cpg/sg40_10_cif.got.tgz:19577.got - 2010.06.03 18:35:42.
