data_PCOD9363253
_publ_section_title
;
Structure prediction by ZEFSAII (Michael W. Deem and Ramdas Pophale) SiO2 
 PCOD9363253
Probable space group: A M A 2
;
_chemical_formula_sum "Si O2"
_cell_formula_units_Z 64
_cell_length_a 8.800699
_cell_length_b 20.214149
_cell_length_c 20.994001
_cell_angle_alpha 90.000000
_cell_angle_beta 90.000000
_cell_angle_gamma 90.000000
_cell_volume 3734.804245
_symmetry_space_group_name_H-M "A M A 2"
_symmetry_group_IT_number 40
_symmetry_cell_setting 'orthorhombic'
loop_
_space_group_symop_operation_xyz
x,y,z
-x,-y,z
1/2-x,y,z
1/2+x,-y,z
x,1/2+y,1/2+z
-x,1/2-y,1/2+z
1/2-x,1/2+y,1/2+z
1/2+x,1/2-y,1/2+z
loop_
_atom_site_type_symbol
_atom_site_label
_atom_site_fract_x
_atom_site_fract_y
_atom_site_fract_z
Si Si1 0.932752 0.289232 0.946770
Si Si2 0.432491 0.069232 0.877946
Si Si3 0.568060 0.430620 0.995668
Si Si4 0.432195 0.569014 0.527107
Si Si5 0.932564 0.788099 0.827508
Si Si6 0.432247 0.570291 0.145600
Si Si7 0.568031 0.705708 0.193976
Si Si8 0.433525 0.212531 0.067789
O O1 0.750000 0.286126 0.943328
O O2 0.005024 0.256465 0.884680
O O3 0.979533 0.365637 0.957280
O O4 0.989284 0.249681 0.008835
O O5 0.250000 0.065029 0.875371
O O6 0.479384 0.135606 0.841682
O O7 0.500000 0.000000 0.854196
O O8 0.477286 0.076935 0.952533
O O9 0.500000 0.500000 0.973397
O O10 0.750000 0.434901 0.993257
O O11 0.526909 0.421953 0.070449
O O12 0.500000 0.500000 0.550620
O O13 0.250000 0.564297 0.528514
O O14 0.477108 0.635301 0.564187
O O15 0.750000 0.785827 0.826931
O O16 0.999785 0.768030 0.759706
O O17 0.500000 0.500000 0.166885
O O18 0.250000 0.569774 0.151641
O O19 0.500836 0.632846 0.181520
O O20 0.750000 0.702357 0.197755
O O21 0.526901 0.751523 0.133617
O O22 0.250000 0.216338 0.059588
#
# Coordination Sequence:
#
# PCOD9363253 Si02
#       8
#     8   8   8   8   8   8   8   8
#     4  11  21  35  57  85 111 139 183 231 273 322
#     4   9  18  32  51  74 104 140 178 216 260 314
#     4   9  19  33  53  82 112 140 176 224 273 323
#     4   9  17  32  52  79 108 136 173 217 266 318
#     4  11  23  39  55  76 110 150 186 227 275 329
#     4  10  19  34  53  78 111 148 186 225 270 326
#     4  11  23  37  55  80 109 147 187 229 278 329
#     4  10  20  36  57  80 110 144 180 221 274 329
#
# _framework density 17.136106999999999
#
# number of rings (size 3 to 8) (size 9 to 14) (size 15 to 20)
#    0.000    2.000    2.500    1.500    0.000    4.000 
#    0.000    1.250    0.000    0.750    0.000    1.750 
#    0.000    0.000    0.000    0.000    0.000    0.000 
#
# Total GULP energy -178635.676892 kJ/mol
# GULP energy per Si atom -5582.364903 kJ/mol
# Density = 1.709710 g / cm^3
# Si number density = 17.136107 Si / 1000 Ang^3
#
#
#
# Elastic Constant Matrix: (Units=GPa)
#
#
# Indices 1 2 3 4 5 6 
#
# 1 34.5491 36.8955 41.5707 0.0000 0.0000 0.0000
# 2 36.8955 133.3077 67.2662 0.0000 0.0000 0.0000
# 3 41.5707 67.2662 113.6116 0.0000 0.0000 0.0000
# 4 0.0000 0.0000 0.0000 19.8809 0.0000 0.0000
# 5 0.0000 0.0000 0.0000 0.0000 30.9541 0.0000
# 6 0.0000 0.0000 0.0000 0.0000 0.0000 29.6048
#
#
#
# Elastic Compliance Matrix: (Units=1/GPa)
#
#
# Indices 1 2 3 4 5 6 
#
# 1 0.056419 -0.007413 -0.016255 0.000000 0.000000 0.000000
# 2 -0.007413 0.011671 -0.004198 0.000000 0.000000 0.000000
# 3 -0.016255 -0.004198 0.017235 0.000000 0.000000 0.000000
# 4 0.000000 0.000000 0.000000 0.050299 0.000000 0.000000
# 5 0.000000 0.000000 0.000000 0.000000 0.032306 0.000000
# 6 0.000000 0.000000 0.000000 0.000000 0.000000 0.033778
#
#
# Mechanical properties :
#
#
# Convention : Reuss Voigt Hill
#
# Bulk Modulus (GPa) = 33.79042 63.65923 48.72483
# Shear Modulus (GPa) = 18.70518 25.13703 21.92110
#
# Velocity S-wave (km/s) = 3.30747 3.83417 3.58052
# Velocity P-wave (km/s) = 5.86067 7.53863 6.75198
#
# Compressibility (1/GPa) = 0.02959419
#
# Stress axis : x y z
#
# Youngs Moduli (GPa) = 17.72442 85.68006 58.02134
#
# Poissons Ratio (x) = 0.63515 0.94313
# Poissons Ratio (y) = 0.13139 0.24356
# Poissons Ratio (z) = 0.28811 0.35967
#
# Static dielectric constant tensor:
#      x y z
#    x 1.571740 0.000000 0.000000 
#    y 0.000000 1.579630 0.000000 
#    z 0.000000 0.000000 1.572820 
# 
# From -- ./inp_files/22423.got.cif
#   From: 2010.05.17/outbox.cif.g08.bks.cpg/sg40_12_cif.got.tgz:22423.got - 2010.06.03 18:35:42.
