data_PCOD9363596
_publ_section_title
;
Structure prediction by ZEFSAII (Michael W. Deem and Ramdas Pophale) SiO2 
 PCOD9363596
Probable space group: A M A 2
;
_chemical_formula_sum "Si O2"
_cell_formula_units_Z 48
_cell_length_a 17.200332
_cell_length_b 9.581791
_cell_length_c 10.685367
_cell_angle_alpha 90.000000
_cell_angle_beta 90.000000
_cell_angle_gamma 90.000000
_cell_volume 1761.055189
_symmetry_space_group_name_H-M "A M A 2"
_symmetry_group_IT_number 40
_symmetry_cell_setting 'orthorhombic'
loop_
_space_group_symop_operation_xyz
x,y,z
-x,-y,z
1/2-x,y,z
1/2+x,-y,z
x,1/2+y,1/2+z
-x,1/2-y,1/2+z
1/2-x,1/2+y,1/2+z
1/2+x,1/2-y,1/2+z
loop_
_atom_site_type_symbol
_atom_site_label
_atom_site_fract_x
_atom_site_fract_y
_atom_site_fract_z
Si Si1 0.498772 0.796469 0.064730
Si Si2 0.000000 0.000000 0.680802
Si Si3 0.833276 0.555402 0.802923
Si Si4 0.333462 0.006089 0.688971
Si Si5 0.500000 0.000000 0.289325
Si Si6 0.666387 0.203061 0.038683
Si Si7 0.666735 0.771190 0.015134
O O1 0.505424 0.632759 0.089774
O O2 0.420573 0.819064 0.984867
O O3 0.488429 0.866394 0.200340
O O4 0.584114 0.846564 0.024654
O O5 0.081853 0.011446 0.752183
O O6 0.750000 0.483680 0.830948
O O7 0.913320 0.481687 0.843982
O O8 0.832338 0.598717 0.658210
O O9 0.832947 0.698347 0.880473
O O10 0.250000 0.015568 0.756399
O O11 0.332657 0.859709 0.612660
O O12 0.334102 0.139862 0.596281
O O13 0.750000 0.187177 0.972094
O O14 0.750000 0.844014 0.033503
#
# Coordination Sequence:
#
# PCOD9363596 Si02
#       7
#     8   4   8   8   4   8   8
#     4   9  17  29  46  70  96 124 159 198 241 287
#     4   8  14  25  42  61  86 116 150 186 220 275
#     4   9  18  31  46  68  98 131 162 194 241 297
#     4   8  13  22  39  63  84 106 144 190 224 258
#     4  10  20  31  48  73 102 128 158 206 252 285
#     4   8  14  26  43  63  88 119 155 189 224 277
#     4   9  17  29  47  70  94 121 158 202 242 284
#
# _framework density 27.256385999999999
#
# number of rings (size 3 to 8) (size 9 to 14) (size 15 to 20)
#    0.000    3.333    0.000    0.000    0.000    4.667 
#    0.000    0.000    0.000   13.000    0.000    0.000 
#    0.000   98.667    0.000    0.000    0.000    0.000 
#
# Total GULP energy -133846.886912 kJ/mol
# GULP energy per Si atom -5576.953621 kJ/mol
# Density = 2.719435 g / cm^3
# Si number density = 27.256386 Si / 1000 Ang^3
#
#
#
# Elastic Constant Matrix: (Units=GPa)
#
#
# Indices 1 2 3 4 5 6 
#
# 1 426.5451 16.9256 15.5193 0.0000 0.0000 0.0000
# 2 16.9256 82.3552 25.8131 0.0000 0.0000 0.0000
# 3 15.5193 25.8131 41.5821 0.0000 0.0000 0.0000
# 4 0.0000 0.0000 0.0000 75.0147 0.0000 0.0000
# 5 0.0000 0.0000 0.0000 0.0000 -22.5856 0.0000
# 6 0.0000 0.0000 0.0000 0.0000 0.0000 11.2857
#
#
#
# Elastic Compliance Matrix: (Units=1/GPa)
#
#
# Indices 1 2 3 4 5 6 
#
# 1 0.002381 -0.000262 -0.000726 0.000000 0.000000 0.000000
# 2 -0.000262 0.015105 -0.009279 0.000000 0.000000 0.000000
# 3 -0.000726 -0.009279 0.030080 0.000000 0.000000 0.000000
# 4 0.000000 0.000000 0.000000 0.013331 0.000000 0.000000
# 5 0.000000 0.000000 0.000000 0.000000 -0.044276 0.000000
# 6 0.000000 0.000000 0.000000 0.000000 0.000000 0.088607
#
#
# Mechanical properties :
#
#
# Convention : Reuss Voigt Hill
#
# Bulk Modulus (GPa) = 36.99311 74.11095 55.55203
# Shear Modulus (GPa) = 37.09956 45.55793 41.32875
#
# Velocity S-wave (km/s) = 3.69336 4.09278 3.89819
# Velocity P-wave (km/s) = 5.63822 7.04158 6.37861
#
# Compressibility (1/GPa) = 0.02703206
#
# Stress axis : x y z
#
# Youngs Moduli (GPa) = 419.95144 66.20465 33.24472
#
# Poissons Ratio (x) = 0.01733 0.02414
# Poissons Ratio (y) = 0.10993 0.30847
# Poissons Ratio (z) = 0.30498 0.61431
#
# Static dielectric constant tensor:
#      x y z
#    x 2.239940 0.000000 0.000000 
#    y 0.000000 2.076630 0.000000 
#    z 0.000000 0.000000 2.058580 
# 
# From -- ./inp_files/17730.got.cif
#   From: 2010.05.17/outbox.cif.g08.bks.cpg/sg40_9_cif.got.tgz:17730.got - 2010.06.03 18:35:42.
