data_PCOD9363874
_publ_section_title
;
Structure prediction by ZEFSAII (Michael W. Deem and Ramdas Pophale) SiO2 
 PCOD9363874
Probable space group: A M A 2
;
_chemical_formula_sum "Si O2"
_cell_formula_units_Z 40
_cell_length_a 14.786248
_cell_length_b 22.466712
_cell_length_c 5.186226
_cell_angle_alpha 90.000000
_cell_angle_beta 90.000000
_cell_angle_gamma 90.000000
_cell_volume 1722.855852
_symmetry_space_group_name_H-M "A M A 2"
_symmetry_group_IT_number 40
_symmetry_cell_setting 'orthorhombic'
loop_
_space_group_symop_operation_xyz
x,y,z
-x,-y,z
1/2-x,y,z
1/2+x,-y,z
x,1/2+y,1/2+z
-x,1/2-y,1/2+z
1/2-x,1/2+y,1/2+z
1/2+x,1/2-y,1/2+z
loop_
_atom_site_type_symbol
_atom_site_label
_atom_site_fract_x
_atom_site_fract_y
_atom_site_fract_z
Si Si1 0.607911 0.288207 0.868260
Si Si2 0.641208 0.565285 0.930604
Si Si3 0.426781 0.320759 0.645719
Si Si4 0.400554 0.640559 0.377712
Si Si5 0.641639 0.997538 0.932136
O O1 0.498925 0.283575 0.818162
O O2 0.642180 0.316917 0.601844
O O3 0.635146 0.224401 0.983543
O O4 0.622415 0.335067 0.096929
O O5 0.750000 0.563093 0.943327
O O6 0.616527 0.631227 0.834501
O O7 0.607843 0.521884 0.703856
O O8 0.606467 0.538267 0.198236
O O9 0.493113 0.353250 0.443753
O O10 0.375561 0.572050 0.400415
O O11 0.750000 0.005241 0.935908
#
# Coordination Sequence:
#
# PCOD9363874 Si02
#       5
#     8   8   8   8   8
#     4  10  20  35  58  84 118 146 187 246 306 331
#     4  10  23  39  59  82 117 161 194 244 298 353
#     4  10  21  37  60  85 121 150 194 247 295 358
#     4  10  20  36  57  86 111 155 191 243 298 350
#     4  10  22  41  57  80 120 157 199 246 296 347
#
# _framework density 23.217262999999999
#
# number of rings (size 3 to 8) (size 9 to 14) (size 15 to 20)
#    1.200    0.800    2.000    1.200    2.800    0.800 
#    0.000    2.000    0.000    0.000    0.000    0.000 
#    0.000    0.000    0.000    0.000    0.000    0.000 
#
# Total GULP energy -111631.569073 kJ/mol
# GULP energy per Si atom -5581.578454 kJ/mol
# Density = 2.316442 g / cm^3
# Si number density = 23.217263 Si / 1000 Ang^3
#
#
#
# Elastic Constant Matrix: (Units=GPa)
#
#
# Indices 1 2 3 4 5 6 
#
# 1 34.4283 11.8949 17.9897 0.0000 0.0000 0.0000
# 2 11.8949 100.1378 29.7642 0.0000 0.0000 0.0000
# 3 17.9897 29.7642 125.2268 0.0000 0.0000 0.0000
# 4 0.0000 0.0000 0.0000 44.8664 0.0000 0.0000
# 5 0.0000 0.0000 0.0000 0.0000 5.9851 0.0000
# 6 0.0000 0.0000 0.0000 0.0000 0.0000 90.9209
#
#
#
# Elastic Compliance Matrix: (Units=1/GPa)
#
#
# Indices 1 2 3 4 5 6 
#
# 1 0.032031 -0.002622 -0.003978 0.000000 0.000000 0.000000
# 2 -0.002622 0.010960 -0.002228 0.000000 0.000000 0.000000
# 3 -0.003978 -0.002228 0.009087 0.000000 0.000000 0.000000
# 4 0.000000 0.000000 0.000000 0.022288 0.000000 0.000000
# 5 0.000000 0.000000 0.000000 0.000000 0.167081 0.000000
# 6 0.000000 0.000000 0.000000 0.000000 0.000000 0.010999
#
#
# Mechanical properties :
#
#
# Convention : Reuss Voigt Hill
#
# Bulk Modulus (GPa) = 29.05313 42.12118 35.58715
# Shear Modulus (GPa) = 17.75722 41.69742 29.72732
#
# Velocity S-wave (km/s) = 2.76855 4.24248 3.58215
# Velocity P-wave (km/s) = 4.77081 6.49460 5.69826
#
# Compressibility (1/GPa) = 0.03441970
#
# Stress axis : x y z
#
# Youngs Moduli (GPa) = 31.22017 91.24039 110.05182
#
# Poissons Ratio (x) = 0.23926 0.43780
# Poissons Ratio (y) = 0.08187 0.24523
# Poissons Ratio (z) = 0.12420 0.20331
#
# Static dielectric constant tensor:
#      x y z
#    x 1.916450 0.000000 0.000000 
#    y 0.000000 1.857980 0.000000 
#    z 0.000000 0.000000 1.870970 
# 
# From -- ./inp_files/1809.got.cif
#   From: 2010.05.17/outbox.cif.g08.bks.cpg/sg40_1_cif.got.tgz:1809.got - 2010.06.03 18:35:42.
