data_PCOD9363704
_publ_section_title
;
Structure prediction by ZEFSAII (Michael W. Deem and Ramdas Pophale) SiO2 
 PCOD9363704
Probable space group: A M A 2
;
_chemical_formula_sum "Si O2"
_cell_formula_units_Z 64
_cell_length_a 8.832122
_cell_length_b 28.228821
_cell_length_c 15.029967
_cell_angle_alpha 90.000000
_cell_angle_beta 90.000000
_cell_angle_gamma 90.000000
_cell_volume 3747.277249
_symmetry_space_group_name_H-M "A M A 2"
_symmetry_group_IT_number 40
_symmetry_cell_setting 'orthorhombic'
loop_
_space_group_symop_operation_xyz
x,y,z
-x,-y,z
1/2-x,y,z
1/2+x,-y,z
x,1/2+y,1/2+z
-x,1/2-y,1/2+z
1/2-x,1/2+y,1/2+z
1/2+x,1/2-y,1/2+z
loop_
_atom_site_type_symbol
_atom_site_label
_atom_site_fract_x
_atom_site_fract_y
_atom_site_fract_z
Si Si1 0.068353 0.823003 0.815600
Si Si2 0.069419 0.280177 0.813161
Si Si3 0.068078 0.551296 0.818584
Si Si4 0.930652 0.136019 0.000713
Si Si5 0.931016 0.359746 0.937281
Si Si6 0.930845 0.282868 0.620415
Si Si7 0.569790 0.670926 0.114000
Si Si8 0.431503 0.551629 0.613667
O O1 0.250000 0.813501 0.815220
O O2 0.029247 0.840263 0.716347
O O3 0.985038 0.773287 0.831852
O O4 0.034841 0.858368 0.896052
O O5 0.250000 0.282085 0.808360
O O6 0.008332 0.315739 0.887348
O O7 0.996722 0.293723 0.718061
O O8 0.250000 0.547808 0.821374
O O9 0.021143 0.592482 0.886059
O O10 0.025976 0.563576 0.716352
O O11 0.000000 0.500000 0.839508
O O12 0.750000 0.133649 0.011337
O O13 0.992555 0.182903 0.049499
O O14 0.005463 0.091121 0.047744
O O15 0.750000 0.355338 0.929969
O O16 0.981360 0.357753 0.039474
O O17 0.750000 0.289968 0.620819
O O18 0.960554 0.227300 0.602344
O O19 0.750000 0.663996 0.102616
O O20 0.500000 0.500000 0.594436
O O21 0.250000 0.549894 0.608537
#
# Coordination Sequence:
#
# PCOD9363704 Si02
#       8
#     8   8   8   8   8   8   8   8
#     4   9  20  37  53  71 102 139 174 216 258 296
#     4  11  21  32  50  76 104 137 176 212 251 304
#     4   9  20  36  54  76 102 131 161 198 248 302
#     4  11  21  33  53  79 103 134 176 214 255 309
#     4  11  21  33  51  76 105 135 168 208 256 306
#     4  10  20  34  50  72 106 141 172 211 257 302
#     4   9  19  35  52  72 100 137 177 214 253 295
#     4  10  20  36  56  78 106 136 165 205 257 310
#
# _framework density 17.079067999999999
#
# number of rings (size 3 to 8) (size 9 to 14) (size 15 to 20)
#    0.000    2.000    0.000    4.875    0.000    8.000 
#    0.000    0.000    0.000    0.750    0.000    1.750 
#    0.000    0.000    0.000    0.000    0.000    0.000 
#
# Total GULP energy -178707.919934 kJ/mol
# GULP energy per Si atom -5584.622498 kJ/mol
# Density = 1.704020 g / cm^3
# Si number density = 17.079068 Si / 1000 Ang^3
#
#
#
# Elastic Constant Matrix: (Units=GPa)
#
#
# Indices 1 2 3 4 5 6 
#
# 1 54.2500 41.5493 51.4476 0.0000 0.0000 0.0000
# 2 41.5493 72.0092 78.7932 0.0000 0.0000 0.0000
# 3 51.4476 78.7932 133.5153 0.0000 0.0000 0.0000
# 4 0.0000 0.0000 0.0000 26.7383 0.0000 0.0000
# 5 0.0000 0.0000 0.0000 0.0000 28.0134 0.0000
# 6 0.0000 0.0000 0.0000 0.0000 0.0000 23.9584
#
#
#
# Elastic Compliance Matrix: (Units=1/GPa)
#
#
# Indices 1 2 3 4 5 6 
#
# 1 0.033876 -0.014857 -0.004286 0.000000 0.000000 0.000000
# 2 -0.014857 0.045716 -0.021254 0.000000 0.000000 0.000000
# 3 -0.004286 -0.021254 0.021684 0.000000 0.000000 0.000000
# 4 0.000000 0.000000 0.000000 0.037400 0.000000 0.000000
# 5 0.000000 0.000000 0.000000 0.000000 0.035697 0.000000
# 6 0.000000 0.000000 0.000000 0.000000 0.000000 0.041739
#
#
# Mechanical properties :
#
#
# Convention : Reuss Voigt Hill
#
# Bulk Modulus (GPa) = 48.82181 67.03941 57.93061
# Shear Modulus (GPa) = 16.46174 21.60765 19.03469
#
# Velocity S-wave (km/s) = 3.10797 3.56076 3.34204
# Velocity P-wave (km/s) = 6.44415 7.49953 6.99178
#
# Compressibility (1/GPa) = 0.02048265
#
# Stress axis : x y z
#
# Youngs Moduli (GPa) = 29.51903 21.87405 46.11636
#
# Poissons Ratio (x) = 0.32499 0.19765
# Poissons Ratio (y) = 0.43857 0.98017
# Poissons Ratio (z) = 0.12651 0.46492
#
# Static dielectric constant tensor:
#      x y z
#    x 1.570180 0.000000 0.000000 
#    y 0.000000 1.547540 0.000000 
#    z 0.000000 0.000000 1.591620 
# 
# From -- ./inp_files/15588.got.cif
#   From: 2010.05.17/outbox.cif.g08.bks.cpg/sg40_8_cif.got.tgz:15588.got - 2010.06.03 18:35:42.
