data_PCOD9363313
_publ_section_title
;
Structure prediction by ZEFSAII (Michael W. Deem and Ramdas Pophale) SiO2 
 PCOD9363313
Probable space group: A M A 2
;
_chemical_formula_sum "Si O2"
_cell_formula_units_Z 48
_cell_length_a 16.605095
_cell_length_b 15.666464
_cell_length_c 9.306117
_cell_angle_alpha 90.000000
_cell_angle_beta 90.000000
_cell_angle_gamma 90.000000
_cell_volume 2420.922340
_symmetry_space_group_name_H-M "A M A 2"
_symmetry_group_IT_number 40
_symmetry_cell_setting 'orthorhombic'
loop_
_space_group_symop_operation_xyz
x,y,z
-x,-y,z
1/2-x,y,z
1/2+x,-y,z
x,1/2+y,1/2+z
-x,1/2-y,1/2+z
1/2-x,1/2+y,1/2+z
1/2+x,1/2-y,1/2+z
loop_
_atom_site_type_symbol
_atom_site_label
_atom_site_fract_x
_atom_site_fract_y
_atom_site_fract_z
Si Si1 0.342828 0.697974 0.269840
Si Si2 0.397618 0.795787 0.021011
Si Si3 0.410080 0.536230 0.112029
Si Si4 0.413595 0.215955 0.080413
Si Si5 0.345461 0.126848 0.345435
Si Si6 0.657138 0.626825 0.251974
O O1 0.250000 0.674009 0.246735
O O2 0.361241 0.783795 0.179149
O O3 0.398291 0.623230 0.202932
O O4 0.362056 0.710473 0.435842
O O5 0.493330 0.790144 0.036813
O O6 0.362193 0.714525 0.933560
O O7 0.372122 0.872627 0.917518
O O8 0.500000 0.500000 0.118567
O O9 0.353721 0.464893 0.181899
O O10 0.383895 0.556040 0.948794
O O11 0.387791 0.142566 0.192887
O O12 0.395125 0.304973 0.161519
O O13 0.250000 0.114843 0.329406
O O14 0.750000 0.654506 0.246518
#
# Coordination Sequence:
#
# PCOD9363313 Si02
#       6
#     8   8   8   8   8   8
#     4  11  21  37  58  84 116 155 190 228 285 353
#     4  10  19  34  57  84 114 148 187 233 281 335
#     4  11  22  38  59  83 112 149 191 237 289 344
#     4  11  21  36  59  86 114 148 192 238 281 338
#     4  10  20  38  58  81 114 157 192 227 284 353
#     4  11  21  37  59  86 113 147 193 243 284 331
#
# _framework density 19.827154
#
# number of rings (size 3 to 8) (size 9 to 14) (size 15 to 20)
#    0.000    1.333    0.000   11.500    0.000    0.000 
#    0.000    4.167    0.000    0.000    0.000    0.000 
#    0.000    0.000    0.000    0.000    0.000    0.000 
#
# Total GULP energy -134043.532387 kJ/mol
# GULP energy per Si atom -5585.147183 kJ/mol
# Density = 1.978203 g / cm^3
# Si number density = 19.827154 Si / 1000 Ang^3
#
#
#
# Elastic Constant Matrix: (Units=GPa)
#
#
# Indices 1 2 3 4 5 6 
#
# 1 104.2199 -0.8698 6.4920 0.0000 0.0000 0.0000
# 2 -0.8698 44.0541 31.9043 0.0000 0.0000 0.0000
# 3 6.4920 31.9043 133.9306 0.0000 0.0000 0.0000
# 4 0.0000 0.0000 0.0000 30.2083 0.0000 0.0000
# 5 0.0000 0.0000 0.0000 0.0000 28.7454 0.0000
# 6 0.0000 0.0000 0.0000 0.0000 0.0000 29.0895
#
#
#
# Elastic Compliance Matrix: (Units=1/GPa)
#
#
# Indices 1 2 3 4 5 6 
#
# 1 0.009639 0.000639 -0.000619 0.000000 0.000000 0.000000
# 2 0.000639 0.027474 -0.006576 0.000000 0.000000 0.000000
# 3 -0.000619 -0.006576 0.009063 0.000000 0.000000 0.000000
# 4 0.000000 0.000000 0.000000 0.033103 0.000000 0.000000
# 5 0.000000 0.000000 0.000000 0.000000 0.034788 0.000000
# 6 0.000000 0.000000 0.000000 0.000000 0.000000 0.034377
#
#
# Mechanical properties :
#
#
# Convention : Reuss Voigt Hill
#
# Bulk Modulus (GPa) = 30.24467 39.69530 34.96999
# Shear Modulus (GPa) = 28.97235 33.92050 31.44642
#
# Velocity S-wave (km/s) = 3.82677 4.14068 3.98682
# Velocity P-wave (km/s) = 5.90024 6.55168 6.23447
#
# Compressibility (1/GPa) = 0.03306367
#
# Stress axis : x y z
#
# Youngs Moduli (GPa) = 103.74509 36.39781 110.33850
#
# Poissons Ratio (x) = -0.02325 0.06835
# Poissons Ratio (y) = -0.06628 0.72556
# Poissons Ratio (z) = 0.06426 0.23934
#
# Static dielectric constant tensor:
#      x y z
#    x 1.722710 0.000000 0.000000 
#    y 0.000000 1.714660 0.000000 
#    z 0.000000 0.000000 1.717480 
# 
# From -- ./inp_files/6457.got.cif
#   From: 2010.05.17/outbox.cif.g08.bks.cpg/sg40_4_cif.got.tgz:6457.got - 2010.06.03 18:35:42.
