data_PCOD9363096
_publ_section_title
;
Structure prediction by ZEFSAII (Michael W. Deem and Ramdas Pophale) SiO2 
 PCOD9363096
Probable space group: A M A 2
;
_chemical_formula_sum "Si O2"
_cell_formula_units_Z 52
_cell_length_a 10.371890
_cell_length_b 19.303854
_cell_length_c 13.111470
_cell_angle_alpha 90.000000
_cell_angle_beta 90.000000
_cell_angle_gamma 90.000000
_cell_volume 2625.145093
_symmetry_space_group_name_H-M "A M A 2"
_symmetry_group_IT_number 40
_symmetry_cell_setting 'orthorhombic'
loop_
_space_group_symop_operation_xyz
x,y,z
-x,-y,z
1/2-x,y,z
1/2+x,-y,z
x,1/2+y,1/2+z
-x,1/2-y,1/2+z
1/2-x,1/2+y,1/2+z
1/2+x,1/2-y,1/2+z
loop_
_atom_site_type_symbol
_atom_site_label
_atom_site_fract_x
_atom_site_fract_y
_atom_site_fract_z
Si Si1 0.108519 0.595680 0.974960
Si Si2 0.404833 0.062733 0.238403
Si Si3 0.967805 0.220443 0.572064
Si Si4 0.889167 0.796469 0.880556
Si Si5 0.393718 0.369293 0.261576
Si Si6 0.500000 0.000000 0.640245
Si Si7 0.606953 0.181933 0.207292
O O1 0.250000 0.627923 0.978028
O O2 0.091287 0.565682 0.862229
O O3 0.007958 0.654500 0.004856
O O4 0.097197 0.537674 0.062152
O O5 0.250000 0.059619 0.210841
O O6 0.484419 0.130934 0.203842
O O7 0.500000 0.000000 0.205619
O O8 0.896094 0.272219 0.496768
O O9 0.898883 0.188497 0.671212
O O10 0.088789 0.262375 0.617306
O O11 0.750000 0.828922 0.857801
O O12 0.898775 0.727709 0.810203
O O13 0.003926 0.845829 0.845787
O O14 0.250000 0.373529 0.302624
O O15 0.435474 0.441065 0.209021
O O16 0.750000 0.148691 0.203265
#
# Coordination Sequence:
#
# PCOD9363096 Si02
#       7
#     8   8   8   8   8   4   8
#     4  10  19  32  54  84 116 150 186 229 285 344
#     4  11  22  37  57  84 117 153 191 236 285 347
#     4  10  20  37  58  88 115 152 193 238 288 344
#     4  10  21  37  58  84 120 157 192 236 290 343
#     4  10  22  36  58  88 118 152 194 238 285 344
#     4  10  20  36  54  82 118 152 186 236 290 346
#     4  10  21  37  58  86 119 155 192 242 292 344
#
# _framework density 19.808430999999999
#
# number of rings (size 3 to 8) (size 9 to 14) (size 15 to 20)
#    0.000    1.846    2.308    1.846    0.000    8.615 
#    0.000    0.000    1.692    0.000    0.000    0.000 
#    0.000    0.000    0.000    0.000    0.000    0.000 
#
# Total GULP energy -144895.092507 kJ/mol
# GULP energy per Si atom -5572.888173 kJ/mol
# Density = 1.976335 g / cm^3
# Si number density = 19.808431 Si / 1000 Ang^3
#
#
#
# Elastic Constant Matrix: (Units=GPa)
#
#
# Indices 1 2 3 4 5 6 
#
# 1 145.9026 42.9675 18.6391 0.0000 0.0000 0.0000
# 2 42.9675 68.1185 17.2419 0.0000 0.0000 0.0000
# 3 18.6391 17.2419 42.3424 0.0000 0.0000 0.0000
# 4 0.0000 0.0000 0.0000 23.3308 0.0000 0.0000
# 5 0.0000 0.0000 0.0000 0.0000 6.8702 0.0000
# 6 0.0000 0.0000 0.0000 0.0000 0.0000 17.0704
#
#
#
# Elastic Compliance Matrix: (Units=1/GPa)
#
#
# Indices 1 2 3 4 5 6 
#
# 1 0.008531 -0.004940 -0.001744 0.000000 0.000000 0.000000
# 2 -0.004940 0.019228 -0.005655 0.000000 0.000000 0.000000
# 3 -0.001744 -0.005655 0.026687 0.000000 0.000000 0.000000
# 4 0.000000 0.000000 0.000000 0.042862 0.000000 0.000000
# 5 0.000000 0.000000 0.000000 0.000000 0.145557 0.000000
# 6 0.000000 0.000000 0.000000 0.000000 0.000000 0.058581
#
#
# Mechanical properties :
#
#
# Convention : Reuss Voigt Hill
#
# Bulk Modulus (GPa) = 33.59233 46.00672 39.79952
# Shear Modulus (GPa) = 14.87888 21.28861 18.08374
#
# Velocity S-wave (km/s) = 2.74366 3.28186 3.02475
# Velocity P-wave (km/s) = 5.19926 6.13490 5.68636
#
# Compressibility (1/GPa) = 0.02976870
#
# Stress axis : x y z
#
# Youngs Moduli (GPa) = 117.21280 52.00824 37.47084
#
# Poissons Ratio (x) = 0.25692 0.06535
# Poissons Ratio (y) = 0.57903 0.21190
# Poissons Ratio (z) = 0.20442 0.29410
#
# Static dielectric constant tensor:
#      x y z
#    x 1.737570 0.000000 0.000000 
#    y 0.000000 1.700840 0.000000 
#    z 0.000000 0.000000 1.681650 
# 
# From -- ./inp_files/15224.got.cif
#   From: 2010.05.17/outbox.cif.g08.bks.cpg/sg40_8_cif.got.tgz:15224.got - 2010.06.03 18:35:42.
