data_PCOD9363853
_publ_section_title
;
Structure prediction by ZEFSAII (Michael W. Deem and Ramdas Pophale) SiO2 
 PCOD9363853
Probable space group: A M A 2
;
_chemical_formula_sum "Si O2"
_cell_formula_units_Z 64
_cell_length_a 8.867933
_cell_length_b 25.248274
_cell_length_c 15.312132
_cell_angle_alpha 90.000000
_cell_angle_beta 90.000000
_cell_angle_gamma 90.000000
_cell_volume 3428.386388
_symmetry_space_group_name_H-M "A M A 2"
_symmetry_group_IT_number 40
_symmetry_cell_setting 'orthorhombic'
loop_
_space_group_symop_operation_xyz
x,y,z
-x,-y,z
1/2-x,y,z
1/2+x,-y,z
x,1/2+y,1/2+z
-x,1/2-y,1/2+z
1/2-x,1/2+y,1/2+z
1/2+x,1/2-y,1/2+z
loop_
_atom_site_type_symbol
_atom_site_label
_atom_site_fract_x
_atom_site_fract_y
_atom_site_fract_z
Si Si1 0.070466 0.839260 0.102940
Si Si2 0.430585 0.767752 0.387178
Si Si3 0.069998 0.389797 0.110119
Si Si4 0.929879 0.556776 0.292289
Si Si5 0.429790 0.717492 0.078167
Si Si6 0.069772 0.638383 0.780055
Si Si7 0.569764 0.853055 0.912894
Si Si8 0.568994 0.941539 0.436613
O O1 0.250000 0.846603 0.098195
O O2 0.041731 0.776078 0.115433
O O3 0.001252 0.869705 0.184972
O O4 0.995971 0.854259 0.010891
O O5 0.250000 0.774614 0.387726
O O6 0.498706 0.782610 0.481483
O O7 0.504148 0.806860 0.317998
O O8 0.464071 0.705572 0.374673
O O9 0.250000 0.386776 0.098972
O O10 0.035527 0.427092 0.192281
O O11 0.004249 0.331368 0.127923
O O12 0.995929 0.412475 0.022213
O O13 0.750000 0.555167 0.301997
O O14 0.000000 0.500000 0.312352
O O15 0.997392 0.601662 0.354492
O O16 0.250000 0.709788 0.072587
O O17 0.250000 0.641618 0.773603
O O18 0.031497 0.593167 0.850906
O O19 0.750000 0.858647 0.915942
O O20 0.750000 0.944431 0.443906
O O21 0.500000 0.000000 0.430962
#
# Coordination Sequence:
#
# PCOD9363853 Si02
#       8
#     8   8   8   8   8   8   8   8
#     4  10  22  39  61  89 124 163 203 253 308 364
#     4  10  20  35  58  88 121 159 200 243 300 362
#     4  11  23  38  60  90 123 162 203 248 301 364
#     4  11  25  43  63  90 120 159 207 257 309 364
#     4  10  20  35  56  86 123 161 200 244 298 359
#     4  11  23  38  59  89 124 162 205 253 305 361
#     4  10  22  41  64  90 121 159 203 255 308 365
#     4  11  24  41  62  88 121 163 205 253 305 360
#
# _framework density 18.667674999999999
#
# number of rings (size 3 to 8) (size 9 to 14) (size 15 to 20)
#    0.000    1.500    1.250    3.375    1.750    7.500 
#    0.000    0.625    0.000    1.500    0.000    0.000 
#    0.000    0.000    0.000    0.000    0.000    0.000 
#
# Total GULP energy -178896.875468 kJ/mol
# GULP energy per Si atom -5590.527358 kJ/mol
# Density = 1.862519 g / cm^3
# Si number density = 18.667675 Si / 1000 Ang^3
#
#
#
# Elastic Constant Matrix: (Units=GPa)
#
#
# Indices 1 2 3 4 5 6 
#
# 1 66.9925 55.8265 48.2259 0.0000 0.0000 0.0000
# 2 55.8265 111.5121 56.4470 0.0000 0.0000 0.0000
# 3 48.2259 56.4470 86.2711 0.0000 0.0000 0.0000
# 4 0.0000 0.0000 0.0000 -192.5962 0.0000 0.0000
# 5 0.0000 0.0000 0.0000 0.0000 28.4695 0.0000
# 6 0.0000 0.0000 0.0000 0.0000 0.0000 24.9484
#
#
#
# Elastic Compliance Matrix: (Units=1/GPa)
#
#
# Indices 1 2 3 4 5 6 
#
# 1 0.031119 -0.010128 -0.010769 0.000000 0.000000 0.000000
# 2 -0.010128 0.016705 -0.005268 0.000000 0.000000 0.000000
# 3 -0.010769 -0.005268 0.021058 0.000000 0.000000 0.000000
# 4 0.000000 0.000000 0.000000 -0.005192 0.000000 0.000000
# 5 0.000000 0.000000 0.000000 0.000000 0.035125 0.000000
# 6 0.000000 0.000000 0.000000 0.000000 0.000000 0.040083
#
#
# Mechanical properties :
#
#
# Convention : Reuss Voigt Hill
#
# Bulk Modulus (GPa) = 60.41688 65.08605 62.75146
# Shear Modulus (GPa) = 25.41341 -20.88390 2.26475
#
# Velocity S-wave (km/s) = 3.69366 -3.34836 1.10265
# Velocity P-wave (km/s) = 7.11516 4.47132 5.94215
#
# Compressibility (1/GPa) = 0.01655167
#
# Stress axis : x y z
#
# Youngs Moduli (GPa) = 32.13433 59.86271 47.48714
#
# Poissons Ratio (x) = 0.60630 0.51139
# Poissons Ratio (y) = 0.32546 0.25018
# Poissons Ratio (z) = 0.34606 0.31538
#
# Static dielectric constant tensor:
#      x y z
#    x 1.617160 0.000000 0.000000 
#    y 0.000000 1.695520 0.000000 
#    z 0.000000 0.000000 1.643660 
# 
# From -- ./inp_files/15677.got.cif
#   From: 2010.05.17/outbox.cif.g08.bks.cpg/sg40_8_cif.got.tgz:15677.got - 2010.06.03 18:35:42.
