data_PCOD9363715
_publ_section_title
;
Structure prediction by ZEFSAII (Michael W. Deem and Ramdas Pophale) SiO2 
 PCOD9363715
Probable space group: A M A 2
;
_chemical_formula_sum "Si O2"
_cell_formula_units_Z 56
_cell_length_a 9.245396
_cell_length_b 21.175417
_cell_length_c 14.759314
_cell_angle_alpha 90.000000
_cell_angle_beta 90.000000
_cell_angle_gamma 90.000000
_cell_volume 2889.506405
_symmetry_space_group_name_H-M "A M A 2"
_symmetry_group_IT_number 40
_symmetry_cell_setting 'orthorhombic'
loop_
_space_group_symop_operation_xyz
x,y,z
-x,-y,z
1/2-x,y,z
1/2+x,-y,z
x,1/2+y,1/2+z
-x,1/2-y,1/2+z
1/2-x,1/2+y,1/2+z
1/2+x,1/2-y,1/2+z
loop_
_atom_site_type_symbol
_atom_site_label
_atom_site_fract_x
_atom_site_fract_y
_atom_site_fract_z
Si Si1 0.921402 0.140571 0.523850
Si Si2 0.584297 0.734143 0.487981
Si Si3 0.422065 0.693029 0.307583
Si Si4 0.591401 0.942123 0.200773
Si Si5 0.588849 0.942510 0.412918
Si Si6 0.424470 0.068075 0.688990
Si Si7 0.412766 0.816287 0.184851
O O1 0.750000 0.134956 0.531739
O O2 0.978816 0.211141 0.523875
O O3 0.983837 0.115889 0.428425
O O4 0.003334 0.099049 0.599459
O O5 0.750000 0.757066 0.470673
O O6 0.516871 0.704883 0.397158
O O7 0.592351 0.690542 0.576237
O O8 0.250000 0.696835 0.328592
O O9 0.448319 0.623957 0.263427
O O10 0.451548 0.750187 0.235398
O O11 0.750000 0.939598 0.158869
O O12 0.606467 0.956132 0.307609
O O13 0.517897 0.874204 0.200741
O O14 0.500000 0.000000 0.160777
O O15 0.750000 0.933870 0.451108
O O16 0.500000 0.000000 0.455598
O O17 0.250000 0.060288 0.679271
O O18 0.500000 0.000000 0.707157
O O19 0.250000 0.832131 0.216757
#
# Coordination Sequence:
#
# PCOD9363715 Si02
#       7
#     8   8   8   8   8   8   8
#     4  12  23  36  57  87 120 159 205 253 311 375
#     4  11  23  40  62  90 122 158 204 258 315 373
#     4  10  22  42  65  91 126 167 211 260 317 381
#     4  10  21  36  57  85 116 155 199 246 301 365
#     4  10  20  34  52  79 115 153 192 239 296 359
#     4  11  23  42  64  90 127 169 215 267 326 384
#     4  10  21  40  62  86 121 160 198 250 311 367
#
# _framework density 19.380472000000001
#
# number of rings (size 3 to 8) (size 9 to 14) (size 15 to 20)
#    0.000    1.429    1.429    4.286    0.000    6.857 
#    0.000    0.714    0.000    1.714    0.000    0.000 
#    0.000    0.000    0.000    0.000    0.000    0.000 
#
# Total GULP energy -156073.110426 kJ/mol
# GULP energy per Si atom -5574.039658 kJ/mol
# Density = 1.933636 g / cm^3
# Si number density = 19.380472 Si / 1000 Ang^3
#
#
#
# Elastic Constant Matrix: (Units=GPa)
#
#
# Indices 1 2 3 4 5 6 
#
# 1 167.6239 80.7466 44.6601 0.0000 0.0000 0.0000
# 2 80.7466 116.4166 22.7903 0.0000 0.0000 0.0000
# 3 44.6601 22.7903 72.2805 0.0000 0.0000 0.0000
# 4 0.0000 0.0000 0.0000 2.2028 0.0000 0.0000
# 5 0.0000 0.0000 0.0000 0.0000 44.2287 0.0000
# 6 0.0000 0.0000 0.0000 0.0000 0.0000 26.9951
#
#
#
# Elastic Compliance Matrix: (Units=1/GPa)
#
#
# Indices 1 2 3 4 5 6 
#
# 1 0.010066 -0.006144 -0.004283 0.000000 0.000000 0.000000
# 2 -0.006144 0.012904 -0.000273 0.000000 0.000000 0.000000
# 3 -0.004283 -0.000273 0.016567 0.000000 0.000000 0.000000
# 4 0.000000 0.000000 0.000000 0.453967 0.000000 0.000000
# 5 0.000000 0.000000 0.000000 0.000000 0.022610 0.000000
# 6 0.000000 0.000000 0.000000 0.000000 0.000000 0.037044
#
#
# Mechanical properties :
#
#
# Convention : Reuss Voigt Hill
#
# Bulk Modulus (GPa) = 55.12749 72.52390 63.82570
# Shear Modulus (GPa) = 8.61174 28.56026 18.58600
#
# Velocity S-wave (km/s) = 2.11025 3.84299 3.10014
# Velocity P-wave (km/s) = 5.86891 7.56266 6.76897
#
# Compressibility (1/GPa) = 0.01813977
#
# Stress axis : x y z
#
# Youngs Moduli (GPa) = 99.34299 77.49291 60.36066
#
# Poissons Ratio (x) = 0.47608 0.25850
# Poissons Ratio (y) = 0.61031 0.01647
# Poissons Ratio (z) = 0.42544 0.02115
#
# Static dielectric constant tensor:
#      x y z
#    x 1.696830 0.000000 0.000000 
#    y 0.000000 1.874640 0.000000 
#    z 0.000000 0.000000 1.706940 
# 
# From -- ./inp_files/15265.got.cif
#   From: 2010.05.17/outbox.cif.g08.bks.cpg/sg40_8_cif.got.tgz:15265.got - 2010.06.03 18:35:42.
