data_PCOD9363318
_publ_section_title
;
Structure prediction by ZEFSAII (Michael W. Deem and Ramdas Pophale) SiO2 
 PCOD9363318
Probable space group: A M A 2
;
_chemical_formula_sum "Si O2"
_cell_formula_units_Z 48
_cell_length_a 8.089736
_cell_length_b 23.040972
_cell_length_c 11.979298
_cell_angle_alpha 90.000000
_cell_angle_beta 90.000000
_cell_angle_gamma 90.000000
_cell_volume 2232.885811
_symmetry_space_group_name_H-M "A M A 2"
_symmetry_group_IT_number 40
_symmetry_cell_setting 'orthorhombic'
loop_
_space_group_symop_operation_xyz
x,y,z
-x,-y,z
1/2-x,y,z
1/2+x,-y,z
x,1/2+y,1/2+z
-x,1/2-y,1/2+z
1/2-x,1/2+y,1/2+z
1/2+x,1/2-y,1/2+z
loop_
_atom_site_type_symbol
_atom_site_label
_atom_site_fract_x
_atom_site_fract_y
_atom_site_fract_z
Si Si1 0.443631 0.565790 0.272010
Si Si2 0.052947 0.846693 0.322779
Si Si3 0.053679 0.257826 0.633188
Si Si4 0.943381 0.134342 0.569659
Si Si5 0.055429 0.434499 0.632879
Si Si6 0.438892 0.652675 0.454192
O O1 0.500000 0.500000 0.295302
O O2 0.250000 0.566636 0.296113
O O3 0.475636 0.584839 0.145113
O O4 0.515508 0.618237 0.348805
O O5 0.250000 0.835403 0.335355
O O6 0.993032 0.796342 0.238563
O O7 0.983725 0.854988 0.446063
O O8 0.033892 0.905829 0.253647
O O9 0.250000 0.249215 0.644949
O O10 0.966240 0.196372 0.628573
O O11 0.023235 0.293517 0.517956
O O12 0.750000 0.119935 0.560069
O O13 0.250000 0.427877 0.603034
O O14 0.000000 0.500000 0.630208
O O15 0.947512 0.397370 0.547703
O O16 0.250000 0.670562 0.428998
#
# Coordination Sequence:
#
# PCOD9363318 Si02
#       6
#     8   8   8   8   8   8
#     4  11  25  43  62  88 124 165 208 256 307 364
#     4   8  19  38  57  80 115 153 191 241 294 351
#     4  10  21  39  62  90 122 155 197 249 307 362
#     4  11  23  40  62  88 119 160 203 246 302 365
#     4  10  19  34  57  85 116 152 192 242 297 350
#     4  10  21  38  61  89 120 157 200 250 302 356
#
# _framework density 21.496845
#
# number of rings (size 3 to 8) (size 9 to 14) (size 15 to 20)
#    0.000    2.000    0.000    4.000    2.333    4.667 
#    0.000   10.833    0.000    0.000    0.000    0.000 
#    0.000    0.000    0.000    0.000    0.000    0.000 
#
# Total GULP energy -133967.294862 kJ/mol
# GULP energy per Si atom -5581.970619 kJ/mol
# Density = 2.144792 g / cm^3
# Si number density = 21.496845 Si / 1000 Ang^3
#
#
#
# Elastic Constant Matrix: (Units=GPa)
#
#
# Indices 1 2 3 4 5 6 
#
# 1 27.1181 -3.0428 2.4017 0.0000 0.0000 0.0000
# 2 -3.0428 51.8282 6.4365 0.0000 0.0000 0.0000
# 3 2.4017 6.4365 96.6934 0.0000 0.0000 0.0000
# 4 0.0000 0.0000 0.0000 11.3637 0.0000 0.0000
# 5 0.0000 0.0000 0.0000 0.0000 731.7706 0.0000
# 6 0.0000 0.0000 0.0000 0.0000 0.0000-2151.3828
#
#
#
# Elastic Compliance Matrix: (Units=1/GPa)
#
#
# Indices 1 2 3 4 5 6 
#
# 1 0.037232 0.002320 -0.001079 0.000000 0.000000 0.000000
# 2 0.002320 0.019600 -0.001362 0.000000 0.000000 0.000000
# 3 -0.001079 -0.001362 0.010459 0.000000 0.000000 0.000000
# 4 0.000000 0.000000 0.000000 0.088000 0.000000 0.000000
# 5 0.000000 0.000000 0.000000 0.000000 0.001367 0.000000
# 6 0.000000 0.000000 0.000000 0.000000 0.000000 -0.000465
#
#
# Mechanical properties :
#
#
# Convention : Reuss Voigt Hill
#
# Bulk Modulus (GPa) = 14.91477 20.80339 17.85908
# Shear Modulus (GPa) = 27.96661 -270.32674 -121.18007
#
# Velocity S-wave (km/s) = 3.61080 -11.22608 -7.51621
# Velocity P-wave (km/s) = 4.93326 12.58311 8.18528
#
# Compressibility (1/GPa) = 0.06704765
#
# Stress axis : x y z
#
# Youngs Moduli (GPa) = 26.85891 51.02072 95.60730
#
# Poissons Ratio (x) = -0.11836 0.10318
# Poissons Ratio (y) = -0.06231 0.13025
# Poissons Ratio (z) = 0.02899 0.06951
#
# Static dielectric constant tensor:
#      x y z
#    x 1.256760 0.000000 0.000000 
#    y 0.000000 1.750280 0.000000 
#    z 0.000000 0.000000 1.827940 
# 
# From -- ./inp_files/10243.got.cif
#   From: 2010.05.17/outbox.cif.g08.bks.cpg/sg40_6_cif.got.tgz:10243.got - 2010.06.03 18:35:42.
