data_PCOD9363829
_publ_section_title
;
Structure prediction by ZEFSAII (Michael W. Deem and Ramdas Pophale) SiO2 
 PCOD9363829
Probable space group: A M A 2
;
_chemical_formula_sum "Si O2"
_cell_formula_units_Z 64
_cell_length_a 8.690839
_cell_length_b 34.667769
_cell_length_c 12.148381
_cell_angle_alpha 90.000000
_cell_angle_beta 90.000000
_cell_angle_gamma 90.000000
_cell_volume 3660.209995
_symmetry_space_group_name_H-M "A M A 2"
_symmetry_group_IT_number 40
_symmetry_cell_setting 'orthorhombic'
loop_
_space_group_symop_operation_xyz
x,y,z
-x,-y,z
1/2-x,y,z
1/2+x,-y,z
x,1/2+y,1/2+z
-x,1/2-y,1/2+z
1/2-x,1/2+y,1/2+z
1/2+x,1/2-y,1/2+z
loop_
_atom_site_type_symbol
_atom_site_label
_atom_site_fract_x
_atom_site_fract_y
_atom_site_fract_z
Si Si1 0.433883 0.042180 0.979520
Si Si2 0.064932 0.335671 0.328696
Si Si3 0.935142 0.683920 0.734882
Si Si4 0.936006 0.176154 0.486813
Si Si5 0.931749 0.540326 0.234858
Si Si6 0.935579 0.122439 0.057583
Si Si7 0.431166 0.112549 0.635168
Si Si8 0.934029 0.234393 0.681610
O O1 0.250000 0.040313 0.981413
O O2 0.491606 0.048330 0.853865
O O3 0.500000 0.000000 0.013951
O O4 0.491869 0.080029 0.044412
O O5 0.250000 0.340532 0.312029
O O6 0.029211 0.350640 0.450745
O O7 0.027857 0.292120 0.288975
O O8 0.976401 0.362551 0.242727
O O9 0.750000 0.683402 0.732945
O O10 0.984580 0.683347 0.862030
O O11 0.986391 0.646997 0.663772
O O12 0.989938 0.724095 0.683963
O O13 0.750000 0.172707 0.491258
O O14 0.978620 0.209827 0.573347
O O15 0.011386 0.137435 0.532849
O O16 0.750000 0.538182 0.251335
O O17 0.000000 0.500000 0.196538
O O18 0.977126 0.573262 0.150386
O O19 0.750000 0.117768 0.059856
O O20 0.250000 0.105801 0.632006
O O21 0.750000 0.238954 0.680026
#
# Coordination Sequence:
#
# PCOD9363829 Si02
#       8
#     8   8   8   8   8   8   8   8
#     4  11  21  34  54  82 114 148 184 225 278 335
#     4   9  18  33  52  74 107 146 178 218 275 327
#     4  10  22  37  56  80 106 144 190 232 276 329
#     4   9  20  39  55  73 105 145 183 223 275 327
#     4  11  20  32  51  79 114 146 175 216 268 323
#     4  10  20  35  55  80 111 148 187 229 279 332
#     4  11  20  32  53  80 105 138 180 221 267 322
#     4   9  19  34  53  76 106 145 181 226 281 325
#
# _framework density 17.485336
#
# number of rings (size 3 to 8) (size 9 to 14) (size 15 to 20)
#    0.000    2.000    1.250    4.875    1.750    3.000 
#    0.000    0.000    0.000    0.750    0.000    3.500 
#    0.000    0.000    0.000    0.000    0.000    0.000 
#
# Total GULP energy -178540.020910 kJ/mol
# GULP energy per Si atom -5579.375653 kJ/mol
# Density = 1.744554 g / cm^3
# Si number density = 17.485336 Si / 1000 Ang^3
#
#
#
# Elastic Constant Matrix: (Units=GPa)
#
#
# Indices 1 2 3 4 5 6 
#
# 1 56.1772 41.4481 28.5624 0.0000 0.0000 0.0000
# 2 41.4481 148.4784 57.7888 0.0000 0.0000 0.0000
# 3 28.5624 57.7888 86.7317 0.0000 0.0000 0.0000
# 4 0.0000 0.0000 0.0000 23.4596 0.0000 0.0000
# 5 0.0000 0.0000 0.0000 0.0000 15.6966 0.0000
# 6 0.0000 0.0000 0.0000 0.0000 0.0000 33.3729
#
#
#
# Elastic Compliance Matrix: (Units=1/GPa)
#
#
# Indices 1 2 3 4 5 6 
#
# 1 0.023696 -0.004830 -0.004585 0.000000 0.000000 0.000000
# 2 -0.004830 0.010078 -0.005124 0.000000 0.000000 0.000000
# 3 -0.004585 -0.005124 0.016454 0.000000 0.000000 0.000000
# 4 0.000000 0.000000 0.000000 0.042626 0.000000 0.000000
# 5 0.000000 0.000000 0.000000 0.000000 0.063708 0.000000
# 6 0.000000 0.000000 0.000000 0.000000 0.000000 0.029964
#
#
# Mechanical properties :
#
#
# Convention : Reuss Voigt Hill
#
# Bulk Modulus (GPa) = 47.28433 60.77622 54.03028
# Shear Modulus (GPa) = 22.45632 25.41169 23.93400
#
# Velocity S-wave (km/s) = 3.58759 3.81637 3.70375
# Velocity P-wave (km/s) = 6.65298 7.36569 7.01839
#
# Compressibility (1/GPa) = 0.02114865
#
# Stress axis : x y z
#
# Youngs Moduli (GPa) = 42.20156 99.22961 60.77587
#
# Poissons Ratio (x) = 0.47930 0.27867
# Poissons Ratio (y) = 0.20384 0.31142
# Poissons Ratio (z) = 0.19350 0.50845
#
# Static dielectric constant tensor:
#      x y z
#    x 1.584330 0.000000 0.000000 
#    y 0.000000 1.589400 0.000000 
#    z 0.000000 0.000000 1.590830 
# 
# From -- ./inp_files/10587.got.cif
#   From: 2010.05.17/outbox.cif.g08.bks.cpg/sg40_6_cif.got.tgz:10587.got - 2010.06.03 18:35:42.
