data_PCOD9363933
_publ_section_title
;
Structure prediction by ZEFSAII (Michael W. Deem and Ramdas Pophale) SiO2 
 PCOD9363933
Probable space group: A M A 2
;
_chemical_formula_sum "Si O2"
_cell_formula_units_Z 48
_cell_length_a 8.824333
_cell_length_b 31.048413
_cell_length_c 10.078081
_cell_angle_alpha 90.000000
_cell_angle_beta 90.000000
_cell_angle_gamma 90.000000
_cell_volume 2761.208107
_symmetry_space_group_name_H-M "A M A 2"
_symmetry_group_IT_number 40
_symmetry_cell_setting 'orthorhombic'
loop_
_space_group_symop_operation_xyz
x,y,z
-x,-y,z
1/2-x,y,z
1/2+x,-y,z
x,1/2+y,1/2+z
-x,1/2-y,1/2+z
1/2-x,1/2+y,1/2+z
1/2+x,1/2-y,1/2+z
loop_
_atom_site_type_symbol
_atom_site_label
_atom_site_fract_x
_atom_site_fract_y
_atom_site_fract_z
Si Si1 0.432150 0.620289 0.950670
Si Si2 0.568907 0.716520 0.649185
Si Si3 0.432111 0.046208 0.655386
Si Si4 0.068275 0.382966 0.659369
Si Si5 0.930683 0.212933 0.457779
Si Si6 0.067981 0.046665 0.963206
O O1 0.250000 0.620550 0.941678
O O2 0.501958 0.610356 0.806595
O O3 0.489858 0.667642 0.990576
O O4 0.479402 0.584316 0.057259
O O5 0.750000 0.722091 0.633512
O O6 0.532147 0.666507 0.620301
O O7 0.484075 0.749523 0.554658
O O8 0.531334 0.723690 0.804353
O O9 0.250000 0.043159 0.650191
O O10 0.473886 0.054957 0.808887
O O11 0.500000 0.000000 0.617300
O O12 0.250000 0.386964 0.663860
O O13 0.998406 0.416758 0.557602
O O14 0.750000 0.207018 0.464484
O O15 0.250000 0.045478 0.973411
O O16 0.000000 0.000000 0.998741
#
# Coordination Sequence:
#
# PCOD9363933 Si02
#       6
#     8   8   8   8   8   8
#     4  10  20  36  56  79 108 141 176 217 266 316
#     4   9  20  37  54  76 107 139 174 217 262 312
#     4   9  20  36  55  79 106 137 175 217 262 314
#     4  10  21  37  55  79 109 141 179 220 262 314
#     4  10  21  36  55  80 107 138 178 220 263 314
#     4  10  20  36  56  79 107 140 177 219 267 316
#
# _framework density 17.383693999999998
#
# number of rings (size 3 to 8) (size 9 to 14) (size 15 to 20)
#    0.000    2.333    0.000    3.000    0.000    8.000 
#    0.000    6.667    0.000    0.000    0.000    0.000 
#    0.000    0.000    0.000    0.000    0.000    0.000 
#
# Total GULP energy -133960.555026 kJ/mol
# GULP energy per Si atom -5581.689793 kJ/mol
# Density = 1.734413 g / cm^3
# Si number density = 17.383694 Si / 1000 Ang^3
#
#
#
# Elastic Constant Matrix: (Units=GPa)
#
#
# Indices 1 2 3 4 5 6 
#
# 1 58.7354 67.3745 52.8810 0.0000 0.0000 0.0000
# 2 67.3745 164.1118 119.3662 0.0000 0.0000 0.0000
# 3 52.8810 119.3662 103.0989 0.0000 0.0000 0.0000
# 4 0.0000 0.0000 0.0000 42.1469 0.0000 0.0000
# 5 0.0000 0.0000 0.0000 0.0000 27.4902 0.0000
# 6 0.0000 0.0000 0.0000 0.0000 0.0000 35.4108
#
#
#
# Elastic Compliance Matrix: (Units=1/GPa)
#
#
# Indices 1 2 3 4 5 6 
#
# 1 0.033165 -0.007871 -0.007898 0.000000 0.000000 0.000000
# 2 -0.007871 0.040461 -0.042808 0.000000 0.000000 0.000000
# 3 -0.007898 -0.042808 0.063312 0.000000 0.000000 0.000000
# 4 0.000000 0.000000 0.000000 0.023727 0.000000 0.000000
# 5 0.000000 0.000000 0.000000 0.000000 0.036377 0.000000
# 6 0.000000 0.000000 0.000000 0.000000 0.000000 0.028240
#
#
# Mechanical properties :
#
#
# Convention : Reuss Voigt Hill
#
# Bulk Modulus (GPa) = 50.54328 89.46548 70.00438
# Shear Modulus (GPa) = 14.32546 26.76454 20.54500
#
# Velocity S-wave (km/s) = 2.87378 3.92807 3.44154
# Velocity P-wave (km/s) = 6.33638 8.49411 7.49332
#
# Compressibility (1/GPa) = 0.01978502
#
# Stress axis : x y z
#
# Youngs Moduli (GPa) = 30.15236 24.71525 15.79476
#
# Poissons Ratio (x) = 0.19454 0.12474
# Poissons Ratio (y) = 0.23734 0.67614
# Poissons Ratio (z) = 0.23813 1.05800
#
# Static dielectric constant tensor:
#      x y z
#    x 1.583720 0.000000 0.000000 
#    y 0.000000 1.562740 0.000000 
#    z 0.000000 0.000000 1.573000 
# 
# From -- ./inp_files/4576.got.cif
#   From: 2010.05.17/outbox.cif.g08.bks.cpg/sg40_3_cif.got.tgz:4576.got - 2010.06.03 18:35:42.
