data_PCOD9363525
_publ_section_title
;
Structure prediction by ZEFSAII (Michael W. Deem and Ramdas Pophale) SiO2 
 PCOD9363525
Probable space group: A M A 2
;
_chemical_formula_sum "Si O2"
_cell_formula_units_Z 56
_cell_length_a 8.807656
_cell_length_b 15.361804
_cell_length_c 19.655182
_cell_angle_alpha 90.000000
_cell_angle_beta 90.000000
_cell_angle_gamma 90.000000
_cell_volume 2659.375316
_symmetry_space_group_name_H-M "A M A 2"
_symmetry_group_IT_number 40
_symmetry_cell_setting 'orthorhombic'
loop_
_space_group_symop_operation_xyz
x,y,z
-x,-y,z
1/2-x,y,z
1/2+x,-y,z
x,1/2+y,1/2+z
-x,1/2-y,1/2+z
1/2-x,1/2+y,1/2+z
1/2+x,1/2-y,1/2+z
loop_
_atom_site_type_symbol
_atom_site_label
_atom_site_fract_x
_atom_site_fract_y
_atom_site_fract_z
Si Si1 0.576181 0.586292 0.094320
Si Si2 0.432985 0.095577 0.828676
Si Si3 0.915603 0.883040 0.465495
Si Si4 0.931994 0.283221 0.606064
Si Si5 0.571379 0.736827 0.743991
Si Si6 0.422591 0.585830 0.811454
Si Si7 0.926213 0.674827 0.465845
O O1 0.500000 0.500000 0.123344
O O2 0.750000 0.586352 0.114098
O O3 0.510836 0.681985 0.108600
O O4 0.551328 0.585091 0.012864
O O5 0.250000 0.092489 0.828944
O O6 0.480050 0.168497 0.772287
O O7 0.490225 0.127820 0.903212
O O8 0.500000 0.000000 0.814809
O O9 0.750000 0.897861 0.500418
O O10 0.910132 0.924995 0.392333
O O11 0.930141 0.779162 0.454650
O O12 0.750000 0.283251 0.599651
O O13 0.986709 0.308677 0.680512
O O14 0.000839 0.333095 0.541284
O O15 0.750000 0.741713 0.730030
O O16 0.531094 0.668381 0.802394
O O17 0.500000 0.500000 0.781322
O O18 0.250000 0.600802 0.786474
O O19 0.750000 0.647314 0.466722
#
# Coordination Sequence:
#
# PCOD9363525 Si02
#       7
#     8   8   8   8   8   8   8
#     4  10  20  32  50  78 113 151 192 239 291 353
#     4  11  24  41  65  96 130 170 219 271 325 385
#     4   9  18  32  54  83 115 151 187 232 289 347
#     4  10  22  39  60  85 118 163 207 255 317 379
#     4  11  24  42  63  90 124 165 211 263 318 380
#     4  11  22  37  58  87 120 156 196 243 301 363
#     4  10  19  37  63  91 122 158 204 255 309 369
#
# _framework density 21.057577999999999
#
# number of rings (size 3 to 8) (size 9 to 14) (size 15 to 20)
#    0.000    1.714    1.429    3.000    0.000    6.857 
#    0.000    3.571    0.000    0.000    0.000    0.000 
#    0.000    0.000    0.000    0.000    0.000    0.000 
#
# Total GULP energy -156131.947956 kJ/mol
# GULP energy per Si atom -5576.140998 kJ/mol
# Density = 2.100965 g / cm^3
# Si number density = 21.057578 Si / 1000 Ang^3
#
#
#
# Elastic Constant Matrix: (Units=GPa)
#
#
# Indices 1 2 3 4 5 6 
#
# 1 60.9700 9.6407 15.6001 0.0000 0.0000 0.0000
# 2 9.6407 60.9915 -13.8446 0.0000 0.0000 0.0000
# 3 15.6001 -13.8446 73.4700 0.0000 0.0000 0.0000
# 4 0.0000 0.0000 0.0000 7.4399 0.0000 0.0000
# 5 0.0000 0.0000 0.0000 0.0000 21.8987 0.0000
# 6 0.0000 0.0000 0.0000 0.0000 0.0000 31.1207
#
#
#
# Elastic Compliance Matrix: (Units=1/GPa)
#
#
# Indices 1 2 3 4 5 6 
#
# 1 0.018199 -0.003922 -0.004603 0.000000 0.000000 0.000000
# 2 -0.003922 0.017973 0.004220 0.000000 0.000000 0.000000
# 3 -0.004603 0.004220 0.015384 0.000000 0.000000 0.000000
# 4 0.000000 0.000000 0.000000 0.134411 0.000000 0.000000
# 5 0.000000 0.000000 0.000000 0.000000 0.045665 0.000000
# 6 0.000000 0.000000 0.000000 0.000000 0.000000 0.032133
#
#
# Mechanical properties :
#
#
# Convention : Reuss Voigt Hill
#
# Bulk Modulus (GPa) = 23.28525 24.24711 23.76618
# Shear Modulus (GPa) = 17.44039 24.36088 20.90063
#
# Velocity S-wave (km/s) = 2.88101 3.40497 3.15389
# Velocity P-wave (km/s) = 4.70626 5.19597 4.95716
#
# Compressibility (1/GPa) = 0.04294564
#
# Stress axis : x y z
#
# Youngs Moduli (GPa) = 54.94672 55.63770 65.00436
#
# Poissons Ratio (x) = 0.21819 0.29924
# Poissons Ratio (y) = 0.21548 -0.27429
# Poissons Ratio (z) = 0.25294 -0.23477
#
# Static dielectric constant tensor:
#      x y z
#    x 1.774650 0.000000 0.000000 
#    y 0.000000 1.826700 0.000000 
#    z 0.000000 0.000000 1.815910 
# 
# From -- ./inp_files/22151.got.cif
#   From: 2010.05.17/outbox.cif.g08.bks.cpg/sg40_12_cif.got.tgz:22151.got - 2010.06.03 18:35:42.
