data_PCOD9363076
_publ_section_title
;
Structure prediction by ZEFSAII (Michael W. Deem and Ramdas Pophale) SiO2 
 PCOD9363076
Probable space group: A M A 2
;
_chemical_formula_sum "Si O2"
_cell_formula_units_Z 48
_cell_length_a 8.507286
_cell_length_b 23.490179
_cell_length_c 12.096711
_cell_angle_alpha 90.000000
_cell_angle_beta 90.000000
_cell_angle_gamma 90.000000
_cell_volume 2417.378552
_symmetry_space_group_name_H-M "A M A 2"
_symmetry_group_IT_number 40
_symmetry_cell_setting 'orthorhombic'
loop_
_space_group_symop_operation_xyz
x,y,z
-x,-y,z
1/2-x,y,z
1/2+x,-y,z
x,1/2+y,1/2+z
-x,1/2-y,1/2+z
1/2-x,1/2+y,1/2+z
1/2+x,1/2-y,1/2+z
loop_
_atom_site_type_symbol
_atom_site_label
_atom_site_fract_x
_atom_site_fract_y
_atom_site_fract_z
Si Si1 0.431313 0.841832 0.916060
Si Si2 0.934175 0.361137 0.052804
Si Si3 0.431120 0.438860 0.238540
Si Si4 0.442183 0.858637 0.163628
Si Si5 0.937447 0.563479 0.856716
Si Si6 0.561458 0.266764 0.221829
O O1 0.250000 0.823019 0.929567
O O2 0.433229 0.899871 0.846575
O O3 0.512362 0.796445 0.835811
O O4 0.497120 0.854214 0.037185
O O5 0.750000 0.353716 0.028965
O O6 0.995598 0.303850 0.115049
O O7 0.962326 0.408438 0.147184
O O8 0.015697 0.388298 0.946120
O O9 0.500000 0.500000 0.262095
O O10 0.250000 0.441627 0.198616
O O11 0.250000 0.861030 0.161890
O O12 0.494169 0.911623 0.238400
O O13 0.489443 0.798458 0.217366
O O14 0.750000 0.559515 0.855755
O O15 0.000000 0.500000 0.881315
O O16 0.750000 0.268344 0.215033
#
# Coordination Sequence:
#
# PCOD9363076 Si02
#       6
#     8   8   8   8   8   8
#     4   9  19  36  56  79 108 142 181 223 275 334
#     4  10  20  35  57  84 113 144 183 232 280 330
#     4  10  19  32  53  80 108 142 182 225 274 325
#     4   9  20  38  58  80 111 150 183 225 282 337
#     4  11  23  39  58  81 115 154 194 233 278 334
#     4   9  19  36  58  84 112 142 181 230 283 334
#
# _framework density 19.856221000000001
#
# number of rings (size 3 to 8) (size 9 to 14) (size 15 to 20)
#    0.000    2.333    0.000    2.000    2.333    2.000 
#    0.000    3.333    0.000    0.000    0.000    0.000 
#    0.000    0.000    0.000    0.000    0.000    0.000 
#
# Total GULP energy -133850.688037 kJ/mol
# GULP energy per Si atom -5577.112002 kJ/mol
# Density = 1.981103 g / cm^3
# Si number density = 19.856221 Si / 1000 Ang^3
#
#
#
# Elastic Constant Matrix: (Units=GPa)
#
#
# Indices 1 2 3 4 5 6 
#
# 1 16.4600 7.2976 -1.6776 0.0000 0.0000 0.0000
# 2 7.2976 52.0521 6.8451 0.0000 0.0000 0.0000
# 3 -1.6776 6.8451 86.2164 0.0000 0.0000 0.0000
# 4 0.0000 0.0000 0.0000 6.9904 0.0000 0.0000
# 5 0.0000 0.0000 0.0000 0.0000 17.9120 0.0000
# 6 0.0000 0.0000 0.0000 0.0000 0.0000 14.7837
#
#
#
# Elastic Compliance Matrix: (Units=1/GPa)
#
#
# Indices 1 2 3 4 5 6 
#
# 1 0.065124 -0.009395 0.002013 0.000000 0.000000 0.000000
# 2 -0.009395 0.020770 -0.001832 0.000000 0.000000 0.000000
# 3 0.002013 -0.001832 0.011783 0.000000 0.000000 0.000000
# 4 0.000000 0.000000 0.000000 0.143053 0.000000 0.000000
# 5 0.000000 0.000000 0.000000 0.000000 0.055828 0.000000
# 6 0.000000 0.000000 0.000000 0.000000 0.000000 0.067642
#
#
# Mechanical properties :
#
#
# Convention : Reuss Voigt Hill
#
# Bulk Modulus (GPa) = 12.61837 19.96207 16.29022
# Shear Modulus (GPa) = 12.22362 17.42146 14.82254
#
# Velocity S-wave (km/s) = 2.48383 2.96527 2.73517
# Velocity P-wave (km/s) = 3.82028 4.66893 4.26576
#
# Compressibility (1/GPa) = 0.07924955
#
# Stress axis : x y z
#
# Youngs Moduli (GPa) = 15.35532 48.14733 84.86566
#
# Poissons Ratio (x) = 0.45234 -0.17085
# Poissons Ratio (y) = 0.14426 0.15546
# Poissons Ratio (z) = -0.03091 0.08820
#
# Static dielectric constant tensor:
#      x y z
#    x 1.705280 0.000000 0.000000 
#    y 0.000000 1.696420 0.000000 
#    z 0.000000 0.000000 1.718380 
# 
# From -- ./inp_files/10234.got.cif
#   From: 2010.05.17/outbox.cif.g08.bks.cpg/sg40_6_cif.got.tgz:10234.got - 2010.06.03 18:35:42.
