data_PCOD9363192
_publ_section_title
;
Structure prediction by ZEFSAII (Michael W. Deem and Ramdas Pophale) SiO2 
 PCOD9363192
Probable space group: A M A 2
;
_chemical_formula_sum "Si O2"
_cell_formula_units_Z 56
_cell_length_a 8.677142
_cell_length_b 14.898834
_cell_length_c 22.267114
_cell_angle_alpha 90.000000
_cell_angle_beta 90.000000
_cell_angle_gamma 90.000000
_cell_volume 2878.676872
_symmetry_space_group_name_H-M "A M A 2"
_symmetry_group_IT_number 40
_symmetry_cell_setting 'orthorhombic'
loop_
_space_group_symop_operation_xyz
x,y,z
-x,-y,z
1/2-x,y,z
1/2+x,-y,z
x,1/2+y,1/2+z
-x,1/2-y,1/2+z
1/2-x,1/2+y,1/2+z
1/2+x,1/2-y,1/2+z
loop_
_atom_site_type_symbol
_atom_site_label
_atom_site_fract_x
_atom_site_fract_y
_atom_site_fract_z
Si Si1 0.933700 0.099889 0.416710
Si Si2 0.434588 0.096149 0.634396
Si Si3 0.434830 0.713316 0.807407
Si Si4 0.566214 0.596552 0.559801
Si Si5 0.935081 0.218538 0.531387
Si Si6 0.434965 0.595281 0.693655
Si Si7 0.564761 0.094382 0.769088
O O1 0.750000 0.093823 0.416645
O O2 0.980944 0.155348 0.475871
O O3 0.987947 0.154891 0.358741
O O4 0.000000 0.000000 0.416846
O O5 0.250000 0.094110 0.634733
O O6 0.496480 0.173793 0.591357
O O7 0.497622 0.106672 0.701969
O O8 0.500000 0.000000 0.612313
O O9 0.250000 0.707132 0.814448
O O10 0.471592 0.671128 0.742235
O O11 0.478484 0.817926 0.807047
O O12 0.500000 0.500000 0.540461
O O13 0.750000 0.594920 0.557630
O O14 0.499722 0.681313 0.524319
O O15 0.510721 0.609848 0.628833
O O16 0.750000 0.221453 0.535914
O O17 0.500000 0.500000 0.716508
O O18 0.250000 0.590006 0.686295
O O19 0.750000 0.089918 0.764742
O O20 0.500000 0.000000 0.792384
#
# Coordination Sequence:
#
# PCOD9363192 Si02
#       7
#     8   8   8   8   8   8   8
#     4  11  25  42  63  86 113 147 186 232 281 333
#     4  11  21  34  56  87 119 154 190 233 286 342
#     4  10  22  38  58  82 113 151 191 234 283 333
#     4  11  22  37  59  87 117 152 189 234 285 338
#     4  11  23  40  59  83 114 151 193 238 284 337
#     4  10  19  33  54  83 117 152 187 231 283 339
#     4  10  20  36  57  84 117 153 189 234 284 336
#
# _framework density 19.453379999999999
#
# number of rings (size 3 to 8) (size 9 to 14) (size 15 to 20)
#    0.000    1.429    0.000    7.714    0.000    8.000 
#    0.000    0.714    0.000    1.714    0.000    0.000 
#    0.000    0.000    0.000    0.000    0.000    0.000 
#
# Total GULP energy -156564.910345 kJ/mol
# GULP energy per Si atom -5591.603941 kJ/mol
# Density = 1.940910 g / cm^3
# Si number density = 19.453380 Si / 1000 Ang^3
#
#
#
# Elastic Constant Matrix: (Units=GPa)
#
#
# Indices 1 2 3 4 5 6 
#
# 1 92.3934 60.3971 25.6827 0.0000 0.0000 0.0000
# 2 60.3971 196.7543 58.8396 0.0000 0.0000 0.0000
# 3 25.6827 58.8396 42.7544 0.0000 0.0000 0.0000
# 4 0.0000 0.0000 0.0000 31.4118 0.0000 0.0000
# 5 0.0000 0.0000 0.0000 0.0000 -40.0225 0.0000
# 6 0.0000 0.0000 0.0000 0.0000 0.0000 24.6347
#
#
#
# Elastic Compliance Matrix: (Units=1/GPa)
#
#
# Indices 1 2 3 4 5 6 
#
# 1 0.013977 -0.003024 -0.004234 0.000000 0.000000 0.000000
# 2 -0.003024 0.009292 -0.010971 0.000000 0.000000 0.000000
# 3 -0.004234 -0.010971 0.041031 0.000000 0.000000 0.000000
# 4 0.000000 0.000000 0.000000 0.031835 0.000000 0.000000
# 5 0.000000 0.000000 0.000000 0.000000 -0.024986 0.000000
# 6 0.000000 0.000000 0.000000 0.000000 0.000000 0.040593
#
#
# Mechanical properties :
#
#
# Convention : Reuss Voigt Hill
#
# Bulk Modulus (GPa) = 35.91724 69.08231 52.49977
# Shear Modulus (GPa) = 31.74997 15.67031 23.71014
#
# Velocity S-wave (km/s) = 4.04432 2.84127 3.49495
# Velocity P-wave (km/s) = 6.34917 6.80827 6.58272
#
# Compressibility (1/GPa) = 0.02784179
#
# Stress axis : x y z
#
# Youngs Moduli (GPa) = 71.54502 107.62362 24.37195
#
# Poissons Ratio (x) = 0.32550 0.10319
# Poissons Ratio (y) = 0.21638 0.26738
# Poissons Ratio (z) = 0.30292 1.18070
#
# Static dielectric constant tensor:
#      x y z
#    x 1.651580 0.000000 0.000000 
#    y 0.000000 1.702430 0.000000 
#    z 0.000000 0.000000 1.656950 
# 
# From -- ./inp_files/22163.got.cif
#   From: 2010.05.17/outbox.cif.g08.bks.cpg/sg40_12_cif.got.tgz:22163.got - 2010.06.03 18:35:42.
