data_PCOD9363928
_publ_section_title
;
Structure prediction by ZEFSAII (Michael W. Deem and Ramdas Pophale) SiO2 
 PCOD9363928
Probable space group: A M A 2
;
_chemical_formula_sum "Si O2"
_cell_formula_units_Z 64
_cell_length_a 15.978951
_cell_length_b 8.850175
_cell_length_c 23.848932
_cell_angle_alpha 90.000000
_cell_angle_beta 90.000000
_cell_angle_gamma 90.000000
_cell_volume 3372.632794
_symmetry_space_group_name_H-M "A M A 2"
_symmetry_group_IT_number 40
_symmetry_cell_setting 'orthorhombic'
loop_
_space_group_symop_operation_xyz
x,y,z
-x,-y,z
1/2-x,y,z
1/2+x,-y,z
x,1/2+y,1/2+z
-x,1/2-y,1/2+z
1/2-x,1/2+y,1/2+z
1/2+x,1/2-y,1/2+z
loop_
_atom_site_type_symbol
_atom_site_label
_atom_site_fract_x
_atom_site_fract_y
_atom_site_fract_z
Si Si1 0.847102 0.849800 0.748780
Si Si2 0.655851 0.875359 0.532227
Si Si3 0.654840 0.713056 0.260943
Si Si4 0.012030 0.679879 0.953390
Si Si5 0.085940 0.778904 0.132970
Si Si6 0.843887 0.405903 0.648369
Si Si7 0.079692 0.803193 0.565395
Si Si8 0.506337 0.318235 0.332084
O O1 0.750000 0.800305 0.753992
O O2 0.885871 0.803360 0.689320
O O3 0.909351 0.785808 0.796587
O O4 0.847447 0.032317 0.751382
O O5 0.750000 0.913116 0.517223
O O6 0.604752 0.809745 0.479729
O O7 0.649985 0.757746 0.582846
O O8 0.610718 0.025773 0.556779
O O9 0.750000 0.749311 0.281130
O O10 0.642021 0.800777 0.202595
O O11 0.576822 0.745930 0.301519
O O12 0.000000 0.500000 0.946671
O O13 0.993764 0.758929 0.895209
O O14 0.953120 0.740321 0.003706
O O15 0.997939 0.718895 0.108411
O O16 0.092100 0.956459 0.144556
O O17 0.750000 0.468406 0.653632
O O18 0.851481 0.302738 0.593152
O O19 0.500000 0.500000 0.332751
#
# Coordination Sequence:
#
# PCOD9363928 Si02
#       8
#     8   8   8   8   8   8   8   8
#     4  10  20  36  55  78 110 150 191 232 280 343
#     4  10  20  37  59  83 110 146 188 231 280 346
#     4   9  20  36  55  79 109 145 186 227 280 351
#     4   9  21  38  55  77 105 138 182 228 275 331
#     4  11  21  34  54  84 117 144 179 230 285 335
#     4  11  21  33  52  84 115 141 179 230 282 334
#     4  10  21  37  56  77 109 152 186 218 275 348
#     4  10  21  37  57  78 105 144 189 236 284 336
#
# _framework density 18.976272000000002
#
# number of rings (size 3 to 8) (size 9 to 14) (size 15 to 20)
#    0.000    2.000    0.000    4.500    0.000    6.500 
#    0.000    3.125    0.000    1.500    0.000    0.000 
#    0.000    0.000    0.000    0.000    0.000    0.000 
#
# Total GULP energy -178500.081690 kJ/mol
# GULP energy per Si atom -5578.127553 kJ/mol
# Density = 1.893308 g / cm^3
# Si number density = 18.976272 Si / 1000 Ang^3
#
#
#
# Elastic Constant Matrix: (Units=GPa)
#
#
# Indices 1 2 3 4 5 6 
#
# 1 123.8607 25.2517 81.2627 0.0000 0.0000 0.0000
# 2 25.2517 18.3864 21.1101 0.0000 0.0000 0.0000
# 3 81.2627 21.1101 145.1431 0.0000 0.0000 0.0000
# 4 0.0000 0.0000 0.0000 34.2041 0.0000 0.0000
# 5 0.0000 0.0000 0.0000 0.0000 9.2523 0.0000
# 6 0.0000 0.0000 0.0000 0.0000 0.0000 20.0984
#
#
#
# Elastic Compliance Matrix: (Units=1/GPa)
#
#
# Indices 1 2 3 4 5 6 
#
# 1 0.015019 -0.013172 -0.006493 0.000000 0.000000 0.000000
# 2 -0.013172 0.076843 -0.003802 0.000000 0.000000 0.000000
# 3 -0.006493 -0.003802 0.011078 0.000000 0.000000 0.000000
# 4 0.000000 0.000000 0.000000 0.029236 0.000000 0.000000
# 5 0.000000 0.000000 0.000000 0.000000 0.108081 0.000000
# 6 0.000000 0.000000 0.000000 0.000000 0.000000 0.049755
#
#
# Mechanical properties :
#
#
# Convention : Reuss Voigt Hill
#
# Bulk Modulus (GPa) = 17.85493 60.29325 39.07409
# Shear Modulus (GPa) = 14.06016 23.36201 18.71109
#
# Velocity S-wave (km/s) = 2.72496 3.51253 3.14351
# Velocity P-wave (km/s) = 4.39660 6.94928 5.81475
#
# Compressibility (1/GPa) = 0.05600693
#
# Stress axis : x y z
#
# Youngs Moduli (GPa) = 66.58261 13.01349 90.26917
#
# Poissons Ratio (x) = 0.17141 0.58612
# Poissons Ratio (y) = 0.87703 0.34317
# Poissons Ratio (z) = 0.43232 0.04947
#
# Static dielectric constant tensor:
#      x y z
#    x 1.728510 0.000000 0.000000 
#    y 0.000000 1.662590 0.000000 
#    z 0.000000 0.000000 1.618470 
# 
# From -- ./inp_files/23387.got.cif
#   From: 2010.05.17/outbox.cif.g08.bks.cpg/sg40_12_cif.got.tgz:23387.got - 2010.06.03 18:35:42.
