data_PCOD9363244
_publ_section_title
;
Structure prediction by ZEFSAII (Michael W. Deem and Ramdas Pophale) SiO2 
 PCOD9363244
Probable space group: A M A 2
;
_chemical_formula_sum "Si O2"
_cell_formula_units_Z 64
_cell_length_a 8.811578
_cell_length_b 31.119699
_cell_length_c 14.642629
_cell_angle_alpha 90.000000
_cell_angle_beta 90.000000
_cell_angle_gamma 90.000000
_cell_volume 4015.208818
_symmetry_space_group_name_H-M "A M A 2"
_symmetry_group_IT_number 40
_symmetry_cell_setting 'orthorhombic'
loop_
_space_group_symop_operation_xyz
x,y,z
-x,-y,z
1/2-x,y,z
1/2+x,-y,z
x,1/2+y,1/2+z
-x,1/2-y,1/2+z
1/2-x,1/2+y,1/2+z
1/2+x,1/2-y,1/2+z
loop_
_atom_site_type_symbol
_atom_site_label
_atom_site_fract_x
_atom_site_fract_y
_atom_site_fract_z
Si Si1 0.431829 0.708047 0.368230
Si Si2 0.924752 0.823698 0.149048
Si Si3 0.928281 0.630963 0.481732
Si Si4 0.931605 0.953662 0.046851
Si Si5 0.431371 0.796030 0.476061
Si Si6 0.431370 0.730348 0.160384
Si Si7 0.427135 0.633550 0.848011
Si Si8 0.933139 0.953744 0.260330
O O1 0.250000 0.704687 0.378151
O O2 0.507196 0.666140 0.411659
O O3 0.477394 0.752067 0.421578
O O4 0.466356 0.712097 0.260792
O O5 0.750000 0.826892 0.116448
O O6 0.931498 0.843085 0.249776
O O7 0.979795 0.775060 0.151560
O O8 0.031360 0.849086 0.080304
O O9 0.750000 0.626194 0.469638
O O10 0.006831 0.584475 0.483873
O O11 0.750000 0.954889 0.042936
O O12 0.974746 0.945173 0.153792
O O13 0.000000 0.000000 0.023073
O O14 0.250000 0.794502 0.487506
O O15 0.513390 0.796808 0.573803
O O16 0.478809 0.837289 0.417032
O O17 0.250000 0.737458 0.155581
O O18 0.250000 0.632149 0.876921
O O19 0.481713 0.585236 0.825866
O O20 0.750000 0.955114 0.262974
O O21 0.000000 0.000000 0.285169
#
# Coordination Sequence:
#
# PCOD9363244 Si02
#       8
#     8   8   8   8   8   8   8   8
#     4  10  22  37  52  73 103 137 174 217 259 305
#     4  11  20  32  50  72 104 140 174 216 258 299
#     4  12  23  33  51  77 104 141 181 213 257 312
#     4  10  19  34  52  75 107 139 173 214 260 307
#     4  11  22  35  52  76 104 135 174 215 259 306
#     4  11  22  37  53  73 101 136 178 218 258 306
#     4  10  20  34  51  73 103 140 177 211 256 306
#     4   9  18  32  49  73 102 136 171 210 257 305
#
# _framework density 15.939394999999999
#
# number of rings (size 3 to 8) (size 9 to 14) (size 15 to 20)
#    0.000    1.500    3.750    2.625    0.000    3.000 
#    0.000    0.000    0.000    0.000    0.000    0.875 
#    0.000    4.000    0.000    0.000    0.000    0.000 
#
# Total GULP energy -178623.434847 kJ/mol
# GULP energy per Si atom -5581.982339 kJ/mol
# Density = 1.590312 g / cm^3
# Si number density = 15.939395 Si / 1000 Ang^3
#
#
#
# Elastic Constant Matrix: (Units=GPa)
#
#
# Indices 1 2 3 4 5 6 
#
# 1 37.8625 24.5106 19.1328 0.0000 0.0000 0.0000
# 2 24.5106 108.6914 27.6719 0.0000 0.0000 0.0000
# 3 19.1328 27.6719 67.3403 0.0000 0.0000 0.0000
# 4 0.0000 0.0000 0.0000 19.6703 0.0000 0.0000
# 5 0.0000 0.0000 0.0000 0.0000 18.2702 0.0000
# 6 0.0000 0.0000 0.0000 0.0000 0.0000 27.9077
#
#
#
# Elastic Compliance Matrix: (Units=1/GPa)
#
#
# Indices 1 2 3 4 5 6 
#
# 1 0.033808 -0.005784 -0.007229 0.000000 0.000000 0.000000
# 2 -0.005784 0.011265 -0.002986 0.000000 0.000000 0.000000
# 3 -0.007229 -0.002986 0.018131 0.000000 0.000000 0.000000
# 4 0.000000 0.000000 0.000000 0.050838 0.000000 0.000000
# 5 0.000000 0.000000 0.000000 0.000000 0.054734 0.000000
# 6 0.000000 0.000000 0.000000 0.000000 0.000000 0.035832
#
#
# Mechanical properties :
#
#
# Convention : Reuss Voigt Hill
#
# Bulk Modulus (GPa) = 32.04386 39.61386 35.82886
# Shear Modulus (GPa) = 20.24229 22.67490 21.45859
#
# Velocity S-wave (km/s) = 3.56751 3.77579 3.67312
# Velocity P-wave (km/s) = 6.09235 6.62688 6.36523
#
# Compressibility (1/GPa) = 0.03120723
#
# Stress axis : x y z
#
# Youngs Moduli (GPa) = 29.57843 88.77264 55.15477
#
# Poissons Ratio (x) = 0.51342 0.39872
# Poissons Ratio (y) = 0.17107 0.16468
# Poissons Ratio (z) = 0.21382 0.26505
#
# Static dielectric constant tensor:
#      x y z
#    x 1.533200 0.000000 0.000000 
#    y 0.000000 1.538420 0.000000 
#    z 0.000000 0.000000 1.523960 
# 
# From -- ./inp_files/15906.got.cif
#   From: 2010.05.17/outbox.cif.g08.bks.cpg/sg40_8_cif.got.tgz:15906.got - 2010.06.03 18:35:42.
