data_PCOD9363250
_publ_section_title
;
Structure prediction by ZEFSAII (Michael W. Deem and Ramdas Pophale) SiO2 
 PCOD9363250
Probable space group: A M A 2
;
_chemical_formula_sum "Si O2"
_cell_formula_units_Z 48
_cell_length_a 25.320550
_cell_length_b 7.483030
_cell_length_c 12.049299
_cell_angle_alpha 90.000000
_cell_angle_beta 90.000000
_cell_angle_gamma 90.000000
_cell_volume 2283.034123
_symmetry_space_group_name_H-M "A M A 2"
_symmetry_group_IT_number 40
_symmetry_cell_setting 'orthorhombic'
loop_
_space_group_symop_operation_xyz
x,y,z
-x,-y,z
1/2-x,y,z
1/2+x,-y,z
x,1/2+y,1/2+z
-x,1/2-y,1/2+z
1/2-x,1/2+y,1/2+z
1/2+x,1/2-y,1/2+z
loop_
_atom_site_type_symbol
_atom_site_label
_atom_site_fract_x
_atom_site_fract_y
_atom_site_fract_z
Si Si1 0.536819 0.840032 0.508150
Si Si2 0.379761 0.599681 0.351535
Si Si3 0.189812 0.915174 0.403351
Si Si4 0.559902 0.893841 0.055388
Si Si5 0.416259 0.979798 0.297467
Si Si6 0.373846 0.966975 0.611734
O O1 0.498810 0.672765 0.523853
O O2 0.551086 0.898926 0.383028
O O3 0.500000 0.000000 0.554264
O O4 0.590846 0.863054 0.575164
O O5 0.326829 0.706812 0.386176
O O6 0.408542 0.508821 0.455432
O O7 0.369174 0.481865 0.243611
O O8 0.419502 0.767418 0.323903
O O9 0.250000 0.949123 0.374792
O O10 0.176712 0.965264 0.531069
O O11 0.145926 0.012616 0.325841
O O12 0.565614 0.983269 0.174493
O O13 0.594408 0.709894 0.073906
#
# Coordination Sequence:
#
# PCOD9363250 Si02
#       6
#     8   8   8   8   8   8
#     4   9  16  32  52  71 106 147 174 205 260 312
#     4   9  19  35  53  78 105 133 176 222 259 317
#     4   8  17  36  58  75 101 140 176 219 274 314
#     4  10  19  34  53  76 110 146 170 214 266 311
#     4   9  19  34  54  76 106 141 177 219 260 313
#     4   9  18  34  54  76 106 135 174 224 257 313
#
# _framework density 21.024652
#
# number of rings (size 3 to 8) (size 9 to 14) (size 15 to 20)
#    1.000    2.000    3.333    0.000    2.333    0.667 
#    6.000    3.333    0.000    0.000    0.000    0.000 
#    0.000    0.000    0.000    0.000    0.000    0.000 
#
# Total GULP energy -133686.360964 kJ/mol
# GULP energy per Si atom -5570.265040 kJ/mol
# Density = 2.097680 g / cm^3
# Si number density = 21.024652 Si / 1000 Ang^3
#
#
#
# Elastic Constant Matrix: (Units=GPa)
#
#
# Indices 1 2 3 4 5 6 
#
# 1 121.6685 -5.4906 32.9502 0.0000 0.0000 0.0000
# 2 -5.4906 36.4205 -2.9746 0.0000 0.0000 0.0000
# 3 32.9502 -2.9746 137.2690 0.0000 0.0000 0.0000
# 4 0.0000 0.0000 0.0000 35.7534 0.0000 0.0000
# 5 0.0000 0.0000 0.0000 0.0000 15.1596 0.0000
# 6 0.0000 0.0000 0.0000 0.0000 0.0000 14.7213
#
#
#
# Elastic Compliance Matrix: (Units=1/GPa)
#
#
# Indices 1 2 3 4 5 6 
#
# 1 0.008839 0.001161 -0.002097 0.000000 0.000000 0.000000
# 2 0.001161 0.027658 0.000321 0.000000 0.000000 0.000000
# 3 -0.002097 0.000321 0.007795 0.000000 0.000000 0.000000
# 4 0.000000 0.000000 0.000000 0.027969 0.000000 0.000000
# 5 0.000000 0.000000 0.000000 0.000000 0.065965 0.000000
# 6 0.000000 0.000000 0.000000 0.000000 0.000000 0.067929
#
#
# Mechanical properties :
#
#
# Convention : Reuss Voigt Hill
#
# Bulk Modulus (GPa) = 23.22161 38.25868 30.74014
# Shear Modulus (GPa) = 22.54900 31.18507 26.86704
#
# Velocity S-wave (km/s) = 3.27846 3.85549 3.57863
# Velocity P-wave (km/s) = 5.03984 6.16898 5.63278
#
# Compressibility (1/GPa) = 0.04306334
#
# Stress axis : x y z
#
# Youngs Moduli (GPa) = 113.13153 36.15552 128.28429
#
# Poissons Ratio (x) = -0.04199 0.26896
# Poissons Ratio (y) = -0.13138 -0.04113
# Poissons Ratio (z) = 0.23719 -0.01159
#
# Static dielectric constant tensor:
#      x y z
#    x 1.758740 0.000000 0.000000 
#    y 0.000000 1.922090 0.000000 
#    z 0.000000 0.000000 1.772020 
# 
# From -- ./inp_files/14156.got.cif
#   From: 2010.05.17/outbox.cif.g08.bks.cpg/sg40_8_cif.got.tgz:14156.got - 2010.06.03 18:35:42.
