data_PCOD9363511
_publ_section_title
;
Structure prediction by ZEFSAII (Michael W. Deem and Ramdas Pophale) SiO2 
 PCOD9363511
Probable space group: A M A 2
;
_chemical_formula_sum "Si O2"
_cell_formula_units_Z 64
_cell_length_a 8.697693
_cell_length_b 15.872276
_cell_length_c 24.328852
_cell_angle_alpha 90.000000
_cell_angle_beta 90.000000
_cell_angle_gamma 90.000000
_cell_volume 3358.651149
_symmetry_space_group_name_H-M "A M A 2"
_symmetry_group_IT_number 40
_symmetry_cell_setting 'orthorhombic'
loop_
_space_group_symop_operation_xyz
x,y,z
-x,-y,z
1/2-x,y,z
1/2+x,-y,z
x,1/2+y,1/2+z
-x,1/2-y,1/2+z
1/2-x,1/2+y,1/2+z
1/2+x,1/2-y,1/2+z
loop_
_atom_site_type_symbol
_atom_site_label
_atom_site_fract_x
_atom_site_fract_y
_atom_site_fract_z
Si Si1 0.934128 0.410996 0.222480
Si Si2 0.434985 0.410322 0.717726
Si Si3 0.934297 0.090732 0.957454
Si Si4 0.063802 0.842235 0.336003
Si Si5 0.934555 0.752114 0.024786
Si Si6 0.565667 0.153158 0.836444
Si Si7 0.564015 0.752149 0.646977
Si Si8 0.934916 0.589602 0.954131
O O1 0.750000 0.414361 0.224107
O O2 0.979896 0.333393 0.183269
O O3 0.000000 0.500000 0.202905
O O4 0.995509 0.392634 0.283630
O O5 0.500000 0.500000 0.700098
O O6 0.250000 0.413896 0.717049
O O7 0.483453 0.389284 0.780271
O O8 0.482401 0.332526 0.679358
O O9 0.750000 0.089626 0.960546
O O10 0.979569 0.110719 0.894227
O O11 0.000000 0.000000 0.973586
O O12 0.997545 0.165756 0.995111
O O13 0.250000 0.834530 0.335684
O O14 0.017392 0.890517 0.391341
O O15 0.994293 0.748932 0.336619
O O16 0.750000 0.756669 0.022783
O O17 0.991533 0.746170 0.087024
O O18 0.983803 0.668368 0.991497
O O19 0.750000 0.152058 0.832508
O O20 0.750000 0.751938 0.642477
O O21 0.750000 0.585817 0.955363
O O22 0.000000 0.500000 0.972167
#
# Coordination Sequence:
#
# PCOD9363511 Si02
#       8
#     8   8   8   8   8   8   8   8
#     4  11  23  41  64  90 124 163 202 250 304 362
#     4  10  21  38  61  89 119 157 196 238 298 355
#     4  11  24  41  63  92 124 160 201 248 305 366
#     4  10  19  37  61  87 124 160 193 241 302 364
#     4  11  24  42  64  89 119 159 206 256 305 355
#     4  11  22  36  61  95 125 159 200 245 303 366
#     4  10  23  43  63  84 119 163 203 250 305 356
#     4  10  22  38  61  90 122 159 197 244 300 358
#
# _framework density 19.05527
#
# number of rings (size 3 to 8) (size 9 to 14) (size 15 to 20)
#    0.000    1.500    2.500    2.250    0.000    7.000 
#    0.000    3.750    0.000    0.000    0.000    0.000 
#    0.000    0.000    0.000    0.000    0.000    0.000 
#
# Total GULP energy -178894.555545 kJ/mol
# GULP energy per Si atom -5590.454861 kJ/mol
# Density = 1.901190 g / cm^3
# Si number density = 19.055270 Si / 1000 Ang^3
#
#
#
# Elastic Constant Matrix: (Units=GPa)
#
#
# Indices 1 2 3 4 5 6 
#
# 1 28.0948 39.9143 37.1654 0.0000 0.0000 0.0000
# 2 39.9143 192.0395 77.7116 0.0000 0.0000 0.0000
# 3 37.1654 77.7116 141.4212 0.0000 0.0000 0.0000
# 4 0.0000 0.0000 0.0000 -0.2165 0.0000 0.0000
# 5 0.0000 0.0000 0.0000 0.0000 47.8338 0.0000
# 6 0.0000 0.0000 0.0000 0.0000 0.0000 36.8556
#
#
#
# Elastic Compliance Matrix: (Units=1/GPa)
#
#
# Indices 1 2 3 4 5 6 
#
# 1 0.063357 -0.008269 -0.012106 0.000000 0.000000 0.000000
# 2 -0.008269 0.007776 -0.002100 0.000000 0.000000 0.000000
# 3 -0.012106 -0.002100 0.011406 0.000000 0.000000 0.000000
# 4 0.000000 0.000000 0.000000 -4.619537 0.000000 0.000000
# 5 0.000000 0.000000 0.000000 0.000000 0.020906 0.000000
# 6 0.000000 0.000000 0.000000 0.000000 0.000000 0.027133
#
#
# Mechanical properties :
#
#
# Convention : Reuss Voigt Hill
#
# Bulk Modulus (GPa) = 26.60386 74.57089 50.58738
# Shear Modulus (GPa) = -1.12829 30.67886 14.77529
#
# Velocity S-wave (km/s) = -0.77032 4.01683 2.78761
# Velocity P-wave (km/s) = 3.63325 7.79308 6.07999
#
# Compressibility (1/GPa) = 0.03758852
#
# Stress axis : x y z
#
# Youngs Moduli (GPa) = 15.78369 128.60708 87.67150
#
# Poissons Ratio (x) = 1.06351 1.06135
# Poissons Ratio (y) = 0.13052 0.18407
# Poissons Ratio (z) = 0.19108 0.27002
#
# Static dielectric constant tensor:
#      x y z
#    x 1.640310 0.000000 0.000000 
#    y 0.000000 1.641160 0.000000 
#    z 0.000000 0.000000 1.645140 
# 
# From -- ./inp_files/24244.got.cif
#   From: 2010.05.17/outbox.cif.g08.bks.cpg/sg40_13_cif.got.tgz:24244.got - 2010.06.03 18:35:42.
