data_PCOD9363332
_publ_section_title
;
Structure prediction by ZEFSAII (Michael W. Deem and Ramdas Pophale) SiO2 
 PCOD9363332
Probable space group: A M A 2
;
_chemical_formula_sum "Si O2"
_cell_formula_units_Z 48
_cell_length_a 8.677487
_cell_length_b 28.983109
_cell_length_c 10.504447
_cell_angle_alpha 90.000000
_cell_angle_beta 90.000000
_cell_angle_gamma 90.000000
_cell_volume 2641.874214
_symmetry_space_group_name_H-M "A M A 2"
_symmetry_group_IT_number 40
_symmetry_cell_setting 'orthorhombic'
loop_
_space_group_symop_operation_xyz
x,y,z
-x,-y,z
1/2-x,y,z
1/2+x,-y,z
x,1/2+y,1/2+z
-x,1/2-y,1/2+z
1/2-x,1/2+y,1/2+z
1/2+x,1/2-y,1/2+z
loop_
_atom_site_type_symbol
_atom_site_label
_atom_site_fract_x
_atom_site_fract_y
_atom_site_fract_z
Si Si1 0.434217 0.549202 0.976170
Si Si2 0.564649 0.353175 0.379933
Si Si3 0.064922 0.303701 0.627887
Si Si4 0.564682 0.450902 0.272426
Si Si5 0.935352 0.643271 0.885196
Si Si6 0.564900 0.200721 0.636921
O O1 0.500000 0.500000 0.933180
O O2 0.250000 0.547876 0.973364
O O3 0.494253 0.592578 0.897599
O O4 0.484107 0.555577 0.124490
O O5 0.750000 0.351267 0.389465
O O6 0.490168 0.332498 0.506222
O O7 0.517278 0.406103 0.352031
O O8 0.511321 0.323172 0.259023
O O9 0.250000 0.299006 0.626601
O O10 0.019138 0.330085 0.757297
O O11 0.990086 0.253221 0.625540
O O12 0.500000 0.500000 0.316811
O O13 0.750000 0.453042 0.273582
O O14 0.750000 0.639392 0.885680
O O15 0.980344 0.672756 0.009705
O O16 0.750000 0.199054 0.648935
#
# Coordination Sequence:
#
# PCOD9363332 Si02
#       6
#     8   8   8   8   8   8
#     4  10  19  34  58  87 115 147 187 236 288 340
#     4  11  22  39  59  86 120 154 195 240 286 345
#     4  11  24  40  58  84 119 157 195 241 292 344
#     4   9  19  34  56  85 114 145 185 236 286 337
#     4  10  22  39  58  84 117 151 193 240 286 341
#     4  11  22  38  62  88 113 152 197 243 294 343
#
# _framework density 18.168917
#
# number of rings (size 3 to 8) (size 9 to 14) (size 15 to 20)
#    0.000    1.667    1.667    3.000    0.000    5.333 
#    0.000    0.833    0.000    2.000    0.000    0.000 
#    0.000    0.000    0.000    0.000    0.000    0.000 
#
# Total GULP energy -134102.685347 kJ/mol
# GULP energy per Si atom -5587.611889 kJ/mol
# Density = 1.812756 g / cm^3
# Si number density = 18.168917 Si / 1000 Ang^3
#
#
#
# Elastic Constant Matrix: (Units=GPa)
#
#
# Indices 1 2 3 4 5 6 
#
# 1 20.4046 19.2989 16.0537 0.0000 0.0000 0.0000
# 2 19.2989 155.2995 49.2564 0.0000 0.0000 0.0000
# 3 16.0537 49.2564 100.6106 0.0000 0.0000 0.0000
# 4 0.0000 0.0000 0.0000 -17.4111 0.0000 0.0000
# 5 0.0000 0.0000 0.0000 0.0000 -4.3295 0.0000
# 6 0.0000 0.0000 0.0000 0.0000 0.0000 36.6964
#
#
#
# Elastic Compliance Matrix: (Units=1/GPa)
#
#
# Indices 1 2 3 4 5 6 
#
# 1 0.059363 -0.005176 -0.006938 0.000000 0.000000 0.000000
# 2 -0.005176 0.008074 -0.003127 0.000000 0.000000 0.000000
# 3 -0.006938 -0.003127 0.012577 0.000000 0.000000 0.000000
# 4 0.000000 0.000000 0.000000 -0.057435 0.000000 0.000000
# 5 0.000000 0.000000 0.000000 0.000000 -0.230975 0.000000
# 6 0.000000 0.000000 0.000000 0.000000 0.000000 0.027251
#
#
# Mechanical properties :
#
#
# Convention : Reuss Voigt Hill
#
# Bulk Modulus (GPa) = 20.18900 49.50362 34.84631
# Shear Modulus (GPa) = -37.27149 15.77155 -10.74997
#
# Velocity S-wave (km/s) = -4.53414 2.94947 -2.43506
# Velocity P-wave (km/s) = 4.03426 6.23736 3.36373
#
# Compressibility (1/GPa) = 0.04953193
#
# Stress axis : x y z
#
# Youngs Moduli (GPa) = 16.84549 123.85088 79.50891
#
# Poissons Ratio (x) = 0.64111 0.55162
# Poissons Ratio (y) = 0.08720 0.24862
# Poissons Ratio (z) = 0.11687 0.38728
#
# Static dielectric constant tensor:
#      x y z
#    x 1.609920 0.000000 0.000000 
#    y 0.000000 1.602660 0.000000 
#    z 0.000000 0.000000 1.601690 
# 
# From -- ./inp_files/4606.got.cif
#   From: 2010.05.17/outbox.cif.g08.bks.cpg/sg40_3_cif.got.tgz:4606.got - 2010.06.03 18:35:42.
