data_PCOD9363932
_publ_section_title
;
Structure prediction by ZEFSAII (Michael W. Deem and Ramdas Pophale) SiO2 
 PCOD9363932
Probable space group: A M A 2
;
_chemical_formula_sum "Si O2"
_cell_formula_units_Z 64
_cell_length_a 8.757437
_cell_length_b 33.393472
_cell_length_c 12.045735
_cell_angle_alpha 90.000000
_cell_angle_beta 90.000000
_cell_angle_gamma 90.000000
_cell_volume 3522.669527
_symmetry_space_group_name_H-M "A M A 2"
_symmetry_group_IT_number 40
_symmetry_cell_setting 'orthorhombic'
loop_
_space_group_symop_operation_xyz
x,y,z
-x,-y,z
1/2-x,y,z
1/2+x,-y,z
x,1/2+y,1/2+z
-x,1/2-y,1/2+z
1/2-x,1/2+y,1/2+z
1/2+x,1/2-y,1/2+z
loop_
_atom_site_type_symbol
_atom_site_label
_atom_site_fract_x
_atom_site_fract_y
_atom_site_fract_z
Si Si1 0.065313 0.044161 0.680950
Si Si2 0.065104 0.378697 0.549744
Si Si3 0.423010 0.686147 0.126788
Si Si4 0.067652 0.813186 0.865327
Si Si5 0.433220 0.852042 0.294566
Si Si6 0.075737 0.603259 0.992572
Si Si7 0.568207 0.727758 0.925462
Si Si8 0.433535 0.544730 0.433372
O O1 0.250000 0.044126 0.677034
O O2 0.009900 0.071120 0.578801
O O3 0.023522 0.057403 0.806340
O O4 0.000000 0.000000 0.668135
O O5 0.250000 0.381620 0.550585
O O6 0.021168 0.345963 0.456897
O O7 0.014775 0.362838 0.670712
O O8 0.997505 0.421657 0.515824
O O9 0.250000 0.702244 0.133893
O O10 0.489788 0.679030 0.247573
O O11 0.418348 0.644115 0.062993
O O12 0.525989 0.714423 0.050143
O O13 0.250000 0.814777 0.854470
O O14 0.016132 0.768856 0.899983
O O15 0.250000 0.850777 0.293794
O O16 0.486046 0.885794 0.381600
O O17 0.482915 0.808704 0.343666
O O18 0.250000 0.592007 0.963478
O O19 0.750000 0.732679 0.913648
O O20 0.500000 0.500000 0.451540
O O21 0.250000 0.542898 0.440189
#
# Coordination Sequence:
#
# PCOD9363932 Si02
#       8
#     8   8   8   8   8   8   8   8
#     4   9  18  32  52  81 113 140 173 219 274 328
#     4  10  22  39  57  81 114 151 191 236 284 337
#     4  10  20  36  56  77 106 141 180 229 280 330
#     4  11  23  36  55  83 113 146 187 235 284 339
#     4   9  20  38  57  77 107 147 186 229 281 334
#     4   9  18  34  55  78 105 139 178 223 271 325
#     4  10  21  37  57  81 109 145 187 232 287 344
#     4  10  20  36  59  86 116 149 186 231 284 341
#
# _framework density 18.168040999999999
#
# number of rings (size 3 to 8) (size 9 to 14) (size 15 to 20)
#    0.000    2.250    0.000    2.250    1.750    4.500 
#    0.000    0.625    0.000    1.500    0.000    0.000 
#    0.000    0.000    0.000    0.000    0.000    0.000 
#
# Total GULP energy -178522.009477 kJ/mol
# GULP energy per Si atom -5578.812796 kJ/mol
# Density = 1.812669 g / cm^3
# Si number density = 18.168041 Si / 1000 Ang^3
#
#
#
# Elastic Constant Matrix: (Units=GPa)
#
#
# Indices 1 2 3 4 5 6 
#
# 1 19.6891 14.6924 22.0084 0.0000 0.0000 0.0000
# 2 14.6924 73.2682 51.9790 0.0000 0.0000 0.0000
# 3 22.0084 51.9790 137.8043 0.0000 0.0000 0.0000
# 4 0.0000 0.0000 0.0000 15.9263 0.0000 0.0000
# 5 0.0000 0.0000 0.0000 0.0000 27.2675 0.0000
# 6 0.0000 0.0000 0.0000 0.0000 0.0000 30.1354
#
#
#
# Elastic Compliance Matrix: (Units=1/GPa)
#
#
# Indices 1 2 3 4 5 6 
#
# 1 0.064880 -0.007727 -0.007447 0.000000 0.000000 0.000000
# 2 -0.007727 0.019555 -0.006142 0.000000 0.000000 0.000000
# 3 -0.007447 -0.006142 0.010763 0.000000 0.000000 0.000000
# 4 0.000000 0.000000 0.000000 0.062789 0.000000 0.000000
# 5 0.000000 0.000000 0.000000 0.000000 0.036674 0.000000
# 6 0.000000 0.000000 0.000000 0.000000 0.000000 0.033184
#
#
# Mechanical properties :
#
#
# Convention : Reuss Voigt Hill
#
# Bulk Modulus (GPa) = 19.02390 45.34681 32.18535
# Shear Modulus (GPa) = 17.36117 24.13798 20.74957
#
# Velocity S-wave (km/s) = 3.09461 3.64894 3.38315
# Velocity P-wave (km/s) = 4.82314 6.53964 5.74585
#
# Compressibility (1/GPa) = 0.05256546
#
# Stress axis : x y z
#
# Youngs Moduli (GPa) = 15.41310 51.13671 92.91236
#
# Poissons Ratio (x) = 0.39513 0.69194
# Poissons Ratio (y) = 0.11910 0.57068
# Poissons Ratio (z) = 0.11479 0.31409
#
# Static dielectric constant tensor:
#      x y z
#    x 1.622900 0.000000 0.000000 
#    y 0.000000 1.610140 0.000000 
#    z 0.000000 0.000000 1.625480 
# 
# From -- ./inp_files/10561.got.cif
#   From: 2010.05.17/outbox.cif.g08.bks.cpg/sg40_6_cif.got.tgz:10561.got - 2010.06.03 18:35:42.
