data_PCOD9363644
_publ_section_title
;
Structure prediction by ZEFSAII (Michael W. Deem and Ramdas Pophale) SiO2 
 PCOD9363644
Probable space group: A M A 2
;
_chemical_formula_sum "Si O2"
_cell_formula_units_Z 64
_cell_length_a 8.747625
_cell_length_b 30.777570
_cell_length_c 14.933338
_cell_angle_alpha 90.000000
_cell_angle_beta 90.000000
_cell_angle_gamma 90.000000
_cell_volume 4020.512159
_symmetry_space_group_name_H-M "A M A 2"
_symmetry_group_IT_number 40
_symmetry_cell_setting 'orthorhombic'
loop_
_space_group_symop_operation_xyz
x,y,z
-x,-y,z
1/2-x,y,z
1/2+x,-y,z
x,1/2+y,1/2+z
-x,1/2-y,1/2+z
1/2-x,1/2+y,1/2+z
1/2+x,1/2-y,1/2+z
loop_
_atom_site_type_symbol
_atom_site_label
_atom_site_fract_x
_atom_site_fract_y
_atom_site_fract_z
Si Si1 0.073169 0.777362 0.299520
Si Si2 0.932705 0.796492 0.110037
Si Si3 0.431901 0.867813 0.629585
Si Si4 0.932197 0.952750 0.700798
Si Si5 0.436443 0.290725 0.001183
Si Si6 0.066572 0.547608 0.409677
Si Si7 0.067626 0.866709 0.982879
Si Si8 0.926125 0.826728 0.804477
O O1 0.250000 0.792040 0.289928
O O2 0.014260 0.790675 0.397806
O O3 0.074768 0.725100 0.300508
O O4 0.978544 0.791985 0.213525
O O5 0.750000 0.799455 0.100162
O O6 0.983808 0.752798 0.055562
O O7 0.009303 0.838777 0.066620
O O8 0.250000 0.872331 0.623300
O O9 0.506148 0.915176 0.636402
O O10 0.484502 0.834343 0.552810
O O11 0.477904 0.844817 0.722242
O O12 0.750000 0.954526 0.696678
O O13 0.974555 0.942467 0.805056
O O14 0.000000 0.000000 0.680328
O O15 0.250000 0.289583 0.000720
O O16 0.250000 0.547335 0.416111
O O17 0.000000 0.500000 0.429166
O O18 0.996858 0.584611 0.472689
O O19 0.250000 0.867284 0.979855
O O20 0.998828 0.842007 0.896781
O O21 0.750000 0.842488 0.798684
#
# Coordination Sequence:
#
# PCOD9363644 Si02
#       8
#     8   8   8   8   8   8   8   8
#     4  10  20  36  52  71 102 139 177 218 259 303
#     4  11  21  36  53  75 104 137 176 219 260 304
#     4  11  20  32  51  75 103 140 178 213 257 312
#     4  10  20  33  50  73 104 137 170 212 259 309
#     4   9  19  34  51  72 102 138 175 214 258 306
#     4  10  20  34  52  75 105 138 170 212 261 309
#     4  12  23  34  51  76 104 141 181 214 255 312
#     4  11  20  31  49  73 104 140 175 218 259 300
#
# _framework density 15.918371
#
# number of rings (size 3 to 8) (size 9 to 14) (size 15 to 20)
#    0.000    1.500    3.750    3.000    0.000    1.500 
#    0.000    1.250    0.000    0.000    0.000    0.875 
#    0.000    2.000    0.000    0.000    0.000    0.000 
#
# Total GULP energy -178637.257226 kJ/mol
# GULP energy per Si atom -5582.414288 kJ/mol
# Density = 1.588214 g / cm^3
# Si number density = 15.918371 Si / 1000 Ang^3
#
#
#
# Elastic Constant Matrix: (Units=GPa)
#
#
# Indices 1 2 3 4 5 6 
#
# 1 36.6404 28.9687 -0.6744 0.0000 0.0000 0.0000
# 2 28.9687 116.3651 41.4669 0.0000 0.0000 0.0000
# 3 -0.6744 41.4669 71.4370 0.0000 0.0000 0.0000
# 4 0.0000 0.0000 0.0000 3.8730 0.0000 0.0000
# 5 0.0000 0.0000 0.0000 0.0000 22.2699 0.0000
# 6 0.0000 0.0000 0.0000 0.0000 0.0000 25.7992
#
#
#
# Elastic Compliance Matrix: (Units=1/GPa)
#
#
# Indices 1 2 3 4 5 6 
#
# 1 0.036638 -0.011655 0.007111 0.000000 0.000000 0.000000
# 2 -0.011655 0.014542 -0.008551 0.000000 0.000000 0.000000
# 3 0.007111 -0.008551 0.019029 0.000000 0.000000 0.000000
# 4 0.000000 0.000000 0.000000 0.258201 0.000000 0.000000
# 5 0.000000 0.000000 0.000000 0.000000 0.044904 0.000000
# 6 0.000000 0.000000 0.000000 0.000000 0.000000 0.038761
#
#
# Mechanical properties :
#
#
# Convention : Reuss Voigt Hill
#
# Bulk Modulus (GPa) = 22.71734 40.44053 31.57893
# Shear Modulus (GPa) = 11.03902 20.70049 15.86976
#
# Velocity S-wave (km/s) = 2.63625 3.61004 3.16087
# Velocity P-wave (km/s) = 4.85475 6.54497 5.76217
#
# Compressibility (1/GPa) = 0.04401924
#
# Stress axis : x y z
#
# Youngs Moduli (GPa) = 27.29416 68.76426 52.55048
#
# Poissons Ratio (x) = 0.80145 -0.37370
# Poissons Ratio (y) = 0.31811 0.44938
# Poissons Ratio (z) = -0.19410 0.58803
#
# Static dielectric constant tensor:
#      x y z
#    x 1.537650 0.000000 0.000000 
#    y 0.000000 1.538110 0.000000 
#    z 0.000000 0.000000 1.520270 
# 
# From -- ./inp_files/15914.got.cif
#   From: 2010.05.17/outbox.cif.g08.bks.cpg/sg40_8_cif.got.tgz:15914.got - 2010.06.03 18:35:42.
