data_PCOD9363791
_publ_section_title
;
Structure prediction by ZEFSAII (Michael W. Deem and Ramdas Pophale) SiO2 
 PCOD9363791
Probable space group: A M A 2
;
_chemical_formula_sum "Si O2"
_cell_formula_units_Z 44
_cell_length_a 14.494684
_cell_length_b 15.287330
_cell_length_c 11.611746
_cell_angle_alpha 90.000000
_cell_angle_beta 90.000000
_cell_angle_gamma 90.000000
_cell_volume 2572.988941
_symmetry_space_group_name_H-M "A M A 2"
_symmetry_group_IT_number 40
_symmetry_cell_setting 'orthorhombic'
loop_
_space_group_symop_operation_xyz
x,y,z
-x,-y,z
1/2-x,y,z
1/2+x,-y,z
x,1/2+y,1/2+z
-x,1/2-y,1/2+z
1/2-x,1/2+y,1/2+z
1/2+x,1/2-y,1/2+z
loop_
_atom_site_type_symbol
_atom_site_label
_atom_site_fract_x
_atom_site_fract_y
_atom_site_fract_z
Si Si1 0.000000 0.000000 0.969890
Si Si2 0.141713 0.761758 0.447717
Si Si3 0.498713 0.395584 0.042595
Si Si4 0.860199 0.823422 0.361960
Si Si5 0.643060 0.900484 0.120050
Si Si6 0.510340 0.165526 0.805777
O O1 0.978226 0.081904 0.888201
O O2 0.082494 0.029959 0.052423
O O3 0.250000 0.772075 0.421939
O O4 0.132966 0.692604 0.553624
O O5 0.090839 0.851000 0.483437
O O6 0.081634 0.717566 0.346315
O O7 0.500000 0.500000 0.035904
O O8 0.498287 0.364967 0.174860
O O9 0.586611 0.357363 0.974106
O O10 0.750000 0.818895 0.375227
O O11 0.882007 0.886138 0.253017
O O12 0.904371 0.730462 0.327481
O O13 0.750000 0.924689 0.113513
#
# Coordination Sequence:
#
# PCOD9363791 Si02
#       6
#     4   8   8   8   8   8
#     4  10  20  34  60  86 112 140 186 240 278 320
#     4   9  19  37  58  78 107 150 189 224 276 338
#     4  11  22  36  58  86 118 147 184 237 292 334
#     4  10  22  39  57  79 114 157 190 224 281 347
#     4   9  18  35  58  80 106 146 188 226 274 332
#     4  10  20  37  59  84 112 148 189 233 280 332
#
# _framework density 17.100735
#
# number of rings (size 3 to 8) (size 9 to 14) (size 15 to 20)
#    0.000    2.182    2.727    0.000    1.273    2.182 
#    0.000    0.000    0.000    0.000    0.000    0.000 
#    0.000    0.000    0.000    0.000    0.000    0.000 
#
# Total GULP energy -122701.234559 kJ/mol
# GULP energy per Si atom -5577.328844 kJ/mol
# Density = 1.706181 g / cm^3
# Si number density = 17.100735 Si / 1000 Ang^3
#
#
#
# Elastic Constant Matrix: (Units=GPa)
#
#
# Indices 1 2 3 4 5 6 
#
# 1 108.3840 66.4181 51.3683 0.0000 0.0000 0.0000
# 2 66.4181 123.4484 67.6787 0.0000 0.0000 0.0000
# 3 51.3683 67.6787 86.5922 0.0000 0.0000 0.0000
# 4 0.0000 0.0000 0.0000 21.5596 0.0000 0.0000
# 5 0.0000 0.0000 0.0000 0.0000 19.1418 0.0000
# 6 0.0000 0.0000 0.0000 0.0000 0.0000 23.2983
#
#
#
# Elastic Compliance Matrix: (Units=1/GPa)
#
#
# Indices 1 2 3 4 5 6 
#
# 1 0.014678 -0.005465 -0.004436 0.000000 0.000000 0.000000
# 2 -0.005465 0.016209 -0.009426 0.000000 0.000000 0.000000
# 3 -0.004436 -0.009426 0.021547 0.000000 0.000000 0.000000
# 4 0.000000 0.000000 0.000000 0.046383 0.000000 0.000000
# 5 0.000000 0.000000 0.000000 0.000000 0.052242 0.000000
# 6 0.000000 0.000000 0.000000 0.000000 0.000000 0.042922
#
#
# Mechanical properties :
#
#
# Convention : Reuss Voigt Hill
#
# Bulk Modulus (GPa) = 72.57293 76.59499 74.58396
# Shear Modulus (GPa) = 21.07675 21.66389 21.37032
#
# Velocity S-wave (km/s) = 3.51451 3.56313 3.53891
# Velocity P-wave (km/s) = 7.68113 7.86229 7.77223
#
# Compressibility (1/GPa) = 0.01377924
#
# Stress axis : x y z
#
# Youngs Moduli (GPa) = 68.12986 61.69469 46.40967
#
# Poissons Ratio (x) = 0.33717 0.20586
# Poissons Ratio (y) = 0.37234 0.43748
# Poissons Ratio (z) = 0.30220 0.58156
#
# Static dielectric constant tensor:
#      x y z
#    x 1.556500 0.000000 0.000000 
#    y 0.000000 1.568550 0.000000 
#    z 0.000000 0.000000 1.569090 
# 
# From -- ./inp_files/12087.got.cif
#   From: 2010.05.17/outbox.cif.g08.bks.cpg/sg40_7_cif.got.tgz:12087.got - 2010.06.03 18:35:42.
