data_PCOD9363066
_publ_section_title
;
Structure prediction by ZEFSAII (Michael W. Deem and Ramdas Pophale) SiO2 
 PCOD9363066
Probable space group: A M A 2
;
_chemical_formula_sum "Si O2"
_cell_formula_units_Z 64
_cell_length_a 8.230471
_cell_length_b 29.800892
_cell_length_c 12.797965
_cell_angle_alpha 90.000000
_cell_angle_beta 90.000000
_cell_angle_gamma 90.000000
_cell_volume 3139.025695
_symmetry_space_group_name_H-M "A M A 2"
_symmetry_group_IT_number 40
_symmetry_cell_setting 'orthorhombic'
loop_
_space_group_symop_operation_xyz
x,y,z
-x,-y,z
1/2-x,y,z
1/2+x,-y,z
x,1/2+y,1/2+z
-x,1/2-y,1/2+z
1/2-x,1/2+y,1/2+z
1/2+x,1/2-y,1/2+z
loop_
_atom_site_type_symbol
_atom_site_label
_atom_site_fract_x
_atom_site_fract_y
_atom_site_fract_z
Si Si1 0.938876 0.861765 0.687880
Si Si2 0.555553 0.950286 0.162221
Si Si3 0.561915 0.575863 0.887412
Si Si4 0.948620 0.311830 0.380244
Si Si5 0.560032 0.832186 0.469039
Si Si6 0.064392 0.953528 0.618620
Si Si7 0.445480 0.651788 0.603765
Si Si8 0.064649 0.780097 0.282826
O O1 0.750000 0.849416 0.688163
O O2 0.998827 0.851850 0.803035
O O3 0.006134 0.835494 0.587053
O O4 0.957748 0.913177 0.659514
O O5 0.750000 0.950186 0.156109
O O6 0.499688 0.947218 0.283016
O O7 0.499326 0.900854 0.116507
O O8 0.500000 0.000000 0.121803
O O9 0.750000 0.590148 0.871796
O O10 0.453605 0.618754 0.916814
O O11 0.558021 0.546759 0.992513
O O12 0.750000 0.307618 0.388034
O O13 0.004653 0.323604 0.497237
O O14 0.005859 0.268848 0.311763
O O15 0.750000 0.818180 0.467102
O O16 0.449408 0.802128 0.396738
O O17 0.250000 0.944965 0.648131
O O18 0.000000 0.000000 0.659799
O O19 0.250000 0.649338 0.599038
O O20 0.487652 0.684731 0.700964
O O21 0.250000 0.774045 0.248361
#
# Coordination Sequence:
#
# PCOD9363066 Si02
#       8
#     8   8   8   8   8   8   8   8
#     4   9  19  37  59  80 111 152 194 239 286 342
#     4  11  22  35  56  83 115 156 200 245 300 360
#     4  10  19  32  52  80 117 152 186 236 291 347
#     4   9  21  41  62  85 115 156 200 243 299 354
#     4  10  19  32  54  83 116 152 189 230 284 347
#     4  10  20  33  52  81 114 151 194 239 294 348
#     4  10  22  42  63  85 119 159 200 247 300 361
#     4  11  22  36  60  89 118 152 193 241 293 350
#
# _framework density 20.388493
#
# number of rings (size 3 to 8) (size 9 to 14) (size 15 to 20)
#    0.000    2.000    1.250    2.250    1.750    3.500 
#    0.000    3.125    0.000    1.500    0.000    0.000 
#    0.000    0.000    0.000    0.000    0.000    0.000 
#
# Total GULP energy -178180.311697 kJ/mol
# GULP energy per Si atom -5568.134741 kJ/mol
# Density = 2.034209 g / cm^3
# Si number density = 20.388493 Si / 1000 Ang^3
#
#
#
# Elastic Constant Matrix: (Units=GPa)
#
#
# Indices 1 2 3 4 5 6 
#
# 1 23.0291 7.3315 4.0751 0.0000 0.0000 0.0000
# 2 7.3315 91.2972 43.2944 0.0000 0.0000 0.0000
# 3 4.0751 43.2944 103.1213 0.0000 0.0000 0.0000
# 4 0.0000 0.0000 0.0000 8.8551 0.0000 0.0000
# 5 0.0000 0.0000 0.0000 0.0000 12.7344 0.0000
# 6 0.0000 0.0000 0.0000 0.0000 0.0000 14.7071
#
#
#
# Elastic Compliance Matrix: (Units=1/GPa)
#
#
# Indices 1 2 3 4 5 6 
#
# 1 0.044571 -0.003426 -0.000323 0.000000 0.000000 0.000000
# 2 -0.003426 0.013939 -0.005717 0.000000 0.000000 0.000000
# 3 -0.000323 -0.005717 0.012110 0.000000 0.000000 0.000000
# 4 0.000000 0.000000 0.000000 0.112930 0.000000 0.000000
# 5 0.000000 0.000000 0.000000 0.000000 0.078527 0.000000
# 6 0.000000 0.000000 0.000000 0.000000 0.000000 0.067994
#
#
# Mechanical properties :
#
#
# Convention : Reuss Voigt Hill
#
# Bulk Modulus (GPa) = 19.34649 36.31663 27.83156
# Shear Modulus (GPa) = 13.65249 18.10909 15.88079
#
# Velocity S-wave (km/s) = 2.59050 2.98350 2.79392
# Velocity P-wave (km/s) = 4.29618 5.45155 4.90798
#
# Compressibility (1/GPa) = 0.05168897
#
# Stress axis : x y z
#
# Youngs Moduli (GPa) = 22.43601 71.73902 82.57452
#
# Poissons Ratio (x) = 0.24579 0.02667
# Poissons Ratio (y) = 0.07687 0.47207
# Poissons Ratio (z) = 0.00725 0.41013
#
# Static dielectric constant tensor:
#      x y z
#    x 1.699710 0.000000 0.000000 
#    y 0.000000 1.797660 0.000000 
#    z 0.000000 0.000000 1.722380 
# 
# From -- ./inp_files/10636.got.cif
#   From: 2010.05.17/outbox.cif.g08.bks.cpg/sg40_6_cif.got.tgz:10636.got - 2010.06.03 18:35:42.
