data_PCOD9363106
_publ_section_title
;
Structure prediction by ZEFSAII (Michael W. Deem and Ramdas Pophale) SiO2 
 PCOD9363106
Probable space group: A M A 2
;
_chemical_formula_sum "Si O2"
_cell_formula_units_Z 56
_cell_length_a 14.264765
_cell_length_b 11.496506
_cell_length_c 14.921732
_cell_angle_alpha 90.000000
_cell_angle_beta 90.000000
_cell_angle_gamma 90.000000
_cell_volume 2447.088789
_symmetry_space_group_name_H-M "A M A 2"
_symmetry_group_IT_number 40
_symmetry_cell_setting 'orthorhombic'
loop_
_space_group_symop_operation_xyz
x,y,z
-x,-y,z
1/2-x,y,z
1/2+x,-y,z
x,1/2+y,1/2+z
-x,1/2-y,1/2+z
1/2-x,1/2+y,1/2+z
1/2+x,1/2-y,1/2+z
loop_
_atom_site_type_symbol
_atom_site_label
_atom_site_fract_x
_atom_site_fract_y
_atom_site_fract_z
Si Si1 0.856995 0.262780 0.728980
Si Si2 0.427057 0.652838 0.918682
Si Si3 0.498068 0.878896 0.136858
Si Si4 0.610661 0.014752 0.792521
Si Si5 0.848772 0.254280 0.242289
Si Si6 0.648228 0.615771 0.487803
Si Si7 0.141230 0.387901 0.927031
O O1 0.750000 0.297425 0.744374
O O2 0.918209 0.305842 0.814650
O O3 0.862383 0.122806 0.728899
O O4 0.899197 0.324007 0.641035
O O5 0.364365 0.747225 0.969542
O O6 0.381902 0.525319 0.924550
O O7 0.535224 0.658460 0.955539
O O8 0.434373 0.779971 0.180802
O O9 0.500000 0.000000 0.191647
O O10 0.438578 0.913394 0.050254
O O11 0.640076 0.052924 0.892008
O O12 0.500000 0.000000 0.791154
O O13 0.648736 0.888985 0.768009
O O14 0.750000 0.229953 0.195721
O O15 0.852431 0.173703 0.330168
O O16 0.750000 0.586297 0.525259
O O17 0.250000 0.371610 0.965051
#
# Coordination Sequence:
#
# PCOD9363106 Si02
#       7
#     8   8   8   8   8   8   8
#     4  11  22  39  65  93 126 171 228 287 344 407
#     4  10  19  38  61  92 129 171 226 277 329 409
#     4  12  25  42  61  95 135 174 224 287 354 410
#     4  11  20  41  69 101 131 173 229 287 337 408
#     4  11  21  37  64  96 130 167 218 276 335 406
#     4  11  24  42  66  95 134 182 223 279 353 421
#     4  10  19  32  58  93 126 162 210 276 333 382
#
# _framework density 22.884333999999999
#
# number of rings (size 3 to 8) (size 9 to 14) (size 15 to 20)
#    0.000    1.143    2.857    6.000    0.000    2.286 
#    0.000    3.571    0.000    0.000    0.000    0.000 
#    0.000    0.000    0.000    0.000    0.000    0.000 
#
# Total GULP energy -156164.535529 kJ/mol
# GULP energy per Si atom -5577.304840 kJ/mol
# Density = 2.283225 g / cm^3
# Si number density = 22.884334 Si / 1000 Ang^3
#
#
#
# Elastic Constant Matrix: (Units=GPa)
#
#
# Indices 1 2 3 4 5 6 
#
# 1 165.9211 31.4180 22.7813 0.0000 0.0000 0.0000
# 2 31.4180 109.5563 23.1696 0.0000 0.0000 0.0000
# 3 22.7813 23.1696 22.9017 0.0000 0.0000 0.0000
# 4 0.0000 0.0000 0.0000 12.0433 0.0000 0.0000
# 5 0.0000 0.0000 0.0000 0.0000 -7.8280 0.0000
# 6 0.0000 0.0000 0.0000 0.0000 0.0000 16.4280
#
#
#
# Elastic Compliance Matrix: (Units=1/GPa)
#
#
# Indices 1 2 3 4 5 6 
#
# 1 0.007020 -0.000682 -0.006293 0.000000 0.000000 0.000000
# 2 -0.000682 0.011679 -0.011137 0.000000 0.000000 0.000000
# 3 -0.006293 -0.011137 0.061192 0.000000 0.000000 0.000000
# 4 0.000000 0.000000 0.000000 0.083034 0.000000 0.000000
# 5 0.000000 0.000000 0.000000 0.000000 -0.127747 0.000000
# 6 0.000000 0.000000 0.000000 0.000000 0.000000 0.060872
#
#
# Mechanical properties :
#
#
# Convention : Reuss Voigt Hill
#
# Bulk Modulus (GPa) = 22.90068 50.34632 36.62350
# Shear Modulus (GPa) = 34.05325 18.86267 26.45796
#
# Velocity S-wave (km/s) = 3.86172 2.87411 3.40392
# Velocity P-wave (km/s) = 5.46925 5.74997 5.61137
#
# Compressibility (1/GPa) = 0.04366683
#
# Stress axis : x y z
#
# Youngs Moduli (GPa) = 142.44602 85.62652 16.34209
#
# Poissons Ratio (x) = 0.05843 0.10284
# Poissons Ratio (y) = 0.09720 0.18199
# Poissons Ratio (z) = 0.89641 0.95358
#
# Static dielectric constant tensor:
#      x y z
#    x 1.916610 0.000000 0.000000 
#    y 0.000000 1.867380 0.000000 
#    z 0.000000 0.000000 1.929860 
# 
# From -- ./inp_files/17093.got.cif
#   From: 2010.05.17/outbox.cif.g08.bks.cpg/sg40_9_cif.got.tgz:17093.got - 2010.06.03 18:35:42.
