data_PCOD9363923
_publ_section_title
;
Structure prediction by ZEFSAII (Michael W. Deem and Ramdas Pophale) SiO2 
 PCOD9363923
Probable space group: A M A 2
;
_chemical_formula_sum "Si O2"
_cell_formula_units_Z 64
_cell_length_a 8.509310
_cell_length_b 29.899006
_cell_length_c 13.149382
_cell_angle_alpha 90.000000
_cell_angle_beta 90.000000
_cell_angle_gamma 90.000000
_cell_volume 3345.464595
_symmetry_space_group_name_H-M "A M A 2"
_symmetry_group_IT_number 40
_symmetry_cell_setting 'orthorhombic'
loop_
_space_group_symop_operation_xyz
x,y,z
-x,-y,z
1/2-x,y,z
1/2+x,-y,z
x,1/2+y,1/2+z
-x,1/2-y,1/2+z
1/2-x,1/2+y,1/2+z
1/2+x,1/2-y,1/2+z
loop_
_atom_site_type_symbol
_atom_site_label
_atom_site_fract_x
_atom_site_fract_y
_atom_site_fract_z
Si Si1 0.068856 0.791359 0.127860
Si Si2 0.436283 0.207757 0.517941
Si Si3 0.060672 0.550715 0.748808
Si Si4 0.437566 0.949330 0.468015
Si Si5 0.935447 0.883280 0.071324
Si Si6 0.065722 0.251590 0.315378
Si Si7 0.063389 0.356287 0.352418
Si Si8 0.560948 0.380350 0.132660
O O1 0.250000 0.802047 0.101022
O O2 0.054942 0.763403 0.230373
O O3 0.995692 0.755260 0.051547
O O4 0.972982 0.836570 0.126837
O O5 0.250000 0.209819 0.543391
O O6 0.446391 0.211920 0.397946
O O7 0.498805 0.165072 0.576598
O O8 0.250000 0.551144 0.751843
O O9 0.007030 0.578726 0.649981
O O10 0.000000 0.500000 0.740443
O O11 0.000409 0.568368 0.858550
O O12 0.250000 0.949686 0.464779
O O13 0.495665 0.920465 0.563774
O O14 0.500000 0.000000 0.477396
O O15 0.750000 0.889333 0.058880
O O16 0.007158 0.878160 0.958330
O O17 0.250000 0.252330 0.281785
O O18 0.031368 0.302486 0.350935
O O19 0.250000 0.361427 0.346071
O O20 0.989533 0.377493 0.250323
O O21 0.750000 0.381681 0.127654
#
# Coordination Sequence:
#
# PCOD9363923 Si02
#       8
#     8   8   8   8   8   8   8   8
#     4  11  21  36  55  83 116 156 203 246 292 347
#     4   9  19  35  54  78 114 157 199 242 290 343
#     4  10  22  42  67  93 121 153 192 241 302 362
#     4  11  23  42  67  95 123 153 194 243 302 362
#     4  11  24  40  60  88 120 159 201 246 304 363
#     4  10  20  36  53  77 115 158 199 247 298 347
#     4  11  22  38  60  86 120 161 206 253 299 352
#     4  11  22  39  62  88 123 163 203 248 300 357
#
# _framework density 19.130376999999999
#
# number of rings (size 3 to 8) (size 9 to 14) (size 15 to 20)
#    0.000    1.500    2.500    3.750    1.750    2.500 
#    0.000    1.250    0.000    1.500    0.000    0.000 
#    0.000    0.000    0.000    0.000    0.000    0.000 
#
# Total GULP energy -178437.319764 kJ/mol
# GULP energy per Si atom -5576.166243 kJ/mol
# Density = 1.908684 g / cm^3
# Si number density = 19.130377 Si / 1000 Ang^3
#
#
#
# Elastic Constant Matrix: (Units=GPa)
#
#
# Indices 1 2 3 4 5 6 
#
# 1 62.6078 22.2039 47.1086 0.0000 0.0000 0.0000
# 2 22.2039 75.1017 60.9958 0.0000 0.0000 0.0000
# 3 47.1086 60.9958 130.6560 0.0000 0.0000 0.0000
# 4 0.0000 0.0000 0.0000 37.3770 0.0000 0.0000
# 5 0.0000 0.0000 0.0000 0.0000 33.7908 0.0000
# 6 0.0000 0.0000 0.0000 0.0000 0.0000 16.5627
#
#
#
# Elastic Compliance Matrix: (Units=1/GPa)
#
#
# Indices 1 2 3 4 5 6 
#
# 1 0.021919 -0.000099 -0.007857 0.000000 0.000000 0.000000
# 2 -0.000099 0.021448 -0.009977 0.000000 0.000000 0.000000
# 3 -0.007857 -0.009977 0.015144 0.000000 0.000000 0.000000
# 4 0.000000 0.000000 0.000000 0.026754 0.000000 0.000000
# 5 0.000000 0.000000 0.000000 0.000000 0.029594 0.000000
# 6 0.000000 0.000000 0.000000 0.000000 0.000000 0.060377
#
#
# Mechanical properties :
#
#
# Convention : Reuss Voigt Hill
#
# Bulk Modulus (GPa) = 44.15962 58.77581 51.46772
# Shear Modulus (GPa) = 22.86755 26.74990 24.80873
#
# Velocity S-wave (km/s) = 3.46114 3.74343 3.60505
# Velocity P-wave (km/s) = 6.25350 7.03384 6.65512
#
# Compressibility (1/GPa) = 0.02264512
#
# Stress axis : x y z
#
# Youngs Moduli (GPa) = 45.62159 46.62527 66.03252
#
# Poissons Ratio (x) = 0.00464 0.51880
# Poissons Ratio (y) = 0.00454 0.65879
# Poissons Ratio (z) = 0.35844 0.46517
#
# Static dielectric constant tensor:
#      x y z
#    x 1.651970 0.000000 0.000000 
#    y 0.000000 1.655010 0.000000 
#    z 0.000000 0.000000 1.761490 
# 
# From -- ./inp_files/10708.got.cif
#   From: 2010.05.17/outbox.cif.g08.bks.cpg/sg40_6_cif.got.tgz:10708.got - 2010.06.03 18:35:42.
