data_PCOD9363045
_publ_section_title
;
Structure prediction by ZEFSAII (Michael W. Deem and Ramdas Pophale) SiO2 
 PCOD9363045
Probable space group: A M A 2
;
_chemical_formula_sum "Si O2"
_cell_formula_units_Z 40
_cell_length_a 8.506841
_cell_length_b 9.316397
_cell_length_c 27.089206
_cell_angle_alpha 90.000000
_cell_angle_beta 90.000000
_cell_angle_gamma 90.000000
_cell_volume 2146.903768
_symmetry_space_group_name_H-M "A M A 2"
_symmetry_group_IT_number 40
_symmetry_cell_setting 'orthorhombic'
loop_
_space_group_symop_operation_xyz
x,y,z
-x,-y,z
1/2-x,y,z
1/2+x,-y,z
x,1/2+y,1/2+z
-x,1/2-y,1/2+z
1/2-x,1/2+y,1/2+z
1/2+x,1/2-y,1/2+z
loop_
_atom_site_type_symbol
_atom_site_label
_atom_site_fract_x
_atom_site_fract_y
_atom_site_fract_z
Si Si1 0.438142 0.836786 0.108060
Si Si2 0.559847 0.661598 0.415251
Si Si3 0.439984 0.161709 0.511805
Si Si4 0.439882 0.163056 0.319593
Si Si5 0.561681 0.336158 0.711215
O O1 0.250000 0.842672 0.108310
O O2 0.492021 0.743757 0.061395
O O3 0.494263 0.773356 0.160588
O O4 0.500000 0.000000 0.103506
O O5 0.500000 0.500000 0.417710
O O6 0.750000 0.660001 0.414992
O O7 0.508306 0.751289 0.463240
O O8 0.505942 0.740499 0.365187
O O9 0.250000 0.159933 0.511871
O O10 0.500000 0.000000 0.510505
O O11 0.250000 0.157777 0.320538
O O12 0.485833 0.221697 0.265194
O O13 0.500000 0.000000 0.324767
O O14 0.500000 0.500000 0.711735
O O15 0.750000 0.336359 0.707979
#
# Coordination Sequence:
#
# PCOD9363045 Si02
#       5
#     8   8   8   8   8
#     4  10  19  32  51  77 104 133 169 208 247 295
#     4  10  21  37  54  76 103 132 167 208 251 301
#     4  10  22  37  54  76 102 131 168 209 252 301
#     4   9  18  32  52  77 104 132 168 208 248 295
#     4   9  16  28  48  74 102 134 168 205 246 292
#
# _framework density 18.631481000000001
#
# number of rings (size 3 to 8) (size 9 to 14) (size 15 to 20)
#    0.000    2.400    0.000    3.600    0.000    4.000 
#    0.000    1.000    0.000    4.800    0.000    0.000 
#    0.000    0.000    0.000    0.000    0.000    0.000 
#
# Total GULP energy -111549.489244 kJ/mol
# GULP energy per Si atom -5577.474462 kJ/mol
# Density = 1.858907 g / cm^3
# Si number density = 18.631481 Si / 1000 Ang^3
#
#
#
# Elastic Constant Matrix: (Units=GPa)
#
#
# Indices 1 2 3 4 5 6 
#
# 1 20.9770 15.2464 35.3271 0.0000 0.0000 0.0000
# 2 15.2464 108.6117 100.4069 0.0000 0.0000 0.0000
# 3 35.3271 100.4069 239.3071 0.0000 0.0000 0.0000
# 4 0.0000 0.0000 0.0000 33.2952 0.0000 0.0000
# 5 0.0000 0.0000 0.0000 0.0000 24.6299 0.0000
# 6 0.0000 0.0000 0.0000 0.0000 0.0000 24.4141
#
#
#
# Elastic Compliance Matrix: (Units=1/GPa)
#
#
# Indices 1 2 3 4 5 6 
#
# 1 0.063455 -0.000405 -0.009198 0.000000 0.000000 0.000000
# 2 -0.000405 0.015044 -0.006252 0.000000 0.000000 0.000000
# 3 -0.009198 -0.006252 0.008160 0.000000 0.000000 0.000000
# 4 0.000000 0.000000 0.000000 0.030034 0.000000 0.000000
# 5 0.000000 0.000000 0.000000 0.000000 0.040601 0.000000
# 6 0.000000 0.000000 0.000000 0.000000 0.000000 0.040960
#
#
# Mechanical properties :
#
#
# Convention : Reuss Voigt Hill
#
# Bulk Modulus (GPa) = 18.19856 74.53962 46.36909
# Shear Modulus (GPa) = 20.13862 30.99556 25.56709
#
# Velocity S-wave (km/s) = 3.29126 4.08317 3.70841
# Velocity P-wave (km/s) = 4.92260 7.89455 6.57860
#
# Compressibility (1/GPa) = 0.05494939
#
# Stress axis : x y z
#
# Youngs Moduli (GPa) = 15.75925 66.47225 122.55230
#
# Poissons Ratio (x) = 0.02690 1.12718
# Poissons Ratio (y) = 0.00638 0.76623
# Poissons Ratio (z) = 0.14495 0.41560
#
# Static dielectric constant tensor:
#      x y z
#    x 1.639150 0.000000 0.000000 
#    y 0.000000 1.587690 0.000000 
#    z 0.000000 0.000000 1.697300 
# 
# From -- ./inp_files/23823.got.cif
#   From: 2010.05.17/outbox.cif.g08.bks.cpg/sg40_12_cif.got.tgz:23823.got - 2010.06.03 18:35:42.
