data_PCOD9363675
_publ_section_title
;
Structure prediction by ZEFSAII (Michael W. Deem and Ramdas Pophale) SiO2 
 PCOD9363675
Probable space group: A M A 2
;
_chemical_formula_sum "Si O2"
_cell_formula_units_Z 64
_cell_length_a 8.606488
_cell_length_b 16.560994
_cell_length_c 22.869119
_cell_angle_alpha 90.000000
_cell_angle_beta 90.000000
_cell_angle_gamma 90.000000
_cell_volume 3259.581181
_symmetry_space_group_name_H-M "A M A 2"
_symmetry_group_IT_number 40
_symmetry_cell_setting 'orthorhombic'
loop_
_space_group_symop_operation_xyz
x,y,z
-x,-y,z
1/2-x,y,z
1/2+x,-y,z
x,1/2+y,1/2+z
-x,1/2-y,1/2+z
1/2-x,1/2+y,1/2+z
1/2+x,1/2-y,1/2+z
loop_
_atom_site_type_symbol
_atom_site_label
_atom_site_fract_x
_atom_site_fract_y
_atom_site_fract_z
Si Si1 0.931995 0.418369 0.056690
Si Si2 0.927927 0.611810 0.933647
Si Si3 0.937451 0.588203 0.798452
Si Si4 0.936849 0.915514 0.877769
Si Si5 0.437053 0.088684 0.742163
Si Si6 0.935135 0.743103 0.595116
Si Si7 0.434413 0.232458 0.216315
Si Si8 0.570837 0.795650 0.974169
O O1 0.750000 0.418346 0.065622
O O2 0.993691 0.335554 0.084452
O O3 0.000000 0.500000 0.082330
O O4 0.968647 0.418004 0.987473
O O5 0.750000 0.581005 0.939825
O O6 0.981500 0.596156 0.867527
O O7 0.924180 0.706847 0.946490
O O8 0.750000 0.588849 0.795539
O O9 0.000000 0.500000 0.778354
O O10 0.998371 0.666045 0.762047
O O11 0.750000 0.913156 0.877666
O O12 0.984115 0.905935 0.810637
O O13 0.995386 0.849705 0.922611
O O14 0.000000 0.000000 0.898952
O O15 0.250000 0.087165 0.735766
O O16 0.496708 0.175775 0.719409
O O17 0.500000 0.000000 0.721858
O O18 0.750000 0.744018 0.604934
O O19 0.019481 0.705677 0.650750
O O20 0.974619 0.701834 0.533581
O O21 0.250000 0.236673 0.224003
O O22 0.750000 0.818267 0.987591
#
# Coordination Sequence:
#
# PCOD9363675 Si02
#       8
#     8   8   8   8   8   8   8   8
#     4  10  20  33  53  81 113 145 178 219 271 330
#     4   9  18  33  56  83 113 146 179 220 275 334
#     4  11  23  40  61  87 118 153 193 240 290 344
#     4   9  18  32  53  81 113 144 177 220 274 333
#     4  10  20  37  60  89 123 157 192 234 284 343
#     4  10  22  39  56  77 105 141 186 236 282 331
#     4  12  25  41  61  84 112 153 199 245 293 342
#     4   9  17  33  55  80 109 143 181 222 272 333
#
# _framework density 19.634423000000002
#
# number of rings (size 3 to 8) (size 9 to 14) (size 15 to 20)
#    0.000    2.000    0.000    3.750    0.000    7.000 
#    0.000    4.375    0.000    1.500    0.000    0.000 
#    0.000    0.000    0.000    0.000    0.000    0.000 
#
# Total GULP energy -178464.671347 kJ/mol
# GULP energy per Si atom -5577.020980 kJ/mol
# Density = 1.958973 g / cm^3
# Si number density = 19.634423 Si / 1000 Ang^3
#
#
#
# Elastic Constant Matrix: (Units=GPa)
#
#
# Indices 1 2 3 4 5 6 
#
# 1 50.9697 23.2716 20.2315 0.0000 0.0000 0.0000
# 2 23.2716 71.1265 41.4184 0.0000 0.0000 0.0000
# 3 20.2315 41.4184 99.9176 0.0000 0.0000 0.0000
# 4 0.0000 0.0000 0.0000 2.0159 0.0000 0.0000
# 5 0.0000 0.0000 0.0000 0.0000 17.9945 0.0000
# 6 0.0000 0.0000 0.0000 0.0000 0.0000 32.0734
#
#
#
# Elastic Compliance Matrix: (Units=1/GPa)
#
#
# Indices 1 2 3 4 5 6 
#
# 1 0.023383 -0.006450 -0.002061 0.000000 0.000000 0.000000
# 2 -0.006450 0.020313 -0.007114 0.000000 0.000000 0.000000
# 3 -0.002061 -0.007114 0.013374 0.000000 0.000000 0.000000
# 4 0.000000 0.000000 0.000000 0.496054 0.000000 0.000000
# 5 0.000000 0.000000 0.000000 0.000000 0.055573 0.000000
# 6 0.000000 0.000000 0.000000 0.000000 0.000000 0.031178
#
#
# Mechanical properties :
#
#
# Convention : Reuss Voigt Hill
#
# Bulk Modulus (GPa) = 38.73066 43.53965 41.13515
# Shear Modulus (GPa) = 7.35584 19.55624 13.45604
#
# Velocity S-wave (km/s) = 1.93766 3.15940 2.62072
# Velocity P-wave (km/s) = 4.97743 5.96090 5.49123
#
# Compressibility (1/GPa) = 0.02581934
#
# Stress axis : x y z
#
# Youngs Moduli (GPa) = 42.76687 49.23054 74.76956
#
# Poissons Ratio (x) = 0.31756 0.15407
# Poissons Ratio (y) = 0.27587 0.53191
# Poissons Ratio (z) = 0.08813 0.35023
#
# Static dielectric constant tensor:
#      x y z
#    x 1.685740 0.000000 0.000000 
#    y 0.000000 1.728630 0.000000 
#    z 0.000000 0.000000 1.696990 
# 
# From -- ./inp_files/22358.got.cif
#   From: 2010.05.17/outbox.cif.g08.bks.cpg/sg40_12_cif.got.tgz:22358.got - 2010.06.03 18:35:42.
