data_PCOD9363294
_publ_section_title
;
Structure prediction by ZEFSAII (Michael W. Deem and Ramdas Pophale) SiO2 
 PCOD9363294
Probable space group: A M A 2
;
_chemical_formula_sum "Si O2"
_cell_formula_units_Z 64
_cell_length_a 8.315873
_cell_length_b 21.193982
_cell_length_c 20.198372
_cell_angle_alpha 90.000000
_cell_angle_beta 90.000000
_cell_angle_gamma 90.000000
_cell_volume 3559.891617
_symmetry_space_group_name_H-M "A M A 2"
_symmetry_group_IT_number 40
_symmetry_cell_setting 'orthorhombic'
loop_
_space_group_symop_operation_xyz
x,y,z
-x,-y,z
1/2-x,y,z
1/2+x,-y,z
x,1/2+y,1/2+z
-x,1/2-y,1/2+z
1/2-x,1/2+y,1/2+z
1/2+x,1/2-y,1/2+z
loop_
_atom_site_type_symbol
_atom_site_label
_atom_site_fract_x
_atom_site_fract_y
_atom_site_fract_z
Si Si1 0.438269 0.753227 0.176280
Si Si2 0.558810 0.111246 0.673397
Si Si3 0.058211 0.236809 0.034805
Si Si4 0.555558 0.567847 0.314460
Si Si5 0.055739 0.810537 0.897605
Si Si6 0.057370 0.931724 0.387393
Si Si7 0.945735 0.115886 0.528280
Si Si8 0.557428 0.309426 0.809704
O O1 0.250000 0.739357 0.179465
O O2 0.531061 0.686369 0.181413
O O3 0.481112 0.781527 0.104714
O O4 0.488218 0.797094 0.236993
O O5 0.750000 0.100186 0.672152
O O6 0.493527 0.078185 0.739146
O O7 0.494817 0.093241 0.600462
O O8 0.250000 0.235577 0.041742
O O9 0.010214 0.310112 0.021923
O O10 0.005922 0.196306 0.972051
O O11 0.500000 0.500000 0.339077
O O12 0.750000 0.569597 0.312731
O O13 0.502273 0.626399 0.359688
O O14 0.250000 0.810225 0.898682
O O15 0.002576 0.748988 0.856075
O O16 0.250000 0.929740 0.388095
O O17 0.997897 0.920051 0.463016
O O18 0.995927 0.874600 0.342481
O O19 0.000000 0.000000 0.364458
O O20 0.750000 0.113153 0.529286
O O21 0.750000 0.307219 0.806133
#
# Coordination Sequence:
#
# PCOD9363294 Si02
#       8
#     8   8   8   8   8   8   8   8
#     4  11  21  33  54  85 114 142 182 230 276 333
#     4   9  17  34  53  75 109 150 188 228 275 321
#     4  10  19  34  56  82 111 144 181 227 280 330
#     4  10  21  36  53  77 112 150 188 231 277 328
#     4  10  20  35  56  82 111 143 185 233 280 326
#     4  11  22  37  53  80 113 150 192 233 279 331
#     4   8  16  30  51  75 106 144 183 222 266 321
#     4  11  21  37  59  82 110 147 186 232 284 332
#
# _framework density 17.978076000000001
#
# number of rings (size 3 to 8) (size 9 to 14) (size 15 to 20)
#    0.000    2.000    2.500    3.000    0.000    2.000 
#    0.000    0.625    0.000    0.750    0.000    3.500 
#    0.000    0.000    0.000    0.000    0.000    0.000 
#
# Total GULP energy -178622.450682 kJ/mol
# GULP energy per Si atom -5581.951584 kJ/mol
# Density = 1.793716 g / cm^3
# Si number density = 17.978076 Si / 1000 Ang^3
#
#
#
# Elastic Constant Matrix: (Units=GPa)
#
#
# Indices 1 2 3 4 5 6 
#
# 1 9.4280 -4.6851 4.4878 0.0000 0.0000 0.0000
# 2 -4.6851 91.7283 49.0611 0.0000 0.0000 0.0000
# 3 4.4878 49.0611 112.1362 0.0000 0.0000 0.0000
# 4 0.0000 0.0000 0.0000 32.0844 0.0000 0.0000
# 5 0.0000 0.0000 0.0000 0.0000 22.2205 0.0000
# 6 0.0000 0.0000 0.0000 0.0000 0.0000 18.5920
#
#
#
# Elastic Compliance Matrix: (Units=1/GPa)
#
#
# Indices 1 2 3 4 5 6 
#
# 1 0.116019 0.010978 -0.009446 0.000000 0.000000 0.000000
# 2 0.010978 0.015271 -0.007121 0.000000 0.000000 0.000000
# 3 -0.009446 -0.007121 0.012411 0.000000 0.000000 0.000000
# 4 0.000000 0.000000 0.000000 0.031168 0.000000 0.000000
# 5 0.000000 0.000000 0.000000 0.000000 0.045003 0.000000
# 6 0.000000 0.000000 0.000000 0.000000 0.000000 0.053787
#
#
# Mechanical properties :
#
#
# Convention : Reuss Voigt Hill
#
# Bulk Modulus (GPa) = 7.54583 34.55779 21.05181
# Shear Modulus (GPa) = 15.19707 25.54130 20.36918
#
# Velocity S-wave (km/s) = 2.91058 3.77329 3.36966
# Velocity P-wave (km/s) = 3.93721 6.18446 5.18407
#
# Compressibility (1/GPa) = 0.13252348
#
# Stress axis : x y z
#
# Youngs Moduli (GPa) = 8.61928 65.48396 80.57294
#
# Poissons Ratio (x) = -0.71888 0.76111
# Poissons Ratio (y) = -0.09462 0.57373
# Poissons Ratio (z) = 0.08142 0.46628
#
# Static dielectric constant tensor:
#      x y z
#    x 1.622690 0.000000 0.000000 
#    y 0.000000 1.592700 0.000000 
#    z 0.000000 0.000000 1.630190 
# 
# From -- ./inp_files/22407.got.cif
#   From: 2010.05.17/outbox.cif.g08.bks.cpg/sg40_12_cif.got.tgz:22407.got - 2010.06.03 18:35:42.
