data_PCOD9363342
_publ_section_title
;
Structure prediction by ZEFSAII (Michael W. Deem and Ramdas Pophale) SiO2 
 PCOD9363342
Probable space group: A M A 2
;
_chemical_formula_sum "Si O2"
_cell_formula_units_Z 56
_cell_length_a 15.671467
_cell_length_b 17.123596
_cell_length_c 8.978405
_cell_angle_alpha 90.000000
_cell_angle_beta 90.000000
_cell_angle_gamma 90.000000
_cell_volume 2409.371768
_symmetry_space_group_name_H-M "A M A 2"
_symmetry_group_IT_number 40
_symmetry_cell_setting 'orthorhombic'
loop_
_space_group_symop_operation_xyz
x,y,z
-x,-y,z
1/2-x,y,z
1/2+x,-y,z
x,1/2+y,1/2+z
-x,1/2-y,1/2+z
1/2-x,1/2+y,1/2+z
1/2+x,1/2-y,1/2+z
loop_
_atom_site_type_symbol
_atom_site_label
_atom_site_fract_x
_atom_site_fract_y
_atom_site_fract_z
Si Si1 0.844607 0.506131 0.425080
Si Si2 0.345182 0.914375 0.620726
Si Si3 0.513410 0.391639 0.969899
Si Si4 0.062084 0.598191 0.629705
Si Si5 0.659287 0.253715 0.713132
Si Si6 0.847985 0.356472 0.209379
Si Si7 0.007396 0.218247 0.901339
O O1 0.750000 0.524324 0.482616
O O2 0.864821 0.567348 0.294769
O O3 0.906717 0.482787 0.558540
O O4 0.842564 0.426481 0.328380
O O5 0.250000 0.949485 0.588264
O O6 0.430442 0.937437 0.531729
O O7 0.333352 0.821407 0.607725
O O8 0.529417 0.409584 0.797253
O O9 0.485023 0.300875 0.981334
O O10 0.599984 0.390828 0.067986
O O11 0.139370 0.662604 0.639874
O O12 0.001872 0.646160 0.515992
O O13 0.750000 0.259477 0.794720
O O14 0.579927 0.232300 0.814779
O O15 0.750000 0.330916 0.179067
O O16 0.913197 0.296234 0.289416
#
# Coordination Sequence:
#
# PCOD9363342 Si02
#       7
#     8   8   8   8   8   8   8
#     4   9  20  38  61  88 120 166 222 265 312 389
#     4  10  20  37  63  91 126 173 217 260 321 396
#     4  11  20  36  59  95 127 162 211 270 322 379
#     4  10  20  35  60  92 130 162 209 274 319 371
#     4  10  19  34  60  90 125 168 209 255 320 380
#     4  10  21  37  59  85 119 168 212 257 316 388
#     4  10  19  37  55  89 127 161 206 264 311 383
#
# _framework density 23.242571999999999
#
# number of rings (size 3 to 8) (size 9 to 14) (size 15 to 20)
#    0.000    2.000    2.857    1.286    0.000    4.571 
#    0.000    0.714    6.286    0.000    0.000    1.000 
#    0.000    0.000    0.000    0.000    0.000    0.000 
#
# Total GULP energy -156147.521848 kJ/mol
# GULP energy per Si atom -5576.697209 kJ/mol
# Density = 2.318967 g / cm^3
# Si number density = 23.242572 Si / 1000 Ang^3
#
#
#
# Elastic Constant Matrix: (Units=GPa)
#
#
# Indices 1 2 3 4 5 6 
#
# 1 202.6473 18.9437 83.5934 0.0000 0.0000 0.0000
# 2 18.9437 64.6792 3.5554 0.0000 0.0000 0.0000
# 3 83.5934 3.5554 124.7433 0.0000 0.0000 0.0000
# 4 0.0000 0.0000 0.0000 23.4906 0.0000 0.0000
# 5 0.0000 0.0000 0.0000 0.0000 1.6747 0.0000
# 6 0.0000 0.0000 0.0000 0.0000 0.0000 21.5098
#
#
#
# Elastic Compliance Matrix: (Units=1/GPa)
#
#
# Indices 1 2 3 4 5 6 
#
# 1 0.007023 -0.001801 -0.004655 0.000000 0.000000 0.000000
# 2 -0.001801 0.015947 0.000752 0.000000 0.000000 0.000000
# 3 -0.004655 0.000752 0.011115 0.000000 0.000000 0.000000
# 4 0.000000 0.000000 0.000000 0.042570 0.000000 0.000000
# 5 0.000000 0.000000 0.000000 0.000000 0.597112 0.000000
# 6 0.000000 0.000000 0.000000 0.000000 0.000000 0.046491
#
#
# Mechanical properties :
#
#
# Convention : Reuss Voigt Hill
#
# Bulk Modulus (GPa) = 44.09700 67.13943 55.61822
# Shear Modulus (GPa) = 6.76385 28.40017 17.58201
#
# Velocity S-wave (km/s) = 1.70776 3.49937 2.75336
# Velocity P-wave (km/s) = 4.78563 6.72878 5.83861
#
# Compressibility (1/GPa) = 0.02267728
#
# Stress axis : x y z
#
# Youngs Moduli (GPa) = 142.38226 62.70739 89.97208
#
# Poissons Ratio (x) = 0.11295 0.41884
# Poissons Ratio (y) = 0.25645 -0.06770
# Poissons Ratio (z) = 0.66281 -0.04719
#
# Static dielectric constant tensor:
#      x y z
#    x 1.997130 0.000000 0.000000 
#    y 0.000000 1.955560 0.000000 
#    z 0.000000 0.000000 1.882710 
# 
# From -- ./inp_files/6709.got.cif
#   From: 2010.05.17/outbox.cif.g08.bks.cpg/sg40_4_cif.got.tgz:6709.got - 2010.06.03 18:35:42.
