data_PCOD9363462
_publ_section_title
;
Structure prediction by ZEFSAII (Michael W. Deem and Ramdas Pophale) SiO2 
 PCOD9363462
Probable space group: A M A 2
;
_chemical_formula_sum "Si O2"
_cell_formula_units_Z 64
_cell_length_a 8.610049
_cell_length_b 25.671898
_cell_length_c 15.361392
_cell_angle_alpha 90.000000
_cell_angle_beta 90.000000
_cell_angle_gamma 90.000000
_cell_volume 3395.425246
_symmetry_space_group_name_H-M "A M A 2"
_symmetry_group_IT_number 40
_symmetry_cell_setting 'orthorhombic'
loop_
_space_group_symop_operation_xyz
x,y,z
-x,-y,z
1/2-x,y,z
1/2+x,-y,z
x,1/2+y,1/2+z
-x,1/2-y,1/2+z
1/2-x,1/2+y,1/2+z
1/2+x,1/2-y,1/2+z
loop_
_atom_site_type_symbol
_atom_site_label
_atom_site_fract_x
_atom_site_fract_y
_atom_site_fract_z
Si Si1 0.437704 0.362572 0.679520
Si Si2 0.434640 0.056479 0.691592
Si Si3 0.563440 0.335210 0.502576
Si Si4 0.065300 0.851434 0.810229
Si Si5 0.937139 0.719394 0.982599
Si Si6 0.063434 0.260102 0.780793
Si Si7 0.562603 0.058175 0.330287
Si Si8 0.561476 0.605275 0.017805
O O1 0.250000 0.363207 0.675904
O O2 0.505346 0.368784 0.583480
O O3 0.485753 0.305939 0.716503
O O4 0.487881 0.405678 0.749709
O O5 0.250000 0.055254 0.693257
O O6 0.496021 0.101302 0.755428
O O7 0.492705 0.071362 0.595063
O O8 0.500000 0.000000 0.715880
O O9 0.750000 0.335284 0.498234
O O10 0.498652 0.351795 0.408918
O O11 0.507950 0.275169 0.517345
O O12 0.250000 0.854751 0.810805
O O13 0.014894 0.795814 0.769576
O O14 0.750000 0.718896 0.991141
O O15 0.970175 0.720439 0.879225
O O16 0.992802 0.665531 0.023839
O O17 0.250000 0.253428 0.775021
O O18 0.750000 0.057249 0.329240
O O19 0.517310 0.083379 0.422917
O O20 0.500000 0.000000 0.323300
O O21 0.750000 0.604274 0.023757
#
# Coordination Sequence:
#
# PCOD9363462 Si02
#       8
#     8   8   8   8   8   8   8   8
#     4  10  20  36  58  86 120 159 201 246 299 354
#     4  12  26  44  63  88 118 155 201 253 303 359
#     4  10  21  37  59  88 122 159 197 247 301 355
#     4  11  23  41  63  88 118 156 199 248 303 361
#     4   8  15  31  55  82 117 157 192 229 287 350
#     4   9  17  34  58  86 119 156 195 242 294 353
#     4  10  21  37  59  84 118 161 201 245 294 346
#     4  10  19  36  60  88 122 161 198 240 296 357
#
# _framework density 18.848890999999998
#
# number of rings (size 3 to 8) (size 9 to 14) (size 15 to 20)
#    0.000    2.000    1.250    3.750    1.750    2.500 
#    0.000    3.125    0.000    1.500    0.000    0.000 
#    0.000    0.000    0.000    0.000    0.000    0.000 
#
# Total GULP energy -178715.585757 kJ/mol
# GULP energy per Si atom -5584.862055 kJ/mol
# Density = 1.880599 g / cm^3
# Si number density = 18.848891 Si / 1000 Ang^3
#
#
#
# Elastic Constant Matrix: (Units=GPa)
#
#
# Indices 1 2 3 4 5 6 
#
# 1 58.9889 41.8491 33.1046 0.0000 0.0000 0.0000
# 2 41.8491 129.4097 63.0798 0.0000 0.0000 0.0000
# 3 33.1046 63.0798 96.9731 0.0000 0.0000 0.0000
# 4 0.0000 0.0000 0.0000 26.8455 0.0000 0.0000
# 5 0.0000 0.0000 0.0000 0.0000 28.1653 0.0000
# 6 0.0000 0.0000 0.0000 0.0000 0.0000 21.4299
#
#
#
# Elastic Compliance Matrix: (Units=1/GPa)
#
#
# Indices 1 2 3 4 5 6 
#
# 1 0.023246 -0.005344 -0.004460 0.000000 0.000000 0.000000
# 2 -0.005344 0.012543 -0.006335 0.000000 0.000000 0.000000
# 3 -0.004460 -0.006335 0.015956 0.000000 0.000000 0.000000
# 4 0.000000 0.000000 0.000000 0.037250 0.000000 0.000000
# 5 0.000000 0.000000 0.000000 0.000000 0.035505 0.000000
# 6 0.000000 0.000000 0.000000 0.000000 0.000000 0.046664
#
#
# Mechanical properties :
#
#
# Convention : Reuss Voigt Hill
#
# Bulk Modulus (GPa) = 51.36619 62.38208 56.87414
# Shear Modulus (GPa) = 23.81743 25.11069 24.46406
#
# Velocity S-wave (km/s) = 3.55857 3.65391 3.60655
# Velocity P-wave (km/s) = 6.64795 7.13927 6.89799
#
# Compressibility (1/GPa) = 0.01946806
#
# Stress axis : x y z
#
# Youngs Moduli (GPa) = 43.01790 79.72286 62.67394
#
# Poissons Ratio (x) = 0.42600 0.27952
# Poissons Ratio (y) = 0.22987 0.39705
# Poissons Ratio (z) = 0.19185 0.50506
#
# Static dielectric constant tensor:
#      x y z
#    x 1.635290 0.000000 0.000000 
#    y 0.000000 1.644650 0.000000 
#    z 0.000000 0.000000 1.647990 
# 
# From -- ./inp_files/15614.got.cif
#   From: 2010.05.17/outbox.cif.g08.bks.cpg/sg40_8_cif.got.tgz:15614.got - 2010.06.03 18:35:42.
