data_PCOD9363449
_publ_section_title
;
Structure prediction by ZEFSAII (Michael W. Deem and Ramdas Pophale) SiO2 
 PCOD9363449
Probable space group: A M A 2
;
_chemical_formula_sum "Si O2"
_cell_formula_units_Z 56
_cell_length_a 19.930953
_cell_length_b 15.628378
_cell_length_c 9.725706
_cell_angle_alpha 90.000000
_cell_angle_beta 90.000000
_cell_angle_gamma 90.000000
_cell_volume 3029.445256
_symmetry_space_group_name_H-M "A M A 2"
_symmetry_group_IT_number 40
_symmetry_cell_setting 'orthorhombic'
loop_
_space_group_symop_operation_xyz
x,y,z
-x,-y,z
1/2-x,y,z
1/2+x,-y,z
x,1/2+y,1/2+z
-x,1/2-y,1/2+z
1/2-x,1/2+y,1/2+z
1/2+x,1/2-y,1/2+z
loop_
_atom_site_type_symbol
_atom_site_label
_atom_site_fract_x
_atom_site_fract_y
_atom_site_fract_z
Si Si1 0.076994 0.530471 0.368610
Si Si2 0.829996 0.943310 0.126110
Si Si3 0.031073 0.702962 0.242749
Si Si4 0.402202 0.398217 0.128975
Si Si5 0.435032 0.711087 0.950317
Si Si6 0.673506 0.252420 0.728761
Si Si7 0.925159 0.484770 0.870327
O O1 0.127692 0.526780 0.495020
O O2 0.072764 0.627670 0.313896
O O3 0.102697 0.470167 0.246230
O O4 0.000000 0.500000 0.401587
O O5 0.750000 0.959761 0.118666
O O6 0.839882 0.840776 0.147718
O O7 0.866931 0.983891 0.257834
O O8 0.968290 0.655267 0.169774
O O9 0.000900 0.762964 0.361574
O O10 0.064879 0.743482 0.107480
O O11 0.342964 0.329909 0.137294
O O12 0.411880 0.444676 0.985429
O O13 0.374431 0.749740 0.861253
O O14 0.426604 0.608639 0.942804
O O15 0.750000 0.253726 0.772740
O O16 0.000000 0.500000 0.810632
#
# Coordination Sequence:
#
# PCOD9363449 Si02
#       7
#     8   8   8   8   8   8   8
#     4  10  20  37  59  85 117 146 189 242 293 342
#     4  10  23  39  55  81 116 153 191 234 290 353
#     4  10  20  34  56  88 116 145 188 235 293 342
#     4  10  19  36  59  84 111 145 187 242 286 341
#     4  10  20  34  58  86 116 147 187 237 287 345
#     4   9  21  39  58  79 113 157 195 231 284 350
#     4  11  19  35  60  87 114 145 192 245 285 339
#
# _framework density 18.485233999999998
#
# number of rings (size 3 to 8) (size 9 to 14) (size 15 to 20)
#    0.000    2.000    2.857    0.857    6.000    1.143 
#    2.571    0.714    0.000    0.000    0.000    0.000 
#    0.000    0.000    0.000    0.000    0.000    0.000 
#
# Total GULP energy -156187.327678 kJ/mol
# GULP energy per Si atom -5578.118846 kJ/mol
# Density = 1.844316 g / cm^3
# Si number density = 18.485234 Si / 1000 Ang^3
#
#
#
# Elastic Constant Matrix: (Units=GPa)
#
#
# Indices 1 2 3 4 5 6 
#
# 1 81.0780 23.5806 52.1073 0.0000 0.0000 0.0000
# 2 23.5806 55.5766 27.0892 0.0000 0.0000 0.0000
# 3 52.1073 27.0892 108.3692 0.0000 0.0000 0.0000
# 4 0.0000 0.0000 0.0000 25.7730 0.0000 0.0000
# 5 0.0000 0.0000 0.0000 0.0000 17.8333 0.0000
# 6 0.0000 0.0000 0.0000 0.0000 0.0000 23.1447
#
#
#
# Elastic Compliance Matrix: (Units=1/GPa)
#
#
# Indices 1 2 3 4 5 6 
#
# 1 0.018608 -0.004024 -0.007941 0.000000 0.000000 0.000000
# 2 -0.004024 0.021360 -0.003404 0.000000 0.000000 0.000000
# 3 -0.007941 -0.003404 0.013897 0.000000 0.000000 0.000000
# 4 0.000000 0.000000 0.000000 0.038800 0.000000 0.000000
# 5 0.000000 0.000000 0.000000 0.000000 0.056075 0.000000
# 6 0.000000 0.000000 0.000000 0.000000 0.000000 0.043206
#
#
# Mechanical properties :
#
#
# Convention : Reuss Voigt Hill
#
# Bulk Modulus (GPa) = 43.24317 50.06422 46.65370
# Shear Modulus (GPa) = 21.70184 22.83331 22.26758
#
# Velocity S-wave (km/s) = 3.43010 3.51838 3.47452
# Velocity P-wave (km/s) = 6.25552 6.60663 6.43347
#
# Compressibility (1/GPa) = 0.02312504
#
# Stress axis : x y z
#
# Youngs Moduli (GPa) = 53.74036 46.81632 71.95731
#
# Poissons Ratio (x) = 0.18841 0.57143
# Poissons Ratio (y) = 0.21627 0.24497
# Poissons Ratio (z) = 0.42677 0.15938
#
# Static dielectric constant tensor:
#      x y z
#    x 1.648070 0.000000 0.000000 
#    y 0.000000 1.662440 0.000000 
#    z 0.000000 0.000000 1.649250 
# 
# From -- ./inp_files/8282.got.cif
#   From: 2010.05.17/outbox.cif.g08.bks.cpg/sg40_5_cif.got.tgz:8282.got - 2010.06.03 18:35:42.
