data_PCOD9363257
_publ_section_title
;
Structure prediction by ZEFSAII (Michael W. Deem and Ramdas Pophale) SiO2 
 PCOD9363257
Probable space group: A M A 2
;
_chemical_formula_sum "Si O2"
_cell_formula_units_Z 48
_cell_length_a 8.587342
_cell_length_b 30.868348
_cell_length_c 10.328078
_cell_angle_alpha 90.000000
_cell_angle_beta 90.000000
_cell_angle_gamma 90.000000
_cell_volume 2737.736565
_symmetry_space_group_name_H-M "A M A 2"
_symmetry_group_IT_number 40
_symmetry_cell_setting 'orthorhombic'
loop_
_space_group_symop_operation_xyz
x,y,z
-x,-y,z
1/2-x,y,z
1/2+x,-y,z
x,1/2+y,1/2+z
-x,1/2-y,1/2+z
1/2-x,1/2+y,1/2+z
1/2+x,1/2-y,1/2+z
loop_
_atom_site_type_symbol
_atom_site_label
_atom_site_fract_x
_atom_site_fract_y
_atom_site_fract_z
Si Si1 0.062546 0.951994 0.605440
Si Si2 0.061688 0.384529 0.596504
Si Si3 0.560566 0.117595 0.393474
Si Si4 0.562041 0.216285 0.390932
Si Si5 0.064619 0.547790 0.390201
Si Si6 0.062460 0.284686 0.595368
O O1 0.250000 0.953114 0.606941
O O2 0.008875 0.917160 0.499153
O O3 0.003389 0.940535 0.748988
O O4 0.000000 0.000000 0.575297
O O5 0.250000 0.387630 0.588825
O O6 0.015444 0.393313 0.745834
O O7 0.017921 0.334593 0.567648
O O8 0.987778 0.417771 0.496824
O O9 0.750000 0.117699 0.394956
O O10 0.511243 0.166981 0.422206
O O11 0.750000 0.216669 0.392864
O O12 0.501581 0.251077 0.492127
O O13 0.512494 0.225636 0.242839
O O14 0.250000 0.545618 0.381581
O O15 0.000000 0.500000 0.422533
O O16 0.250000 0.283183 0.593114
#
# Coordination Sequence:
#
# PCOD9363257 Si02
#       6
#     8   8   8   8   8   8
#     4  10  19  34  54  76 102 133 169 208 254 302
#     4   9  18  36  56  74 101 135 170 208 252 301
#     4   8  17  34  55  75  99 134 171 209 254 302
#     4   9  18  34  53  74 102 135 172 210 249 299
#     4  11  22  36  53  76 104 134 169 207 250 298
#     4   9  19  34  52  75 103 135 169 208 254 300
#
# _framework density 17.532730000000001
#
# number of rings (size 3 to 8) (size 9 to 14) (size 15 to 20)
#    0.000    2.667    0.000    5.000    0.000    3.333 
#    0.000   12.500    0.000    0.000    0.000    0.000 
#    0.000    0.000    0.000    0.000    0.000    0.000 
#
# Total GULP energy -133859.732149 kJ/mol
# GULP energy per Si atom -5577.488840 kJ/mol
# Density = 1.749283 g / cm^3
# Si number density = 17.532730 Si / 1000 Ang^3
#
#
#
# Elastic Constant Matrix: (Units=GPa)
#
#
# Indices 1 2 3 4 5 6 
#
# 1 46.9095 41.5698 41.6179 0.0000 0.0000 0.0000
# 2 41.5698 148.6613 143.5409 0.0000 0.0000 0.0000
# 3 41.6179 143.5409 160.1039 0.0000 0.0000 0.0000
# 4 0.0000 0.0000 0.0000 44.0559 0.0000 0.0000
# 5 0.0000 0.0000 0.0000 0.0000 30.2340 0.0000
# 6 0.0000 0.0000 0.0000 0.0000 0.0000 31.0339
#
#
#
# Elastic Compliance Matrix: (Units=1/GPa)
#
#
# Indices 1 2 3 4 5 6 
#
# 1 0.028422 -0.006059 -0.001956 0.000000 0.000000 0.000000
# 2 -0.006059 0.051367 -0.044478 0.000000 0.000000 0.000000
# 3 -0.001956 -0.044478 0.046631 0.000000 0.000000 0.000000
# 4 0.000000 0.000000 0.000000 0.022698 0.000000 0.000000
# 5 0.000000 0.000000 0.000000 0.000000 0.033075 0.000000
# 6 0.000000 0.000000 0.000000 0.000000 0.000000 0.032223
#
#
# Mechanical properties :
#
#
# Convention : Reuss Voigt Hill
#
# Bulk Modulus (GPa) = 46.65405 89.90355 68.27880
# Shear Modulus (GPa) = 15.31171 29.66116 22.48644
#
# Velocity S-wave (km/s) = 2.95841 4.11756 3.58514
# Velocity P-wave (km/s) = 6.19169 8.60201 7.49439
#
# Compressibility (1/GPa) = 0.02143436
#
# Stress axis : x y z
#
# Youngs Moduli (GPa) = 35.18355 19.46778 21.44502
#
# Poissons Ratio (x) = 0.11796 0.04194
# Poissons Ratio (y) = 0.21319 0.95383
# Poissons Ratio (z) = 0.06881 0.86589
#
# Static dielectric constant tensor:
#      x y z
#    x 1.599860 0.000000 0.000000 
#    y 0.000000 1.579100 0.000000 
#    z 0.000000 0.000000 1.581360 
# 
# From -- ./inp_files/4642.got.cif
#   From: 2010.05.17/outbox.cif.g08.bks.cpg/sg40_3_cif.got.tgz:4642.got - 2010.06.03 18:35:42.
