data_PCOD9363522
_publ_section_title
;
Structure prediction by ZEFSAII (Michael W. Deem and Ramdas Pophale) SiO2 
 PCOD9363522
Probable space group: A M A 2
;
_chemical_formula_sum "Si O2"
_cell_formula_units_Z 56
_cell_length_a 21.562399
_cell_length_b 17.385757
_cell_length_c 7.804628
_cell_angle_alpha 90.000000
_cell_angle_beta 90.000000
_cell_angle_gamma 90.000000
_cell_volume 2925.788247
_symmetry_space_group_name_H-M "A M A 2"
_symmetry_group_IT_number 40
_symmetry_cell_setting 'orthorhombic'
loop_
_space_group_symop_operation_xyz
x,y,z
-x,-y,z
1/2-x,y,z
1/2+x,-y,z
x,1/2+y,1/2+z
-x,1/2-y,1/2+z
1/2-x,1/2+y,1/2+z
1/2+x,1/2-y,1/2+z
loop_
_atom_site_type_symbol
_atom_site_label
_atom_site_fract_x
_atom_site_fract_y
_atom_site_fract_z
Si Si1 0.680393 0.425296 0.094540
Si Si2 0.870900 0.927245 0.232933
Si Si3 0.419812 0.796160 0.526819
Si Si4 0.442074 0.940972 0.074547
Si Si5 0.068113 0.961267 0.676898
Si Si6 0.980514 0.818795 0.264849
Si Si7 0.677265 0.321813 0.418754
O O1 0.750000 0.454537 0.135444
O O2 0.623694 0.480995 0.138107
O O3 0.670663 0.353731 0.224767
O O4 0.676193 0.414758 0.889251
O O5 0.933654 0.888009 0.306405
O O6 0.888312 0.014859 0.180957
O O7 0.851205 0.882918 0.057495
O O8 0.421165 0.886189 0.562194
O O9 0.479843 0.781148 0.412010
O O10 0.435762 0.746602 0.692930
O O11 0.359683 0.757537 0.444042
O O12 0.467781 0.860696 0.145963
O O13 0.500000 0.000000 0.081795
O O14 0.426325 0.936212 0.874916
O O15 0.000000 0.000000 0.650993
O O16 0.750000 0.313514 0.455037
#
# Coordination Sequence:
#
# PCOD9363522 Si02
#       7
#     8   8   8   8   8   8   8
#     4  11  23  39  65  92 119 164 215 257 312 383
#     4  10  19  37  63  89 119 161 205 256 308 372
#     4  11  23  36  58  89 125 167 199 263 314 377
#     4   9  18  35  58  88 127 160 200 259 314 377
#     4  11  22  38  64  93 125 164 212 265 320 374
#     4  10  21  33  55  90 125 155 202 248 319 375
#     4  10  23  42  60  85 124 165 206 256 311 376
#
# _framework density 19.140141
#
# number of rings (size 3 to 8) (size 9 to 14) (size 15 to 20)
#    0.000    1.714    1.429    3.000    6.000    1.714 
#    0.000    0.000    0.000    0.857    0.000    0.000 
#    0.000    0.000    0.000    0.000    0.000    0.000 
#
# Total GULP energy -156025.714643 kJ/mol
# GULP energy per Si atom -5572.346952 kJ/mol
# Density = 1.909658 g / cm^3
# Si number density = 19.140141 Si / 1000 Ang^3
#
#
#
# Elastic Constant Matrix: (Units=GPa)
#
#
# Indices 1 2 3 4 5 6 
#
# 1 106.7635 41.3257 24.3572 0.0000 0.0000 0.0000
# 2 41.3257 78.0798 9.1602 0.0000 0.0000 0.0000
# 3 24.3572 9.1602 54.9088 0.0000 0.0000 0.0000
# 4 0.0000 0.0000 0.0000 1.0963 0.0000 0.0000
# 5 0.0000 0.0000 0.0000 0.0000 29.4524 0.0000
# 6 0.0000 0.0000 0.0000 0.0000 0.0000 24.5742
#
#
#
# Elastic Compliance Matrix: (Units=1/GPa)
#
#
# Indices 1 2 3 4 5 6 
#
# 1 0.012850 -0.006255 -0.004657 0.000000 0.000000 0.000000
# 2 -0.006255 0.016108 0.000087 0.000000 0.000000 0.000000
# 3 -0.004657 0.000087 0.020263 0.000000 0.000000 0.000000
# 4 0.000000 0.000000 0.000000 0.912135 0.000000 0.000000
# 5 0.000000 0.000000 0.000000 0.000000 0.033953 0.000000
# 6 0.000000 0.000000 0.000000 0.000000 0.000000 0.040693
#
#
# Mechanical properties :
#
#
# Convention : Reuss Voigt Hill
#
# Bulk Modulus (GPa) = 36.26797 43.27093 39.76945
# Shear Modulus (GPa) = 4.68673 22.01850 13.35262
#
# Velocity S-wave (km/s) = 1.56651 3.39541 2.64412
# Velocity P-wave (km/s) = 4.71823 6.16670 5.49044
#
# Compressibility (1/GPa) = 0.02757254
#
# Stress axis : x y z
#
# Youngs Moduli (GPa) = 77.82104 62.08209 49.35074
#
# Poissons Ratio (x) = 0.38832 0.22981
# Poissons Ratio (y) = 0.48676 -0.00431
# Poissons Ratio (z) = 0.36239 -0.00543
#
# Static dielectric constant tensor:
#      x y z
#    x 1.654950 0.000000 0.000000 
#    y 0.000000 1.676620 0.000000 
#    z 0.000000 0.000000 1.754600 
# 
# From -- ./inp_files/8384.got.cif
#   From: 2010.05.17/outbox.cif.g08.bks.cpg/sg40_5_cif.got.tgz:8384.got - 2010.06.03 18:35:42.
