data_PCOD9363565
_publ_section_title
;
Structure prediction by ZEFSAII (Michael W. Deem and Ramdas Pophale) SiO2 
 PCOD9363565
Probable space group: A M A 2
;
_chemical_formula_sum "Si O2"
_cell_formula_units_Z 52
_cell_length_a 26.111033
_cell_length_b 12.321021
_cell_length_c 6.987116
_cell_angle_alpha 90.000000
_cell_angle_beta 90.000000
_cell_angle_gamma 90.000000
_cell_volume 2247.857131
_symmetry_space_group_name_H-M "A M A 2"
_symmetry_group_IT_number 40
_symmetry_cell_setting 'orthorhombic'
loop_
_space_group_symop_operation_xyz
x,y,z
-x,-y,z
1/2-x,y,z
1/2+x,-y,z
x,1/2+y,1/2+z
-x,1/2-y,1/2+z
1/2-x,1/2+y,1/2+z
1/2+x,1/2-y,1/2+z
loop_
_atom_site_type_symbol
_atom_site_label
_atom_site_fract_x
_atom_site_fract_y
_atom_site_fract_z
Si Si1 0.859132 0.431931 0.887870
Si Si2 0.250000 0.590303 0.823612
Si Si3 0.531589 0.390376 0.944726
Si Si4 0.750000 0.627397 0.070762
Si Si5 0.360321 0.329377 0.071943
Si Si6 0.641924 0.199901 0.023399
Si Si7 0.059062 0.750809 0.289149
Si Si8 0.750000 0.165813 0.992878
O O1 0.809286 0.421794 0.749496
O O2 0.953009 0.353797 0.160014
O O3 0.850698 0.330575 0.033823
O O4 0.864272 0.547051 0.994121
O O5 0.250000 0.710159 0.915295
O O6 0.250000 0.487348 0.965977
O O7 0.500000 0.500000 0.951083
O O8 0.494167 0.300128 0.858379
O O9 0.583155 0.406577 0.821295
O O10 0.699197 0.696160 0.030867
O O11 0.750000 0.599118 0.296435
O O12 0.365973 0.326351 0.300562
O O13 0.401088 0.253550 0.965388
O O14 0.695605 0.149448 0.092566
O O15 0.591526 0.172864 0.141578
#
# Coordination Sequence:
#
# PCOD9363565 Si02
#       8
#     8   4   8   4   8   8   8   4
#     4   9  18  35  62  85 123 158 196 256 307 371
#     4   8  14  28  54  90 112 154 196 236 316 366
#     4  11  24  44  62  88 128 165 214 269 313 371
#     4   8  16  29  59  91 123 160 193 254 315 363
#     4  10  19  39  62  93 128 160 208 257 311 379
#     4   9  20  37  61  92 126 159 206 257 311 376
#     4  11  25  40  66  90 118 172 215 259 313 374
#     4   8  14  31  57  87 123 160 191 250 317 367
#
# _framework density 23.133143
#
# number of rings (size 3 to 8) (size 9 to 14) (size 15 to 20)
#    0.000    2.462    1.538    0.000    4.308    0.615 
#    0.000    9.231    0.000    0.000    0.000   34.462 
#    0.000    0.000    0.000    0.000    0.000    0.000 
#
# Total GULP energy -144770.706187 kJ/mol
# GULP energy per Si atom -5568.104084 kJ/mol
# Density = 2.308049 g / cm^3
# Si number density = 23.133143 Si / 1000 Ang^3
#
#
#
# Elastic Constant Matrix: (Units=GPa)
#
#
# Indices 1 2 3 4 5 6 
#
# 1 195.7715 1.8687 22.6439 0.0000 0.0000 0.0000
# 2 1.8687 79.4216 11.1324 0.0000 0.0000 0.0000
# 3 22.6439 11.1324 84.5374 0.0000 0.0000 0.0000
# 4 0.0000 0.0000 0.0000 29.1751 0.0000 0.0000
# 5 0.0000 0.0000 0.0000 0.0000 35.6979 0.0000
# 6 0.0000 0.0000 0.0000 0.0000 0.0000 -35.4821
#
#
#
# Elastic Compliance Matrix: (Units=1/GPa)
#
#
# Indices 1 2 3 4 5 6 
#
# 1 0.005272 0.000075 -0.001422 0.000000 0.000000 0.000000
# 2 0.000075 0.012829 -0.001710 0.000000 0.000000 0.000000
# 3 -0.001422 -0.001710 0.012435 0.000000 0.000000 0.000000
# 4 0.000000 0.000000 0.000000 0.034276 0.000000 0.000000
# 5 0.000000 0.000000 0.000000 0.000000 0.028013 0.000000
# 6 0.000000 0.000000 0.000000 0.000000 0.000000 -0.028183
#
#
# Mechanical properties :
#
#
# Convention : Reuss Voigt Hill
#
# Bulk Modulus (GPa) = 40.94465 47.89118 44.41792
# Shear Modulus (GPa) = 63.37559 27.48389 45.42974
#
# Velocity S-wave (km/s) = 5.23980 3.45058 4.43633
# Velocity P-wave (km/s) = 7.37193 6.05167 6.74418
#
# Compressibility (1/GPa) = 0.02442321
#
# Stress axis : x y z
#
# Youngs Moduli (GPa) = 189.69030 77.94912 80.41752
#
# Poissons Ratio (x) = -0.00587 0.11435
# Poissons Ratio (y) = -0.01428 0.13748
# Poissons Ratio (z) = 0.26974 0.13326
#
# Static dielectric constant tensor:
#      x y z
#    x 1.989720 0.000000 0.000000 
#    y 0.000000 1.878130 0.000000 
#    z 0.000000 0.000000 1.898000 
# 
# From -- ./inp_files/9194.got.cif
#   From: 2010.05.17/outbox.cif.g08.bks.cpg/sg40_5_cif.got.tgz:9194.got - 2010.06.03 18:35:42.
