data_PCOD9363633
_publ_section_title
;
Structure prediction by ZEFSAII (Michael W. Deem and Ramdas Pophale) SiO2 
 PCOD9363633
Probable space group: A M A 2
;
_chemical_formula_sum "Si O2"
_cell_formula_units_Z 64
_cell_length_a 8.825465
_cell_length_b 22.248483
_cell_length_c 22.053038
_cell_angle_alpha 90.000000
_cell_angle_beta 90.000000
_cell_angle_gamma 90.000000
_cell_volume 4330.184758
_symmetry_space_group_name_H-M "A M A 2"
_symmetry_group_IT_number 40
_symmetry_cell_setting 'orthorhombic'
loop_
_space_group_symop_operation_xyz
x,y,z
-x,-y,z
1/2-x,y,z
1/2+x,-y,z
x,1/2+y,1/2+z
-x,1/2-y,1/2+z
1/2-x,1/2+y,1/2+z
1/2+x,1/2-y,1/2+z
loop_
_atom_site_type_symbol
_atom_site_label
_atom_site_fract_x
_atom_site_fract_y
_atom_site_fract_z
Si Si1 0.068241 0.933301 0.721330
Si Si2 0.068317 0.838279 0.954095
Si Si3 0.565643 0.842123 0.820208
Si Si4 0.425694 0.755691 0.540237
Si Si5 0.922541 0.741877 0.732801
Si Si6 0.575041 0.844925 0.628316
Si Si7 0.576516 0.845308 0.147020
Si Si8 0.565878 0.933859 0.048465
O O1 0.250000 0.934389 0.725408
O O2 0.999179 0.894783 0.777237
O O3 0.016141 0.898622 0.660155
O O4 0.000000 0.000000 0.722332
O O5 0.250000 0.841645 0.952916
O O6 0.998067 0.845381 0.887590
O O7 0.014996 0.775953 0.985593
O O8 0.999914 0.891095 0.996071
O O9 0.750000 0.844586 0.819019
O O10 0.514347 0.778876 0.789677
O O11 0.250000 0.765412 0.524196
O O12 0.500246 0.815013 0.569157
O O13 0.428083 0.706024 0.594497
O O14 0.750000 0.726739 0.746531
O O15 0.924337 0.791894 0.679107
O O16 0.999370 0.683272 0.705401
O O17 0.750000 0.861781 0.617806
O O18 0.750000 0.856739 0.162270
O O19 0.515564 0.903817 0.112468
O O20 0.750000 0.932989 0.045909
O O21 0.500000 0.000000 0.042172
#
# Coordination Sequence:
#
# PCOD9363633 Si02
#       8
#     8   8   8   8   8   8   8   8
#     4  11  21  33  47  65  89 120 155 190 226 267
#     4  11  21  32  46  65  88 119 154 188 224 266
#     4  10  20  34  47  63  88 118 152 190 224 262
#     4   9  16  28  45  65  87 113 143 181 225 267
#     4   8  15  26  43  63  83 107 137 174 219 262
#     4   9  16  28  45  66  88 112 143 182 225 269
#     4   8  15  26  42  62  84 107 136 174 218 261
#     4  10  20  33  46  63  87 118 152 187 222 260
#
# _framework density 14.77997
#
# number of rings (size 3 to 8) (size 9 to 14) (size 15 to 20)
#    0.000    2.500    0.000    5.250    0.000    7.500 
#    0.000    2.500    0.000    0.000    0.000    0.000 
#    0.000    1.000    0.000    7.000    0.000    6.125 
#
# Total GULP energy -178203.225194 kJ/mol
# GULP energy per Si atom -5568.850787 kJ/mol
# Density = 1.474633 g / cm^3
# Si number density = 14.779970 Si / 1000 Ang^3
#
#
#
# Elastic Constant Matrix: (Units=GPa)
#
#
# Indices 1 2 3 4 5 6 
#
# 1 105.1135 49.4087 45.8972 0.0000 0.0000 0.0000
# 2 49.4087 79.8957 76.9706 0.0000 0.0000 0.0000
# 3 45.8972 76.9706 68.8283 0.0000 0.0000 0.0000
# 4 0.0000 0.0000 0.0000 15.1947 0.0000 0.0000
# 5 0.0000 0.0000 0.0000 0.0000 20.3639 0.0000
# 6 0.0000 0.0000 0.0000 0.0000 0.0000 20.9426
#
#
#
# Elastic Compliance Matrix: (Units=1/GPa)
#
#
# Indices 1 2 3 4 5 6 
#
# 1 0.013315 -0.004132 -0.004258 0.000000 0.000000 0.000000
# 2 -0.004132 -0.160522 0.182267 0.000000 0.000000 0.000000
# 3 -0.004258 0.182267 -0.186460 0.000000 0.000000 0.000000
# 4 0.000000 0.000000 0.000000 0.065812 0.000000 0.000000
# 5 0.000000 0.000000 0.000000 0.000000 0.049107 0.000000
# 6 0.000000 0.000000 0.000000 0.000000 0.000000 0.047750
#
#
# Mechanical properties :
#
#
# Convention : Reuss Voigt Hill
#
# Bulk Modulus (GPa) = 70.99162 66.48786 68.73974
# Shear Modulus (GPa) = -9.72655 16.73764 3.50555
#
# Velocity S-wave (km/s) = -2.56811 3.36885 1.54174
# Velocity P-wave (km/s) = 6.27240 7.75983 7.05542
#
# Compressibility (1/GPa) = 0.01408617
#
# Stress axis : x y z
#
# Youngs Moduli (GPa) = 75.10285 -6.22968 -5.36307
#
# Poissons Ratio (x) = -0.02574 -0.02284
# Poissons Ratio (y) = 0.31034 0.97751
# Poissons Ratio (z) = 0.31978 1.13546
#
# Static dielectric constant tensor:
#      x y z
#    x 1.503070 0.000000 0.000000 
#    y 0.000000 1.486330 0.000000 
#    z 0.000000 0.000000 1.482970 
# 
# From -- ./inp_files/22522.got.cif
#   From: 2010.05.17/outbox.cif.g08.bks.cpg/sg40_12_cif.got.tgz:22522.got - 2010.06.03 18:35:42.
