data_PCOD9363705
_publ_section_title
;
Structure prediction by ZEFSAII (Michael W. Deem and Ramdas Pophale) SiO2 
 PCOD9363705
Probable space group: A M A 2
;
_chemical_formula_sum "Si O2"
_cell_formula_units_Z 60
_cell_length_a 15.632356
_cell_length_b 20.342648
_cell_length_c 10.931475
_cell_angle_alpha 90.000000
_cell_angle_beta 90.000000
_cell_angle_gamma 90.000000
_cell_volume 3476.247480
_symmetry_space_group_name_H-M "A M A 2"
_symmetry_group_IT_number 40
_symmetry_cell_setting 'orthorhombic'
loop_
_space_group_symop_operation_xyz
x,y,z
-x,-y,z
1/2-x,y,z
1/2+x,-y,z
x,1/2+y,1/2+z
-x,1/2-y,1/2+z
1/2-x,1/2+y,1/2+z
1/2+x,1/2-y,1/2+z
loop_
_atom_site_type_symbol
_atom_site_label
_atom_site_fract_x
_atom_site_fract_y
_atom_site_fract_z
Si Si1 0.505682 0.923090 0.561570
Si Si2 0.846776 0.574147 0.658864
Si Si3 0.348196 0.862311 0.422230
Si Si4 0.000000 0.500000 0.540867
Si Si5 0.650999 0.819635 0.531896
Si Si6 0.848640 0.177226 0.942062
Si Si7 0.347539 0.715481 0.319094
Si Si8 0.010304 0.111004 0.843350
O O1 0.419646 0.886427 0.516678
O O2 0.585708 0.879584 0.512325
O O3 0.517396 0.919013 0.708281
O O4 0.500000 0.000000 0.525466
O O5 0.750000 0.549507 0.637063
O O6 0.854987 0.593937 0.799663
O O7 0.855821 0.639200 0.572824
O O8 0.919673 0.523765 0.619607
O O9 0.250000 0.867155 0.468243
O O10 0.361355 0.788028 0.372927
O O11 0.023594 0.558475 0.449311
O O12 0.750000 0.839195 0.511265
O O13 0.631529 0.754444 0.453619
O O14 0.646018 0.792385 0.671747
O O15 0.750000 0.170270 0.903448
O O16 0.916132 0.141699 0.856213
O O17 0.250000 0.696176 0.350970
O O18 0.419848 0.666981 0.365540
#
# Coordination Sequence:
#
# PCOD9363705 Si02
#       8
#     8   8   8   4   8   8   8   8
#     4  11  23  35  49  74 114 150 179 202 247 325
#     4   9  18  33  55  80  99 127 173 220 267 310
#     4  10  20  36  56  76 101 135 180 225 262 308
#     4  10  20  34  54  78 108 138 170 216 262 314
#     4   9  17  33  56  78 100 131 175 224 266 307
#     4   9  16  31  56  79  98 123 169 227 271 303
#     4   9  17  32  55  78  99 130 175 223 266 303
#     4  10  20  34  50  79 110 139 173 212 259 316
#
# _framework density 17.259990999999999
#
# number of rings (size 3 to 8) (size 9 to 14) (size 15 to 20)
#    0.000    2.400    2.000    0.800    0.933    1.600 
#    0.000    0.000    0.000    0.000    0.000    0.000 
#    0.000    0.000    0.000    0.000    0.000    0.000 
#
# Total GULP energy -167146.881071 kJ/mol
# GULP energy per Si atom -5571.562702 kJ/mol
# Density = 1.722071 g / cm^3
# Si number density = 17.259991 Si / 1000 Ang^3
#
#
#
# Elastic Constant Matrix: (Units=GPa)
#
#
# Indices 1 2 3 4 5 6 
#
# 1 99.1445 73.1039 16.4187 0.0000 0.0000 0.0000
# 2 73.1039 103.6211 9.9457 0.0000 0.0000 0.0000
# 3 16.4187 9.9457 14.1338 0.0000 0.0000 0.0000
# 4 0.0000 0.0000 0.0000 12.9811 0.0000 0.0000
# 5 0.0000 0.0000 0.0000 0.0000 23.8457 0.0000
# 6 0.0000 0.0000 0.0000 0.0000 0.0000 33.3436
#
#
#
# Elastic Compliance Matrix: (Units=1/GPa)
#
#
# Indices 1 2 3 4 5 6 
#
# 1 0.024472 -0.015589 -0.017458 0.000000 0.000000 0.000000
# 2 -0.015589 0.020280 0.003839 0.000000 0.000000 0.000000
# 3 -0.017458 0.003839 0.088332 0.000000 0.000000 0.000000
# 4 0.000000 0.000000 0.000000 0.077035 0.000000 0.000000
# 5 0.000000 0.000000 0.000000 0.000000 0.041936 0.000000
# 6 0.000000 0.000000 0.000000 0.000000 0.000000 0.029991
#
#
# Mechanical properties :
#
#
# Convention : Reuss Voigt Hill
#
# Bulk Modulus (GPa) = 13.39295 46.20400 29.79848
# Shear Modulus (GPa) = 13.68538 21.86282 17.77410
#
# Velocity S-wave (km/s) = 2.81890 3.56290 3.21251
# Velocity P-wave (km/s) = 4.28617 6.61462 5.57335
#
# Compressibility (1/GPa) = 0.07466612
#
# Stress axis : x y z
#
# Youngs Moduli (GPa) = 40.86279 49.30924 11.32093
#
# Poissons Ratio (x) = 0.76869 0.19765
# Poissons Ratio (y) = 0.63702 -0.04346
# Poissons Ratio (z) = 0.71340 -0.18928
#
# Static dielectric constant tensor:
#      x y z
#    x 1.579340 0.000000 0.000000 
#    y 0.000000 1.584250 0.000000 
#    z 0.000000 0.000000 1.571550 
# 
# From -- ./inp_files/12546.got.cif
#   From: 2010.05.17/outbox.cif.g08.bks.cpg/sg40_7_cif.got.tgz:12546.got - 2010.06.03 18:35:42.
