data_PCOD9363149
_publ_section_title
;
Structure prediction by ZEFSAII (Michael W. Deem and Ramdas Pophale) SiO2 
 PCOD9363149
Probable space group: A M A 2
;
_chemical_formula_sum "Si O2"
_cell_formula_units_Z 40
_cell_length_a 17.601582
_cell_length_b 18.034343
_cell_length_c 5.152620
_cell_angle_alpha 90.000000
_cell_angle_beta 90.000000
_cell_angle_gamma 90.000000
_cell_volume 1635.611455
_symmetry_space_group_name_H-M "A M A 2"
_symmetry_group_IT_number 40
_symmetry_cell_setting 'orthorhombic'
loop_
_space_group_symop_operation_xyz
x,y,z
-x,-y,z
1/2-x,y,z
1/2+x,-y,z
x,1/2+y,1/2+z
-x,1/2-y,1/2+z
1/2-x,1/2+y,1/2+z
1/2+x,1/2-y,1/2+z
loop_
_atom_site_type_symbol
_atom_site_label
_atom_site_fract_x
_atom_site_fract_y
_atom_site_fract_z
Si Si1 0.840908 0.101304 0.083670
Si Si2 0.538061 0.419945 0.944214
Si Si3 0.835498 0.965021 0.762056
Si Si4 0.658265 0.690824 0.075475
Si Si5 0.425736 0.159831 0.945997
O O1 0.750000 0.088873 0.101947
O O2 0.862837 0.124723 0.373955
O O3 0.873647 0.029351 0.936291
O O4 0.852018 0.167289 0.874606
O O5 0.500000 0.500000 0.959346
O O6 0.625235 0.445881 0.991380
O O7 0.528766 0.363143 0.186059
O O8 0.528204 0.374870 0.683315
O O9 0.750000 0.985598 0.713669
O O10 0.849067 0.889455 0.917609
O O11 0.750000 0.705408 0.040349
O O12 0.604288 0.758635 0.997557
#
# Coordination Sequence:
#
# PCOD9363149 Si02
#       5
#     8   8   8   8   8
#     4   9  19  32  51  79 119 149 175 223 293 345
#     4  10  22  38  59  85 113 155 192 239 290 341
#     4   9  21  36  59  90 112 145 194 244 285 337
#     4  10  19  33  52  83 119 149 177 228 293 343
#     4  10  21  35  59  83 111 148 192 238 275 338
#
# _framework density 24.455684999999999
#
# number of rings (size 3 to 8) (size 9 to 14) (size 15 to 20)
#    1.200    1.200    0.000    2.400    2.800    1.600 
#    0.000    0.000    0.000    4.800    0.000    0.000 
#    0.000    0.000    0.000    0.000    0.000    0.000 
#
# Total GULP energy -111626.056266 kJ/mol
# GULP energy per Si atom -5581.302813 kJ/mol
# Density = 2.440002 g / cm^3
# Si number density = 24.455685 Si / 1000 Ang^3
#
#
#
# Elastic Constant Matrix: (Units=GPa)
#
#
# Indices 1 2 3 4 5 6 
#
# 1 52.1768 -4.8533 2.1453 0.0000 0.0000 0.0000
# 2 -4.8533 87.7258 1.6692 0.0000 0.0000 0.0000
# 3 2.1453 1.6692 140.8106 0.0000 0.0000 0.0000
# 4 0.0000 0.0000 0.0000 24.4185 0.0000 0.0000
# 5 0.0000 0.0000 0.0000 0.0000 20.8116 0.0000
# 6 0.0000 0.0000 0.0000 0.0000 0.0000 40.0659
#
#
#
# Elastic Compliance Matrix: (Units=1/GPa)
#
#
# Indices 1 2 3 4 5 6 
#
# 1 0.019278 0.001072 -0.000306 0.000000 0.000000 0.000000
# 2 0.001072 0.011461 -0.000152 0.000000 0.000000 0.000000
# 3 -0.000306 -0.000152 0.007108 0.000000 0.000000 0.000000
# 4 0.000000 0.000000 0.000000 0.040953 0.000000 0.000000
# 5 0.000000 0.000000 0.000000 0.000000 0.048050 0.000000
# 6 0.000000 0.000000 0.000000 0.000000 0.000000 0.024959
#
#
# Mechanical properties :
#
#
# Convention : Reuss Voigt Hill
#
# Bulk Modulus (GPa) = 25.59183 30.95953 28.27568
# Shear Modulus (GPa) = 30.56109 35.84266 33.20188
#
# Velocity S-wave (km/s) = 3.53888 3.83249 3.68861
# Velocity P-wave (km/s) = 5.21397 5.68075 5.45236
#
# Compressibility (1/GPa) = 0.03907498
#
# Stress axis : x y z
#
# Youngs Moduli (GPa) = 51.87273 87.24957 140.68236
#
# Poissons Ratio (x) = -0.09356 0.04311
# Poissons Ratio (y) = -0.05563 0.02141
# Poissons Ratio (z) = 0.01589 0.01328
#
# Static dielectric constant tensor:
#      x y z
#    x 2.031670 0.000000 0.000000 
#    y 0.000000 1.933920 0.000000 
#    z 0.000000 0.000000 1.935770 
# 
# From -- ./inp_files/2268.got.cif
#   From: 2010.05.17/outbox.cif.g08.bks.cpg/sg40_2_cif.got.tgz:2268.got - 2010.06.03 18:35:42.
