data_PCOD9363439
_publ_section_title
;
Structure prediction by ZEFSAII (Michael W. Deem and Ramdas Pophale) SiO2 
 PCOD9363439
Probable space group: A M A 2
;
_chemical_formula_sum "Si O2"
_cell_formula_units_Z 64
_cell_length_a 32.492483
_cell_length_b 18.763047
_cell_length_c 5.051736
_cell_angle_alpha 90.000000
_cell_angle_beta 90.000000
_cell_angle_gamma 90.000000
_cell_volume 3079.831194
_symmetry_space_group_name_H-M "A M A 2"
_symmetry_group_IT_number 40
_symmetry_cell_setting 'orthorhombic'
loop_
_space_group_symop_operation_xyz
x,y,z
-x,-y,z
1/2-x,y,z
1/2+x,-y,z
x,1/2+y,1/2+z
-x,1/2-y,1/2+z
1/2-x,1/2+y,1/2+z
1/2+x,1/2-y,1/2+z
loop_
_atom_site_type_symbol
_atom_site_label
_atom_site_fract_x
_atom_site_fract_y
_atom_site_fract_z
Si Si1 0.500000 0.699018 0.767130
Si Si2 0.701951 0.143221 0.656334
Si Si3 0.163125 0.576513 0.900583
Si Si4 0.336875 0.923487 0.133688
Si Si5 0.588770 0.828376 0.378062
Si Si6 0.411230 0.828376 0.156207
Si Si7 0.201951 0.143220 0.877938
Si Si8 0.857268 0.750000 0.017135
O O1 0.489781 0.749999 0.517127
O O2 0.459144 0.655631 0.842839
O O3 0.540856 0.655631 0.691428
O O4 0.750000 0.158622 0.660803
O O5 0.687275 0.120725 0.362484
O O6 0.674121 0.212765 0.720905
O O7 0.690455 0.083314 0.870597
O O8 0.157301 0.500000 0.767135
O O9 0.118936 0.610722 0.982948
O O10 0.187274 0.620725 0.671789
O O11 0.190454 0.583314 0.163675
O O12 0.381064 0.889278 0.051322
O O13 0.590648 0.750000 0.517134
O O14 0.611351 0.811308 0.102827
O O15 0.388649 0.811308 0.431442
O O16 0.250000 0.158620 0.873469
O O17 0.174121 0.212765 0.813367
#
# Coordination Sequence:
#
# PCOD9363439 Si02
#       8
#     8   8   8   8   8   8   8   8
#     4  10  20  32  59  90 113 140 186 236 278 334
#     4  11  23  38  59  83 114 152 198 245 289 342
#     4  11  24  39  58  83 117 156 192 236 293 351
#     4  11  24  39  58  83 117 156 192 236 293 351
#     4  10  19  37  58  85 116 147 189 236 287 345
#     4  10  19  37  58  85 116 147 189 236 287 345
#     4  11  23  38  59  83 114 152 198 245 289 342
#     4  10  19  36  56  88 114 150 188 244 293 346
#
# _framework density 20.780360000000002
#
# number of rings (size 3 to 8) (size 9 to 14) (size 15 to 20)
#    0.000    1.500    3.750    1.875    0.000    3.000 
#    0.000    4.375    0.000    0.000    0.000    5.250 
#    0.000    0.000    0.000    0.000    0.000    0.000 
#
# Total GULP energy -178232.648186 kJ/mol
# GULP energy per Si atom -5569.770256 kJ/mol
# Density = 2.073306 g / cm^3
# Si number density = 20.780360 Si / 1000 Ang^3
#
#
#
# Elastic Constant Matrix: (Units=GPa)
#
#
# Indices 1 2 3 4 5 6 
#
# 1 189.5299 26.4557 11.7637 0.0000 0.0000 0.0000
# 2 26.4557 62.7838 2.9217 0.0000 0.0000 0.0000
# 3 11.7637 2.9217 77.5778 0.0000 0.0000 0.0000
# 4 0.0000 0.0000 0.0000 29.8592 0.0000 0.0000
# 5 0.0000 0.0000 0.0000 0.0000 20.8586 0.0000
# 6 0.0000 0.0000 0.0000 0.0000 0.0000 8.9479
#
#
#
# Elastic Compliance Matrix: (Units=1/GPa)
#
#
# Indices 1 2 3 4 5 6 
#
# 1 0.005651 -0.002346 -0.000769 0.000000 0.000000 0.000000
# 2 -0.002346 0.016929 -0.000282 0.000000 0.000000 0.000000
# 3 -0.000769 -0.000282 0.013017 0.000000 0.000000 0.000000
# 4 0.000000 0.000000 0.000000 0.033491 0.000000 0.000000
# 5 0.000000 0.000000 0.000000 0.000000 0.047942 0.000000
# 6 0.000000 0.000000 0.000000 0.000000 0.000000 0.111758
#
#
# Mechanical properties :
#
#
# Convention : Reuss Voigt Hill
#
# Bulk Modulus (GPa) = 34.71529 45.79708 40.25618
# Shear Modulus (GPa) = 20.39297 31.18316 25.78806
#
# Velocity S-wave (km/s) = 3.13606 3.87797 3.52658
# Velocity P-wave (km/s) = 5.46400 6.49138 5.99972
#
# Compressibility (1/GPa) = 0.02880576
#
# Stress axis : x y z
#
# Youngs Moduli (GPa) = 176.94954 59.06965 76.81990
#
# Poissons Ratio (x) = 0.13855 0.05904
# Poissons Ratio (y) = 0.41505 0.02166
# Poissons Ratio (z) = 0.13601 0.01665
#
# Static dielectric constant tensor:
#      x y z
#    x 1.728850 0.000000 0.000000 
#    y 0.000000 1.834170 0.000000 
#    z 0.000000 0.000000 1.846640 
# 
# From -- ./inp_files/3228.got.cif
#   From: 2010.05.17/outbox.cif.g08.bks.cpg/sg40_2_cif.got.tgz:3228.got - 2010.06.03 18:35:42.
