data_PCOD9363468
_publ_section_title
;
Structure prediction by ZEFSAII (Michael W. Deem and Ramdas Pophale) SiO2 
 PCOD9363468
Probable space group: A M A 2
;
_chemical_formula_sum "Si O2"
_cell_formula_units_Z 52
_cell_length_a 14.001677
_cell_length_b 15.573677
_cell_length_c 13.474278
_cell_angle_alpha 90.000000
_cell_angle_beta 90.000000
_cell_angle_gamma 90.000000
_cell_volume 2938.168656
_symmetry_space_group_name_H-M "A M A 2"
_symmetry_group_IT_number 40
_symmetry_cell_setting 'orthorhombic'
loop_
_space_group_symop_operation_xyz
x,y,z
-x,-y,z
1/2-x,y,z
1/2+x,-y,z
x,1/2+y,1/2+z
-x,1/2-y,1/2+z
1/2-x,1/2+y,1/2+z
1/2+x,1/2-y,1/2+z
loop_
_atom_site_type_symbol
_atom_site_label
_atom_site_fract_x
_atom_site_fract_y
_atom_site_fract_z
Si Si1 0.138514 0.940781 0.787970
Si Si2 0.860568 0.910906 0.624415
Si Si3 0.636133 0.060967 0.473888
Si Si4 0.000000 0.000000 0.956760
Si Si5 0.362171 0.959074 0.241274
Si Si6 0.543869 0.385682 0.637844
Si Si7 0.547852 0.686050 0.129661
O O1 0.250000 0.926653 0.807658
O O2 0.078095 0.956348 0.886291
O O3 0.096648 0.864276 0.721021
O O4 0.129566 0.026105 0.719286
O O5 0.750000 0.885148 0.615447
O O6 0.935135 0.834518 0.633252
O O7 0.887355 0.972590 0.531724
O O8 0.750000 0.071886 0.487179
O O9 0.616342 0.053746 0.357670
O O10 0.586636 0.139346 0.530689
O O11 0.954005 0.929443 0.029611
O O12 0.250000 0.942044 0.224135
O O13 0.436213 0.900994 0.179307
O O14 0.388649 0.055952 0.207575
O O15 0.568045 0.286325 0.634097
#
# Coordination Sequence:
#
# PCOD9363468 Si02
#       7
#     8   8   8   4   8   8   8
#     4  10  19  36  61  82 110 151 191 225 277 334
#     4   9  18  32  55  86 114 148 182 227 287 336
#     4   9  18  34  59  84 108 146 189 226 282 336
#     4  10  20  42  52  80 110 158 192 224 272 340
#     4   9  20  41  60  77 110 155 192 224 274 343
#     4  10  25  36  58  84 115 149 190 229 284 329
#     4  11  20  35  58  89 118 138 178 246 280 325
#
# _framework density 17.698098999999999
#
# number of rings (size 3 to 8) (size 9 to 14) (size 15 to 20)
#    0.000    2.462    1.538    2.769    4.308    5.538 
#    0.000    0.000    0.000    0.000    0.000    0.000 
#    0.000    0.000    0.000    0.000    0.000    0.000 
#
# Total GULP energy -145049.057091 kJ/mol
# GULP energy per Si atom -5578.809888 kJ/mol
# Density = 1.765782 g / cm^3
# Si number density = 17.698099 Si / 1000 Ang^3
#
#
#
# Elastic Constant Matrix: (Units=GPa)
#
#
# Indices 1 2 3 4 5 6 
#
# 1 73.3736 21.5630 40.0593 0.0000 0.0000 0.0000
# 2 21.5630 92.5295 42.0752 0.0000 0.0000 0.0000
# 3 40.0593 42.0752 114.1132 0.0000 0.0000 0.0000
# 4 0.0000 0.0000 0.0000 2.3301 0.0000 0.0000
# 5 0.0000 0.0000 0.0000 0.0000 13.0532 0.0000
# 6 0.0000 0.0000 0.0000 0.0000 0.0000 7.3834
#
#
#
# Elastic Compliance Matrix: (Units=1/GPa)
#
#
# Indices 1 2 3 4 5 6 
#
# 1 0.017032 -0.001502 -0.005425 0.000000 0.000000 0.000000
# 2 -0.001502 0.013117 -0.004309 0.000000 0.000000 0.000000
# 3 -0.005425 -0.004309 0.012257 0.000000 0.000000 0.000000
# 4 0.000000 0.000000 0.000000 0.429162 0.000000 0.000000
# 5 0.000000 0.000000 0.000000 0.000000 0.076610 0.000000
# 6 0.000000 0.000000 0.000000 0.000000 0.000000 0.135439
#
#
# Mechanical properties :
#
#
# Convention : Reuss Voigt Hill
#
# Bulk Modulus (GPa) = 50.16879 54.15681 52.16280
# Shear Modulus (GPa) = 7.01525 16.30793 11.66159
#
# Velocity S-wave (km/s) = 1.99310 3.03883 2.56972
# Velocity P-wave (km/s) = 5.80561 6.55587 6.19212
#
# Compressibility (1/GPa) = 0.01993271
#
# Stress axis : x y z
#
# Youngs Moduli (GPa) = 58.71179 76.23788 81.58888
#
# Poissons Ratio (x) = 0.11453 0.44264
# Poissons Ratio (y) = 0.08820 0.35157
# Poissons Ratio (z) = 0.31853 0.32851
#
# Static dielectric constant tensor:
#      x y z
#    x 1.624780 0.000000 0.000000 
#    y 0.000000 1.569110 0.000000 
#    z 0.000000 0.000000 1.599570 
# 
# From -- ./inp_files/12221.got.cif
#   From: 2010.05.17/outbox.cif.g08.bks.cpg/sg40_7_cif.got.tgz:12221.got - 2010.06.03 18:35:42.
