data_PCOD9363363
_publ_section_title
;
Structure prediction by ZEFSAII (Michael W. Deem and Ramdas Pophale) SiO2 
 PCOD9363363
Probable space group: A M A 2
;
_chemical_formula_sum "Si O2"
_cell_formula_units_Z 64
_cell_length_a 15.214018
_cell_length_b 8.981788
_cell_length_c 22.362014
_cell_angle_alpha 90.000000
_cell_angle_beta 90.000000
_cell_angle_gamma 90.000000
_cell_volume 3055.748736
_symmetry_space_group_name_H-M "A M A 2"
_symmetry_group_IT_number 40
_symmetry_cell_setting 'orthorhombic'
loop_
_space_group_symop_operation_xyz
x,y,z
-x,-y,z
1/2-x,y,z
1/2+x,-y,z
x,1/2+y,1/2+z
-x,1/2-y,1/2+z
1/2-x,1/2+y,1/2+z
1/2+x,1/2-y,1/2+z
loop_
_atom_site_type_symbol
_atom_site_label
_atom_site_fract_x
_atom_site_fract_y
_atom_site_fract_z
Si Si1 0.655709 0.345896 0.914090
Si Si2 0.849196 0.797280 0.937360
Si Si3 0.854555 0.287827 0.094067
Si Si4 0.976774 0.825809 0.823191
Si Si5 0.912538 0.593715 0.480663
Si Si6 0.855824 0.681973 0.725389
Si Si7 0.899996 0.042137 0.518273
Si Si8 0.146165 0.124431 0.287183
O O1 0.750000 0.269188 0.908925
O O2 0.586536 0.217999 0.928594
O O3 0.644523 0.440874 0.854754
O O4 0.655794 0.450734 0.970444
O O5 0.750000 0.750640 0.920511
O O6 0.918756 0.781219 0.882803
O O7 0.846520 0.968345 0.958146
O O8 0.880587 0.708348 0.997412
O O9 0.750000 0.277901 0.090986
O O10 0.882509 0.226636 0.158242
O O11 0.879618 0.460810 0.080799
O O12 0.891234 0.183956 0.040814
O O13 0.907410 0.787064 0.770841
O O14 0.067464 0.744066 0.798312
O O15 0.000000 0.000000 0.829149
O O16 0.000000 0.500000 0.487844
O O17 0.750000 0.699264 0.731142
O O18 0.875066 0.508744 0.741910
O O19 0.000000 0.000000 0.505211
O O20 0.250000 0.172578 0.276576
#
# Coordination Sequence:
#
# PCOD9363363 Si02
#       8
#     8   8   8   8   8   8   8   8
#     4  10  19  35  56  80 116 158 198 241 299 361
#     4  12  23  37  60  93 129 162 202 248 304 372
#     4  10  22  43  64  84 117 160 203 251 312 372
#     4  12  25  40  61  92 134 171 209 262 322 382
#     4  11  21  35  57  88 123 161 202 248 305 364
#     4  10  23  44  67  89 117 161 218 272 321 377
#     4  11  21  35  58  88 121 156 198 247 300 362
#     4  10  21  39  65  92 119 161 215 267 317 376
#
# _framework density 20.944130000000001
#
# number of rings (size 3 to 8) (size 9 to 14) (size 15 to 20)
#    0.000    1.250    0.000    8.625    0.000    4.500 
#    0.000    1.250    0.000    3.000    0.000    0.000 
#    0.000    0.000    0.000    0.000    0.000    0.000 
#
# Total GULP energy -178199.993011 kJ/mol
# GULP energy per Si atom -5568.749782 kJ/mol
# Density = 2.089646 g / cm^3
# Si number density = 20.944130 Si / 1000 Ang^3
#
#
#
# Elastic Constant Matrix: (Units=GPa)
#
#
# Indices 1 2 3 4 5 6 
#
# 1 127.0773 31.8099 38.4028 0.0000 0.0000 0.0000
# 2 31.8099 95.6150 37.2640 0.0000 0.0000 0.0000
# 3 38.4028 37.2640 118.2164 0.0000 0.0000 0.0000
# 4 0.0000 0.0000 0.0000 35.2426 0.0000 0.0000
# 5 0.0000 0.0000 0.0000 0.0000 21.6120 0.0000
# 6 0.0000 0.0000 0.0000 0.0000 0.0000 11.6217
#
#
#
# Elastic Compliance Matrix: (Units=1/GPa)
#
#
# Indices 1 2 3 4 5 6 
#
# 1 0.009093 -0.002136 -0.002280 0.000000 0.000000 0.000000
# 2 -0.002136 0.012425 -0.003223 0.000000 0.000000 0.000000
# 3 -0.002280 -0.003223 0.010216 0.000000 0.000000 0.000000
# 4 0.000000 0.000000 0.000000 0.028375 0.000000 0.000000
# 5 0.000000 0.000000 0.000000 0.000000 0.046271 0.000000
# 6 0.000000 0.000000 0.000000 0.000000 0.000000 0.086046
#
#
# Mechanical properties :
#
#
# Convention : Reuss Voigt Hill
#
# Bulk Modulus (GPa) = 60.77153 61.76246 61.26700
# Shear Modulus (GPa) = 23.45327 29.25739 26.35533
#
# Velocity S-wave (km/s) = 3.34997 3.74160 3.55119
# Velocity P-wave (km/s) = 6.63642 6.94401 6.79196
#
# Compressibility (1/GPa) = 0.01645507
#
# Stress axis : x y z
#
# Youngs Moduli (GPa) = 109.97257 80.48073 97.88821
#
# Poissons Ratio (x) = 0.17194 0.22323
# Poissons Ratio (y) = 0.23495 0.31546
# Poissons Ratio (z) = 0.25079 0.25936
#
# Static dielectric constant tensor:
#      x y z
#    x 1.858120 0.000000 0.000000 
#    y 0.000000 1.787420 0.000000 
#    z 0.000000 0.000000 1.763690 
# 
# From -- ./inp_files/24783.got.cif
#   From: 2010.05.17/outbox.cif.g08.bks.cpg/sg40_13_cif.got.tgz:24783.got - 2010.06.03 18:35:42.
