data_PCOD9363186
_publ_section_title
;
Structure prediction by ZEFSAII (Michael W. Deem and Ramdas Pophale) SiO2 
 PCOD9363186
Probable space group: A M A 2
;
_chemical_formula_sum "Si O2"
_cell_formula_units_Z 56
_cell_length_a 8.809109
_cell_length_b 15.603052
_cell_length_c 20.385973
_cell_angle_alpha 90.000000
_cell_angle_beta 90.000000
_cell_angle_gamma 90.000000
_cell_volume 2802.031313
_symmetry_space_group_name_H-M "A M A 2"
_symmetry_group_IT_number 40
_symmetry_cell_setting 'orthorhombic'
loop_
_space_group_symop_operation_xyz
x,y,z
-x,-y,z
1/2-x,y,z
1/2+x,-y,z
x,1/2+y,1/2+z
-x,1/2-y,1/2+z
1/2-x,1/2+y,1/2+z
1/2+x,1/2-y,1/2+z
loop_
_atom_site_type_symbol
_atom_site_label
_atom_site_fract_x
_atom_site_fract_y
_atom_site_fract_z
Si Si1 0.574152 0.922917 0.392380
Si Si2 0.934276 0.776422 0.172337
Si Si3 0.419798 0.359507 0.015723
Si Si4 0.932539 0.404759 0.405620
Si Si5 0.073591 0.753974 0.817982
Si Si6 0.420755 0.416140 0.159268
Si Si7 0.429639 0.820076 0.037059
O O1 0.750000 0.940948 0.405664
O O2 0.467653 0.915340 0.455233
O O3 0.566622 0.827202 0.365097
O O4 0.500000 0.000000 0.350694
O O5 0.750000 0.778048 0.162868
O O6 0.970489 0.790565 0.248451
O O7 0.989632 0.677241 0.169624
O O8 0.005311 0.829162 0.111782
O O9 0.250000 0.322635 0.008171
O O10 0.416861 0.416970 0.080522
O O11 0.533187 0.279741 0.022408
O O12 0.750000 0.408112 0.406430
O O13 0.000000 0.500000 0.392709
O O14 0.985906 0.334040 0.350965
O O15 0.993022 0.373041 0.477597
O O16 0.250000 0.781389 0.810954
O O17 0.500000 0.500000 0.185735
O O18 0.250000 0.414349 0.184934
O O19 0.250000 0.835893 0.036139
#
# Coordination Sequence:
#
# PCOD9363186 Si02
#       7
#     8   8   8   8   8   8   8
#     4  11  22  35  56  85 118 155 197 247 303 368
#     4   9  20  39  60  82 117 165 209 257 319 379
#     4  10  19  33  54  81 114 152 190 236 296 356
#     4  12  25  42  67  96 130 171 219 273 329 390
#     4  10  22  42  64  89 124 166 213 264 320 384
#     4   9  18  30  47  74 108 145 187 233 288 353
#     4  11  21  37  61  91 123 158 207 259 312 375
#
# _framework density 19.985500999999999
#
# number of rings (size 3 to 8) (size 9 to 14) (size 15 to 20)
#    0.000    1.714    1.429    4.714    0.000    5.714 
#    0.000    2.143    0.000    1.714    0.000    0.000 
#    0.000    0.000    0.000    0.000    0.000    0.000 
#
# Total GULP energy -155918.623711 kJ/mol
# GULP energy per Si atom -5568.522275 kJ/mol
# Density = 1.994001 g / cm^3
# Si number density = 19.985501 Si / 1000 Ang^3
#
#
#
# Elastic Constant Matrix: (Units=GPa)
#
#
# Indices 1 2 3 4 5 6 
#
# 1 98.2362 27.1939 25.3392 0.0000 0.0000 0.0000
# 2 27.1939 65.3827 2.7226 0.0000 0.0000 0.0000
# 3 25.3392 2.7226 77.0797 0.0000 0.0000 0.0000
# 4 0.0000 0.0000 0.0000 7.3198 0.0000 0.0000
# 5 0.0000 0.0000 0.0000 0.0000 17.0678 0.0000
# 6 0.0000 0.0000 0.0000 0.0000 0.0000 30.5603
#
#
#
# Elastic Compliance Matrix: (Units=1/GPa)
#
#
# Indices 1 2 3 4 5 6 
#
# 1 0.012608 -0.005079 -0.003965 0.000000 0.000000 0.000000
# 2 -0.005079 0.017363 0.001056 0.000000 0.000000 0.000000
# 3 -0.003965 0.001056 0.014240 0.000000 0.000000 0.000000
# 4 0.000000 0.000000 0.000000 0.136615 0.000000 0.000000
# 5 0.000000 0.000000 0.000000 0.000000 0.058590 0.000000
# 6 0.000000 0.000000 0.000000 0.000000 0.000000 0.032722
#
#
# Mechanical properties :
#
#
# Convention : Reuss Voigt Hill
#
# Bulk Modulus (GPa) = 35.41686 39.02332 37.22009
# Shear Modulus (GPa) = 16.80524 23.35244 20.07884
#
# Velocity S-wave (km/s) = 2.90292 3.42200 3.17309
# Velocity P-wave (km/s) = 5.38477 5.93141 5.66469
#
# Compressibility (1/GPa) = 0.02823514
#
# Stress axis : x y z
#
# Youngs Moduli (GPa) = 79.31238 57.59372 70.22524
#
# Poissons Ratio (x) = 0.29251 0.27848
# Poissons Ratio (y) = 0.40282 -0.07418
# Poissons Ratio (z) = 0.31451 -0.06084
#
# Static dielectric constant tensor:
#      x y z
#    x 1.725670 0.000000 0.000000 
#    y 0.000000 1.728450 0.000000 
#    z 0.000000 0.000000 1.798830 
# 
# From -- ./inp_files/22171.got.cif
#   From: 2010.05.17/outbox.cif.g08.bks.cpg/sg40_12_cif.got.tgz:22171.got - 2010.06.03 18:35:42.
