data_PCOD9363299
_publ_section_title
;
Structure prediction by ZEFSAII (Michael W. Deem and Ramdas Pophale) SiO2 
 PCOD9363299
Probable space group: A M A 2
;
_chemical_formula_sum "Si O2"
_cell_formula_units_Z 56
_cell_length_a 8.664141
_cell_length_b 14.945107
_cell_length_c 22.024303
_cell_angle_alpha 90.000000
_cell_angle_beta 90.000000
_cell_angle_gamma 90.000000
_cell_volume 2851.850226
_symmetry_space_group_name_H-M "A M A 2"
_symmetry_group_IT_number 40
_symmetry_cell_setting 'orthorhombic'
loop_
_space_group_symop_operation_xyz
x,y,z
-x,-y,z
1/2-x,y,z
1/2+x,-y,z
x,1/2+y,1/2+z
-x,1/2-y,1/2+z
1/2-x,1/2+y,1/2+z
1/2+x,1/2-y,1/2+z
loop_
_atom_site_type_symbol
_atom_site_label
_atom_site_fract_x
_atom_site_fract_y
_atom_site_fract_z
Si Si1 0.933995 0.099973 0.416710
Si Si2 0.564483 0.096477 0.630110
Si Si3 0.437095 0.712989 0.805677
Si Si4 0.564486 0.403846 0.552232
Si Si5 0.065975 0.217257 0.526355
Si Si6 0.435123 0.595014 0.692927
Si Si7 0.564772 0.094382 0.772267
O O1 0.750000 0.096737 0.421432
O O2 0.985602 0.153194 0.356779
O O3 0.003181 0.153384 0.473606
O O4 0.000000 0.000000 0.414962
O O5 0.750000 0.097553 0.625455
O O6 0.496041 0.174732 0.589075
O O7 0.521165 0.105411 0.701076
O O8 0.500000 0.000000 0.609149
O O9 0.250000 0.708076 0.811898
O O10 0.477899 0.672563 0.739652
O O11 0.484431 0.816739 0.807564
O O12 0.500000 0.500000 0.531756
O O13 0.750000 0.404082 0.549431
O O14 0.498094 0.317528 0.518641
O O15 0.514844 0.392752 0.623232
O O16 0.250000 0.218202 0.526185
O O17 0.500000 0.500000 0.714867
O O18 0.250000 0.590063 0.692165
O O19 0.750000 0.090583 0.773921
O O20 0.500000 0.000000 0.794295
#
# Coordination Sequence:
#
# PCOD9363299 Si02
#       7
#     8   8   8   8   8   8   8
#     4  12  26  44  63  85 112 146 187 235 285 340
#     4  10  19  34  56  86 120 154 189 232 284 341
#     4  10  20  37  58  83 114 151 191 234 281 333
#     4  10  20  37  59  87 120 154 190 233 282 337
#     4  12  24  39  59  84 113 151 194 239 286 337
#     4   9  18  32  54  83 117 151 185 226 279 336
#     4   9  19  35  57  84 118 153 188 231 281 334
#
# _framework density 19.636374
#
# number of rings (size 3 to 8) (size 9 to 14) (size 15 to 20)
#    0.000    1.714    0.000    5.143    0.000    5.714 
#    0.000    2.143    0.000    1.714    0.000    0.000 
#    0.000    0.000    0.000    0.000    0.000    0.000 
#
# Total GULP energy -156493.104029 kJ/mol
# GULP energy per Si atom -5589.039430 kJ/mol
# Density = 1.959168 g / cm^3
# Si number density = 19.636374 Si / 1000 Ang^3
#
#
#
# Elastic Constant Matrix: (Units=GPa)
#
#
# Indices 1 2 3 4 5 6 
#
# 1 85.0195 56.2159 22.3761 0.0000 0.0000 0.0000
# 2 56.2159 196.6896 47.6215 0.0000 0.0000 0.0000
# 3 22.3761 47.6215 36.5292 0.0000 0.0000 0.0000
# 4 0.0000 0.0000 0.0000 43.9378 0.0000 0.0000
# 5 0.0000 0.0000 0.0000 0.0000 25.9624 0.0000
# 6 0.0000 0.0000 0.0000 0.0000 0.0000 35.0644
#
#
#
# Elastic Compliance Matrix: (Units=1/GPa)
#
#
# Indices 1 2 3 4 5 6 
#
# 1 0.015179 -0.003050 -0.005322 0.000000 0.000000 0.000000
# 2 -0.003050 0.008042 -0.008615 0.000000 0.000000 0.000000
# 3 -0.005322 -0.008615 0.041867 0.000000 0.000000 0.000000
# 4 0.000000 0.000000 0.000000 0.022759 0.000000 0.000000
# 5 0.000000 0.000000 0.000000 0.000000 0.038517 0.000000
# 6 0.000000 0.000000 0.000000 0.000000 0.000000 0.028519
#
#
# Mechanical properties :
#
#
# Convention : Reuss Voigt Hill
#
# Bulk Modulus (GPa) = 32.14080 63.40725 47.77403
# Shear Modulus (GPa) = 25.09662 33.79456 29.44559
#
# Velocity S-wave (km/s) = 3.57889 4.15302 3.87659
# Velocity P-wave (km/s) = 5.78631 7.44026 6.66479
#
# Compressibility (1/GPa) = 0.03111310
#
# Stress axis : x y z
#
# Youngs Moduli (GPa) = 65.87905 124.35083 23.88511
#
# Poissons Ratio (x) = 0.37925 0.12712
# Poissons Ratio (y) = 0.20092 0.20578
# Poissons Ratio (z) = 0.35062 1.07134
#
# Static dielectric constant tensor:
#      x y z
#    x 1.655910 0.000000 0.000000 
#    y 0.000000 1.683510 0.000000 
#    z 0.000000 0.000000 1.692900 
# 
# From -- ./inp_files/22162.got.cif
#   From: 2010.05.17/outbox.cif.g08.bks.cpg/sg40_12_cif.got.tgz:22162.got - 2010.06.03 18:35:42.
