data_PCOD9363873
_publ_section_title
;
Structure prediction by ZEFSAII (Michael W. Deem and Ramdas Pophale) SiO2 
 PCOD9363873
Probable space group: A M A 2
;
_chemical_formula_sum "Si O2"
_cell_formula_units_Z 48
_cell_length_a 21.401012
_cell_length_b 11.080109
_cell_length_c 8.765177
_cell_angle_alpha 90.000000
_cell_angle_beta 90.000000
_cell_angle_gamma 90.000000
_cell_volume 2078.447379
_symmetry_space_group_name_H-M "A M A 2"
_symmetry_group_IT_number 40
_symmetry_cell_setting 'orthorhombic'
loop_
_space_group_symop_operation_xyz
x,y,z
-x,-y,z
1/2-x,y,z
1/2+x,-y,z
x,1/2+y,1/2+z
-x,1/2-y,1/2+z
1/2-x,1/2+y,1/2+z
1/2+x,1/2-y,1/2+z
loop_
_atom_site_type_symbol
_atom_site_label
_atom_site_fract_x
_atom_site_fract_y
_atom_site_fract_z
Si Si1 0.065595 0.349158 0.299540
Si Si2 0.504735 0.693290 0.001847
Si Si3 0.093446 0.576526 0.512825
Si Si4 0.179235 0.926918 0.605782
Si Si5 0.822091 0.317784 0.268772
Si Si6 0.389859 0.414012 0.798277
O O1 0.072345 0.466954 0.403673
O O2 0.128146 0.348293 0.196738
O O3 0.055891 0.233224 0.408004
O O4 0.008901 0.355163 0.174602
O O5 0.546438 0.609627 0.891579
O O6 0.540804 0.821482 0.017351
O O7 0.153459 0.638538 0.434424
O O8 0.105351 0.518289 0.676077
O O9 0.250000 0.886434 0.632368
O O10 0.161640 0.930179 0.429057
O O11 0.172857 0.063600 0.665839
O O12 0.750000 0.279530 0.271082
O O13 0.867969 0.210599 0.218640
#
# Coordination Sequence:
#
# PCOD9363873 Si02
#       6
#     8   8   8   8   8   8
#     4  10  20  37  60  84 118 157 195 248 299 353
#     4  10  21  37  56  85 117 151 198 246 301 359
#     4  10  21  36  56  83 115 152 194 243 298 353
#     4   9  19  36  58  87 121 158 200 247 301 358
#     4   9  19  35  54  79 113 151 193 240 291 351
#     4  10  20  35  58  84 115 155 199 248 300 356
#
# _framework density 23.094163000000002
#
# number of rings (size 3 to 8) (size 9 to 14) (size 15 to 20)
#    0.000    2.333    0.000    2.000    0.000    2.667 
#    0.000    6.667    0.000    8.000    0.000    0.000 
#    0.000    0.000    0.000    0.000    0.000    0.000 
#
# Total GULP energy -134280.711244 kJ/mol
# GULP energy per Si atom -5595.029635 kJ/mol
# Density = 2.304160 g / cm^3
# Si number density = 23.094163 Si / 1000 Ang^3
#
#
#
# Elastic Constant Matrix: (Units=GPa)
#
#
# Indices 1 2 3 4 5 6 
#
# 1 72.0143 23.5564 33.1145 0.0000 0.0000 0.0000
# 2 23.5564 59.3527 31.0168 0.0000 0.0000 0.0000
# 3 33.1145 31.0168 111.1100 0.0000 0.0000 0.0000
# 4 0.0000 0.0000 0.0000 47.0877 0.0000 0.0000
# 5 0.0000 0.0000 0.0000 0.0000 20.9821 0.0000
# 6 0.0000 0.0000 0.0000 0.0000 0.0000 28.9264
#
#
#
# Elastic Compliance Matrix: (Units=1/GPa)
#
#
# Indices 1 2 3 4 5 6 
#
# 1 0.017210 -0.004859 -0.003773 0.000000 0.000000 0.000000
# 2 -0.004859 0.021098 -0.004441 0.000000 0.000000 0.000000
# 3 -0.003773 -0.004441 0.011364 0.000000 0.000000 0.000000
# 4 0.000000 0.000000 0.000000 0.021237 0.000000 0.000000
# 5 0.000000 0.000000 0.000000 0.000000 0.047660 0.000000
# 6 0.000000 0.000000 0.000000 0.000000 0.000000 0.034571
#
#
# Mechanical properties :
#
#
# Convention : Reuss Voigt Hill
#
# Bulk Modulus (GPa) = 42.50586 46.42803 44.46694
# Shear Modulus (GPa) = 26.71962 29.71853 28.21908
#
# Velocity S-wave (km/s) = 3.40514 3.59115 3.49938
# Velocity P-wave (km/s) = 5.82283 6.11086 5.96858
#
# Compressibility (1/GPa) = 0.02352617
#
# Stress axis : x y z
#
# Youngs Moduli (GPa) = 58.10435 47.39802 87.99433
#
# Poissons Ratio (x) = 0.23031 0.33199
# Poissons Ratio (y) = 0.28233 0.39082
# Poissons Ratio (z) = 0.21922 0.21051
#
# Static dielectric constant tensor:
#      x y z
#    x 1.879630 0.000000 0.000000 
#    y 0.000000 1.893010 0.000000 
#    z 0.000000 0.000000 1.873920 
# 
# From -- ./inp_files/8718.got.cif
#   From: 2010.05.17/outbox.cif.g08.bks.cpg/sg40_5_cif.got.tgz:8718.got - 2010.06.03 18:35:42.
