data_PCOD9363560
_publ_section_title
;
Structure prediction by ZEFSAII (Michael W. Deem and Ramdas Pophale) SiO2 
 PCOD9363560
Probable space group: A M A 2
;
_chemical_formula_sum "Si O2"
_cell_formula_units_Z 60
_cell_length_a 30.246485
_cell_length_b 8.953710
_cell_length_c 10.695469
_cell_angle_alpha 90.000000
_cell_angle_beta 90.000000
_cell_angle_gamma 90.000000
_cell_volume 2896.528253
_symmetry_space_group_name_H-M "A M A 2"
_symmetry_group_IT_number 40
_symmetry_cell_setting 'orthorhombic'
loop_
_space_group_symop_operation_xyz
x,y,z
-x,-y,z
1/2-x,y,z
1/2+x,-y,z
x,1/2+y,1/2+z
-x,1/2-y,1/2+z
1/2-x,1/2+y,1/2+z
1/2+x,1/2-y,1/2+z
loop_
_atom_site_type_symbol
_atom_site_label
_atom_site_fract_x
_atom_site_fract_y
_atom_site_fract_z
Si Si1 0.932649 0.853287 0.082320
Si Si2 0.548411 0.007185 0.574788
Si Si3 0.155759 0.734688 0.263145
Si Si4 0.800389 0.945189 0.272789
Si Si5 0.666150 0.799772 0.034770
Si Si6 0.144176 0.051510 0.509588
Si Si7 0.500000 0.500000 0.765136
Si Si8 0.552830 0.794556 0.811448
O O1 0.941057 0.677730 0.108317
O O2 0.880304 0.873928 0.075898
O O3 0.958381 0.950382 0.180188
O O4 0.950169 0.880139 0.942365
O O5 0.545020 0.903098 0.695798
O O6 0.500000 0.000000 0.514614
O O7 0.590658 0.949967 0.496614
O O8 0.175418 0.658794 0.389791
O O9 0.155823 0.638965 0.136668
O O10 0.103896 0.760340 0.298331
O O11 0.181038 0.889525 0.243217
O O12 0.750000 0.955042 0.317770
O O13 0.802269 0.848448 0.146385
O O14 0.831532 0.888120 0.386186
O O15 0.659316 0.620607 0.028272
O O16 0.519172 0.657947 0.814906
#
# Coordination Sequence:
#
# PCOD9363560 Si02
#       8
#     8   8   8   8   8   8   4   8
#     4  10  22  36  53  80 116 158 198 247 293 345
#     4  10  19  39  58  83 122 160 204 245 288 344
#     4   9  20  42  63  85 120 161 198 245 307 362
#     4  11  23  40  64  93 123 153 197 257 314 372
#     4   9  20  40  60  85 122 158 202 246 305 360
#     4   9  21  40  64  89 124 164 199 250 303 359
#     4  12  22  30  52  84 110 152 200 240 286 342
#     4  10  22  37  56  82 117 155 200 250 289 343
#
# _framework density 20.714454
#
# number of rings (size 3 to 8) (size 9 to 14) (size 15 to 20)
#    0.000    2.133    1.333    1.600    1.867    3.733 
#    0.000    6.667    0.000    0.000    0.000    0.000 
#    0.000    0.000    0.000    0.000    0.000    0.000 
#
# Total GULP energy -167395.904541 kJ/mol
# GULP energy per Si atom -5579.863485 kJ/mol
# Density = 2.066731 g / cm^3
# Si number density = 20.714454 Si / 1000 Ang^3
#
#
#
# Elastic Constant Matrix: (Units=GPa)
#
#
# Indices 1 2 3 4 5 6 
#
# 1 76.5593 10.8012 29.2502 0.0000 0.0000 0.0000
# 2 10.8012 25.1517 24.8817 0.0000 0.0000 0.0000
# 3 29.2502 24.8817 87.9241 0.0000 0.0000 0.0000
# 4 0.0000 0.0000 0.0000 4.7312 0.0000 0.0000
# 5 0.0000 0.0000 0.0000 0.0000 15.2221 0.0000
# 6 0.0000 0.0000 0.0000 0.0000 0.0000 14.6551
#
#
#
# Elastic Compliance Matrix: (Units=1/GPa)
#
#
# Indices 1 2 3 4 5 6 
#
# 1 0.015043 -0.002096 -0.004411 0.000000 0.000000 0.000000
# 2 -0.002096 0.055509 -0.015011 0.000000 0.000000 0.000000
# 3 -0.004411 -0.015011 0.017089 0.000000 0.000000 0.000000
# 4 0.000000 0.000000 0.000000 0.211365 0.000000 0.000000
# 5 0.000000 0.000000 0.000000 0.000000 0.065694 0.000000
# 6 0.000000 0.000000 0.000000 0.000000 0.000000 0.068236
#
#
# Mechanical properties :
#
#
# Convention : Reuss Voigt Hill
#
# Bulk Modulus (GPa) = 22.41965 35.50012 28.95988
# Shear Modulus (GPa) = 10.18661 15.23514 12.71087
#
# Velocity S-wave (km/s) = 2.21998 2.71492 2.47983
# Velocity P-wave (km/s) = 4.17346 5.19642 4.71278
#
# Compressibility (1/GPa) = 0.04460373
#
# Stress axis : x y z
#
# Youngs Moduli (GPa) = 66.47679 18.01508 58.51728
#
# Poissons Ratio (x) = 0.03776 0.25813
# Poissons Ratio (y) = 0.13935 0.87841
# Poissons Ratio (z) = 0.29324 0.27043
#
# Static dielectric constant tensor:
#      x y z
#    x 1.760350 0.000000 0.000000 
#    y 0.000000 1.696490 0.000000 
#    z 0.000000 0.000000 1.879900 
# 
# From -- ./inp_files/14223.got.cif
#   From: 2010.05.17/outbox.cif.g08.bks.cpg/sg40_8_cif.got.tgz:14223.got - 2010.06.03 18:35:42.
