data_PCOD9363315
_publ_section_title
;
Structure prediction by ZEFSAII (Michael W. Deem and Ramdas Pophale) SiO2 
 PCOD9363315
Probable space group: A M A 2
;
_chemical_formula_sum "Si O2"
_cell_formula_units_Z 64
_cell_length_a 11.621807
_cell_length_b 16.401723
_cell_length_c 16.714683
_cell_angle_alpha 90.000000
_cell_angle_beta 90.000000
_cell_angle_gamma 90.000000
_cell_volume 3186.113747
_symmetry_space_group_name_H-M "A M A 2"
_symmetry_group_IT_number 40
_symmetry_cell_setting 'orthorhombic'
loop_
_space_group_symop_operation_xyz
x,y,z
-x,-y,z
1/2-x,y,z
1/2+x,-y,z
x,1/2+y,1/2+z
-x,1/2-y,1/2+z
1/2-x,1/2+y,1/2+z
1/2+x,1/2-y,1/2+z
loop_
_atom_site_type_symbol
_atom_site_label
_atom_site_fract_x
_atom_site_fract_y
_atom_site_fract_z
Si Si1 0.035422 0.293691 0.080160
Si Si2 0.113522 0.765833 0.227652
Si Si3 0.965614 0.654507 0.343492
Si Si4 0.877001 0.312832 0.934098
Si Si5 0.626942 0.359917 0.483116
Si Si6 0.038926 0.591914 0.786955
Si Si7 0.884695 0.559301 0.192798
Si Si8 0.129025 0.533379 0.637066
O O1 0.949677 0.249605 0.143081
O O2 0.105782 0.223187 0.033687
O O3 0.099107 0.364649 0.130445
O O4 0.962945 0.329065 0.006517
O O5 0.250000 0.761994 0.220982
O O6 0.061271 0.698189 0.287512
O O7 0.068939 0.850940 0.264701
O O8 0.031809 0.616661 0.418552
O O9 0.895815 0.727112 0.387183
O O10 0.897694 0.596328 0.282886
O O11 0.750000 0.314770 0.967449
O O12 0.898355 0.377451 0.865111
O O13 0.750000 0.351937 0.441354
O O14 0.632679 0.427089 0.551031
O O15 0.123384 0.596345 0.710720
O O16 0.000000 0.500000 0.800424
O O17 0.750000 0.528210 0.184035
O O18 0.000000 0.500000 0.182340
O O19 0.250000 0.484886 0.647012
O O20 0.000000 0.500000 0.642101
#
# Coordination Sequence:
#
# PCOD9363315 Si02
#       8
#     8   8   8   8   8   8   8   8
#     4  10  21  39  59  89 118 153 202 254 308 366
#     4  10  19  34  57  84 117 157 201 253 307 362
#     4   9  21  38  59  88 118 153 204 251 312 363
#     4  10  20  36  60  87 117 154 200 255 304 357
#     4  10  19  36  61  87 118 155 201 251 305 363
#     4  10  21  36  53  82 118 160 200 242 295 361
#     4  11  25  44  67  92 125 167 208 255 309 374
#     4  10  21  37  56  83 118 159 199 242 294 357
#
# _framework density 20.087167999999998
#
# number of rings (size 3 to 8) (size 9 to 14) (size 15 to 20)
#    0.000    2.000    1.250    1.875    0.000    6.500 
#    0.000    3.125    0.000    0.000    0.000    0.000 
#    0.000    0.000    0.000    0.000    0.000    0.000 
#
# Total GULP energy -178137.700743 kJ/mol
# GULP energy per Si atom -5566.803148 kJ/mol
# Density = 2.004145 g / cm^3
# Si number density = 20.087168 Si / 1000 Ang^3
#
#
#
# Elastic Constant Matrix: (Units=GPa)
#
#
# Indices 1 2 3 4 5 6 
#
# 1 134.6160 18.4277 10.6060 0.0000 0.0000 0.0000
# 2 18.4277 19.6321 -5.6046 0.0000 0.0000 0.0000
# 3 10.6060 -5.6046 84.1991 0.0000 0.0000 0.0000
# 4 0.0000 0.0000 0.0000 94.0357 0.0000 0.0000
# 5 0.0000 0.0000 0.0000 0.0000 4.3212 0.0000
# 6 0.0000 0.0000 0.0000 0.0000 0.0000 13.2687
#
#
#
# Elastic Compliance Matrix: (Units=1/GPa)
#
#
# Indices 1 2 3 4 5 6 
#
# 1 0.008751 -0.008694 -0.001681 0.000000 0.000000 0.000000
# 2 -0.008694 0.060561 0.005126 0.000000 0.000000 0.000000
# 3 -0.001681 0.005126 0.012430 0.000000 0.000000 0.000000
# 4 0.000000 0.000000 0.000000 0.010634 0.000000 0.000000
# 5 0.000000 0.000000 0.000000 0.000000 0.231415 0.000000
# 6 0.000000 0.000000 0.000000 0.000000 0.000000 0.075365
#
#
# Mechanical properties :
#
#
# Convention : Reuss Voigt Hill
#
# Bulk Modulus (GPa) = 14.03624 31.70060 22.86842
# Shear Modulus (GPa) = 11.53663 36.65968 24.09815
#
# Velocity S-wave (km/s) = 2.39911 4.27667 3.46740
# Velocity P-wave (km/s) = 3.83108 6.34053 5.23830
#
# Compressibility (1/GPa) = 0.07124416
#
# Stress axis : x y z
#
# Youngs Moduli (GPa) = 114.27097 16.51224 80.45320
#
# Poissons Ratio (x) = 0.14356 0.13525
# Poissons Ratio (y) = 0.99349 -0.41243
# Poissons Ratio (z) = 0.19209 -0.08465
#
# Static dielectric constant tensor:
#      x y z
#    x 2.239360 0.000000 0.000000 
#    y 0.000000 1.718070 0.000000 
#    z 0.000000 0.000000 1.699040 
# 
# From -- ./inp_files/16516.got.cif
#   From: 2010.05.17/outbox.cif.g08.bks.cpg/sg40_9_cif.got.tgz:16516.got - 2010.06.03 18:35:42.
