data_PCOD9363490
_publ_section_title
;
Structure prediction by ZEFSAII (Michael W. Deem and Ramdas Pophale) SiO2 
 PCOD9363490
Probable space group: A M A 2
;
_chemical_formula_sum "Si O2"
_cell_formula_units_Z 44
_cell_length_a 15.019322
_cell_length_b 17.674642
_cell_length_c 7.698248
_cell_angle_alpha 90.000000
_cell_angle_beta 90.000000
_cell_angle_gamma 90.000000
_cell_volume 2043.585686
_symmetry_space_group_name_H-M "A M A 2"
_symmetry_group_IT_number 40
_symmetry_cell_setting 'orthorhombic'
loop_
_space_group_symop_operation_xyz
x,y,z
-x,-y,z
1/2-x,y,z
1/2+x,-y,z
x,1/2+y,1/2+z
-x,1/2-y,1/2+z
1/2-x,1/2+y,1/2+z
1/2+x,1/2-y,1/2+z
loop_
_atom_site_type_symbol
_atom_site_label
_atom_site_fract_x
_atom_site_fract_y
_atom_site_fract_z
Si Si1 0.559452 0.333531 0.110430
Si Si2 0.750000 0.930949 0.089061
Si Si3 0.750000 0.032643 0.539572
Si Si4 0.750000 0.284427 0.720538
Si Si5 0.250000 0.645255 0.115031
Si Si6 0.750000 0.090876 0.910547
Si Si7 0.407306 0.305633 0.367744
Si Si8 0.406479 0.528435 0.844631
O O1 0.657741 0.328010 0.193798
O O2 0.483987 0.343160 0.253468
O O3 0.550991 0.256976 0.996649
O O4 0.567417 0.406306 0.983481
O O5 0.750000 0.841527 0.060012
O O6 0.659581 0.939558 0.200604
O O7 0.750000 0.004054 0.968904
O O8 0.750000 0.945342 0.604768
O O9 0.657564 0.035206 0.433011
O O10 0.750000 0.086881 0.701751
O O11 0.659559 0.237544 0.735706
O O12 0.750000 0.325552 0.913503
O O13 0.660387 0.135931 0.962803
O O14 0.500000 0.500000 0.773517
#
# Coordination Sequence:
#
# PCOD9363490 Si02
#       8
#     8   4   4   4   4   4   8   8
#     4  10  19  38  61  85 119 163 202 249 310 372
#     4  11  20  41  61  84 119 165 201 249 303 368
#     4   9  17  36  54  81 118 160 188 251 313 357
#     4   9  16  41  62  78 113 170 193 247 308 363
#     4   8  15  35  61  76 106 161 205 228 300 368
#     4  11  24  37  56  93 128 150 195 273 308 340
#     4  10  21  38  61  86 125 158 204 257 309 363
#     4  10  19  36  64  86 114 160 211 244 299 374
#
# _framework density 21.530781999999999
#
# number of rings (size 3 to 8) (size 9 to 14) (size 15 to 20)
#    0.000    2.182    5.455    1.636    0.000    1.455 
#    6.545    1.818    0.000    0.000    0.000    0.000 
#    0.000    0.000    0.000    0.000    0.000    0.000 
#
# Total GULP energy -122575.367979 kJ/mol
# GULP energy per Si atom -5571.607635 kJ/mol
# Density = 2.148178 g / cm^3
# Si number density = 21.530782 Si / 1000 Ang^3
#
#
#
# Elastic Constant Matrix: (Units=GPa)
#
#
# Indices 1 2 3 4 5 6 
#
# 1 153.7194 11.6253 26.0389 0.0000 0.0000 0.0000
# 2 11.6253 33.5966 -0.3804 0.0000 0.0000 0.0000
# 3 26.0389 -0.3804 28.9088 0.0000 0.0000 0.0000
# 4 0.0000 0.0000 0.0000 29.2330 0.0000 0.0000
# 5 0.0000 0.0000 0.0000 0.0000 18.1849 0.0000
# 6 0.0000 0.0000 0.0000 0.0000 0.0000 14.0184
#
#
#
# Elastic Compliance Matrix: (Units=1/GPa)
#
#
# Indices 1 2 3 4 5 6 
#
# 1 0.007936 -0.002828 -0.007186 0.000000 0.000000 0.000000
# 2 -0.002828 0.030777 0.002952 0.000000 0.000000 0.000000
# 3 -0.007186 0.002952 0.041103 0.000000 0.000000 0.000000
# 4 0.000000 0.000000 0.000000 0.034208 0.000000 0.000000
# 5 0.000000 0.000000 0.000000 0.000000 0.054991 0.000000
# 6 0.000000 0.000000 0.000000 0.000000 0.000000 0.071335
#
#
# Mechanical properties :
#
#
# Convention : Reuss Voigt Hill
#
# Bulk Modulus (GPa) = 15.22234 32.31030 23.76632
# Shear Modulus (GPa) = 18.09168 24.21665 21.15416
#
# Velocity S-wave (km/s) = 2.90189 3.35736 3.13790
# Velocity P-wave (km/s) = 4.27941 5.48346 4.91841
#
# Compressibility (1/GPa) = 0.06569293
#
# Stress axis : x y z
#
# Youngs Moduli (GPa) = 126.00151 32.49211 24.32923
#
# Poissons Ratio (x) = 0.09187 0.17482
# Poissons Ratio (y) = 0.35628 -0.07182
# Poissons Ratio (z) = 0.90542 -0.09591
#
# Static dielectric constant tensor:
#      x y z
#    x 1.801460 0.000000 0.000000 
#    y 0.000000 1.833690 0.000000 
#    z 0.000000 0.000000 1.815990 
# 
# From -- ./inp_files/6409.got.cif
#   From: 2010.05.17/outbox.cif.g08.bks.cpg/sg40_4_cif.got.tgz:6409.got - 2010.06.03 18:35:42.
