data_PCOD9363703
_publ_section_title
;
Structure prediction by ZEFSAII (Michael W. Deem and Ramdas Pophale) SiO2 
 PCOD9363703
Probable space group: A M A 2
;
_chemical_formula_sum "Si O2"
_cell_formula_units_Z 40
_cell_length_a 8.649517
_cell_length_b 7.962290
_cell_length_c 28.060222
_cell_angle_alpha 90.000000
_cell_angle_beta 90.000000
_cell_angle_gamma 90.000000
_cell_volume 1932.506443
_symmetry_space_group_name_H-M "A M A 2"
_symmetry_group_IT_number 40
_symmetry_cell_setting 'orthorhombic'
loop_
_space_group_symop_operation_xyz
x,y,z
-x,-y,z
1/2-x,y,z
1/2+x,-y,z
x,1/2+y,1/2+z
-x,1/2-y,1/2+z
1/2-x,1/2+y,1/2+z
1/2+x,1/2-y,1/2+z
loop_
_atom_site_type_symbol
_atom_site_label
_atom_site_fract_x
_atom_site_fract_y
_atom_site_fract_z
Si Si1 0.935418 0.191614 0.328630
Si Si2 0.064450 0.687108 0.524758
Si Si3 0.064913 0.808728 0.224860
Si Si4 0.933819 0.313062 0.925014
Si Si5 0.564829 0.808443 0.127929
O O1 0.750000 0.184771 0.332647
O O2 0.976458 0.266837 0.276703
O O3 0.002964 0.273178 0.376666
O O4 0.000000 0.000000 0.326772
O O5 0.250000 0.689433 0.520531
O O6 0.023222 0.768830 0.576180
O O7 0.000000 0.500000 0.528531
O O8 0.992370 0.752092 0.476035
O O9 0.250000 0.816216 0.221601
O O10 0.999670 0.728517 0.176444
O O11 0.000000 0.000000 0.225643
O O12 0.750000 0.311043 0.923735
O O13 0.000000 0.500000 0.922177
O O14 0.750000 0.816482 0.130814
O O15 0.500000 0.000000 0.127489
#
# Coordination Sequence:
#
# PCOD9363703 Si02
#       5
#     8   8   8   8   8
#     4   9  16  26  40  61  89 120 152 190 233 279
#     4  10  20  34  50  71  98 128 162 199 238 283
#     4   9  15  22  36  58  86 117 148 184 229 276
#     4  11  21  33  50  71  96 128 162 200 241 283
#     4   9  16  25  40  61  88 119 150 187 230 275
#
# _framework density 20.698508
#
# number of rings (size 3 to 8) (size 9 to 14) (size 15 to 20)
#    0.000    2.400    0.000    6.600    0.000    4.800 
#    0.000    0.000    0.000    0.000    0.000    1.400 
#    0.000    3.200    0.000    0.000    0.000    0.000 
#
# Total GULP energy -111393.217802 kJ/mol
# GULP energy per Si atom -5569.660890 kJ/mol
# Density = 2.065140 g / cm^3
# Si number density = 20.698508 Si / 1000 Ang^3
#
#
#
# Elastic Constant Matrix: (Units=GPa)
#
#
# Indices 1 2 3 4 5 6 
#
# 1 113.2218 1.0663 92.4322 0.0000 0.0000 0.0000
# 2 1.0663 10.0957 22.5702 0.0000 0.0000 0.0000
# 3 92.4322 22.5702 301.4642 0.0000 0.0000 0.0000
# 4 0.0000 0.0000 0.0000 12.6061 0.0000 0.0000
# 5 0.0000 0.0000 0.0000 0.0000 83.0884 0.0000
# 6 0.0000 0.0000 0.0000 0.0000 0.0000 9.5222
#
#
#
# Elastic Compliance Matrix: (Units=1/GPa)
#
#
# Indices 1 2 3 4 5 6 
#
# 1 0.012376 0.008618 -0.004440 0.000000 0.000000 0.000000
# 2 0.008618 0.124965 -0.011998 0.000000 0.000000 0.000000
# 3 -0.004440 -0.011998 0.005577 0.000000 0.000000 0.000000
# 4 0.000000 0.000000 0.000000 0.079327 0.000000 0.000000
# 5 0.000000 0.000000 0.000000 0.000000 0.012035 0.000000
# 6 0.000000 0.000000 0.000000 0.000000 0.000000 0.105018
#
#
# Mechanical properties :
#
#
# Convention : Reuss Voigt Hill
#
# Bulk Modulus (GPa) = 7.85682 72.99103 40.42392
# Shear Modulus (GPa) = 12.58293 41.62420 27.10357
#
# Velocity S-wave (km/s) = 2.46827 4.48926 3.62255
# Velocity P-wave (km/s) = 3.45358 7.88744 6.08847
#
# Compressibility (1/GPa) = 0.12727803
#
# Stress axis : x y z
#
# Youngs Moduli (GPa) = 80.80435 8.00222 179.31664
#
# Poissons Ratio (x) = -0.06897 0.79612
# Poissons Ratio (y) = -0.69640 2.15153
# Poissons Ratio (z) = 0.35875 0.09601
#
# Static dielectric constant tensor:
#      x y z
#    x 1.684540 0.000000 0.000000 
#    y 0.000000 1.776940 0.000000 
#    z 0.000000 0.000000 1.909740 
# 
# From -- ./inp_files/25193.got.cif
#   From: 2010.05.17/outbox.cif.g08.bks.cpg/sg40_13_cif.got.tgz:25193.got - 2010.06.03 18:35:42.
