data_PCOD9363661
_publ_section_title
;
Structure prediction by ZEFSAII (Michael W. Deem and Ramdas Pophale) SiO2 
 PCOD9363661
Probable space group: A M A 2
;
_chemical_formula_sum "Si O2"
_cell_formula_units_Z 56
_cell_length_a 9.249629
_cell_length_b 21.069830
_cell_length_c 15.184521
_cell_angle_alpha 90.000000
_cell_angle_beta 90.000000
_cell_angle_gamma 90.000000
_cell_volume 2959.282608
_symmetry_space_group_name_H-M "A M A 2"
_symmetry_group_IT_number 40
_symmetry_cell_setting 'orthorhombic'
loop_
_space_group_symop_operation_xyz
x,y,z
-x,-y,z
1/2-x,y,z
1/2+x,-y,z
x,1/2+y,1/2+z
-x,1/2-y,1/2+z
1/2-x,1/2+y,1/2+z
1/2+x,1/2-y,1/2+z
loop_
_atom_site_type_symbol
_atom_site_label
_atom_site_fract_x
_atom_site_fract_y
_atom_site_fract_z
Si Si1 0.416444 0.282691 0.482740
Si Si2 0.923110 0.312660 0.310072
Si Si3 0.925313 0.068978 0.290988
Si Si4 0.924475 0.694676 0.685374
Si Si5 0.414225 0.633924 0.954588
Si Si6 0.087860 0.440651 0.272483
Si Si7 0.410067 0.442272 0.065608
O O1 0.250000 0.307133 0.475633
O O2 0.524809 0.310590 0.411152
O O3 0.465298 0.291460 0.584010
O O4 0.410752 0.209248 0.453803
O O5 0.750000 0.316169 0.304020
O O6 0.972184 0.250545 0.253212
O O7 0.998128 0.376215 0.275914
O O8 0.750000 0.062502 0.294572
O O9 0.963151 0.123781 0.218642
O O10 0.988736 0.101051 0.379970
O O11 0.000000 0.000000 0.277465
O O12 0.750000 0.697328 0.687579
O O13 0.250000 0.609803 0.949741
O O14 0.490299 0.617311 0.046507
O O15 0.250000 0.434154 0.309616
O O16 0.104338 0.453976 0.168576
O O17 0.000000 0.500000 0.311758
O O18 0.500000 0.500000 0.024908
O O19 0.250000 0.435952 0.028046
#
# Coordination Sequence:
#
# PCOD9363661 Si02
#       7
#     8   8   8   8   8   8   8
#     4  10  21  38  60  86 115 153 200 249 302 363
#     4  11  21  38  62  89 119 155 197 246 304 364
#     4  11  22  39  60  84 119 161 208 256 311 369
#     4   9  20  39  62  86 119 161 202 251 310 366
#     4  11  21  34  55  84 117 151 194 245 303 365
#     4  10  21  37  57  84 116 155 196 242 296 355
#     4  10  20  33  51  77 112 149 189 232 285 348
#
# _framework density 18.923504999999999
#
# number of rings (size 3 to 8) (size 9 to 14) (size 15 to 20)
#    0.000    1.714    1.429    3.429    0.000    3.429 
#    0.000    3.571    0.000    1.714    0.000    0.000 
#    0.000    0.000    0.000    0.000    0.000    0.000 
#
# Total GULP energy -156006.052184 kJ/mol
# GULP energy per Si atom -5571.644721 kJ/mol
# Density = 1.888043 g / cm^3
# Si number density = 18.923505 Si / 1000 Ang^3
#
#
#
# Elastic Constant Matrix: (Units=GPa)
#
#
# Indices 1 2 3 4 5 6 
#
# 1 118.5244 52.1030 34.5535 0.0000 0.0000 0.0000
# 2 52.1030 115.7444 40.7816 0.0000 0.0000 0.0000
# 3 34.5535 40.7816 92.7647 0.0000 0.0000 0.0000
# 4 0.0000 0.0000 0.0000 24.6444 0.0000 0.0000
# 5 0.0000 0.0000 0.0000 0.0000 19.2877 0.0000
# 6 0.0000 0.0000 0.0000 0.0000 0.0000 22.7026
#
#
#
# Elastic Compliance Matrix: (Units=1/GPa)
#
#
# Indices 1 2 3 4 5 6 
#
# 1 0.010902 -0.004114 -0.002252 0.000000 0.000000 0.000000
# 2 -0.004114 0.011776 -0.003644 0.000000 0.000000 0.000000
# 3 -0.002252 -0.003644 0.013221 0.000000 0.000000 0.000000
# 4 0.000000 0.000000 0.000000 0.040577 0.000000 0.000000
# 5 0.000000 0.000000 0.000000 0.000000 0.051846 0.000000
# 6 0.000000 0.000000 0.000000 0.000000 0.000000 0.044048
#
#
# Mechanical properties :
#
#
# Convention : Reuss Voigt Hill
#
# Bulk Modulus (GPa) = 62.98252 64.65664 63.81958
# Shear Modulus (GPa) = 25.29278 26.63330 25.96304
#
# Velocity S-wave (km/s) = 3.65989 3.75563 3.70807
# Velocity P-wave (km/s) = 7.15644 7.28340 7.22020
#
# Compressibility (1/GPa) = 0.01587742
#
# Stress axis : x y z
#
# Youngs Moduli (GPa) = 91.72417 84.91969 75.63672
#
# Poissons Ratio (x) = 0.34937 0.17035
# Poissons Ratio (y) = 0.37737 0.27566
# Poissons Ratio (z) = 0.20659 0.30949
#
# Static dielectric constant tensor:
#      x y z
#    x 1.678480 0.000000 0.000000 
#    y 0.000000 1.762930 0.000000 
#    z 0.000000 0.000000 1.685130 
# 
# From -- ./inp_files/15264.got.cif
#   From: 2010.05.17/outbox.cif.g08.bks.cpg/sg40_8_cif.got.tgz:15264.got - 2010.06.03 18:35:42.
