data_PCOD9363279
_publ_section_title
;
Structure prediction by ZEFSAII (Michael W. Deem and Ramdas Pophale) SiO2 
 PCOD9363279
Probable space group: A M A 2
;
_chemical_formula_sum "Si O2"
_cell_formula_units_Z 64
_cell_length_a 15.560702
_cell_length_b 8.612539
_cell_length_c 23.807685
_cell_angle_alpha 90.000000
_cell_angle_beta 90.000000
_cell_angle_gamma 90.000000
_cell_volume 3190.638159
_symmetry_space_group_name_H-M "A M A 2"
_symmetry_group_IT_number 40
_symmetry_cell_setting 'orthorhombic'
loop_
_space_group_symop_operation_xyz
x,y,z
-x,-y,z
1/2-x,y,z
1/2+x,-y,z
x,1/2+y,1/2+z
-x,1/2-y,1/2+z
1/2-x,1/2+y,1/2+z
1/2+x,1/2-y,1/2+z
loop_
_atom_site_type_symbol
_atom_site_label
_atom_site_fract_x
_atom_site_fract_y
_atom_site_fract_z
Si Si1 0.405705 0.578112 0.005070
Si Si2 0.651181 0.683458 0.852168
Si Si3 0.983524 0.682740 0.298807
Si Si4 0.586914 0.904795 0.084095
Si Si5 0.845861 0.254463 0.478377
Si Si6 0.987853 0.183668 0.671204
Si Si7 0.350330 0.678869 0.885938
Si Si8 0.154031 0.279736 0.612208
O O1 0.500000 0.500000 0.009512
O O2 0.346758 0.426310 0.996471
O O3 0.380241 0.681887 0.058288
O O4 0.392847 0.675978 0.947902
O O5 0.750000 0.722839 0.835524
O O6 0.573480 0.731674 0.812423
O O7 0.648874 0.499548 0.864367
O O8 0.632352 0.761127 0.912919
O O9 0.958726 0.717356 0.234450
O O10 0.909808 0.729168 0.342648
O O11 0.000000 0.500000 0.302844
O O12 0.594360 0.843401 0.021230
O O13 0.577353 0.761104 0.126741
O O14 0.500000 0.000000 0.089898
O O15 0.655336 0.037128 0.098111
O O16 0.750000 0.316642 0.485621
O O17 0.082794 0.252882 0.659895
O O18 0.000000 0.000000 0.662701
O O19 0.250000 0.728399 0.888957
O O20 0.250000 0.227051 0.626571
#
# Coordination Sequence:
#
# PCOD9363279 Si02
#       8
#     8   8   8   8   8   8   8   8
#     4  11  20  35  61  88 121 160 197 233 284 354
#     4   9  20  37  60  87 116 152 196 236 284 353
#     4  11  24  40  60  84 114 153 198 251 307 358
#     4  10  21  36  56  81 113 147 186 236 294 350
#     4  10  19  34  55  83 114 147 184 224 271 337
#     4  10  23  43  60  77 107 153 204 244 289 358
#     4  10  21  39  62  90 120 156 199 245 296 361
#     4  11  22  36  57  90 121 150 191 247 306 359
#
# _framework density 20.058682999999998
#
# number of rings (size 3 to 8) (size 9 to 14) (size 15 to 20)
#    0.000    1.750    0.000    6.750    0.000    5.500 
#    0.000    6.250    0.000    0.000    0.000    0.000 
#    0.000    0.000    0.000    0.000    0.000    0.000 
#
# Total GULP energy -178635.133515 kJ/mol
# GULP energy per Si atom -5582.347922 kJ/mol
# Density = 2.001303 g / cm^3
# Si number density = 20.058683 Si / 1000 Ang^3
#
#
#
# Elastic Constant Matrix: (Units=GPa)
#
#
# Indices 1 2 3 4 5 6 
#
# 1 84.1413 3.1995 10.6758 0.0000 0.0000 0.0000
# 2 3.1995 35.1531 13.4766 0.0000 0.0000 0.0000
# 3 10.6758 13.4766 53.3545 0.0000 0.0000 0.0000
# 4 0.0000 0.0000 0.0000 29.4436 0.0000 0.0000
# 5 0.0000 0.0000 0.0000 0.0000 11.3205 0.0000
# 6 0.0000 0.0000 0.0000 0.0000 0.0000 6.8213
#
#
#
# Elastic Compliance Matrix: (Units=1/GPa)
#
#
# Indices 1 2 3 4 5 6 
#
# 1 0.012196 -0.000193 -0.002391 0.000000 0.000000 0.000000
# 2 -0.000193 0.031500 -0.007918 0.000000 0.000000 0.000000
# 3 -0.002391 -0.007918 0.021221 0.000000 0.000000 0.000000
# 4 0.000000 0.000000 0.000000 0.033963 0.000000 0.000000
# 5 0.000000 0.000000 0.000000 0.000000 0.088335 0.000000
# 6 0.000000 0.000000 0.000000 0.000000 0.000000 0.146599
#
#
# Mechanical properties :
#
#
# Convention : Reuss Voigt Hill
#
# Bulk Modulus (GPa) = 22.77300 25.26142 24.01721
# Shear Modulus (GPa) = 13.53341 19.20356 16.36848
#
# Velocity S-wave (km/s) = 2.60030 3.09749 2.85972
# Velocity P-wave (km/s) = 4.51589 5.04120 4.78576
#
# Compressibility (1/GPa) = 0.04391166
#
# Stress axis : x y z
#
# Youngs Moduli (GPa) = 81.99720 31.74604 47.12316
#
# Poissons Ratio (x) = 0.00613 0.11269
# Poissons Ratio (y) = 0.01584 0.37311
# Poissons Ratio (z) = 0.19609 0.25136
#
# Static dielectric constant tensor:
#      x y z
#    x 1.741970 0.000000 0.000000 
#    y 0.000000 1.729090 0.000000 
#    z 0.000000 0.000000 1.699360 
# 
# From -- ./inp_files/24786.got.cif
#   From: 2010.05.17/outbox.cif.g08.bks.cpg/sg40_13_cif.got.tgz:24786.got - 2010.06.03 18:35:42.
