data_PCOD9363282
_publ_section_title
;
Structure prediction by ZEFSAII (Michael W. Deem and Ramdas Pophale) SiO2 
 PCOD9363282
Probable space group: A M A 2
;
_chemical_formula_sum "Si O2"
_cell_formula_units_Z 64
_cell_length_a 8.095676
_cell_length_b 14.811721
_cell_length_c 24.883067
_cell_angle_alpha 90.000000
_cell_angle_beta 90.000000
_cell_angle_gamma 90.000000
_cell_volume 2983.750815
_symmetry_space_group_name_H-M "A M A 2"
_symmetry_group_IT_number 40
_symmetry_cell_setting 'orthorhombic'
loop_
_space_group_symop_operation_xyz
x,y,z
-x,-y,z
1/2-x,y,z
1/2+x,-y,z
x,1/2+y,1/2+z
-x,1/2-y,1/2+z
1/2-x,1/2+y,1/2+z
1/2+x,1/2-y,1/2+z
loop_
_atom_site_type_symbol
_atom_site_label
_atom_site_fract_x
_atom_site_fract_y
_atom_site_fract_z
Si Si1 0.442686 0.803278 0.246320
Si Si2 0.949049 0.096903 0.740119
Si Si3 0.950205 0.093612 0.506017
Si Si4 0.052875 0.397821 0.510019
Si Si5 0.940692 0.897417 0.348684
Si Si6 0.062100 0.883170 0.622412
Si Si7 0.059633 0.746904 0.931368
Si Si8 0.435409 0.668117 0.627267
O O1 0.250000 0.810768 0.257744
O O2 0.494806 0.697988 0.256863
O O3 0.539000 0.867194 0.287244
O O4 0.473478 0.835933 0.184818
O O5 0.750000 0.100214 0.739728
O O6 0.018343 0.093456 0.678850
O O7 0.000000 0.000000 0.765808
O O8 0.750000 0.106799 0.505144
O O9 0.015997 0.089187 0.566856
O O10 0.045444 0.174578 0.478917
O O11 0.000000 0.000000 0.478840
O O12 0.250000 0.389044 0.508352
O O13 0.985588 0.334925 0.461104
O O14 0.000000 0.500000 0.501051
O O15 0.001639 0.370751 0.571004
O O16 0.750000 0.898471 0.364766
O O17 0.017911 0.813478 0.383159
O O18 0.000000 0.000000 0.355719
O O19 0.250000 0.918951 0.623579
O O20 0.073100 0.775576 0.619024
O O21 0.250000 0.768771 0.916484
O O22 0.250000 0.631870 0.634919
#
# Coordination Sequence:
#
# PCOD9363282 Si02
#       8
#     8   8   8   8   8   8   8   8
#     4  11  23  40  63  94 127 167 215 265 320 380
#     4  10  19  34  55  84 123 167 211 255 308 367
#     4  11  20  31  50  80 116 156 199 243 296 357
#     4  11  23  40  63  94 128 166 208 256 311 375
#     4  11  24  45  69  94 124 161 206 263 320 379
#     4   8  16  29  48  77 114 156 197 240 292 351
#     4  10  23  42  63  88 121 159 203 254 311 368
#     4  10  19  37  61  89 125 166 208 256 312 369
#
# _framework density 21.449511999999999
#
# number of rings (size 3 to 8) (size 9 to 14) (size 15 to 20)
#    0.000    1.750    1.250    4.500    0.000    3.000 
#    0.000    4.375    0.000    1.500    0.000    0.000 
#    0.000    0.000    0.000    0.000    0.000    0.000 
#
# Total GULP energy -178251.542723 kJ/mol
# GULP energy per Si atom -5570.360710 kJ/mol
# Density = 2.140069 g / cm^3
# Si number density = 21.449512 Si / 1000 Ang^3
#
#
#
# Elastic Constant Matrix: (Units=GPa)
#
#
# Indices 1 2 3 4 5 6 
#
# 1 42.7173 2.0279 -8.3890 0.0000 0.0000 0.0000
# 2 2.0279 124.9965 45.2401 0.0000 0.0000 0.0000
# 3 -8.3890 45.2401 81.5098 0.0000 0.0000 0.0000
# 4 0.0000 0.0000 0.0000 28.1871 0.0000 0.0000
# 5 0.0000 0.0000 0.0000 0.0000 5.3716 0.0000
# 6 0.0000 0.0000 0.0000 0.0000 0.0000 28.5585
#
#
#
# Elastic Compliance Matrix: (Units=1/GPa)
#
#
# Indices 1 2 3 4 5 6 
#
# 1 0.024151 -0.001616 0.003383 0.000000 0.000000 0.000000
# 2 -0.001616 0.010119 -0.005783 0.000000 0.000000 0.000000
# 3 0.003383 -0.005783 0.015826 0.000000 0.000000 0.000000
# 4 0.000000 0.000000 0.000000 0.035477 0.000000 0.000000
# 5 0.000000 0.000000 0.000000 0.000000 0.186165 0.000000
# 6 0.000000 0.000000 0.000000 0.000000 0.000000 0.035016
#
#
# Mechanical properties :
#
#
# Convention : Reuss Voigt Hill
#
# Bulk Modulus (GPa) = 23.77354 36.33131 30.05242
# Shear Modulus (GPa) = 15.20642 26.44641 20.82642
#
# Velocity S-wave (km/s) = 2.66548 3.51516 3.11939
# Velocity P-wave (km/s) = 4.53658 5.78360 5.19762
#
# Compressibility (1/GPa) = 0.04206357
#
# Stress axis : x y z
#
# Youngs Moduli (GPa) = 41.40667 98.81967 63.18620
#
# Poissons Ratio (x) = 0.15970 -0.21373
# Poissons Ratio (y) = 0.06692 0.36540
# Poissons Ratio (z) = -0.14006 0.57146
#
# Static dielectric constant tensor:
#      x y z
#    x 1.779050 0.000000 0.000000 
#    y 0.000000 1.769910 0.000000 
#    z 0.000000 0.000000 1.824110 
# 
# From -- ./inp_files/24302.got.cif
#   From: 2010.05.17/outbox.cif.g08.bks.cpg/sg40_13_cif.got.tgz:24302.got - 2010.06.03 18:35:42.
