data_PCOD9363073
_publ_section_title
;
Structure prediction by ZEFSAII (Michael W. Deem and Ramdas Pophale) SiO2 
 PCOD9363073
Probable space group: A M A 2
;
_chemical_formula_sum "Si O2"
_cell_formula_units_Z 64
_cell_length_a 11.889246
_cell_length_b 31.883126
_cell_length_c 7.690456
_cell_angle_alpha 90.000000
_cell_angle_beta 90.000000
_cell_angle_gamma 90.000000
_cell_volume 2915.192919
_symmetry_space_group_name_H-M "A M A 2"
_symmetry_group_IT_number 40
_symmetry_cell_setting 'orthorhombic'
loop_
_space_group_symop_operation_xyz
x,y,z
-x,-y,z
1/2-x,y,z
1/2+x,-y,z
x,1/2+y,1/2+z
-x,1/2-y,1/2+z
1/2-x,1/2+y,1/2+z
1/2+x,1/2-y,1/2+z
loop_
_atom_site_type_symbol
_atom_site_label
_atom_site_fract_x
_atom_site_fract_y
_atom_site_fract_z
Si Si1 0.055271 0.148957 0.275400
Si Si2 0.944609 0.153265 0.770326
Si Si3 0.127979 0.798746 0.093072
Si Si4 0.376465 0.980785 0.690115
Si Si5 0.128786 0.601102 0.444152
Si Si6 0.869878 0.602619 0.960365
Si Si7 0.127290 0.202926 0.590461
Si Si8 0.623788 0.494525 0.577363
O O1 0.121391 0.169283 0.434555
O O2 0.970841 0.185610 0.215450
O O3 0.976081 0.110599 0.338576
O O4 0.122043 0.131702 0.110974
O O5 0.025213 0.114570 0.824645
O O6 0.030029 0.190289 0.721409
O O7 0.877067 0.139985 0.601265
O O8 0.874988 0.169249 0.932317
O O9 0.250000 0.801041 0.180494
O O10 0.112506 0.750925 0.031863
O O11 0.250000 0.001176 0.657279
O O12 0.374161 0.939034 0.575460
O O13 0.500000 0.000000 0.649368
O O14 0.378250 0.977246 0.901180
O O15 0.250000 0.606429 0.355250
O O16 0.122873 0.553447 0.509337
O O17 0.750000 0.603496 0.865250
O O18 0.250000 0.200238 0.674322
O O19 0.500000 0.500000 0.667275
O O20 0.750000 0.501168 0.660360
#
# Coordination Sequence:
#
# PCOD9363073 Si02
#       8
#     8   8   8   8   8   8   8   8
#     4  10  21  36  53  76 108 142 176 216 269 320
#     4  10  19  32  53  78 102 134 178 220 265 316
#     4  10  20  34  52  75 104 138 176 218 264 316
#     4   9  17  31  52  78 105 134 172 219 267 316
#     4  10  20  35  55  79 108 140 177 222 270 321
#     4  10  20  35  55  79 108 140 177 222 270 321
#     4  10  20  34  52  75 104 138 176 218 264 316
#     4   9  17  31  52  78 105 134 172 219 267 316
#
# _framework density 21.953949000000001
#
# number of rings (size 3 to 8) (size 9 to 14) (size 15 to 20)
#    0.000    2.250    0.000    3.750    0.000    0.000 
#    0.000    6.875    0.000   15.000    0.000    0.000 
#    0.000    0.000    0.000    0.000    0.000    0.000 
#
# Total GULP energy -178359.805849 kJ/mol
# GULP energy per Si atom -5573.743933 kJ/mol
# Density = 2.190398 g / cm^3
# Si number density = 21.953949 Si / 1000 Ang^3
#
#
#
# Elastic Constant Matrix: (Units=GPa)
#
#
# Indices 1 2 3 4 5 6 
#
# 1 168.9494 24.3797 3.8080 0.0000 0.0000 0.0000
# 2 24.3797 38.1557 -7.3836 0.0000 0.0000 0.0000
# 3 3.8080 -7.3836 21.6562 0.0000 0.0000 0.0000
# 4 0.0000 0.0000 0.0000 25.0945 0.0000 0.0000
# 5 0.0000 0.0000 0.0000 0.0000 -5.2789 0.0000
# 6 0.0000 0.0000 0.0000 0.0000 0.0000 10.6981
#
#
#
# Elastic Compliance Matrix: (Units=1/GPa)
#
#
# Indices 1 2 3 4 5 6 
#
# 1 0.006677 -0.004811 -0.002814 0.000000 0.000000 0.000000
# 2 -0.004811 0.031526 0.011594 0.000000 0.000000 0.000000
# 3 -0.002814 0.011594 0.050624 0.000000 0.000000 0.000000
# 4 0.000000 0.000000 0.000000 0.039849 0.000000 0.000000
# 5 0.000000 0.000000 0.000000 0.000000 -0.189435 0.000000
# 6 0.000000 0.000000 0.000000 0.000000 0.000000 0.093475
#
#
# Mechanical properties :
#
#
# Convention : Reuss Voigt Hill
#
# Bulk Modulus (GPa) = 10.33422 30.04107 20.18764
# Shear Modulus (GPa) = 87.67155 19.96656 53.81906
#
# Velocity S-wave (km/s) = 6.32621 3.01902 4.95659
# Velocity P-wave (km/s) = 7.62094 5.08587 6.47861
#
# Compressibility (1/GPa) = 0.09676590
#
# Stress axis : x y z
#
# Youngs Moduli (GPa) = 149.77827 31.72004 19.75347
#
# Poissons Ratio (x) = 0.15259 0.05559
# Poissons Ratio (y) = 0.72052 -0.22903
# Poissons Ratio (z) = 0.42150 -0.36778
#
# Static dielectric constant tensor:
#      x y z
#    x 1.841190 0.000000 0.000000 
#    y 0.000000 1.788350 0.000000 
#    z 0.000000 0.000000 1.752770 
# 
# From -- ./inp_files/5688.got.cif
#   From: 2010.05.17/outbox.cif.g08.bks.cpg/sg40_3_cif.got.tgz:5688.got - 2010.06.03 18:35:42.
