data_PCOD9363867
_publ_section_title
;
Structure prediction by ZEFSAII (Michael W. Deem and Ramdas Pophale) SiO2 
 PCOD9363867
Probable space group: A M A 2
;
_chemical_formula_sum "Si O2"
_cell_formula_units_Z 48
_cell_length_a 8.486080
_cell_length_b 21.004192
_cell_length_c 14.902946
_cell_angle_alpha 90.000000
_cell_angle_beta 90.000000
_cell_angle_gamma 90.000000
_cell_volume 2656.349584
_symmetry_space_group_name_H-M "A M A 2"
_symmetry_group_IT_number 40
_symmetry_cell_setting 'orthorhombic'
loop_
_space_group_symop_operation_xyz
x,y,z
-x,-y,z
1/2-x,y,z
1/2+x,-y,z
x,1/2+y,1/2+z
-x,1/2-y,1/2+z
1/2-x,1/2+y,1/2+z
1/2+x,1/2-y,1/2+z
loop_
_atom_site_type_symbol
_atom_site_label
_atom_site_fract_x
_atom_site_fract_y
_atom_site_fract_z
Si Si1 0.557954 0.691261 0.633550
Si Si2 0.940677 0.625555 0.330350
Si Si3 0.938705 0.070432 0.638517
Si Si4 0.559811 0.569524 0.520506
Si Si5 0.439061 0.770238 0.331234
Si Si6 0.061114 0.185085 0.519129
O O1 0.750000 0.691273 0.632372
O O2 0.505976 0.626166 0.586266
O O3 0.507951 0.700077 0.736314
O O4 0.507515 0.752564 0.575468
O O5 0.750000 0.628243 0.330754
O O6 0.992690 0.592428 0.238081
O O7 0.991230 0.587688 0.419278
O O8 0.003289 0.697344 0.334589
O O9 0.750000 0.070076 0.638315
O O10 0.998142 0.122449 0.567896
O O11 0.000000 0.000000 0.619193
O O12 0.500000 0.500000 0.545529
O O13 0.750000 0.569071 0.521421
O O14 0.250000 0.770902 0.333441
O O15 0.503662 0.806653 0.417700
O O16 0.250000 0.184289 0.520708
#
# Coordination Sequence:
#
# PCOD9363867 Si02
#       6
#     8   8   8   8   8   8
#     4   9  19  36  58  80 113 152 188 233 288 340
#     4  10  20  35  57  85 120 152 185 234 292 349
#     4  11  23  38  58  88 121 156 196 241 292 353
#     4  10  20  37  56  81 115 152 187 228 283 341
#     4  11  21  35  58  89 115 147 195 241 286 345
#     4  11  21  39  61  83 115 156 194 240 295 344
#
# _framework density 18.06991
#
# number of rings (size 3 to 8) (size 9 to 14) (size 15 to 20)
#    0.000    1.667    3.333    2.000    0.000    1.333 
#    0.000    2.500    0.000    2.000    0.000    0.000 
#    0.000    0.000    0.000    0.000    0.000    0.000 
#
# Total GULP energy -134069.507631 kJ/mol
# GULP energy per Si atom -5586.229485 kJ/mol
# Density = 1.802878 g / cm^3
# Si number density = 18.069910 Si / 1000 Ang^3
#
#
#
# Elastic Constant Matrix: (Units=GPa)
#
#
# Indices 1 2 3 4 5 6 
#
# 1 20.1130 22.2521 21.5136 0.0000 0.0000 0.0000
# 2 22.2521 169.8197 86.6118 0.0000 0.0000 0.0000
# 3 21.5136 86.6118 151.3545 0.0000 0.0000 0.0000
# 4 0.0000 0.0000 0.0000 22.9718 0.0000 0.0000
# 5 0.0000 0.0000 0.0000 0.0000 27.0303 0.0000
# 6 0.0000 0.0000 0.0000 0.0000 0.0000 32.1670
#
#
#
# Elastic Compliance Matrix: (Units=1/GPa)
#
#
# Indices 1 2 3 4 5 6 
#
# 1 0.061602 -0.005092 -0.005842 0.000000 0.000000 0.000000
# 2 -0.005092 0.008737 -0.004276 0.000000 0.000000 0.000000
# 3 -0.005842 -0.004276 0.009884 0.000000 0.000000 0.000000
# 4 0.000000 0.000000 0.000000 0.043532 0.000000 0.000000
# 5 0.000000 0.000000 0.000000 0.000000 0.036995 0.000000
# 6 0.000000 0.000000 0.000000 0.000000 0.000000 0.031088
#
#
# Mechanical properties :
#
#
# Convention : Reuss Voigt Hill
#
# Bulk Modulus (GPa) = 20.07933 66.89357 43.48645
# Shear Modulus (GPa) = 20.93293 30.49447 25.71370
#
# Velocity S-wave (km/s) = 3.40728 4.11248 3.77638
# Velocity P-wave (km/s) = 5.15903 7.72332 6.56754
#
# Compressibility (1/GPa) = 0.04980247
#
# Stress axis : x y z
#
# Youngs Moduli (GPa) = 16.23329 114.46205 101.17277
#
# Poissons Ratio (x) = 0.58288 0.59105
# Poissons Ratio (y) = 0.08267 0.43257
# Poissons Ratio (z) = 0.09484 0.48939
#
# Static dielectric constant tensor:
#      x y z
#    x 1.606440 0.000000 0.000000 
#    y 0.000000 1.582340 0.000000 
#    z 0.000000 0.000000 1.615230 
# 
# From -- ./inp_files/15020.got.cif
#   From: 2010.05.17/outbox.cif.g08.bks.cpg/sg40_8_cif.got.tgz:15020.got - 2010.06.03 18:35:42.
