data_PCOD9363461
_publ_section_title
;
Structure prediction by ZEFSAII (Michael W. Deem and Ramdas Pophale) SiO2 
 PCOD9363461
Probable space group: A M A 2
;
_chemical_formula_sum "Si O2"
_cell_formula_units_Z 32
_cell_length_a 13.570027
_cell_length_b 18.350126
_cell_length_c 4.693686
_cell_angle_alpha 90.000000
_cell_angle_beta 90.000000
_cell_angle_gamma 90.000000
_cell_volume 1168.782755
_symmetry_space_group_name_H-M "A M A 2"
_symmetry_group_IT_number 40
_symmetry_cell_setting 'orthorhombic'
loop_
_space_group_symop_operation_xyz
x,y,z
-x,-y,z
1/2-x,y,z
1/2+x,-y,z
x,1/2+y,1/2+z
-x,1/2-y,1/2+z
1/2-x,1/2+y,1/2+z
1/2+x,1/2-y,1/2+z
loop_
_atom_site_type_symbol
_atom_site_label
_atom_site_fract_x
_atom_site_fract_y
_atom_site_fract_z
Si Si1 0.360263 0.692479 0.911700
Si Si2 0.365126 0.857865 0.989196
Si Si3 0.142235 0.588154 0.438881
Si Si4 0.916433 0.546505 0.021715
O O1 0.250000 0.705762 0.788829
O O2 0.409714 0.634212 0.696266
O O3 0.395578 0.773217 0.992868
O O4 0.350170 0.649990 0.202996
O O5 0.250000 0.862727 0.886737
O O6 0.365486 0.905928 0.276814
O O7 0.438297 0.893300 0.758989
O O8 0.250000 0.567936 0.571487
O O9 0.121903 0.516602 0.241577
O O10 0.000000 0.500000 0.863769
#
# Coordination Sequence:
#
# PCOD9363461 Si02
#       4
#     8   8   8   8
#     4   9  19  35  61  91 117 149 206 265 306 360
#     4  11  22  41  66  92 121 166 219 268 321 389
#     4  10  19  36  60  88 119 159 205 254 309 374
#     4  12  25  40  60  93 134 170 208 265 328 393
#
# _framework density 27.378912
#
# number of rings (size 3 to 8) (size 9 to 14) (size 15 to 20)
#    0.000    1.500    0.000    6.000    0.000    6.000 
#    0.000    5.000    0.000    0.000    0.000    0.000 
#    0.000    0.000    0.000    0.000    0.000    0.000 
#
# Total GULP energy -89143.160826 kJ/mol
# GULP energy per Si atom -5571.447552 kJ/mol
# Density = 2.731660 g / cm^3
# Si number density = 27.378912 Si / 1000 Ang^3
#
#
#
# Elastic Constant Matrix: (Units=GPa)
#
#
# Indices 1 2 3 4 5 6 
#
# 1 57.0470 39.7524 8.4204 0.0000 0.0000 0.0000
# 2 39.7524 257.4131 63.5912 0.0000 0.0000 0.0000
# 3 8.4204 63.5912 166.3178 0.0000 0.0000 0.0000
# 4 0.0000 0.0000 0.0000 35.9922 0.0000 0.0000
# 5 0.0000 0.0000 0.0000 0.0000 23.8718 0.0000
# 6 0.0000 0.0000 0.0000 0.0000 0.0000 12.3613
#
#
#
# Elastic Compliance Matrix: (Units=1/GPa)
#
#
# Indices 1 2 3 4 5 6 
#
# 1 0.019648 -0.003079 0.000183 0.000000 0.000000 0.000000
# 2 -0.003079 0.004773 -0.001669 0.000000 0.000000 0.000000
# 3 0.000183 -0.001669 0.006641 0.000000 0.000000 0.000000
# 4 0.000000 0.000000 0.000000 0.027784 0.000000 0.000000
# 5 0.000000 0.000000 0.000000 0.000000 0.041890 0.000000
# 6 0.000000 0.000000 0.000000 0.000000 0.000000 0.080898
#
#
# Mechanical properties :
#
#
# Convention : Reuss Voigt Hill
#
# Bulk Modulus (GPa) = 45.59745 78.25620 61.92682
# Shear Modulus (GPa) = 25.24282 39.04597 32.14440
#
# Velocity S-wave (km/s) = 3.03971 3.78051 3.43017
# Velocity P-wave (km/s) = 5.38611 6.90660 6.19319
#
# Compressibility (1/GPa) = 0.02193105
#
# Stress axis : x y z
#
# Youngs Moduli (GPa) = 50.89497 209.52731 150.56977
#
# Poissons Ratio (x) = 0.64522 -0.02750
# Poissons Ratio (y) = 0.15673 0.25129
# Poissons Ratio (z) = -0.00930 0.34968
#
# Static dielectric constant tensor:
#      x y z
#    x 2.691320 0.000000 0.000000 
#    y 0.000000 2.074140 0.000000 
#    z 0.000000 0.000000 2.076970 
# 
# From -- ./inp_files/1053.got.cif
#   From: 2010.05.17/outbox.cif.g08.bks.cpg/sg40_1_cif.got.tgz:1053.got - 2010.06.03 18:35:42.
