data_PCOD9363581
_publ_section_title
;
Structure prediction by ZEFSAII (Michael W. Deem and Ramdas Pophale) SiO2 
 PCOD9363581
Probable space group: A M A 2
;
_chemical_formula_sum "Si O2"
_cell_formula_units_Z 56
_cell_length_a 18.248233
_cell_length_b 8.816764
_cell_length_c 15.327179
_cell_angle_alpha 90.000000
_cell_angle_beta 90.000000
_cell_angle_gamma 90.000000
_cell_volume 2465.995405
_symmetry_space_group_name_H-M "A M A 2"
_symmetry_group_IT_number 40
_symmetry_cell_setting 'orthorhombic'
loop_
_space_group_symop_operation_xyz
x,y,z
-x,-y,z
1/2-x,y,z
1/2+x,-y,z
x,1/2+y,1/2+z
-x,1/2-y,1/2+z
1/2-x,1/2+y,1/2+z
1/2+x,1/2-y,1/2+z
loop_
_atom_site_type_symbol
_atom_site_label
_atom_site_fract_x
_atom_site_fract_y
_atom_site_fract_z
Si Si1 0.334418 0.992645 0.867920
Si Si2 0.000000 0.000000 0.709853
Si Si3 0.167049 0.831700 0.044667
Si Si4 0.500000 0.500000 0.938181
Si Si5 0.587955 0.010656 0.199498
Si Si6 0.934786 0.746256 0.836225
Si Si7 0.133303 0.329603 0.182024
Si Si8 0.331521 0.484511 0.015679
O O1 0.250000 0.035972 0.871748
O O2 0.381419 0.143129 0.888860
O O3 0.346189 0.919218 0.771376
O O4 0.349408 0.871777 0.944157
O O5 0.057161 0.908728 0.654186
O O6 0.968312 0.867823 0.769764
O O7 0.250000 0.886416 0.062951
O O8 0.112188 0.911645 0.110080
O O9 0.166420 0.652190 0.058172
O O10 0.500289 0.657450 0.884348
O O11 0.413935 0.479888 0.972239
O O12 0.608220 0.120845 0.279624
O O13 0.500000 0.000000 0.201762
O O14 0.623361 0.845361 0.204090
O O15 0.175279 0.361955 0.093144
O O16 0.250000 0.480020 0.967909
#
# Coordination Sequence:
#
# PCOD9363581 Si02
#       8
#     8   4   8   4   8   8   8   8
#     4  10  24  46  72 102 140 191 241 297 369 443
#     4  10  19  40  68  99 132 184 236 301 346 438
#     4  10  25  46  68  99 140 182 234 297 365 431
#     4  12  27  44  74 109 146 194 236 309 364 436
#     4  12  25  43  68 105 142 180 239 302 356 441
#     4  11  24  42  71 101 144 181 248 295 368 438
#     4  11  23  42  71  98 139 189 238 297 362 435
#     4  11  27  47  71 106 146 190 244 300 364 439
#
# _framework density 22.708881000000002
#
# number of rings (size 3 to 8) (size 9 to 14) (size 15 to 20)
#    0.000    1.143    2.143    2.571   10.000    3.429 
#    1.286    0.000    0.000    0.000    0.000    0.000 
#    0.000    0.000    0.000    0.000    0.000    0.000 
#
# Total GULP energy -156002.046425 kJ/mol
# GULP energy per Si atom -5571.501658 kJ/mol
# Density = 2.265719 g / cm^3
# Si number density = 22.708881 Si / 1000 Ang^3
#
#
#
# Elastic Constant Matrix: (Units=GPa)
#
#
# Indices 1 2 3 4 5 6 
#
# 1 103.0231 30.3847 22.2611 0.0000 0.0000 0.0000
# 2 30.3847 128.8078 15.6988 0.0000 0.0000 0.0000
# 3 22.2611 15.6988 60.0865 0.0000 0.0000 0.0000
# 4 0.0000 0.0000 0.0000 -118.1242 0.0000 0.0000
# 5 0.0000 0.0000 0.0000 0.0000 -37.1514 0.0000
# 6 0.0000 0.0000 0.0000 0.0000 0.0000 22.9747
#
#
#
# Elastic Compliance Matrix: (Units=1/GPa)
#
#
# Indices 1 2 3 4 5 6 
#
# 1 0.011119 -0.002191 -0.003547 0.000000 0.000000 0.000000
# 2 -0.002191 0.008450 -0.001396 0.000000 0.000000 0.000000
# 3 -0.003547 -0.001396 0.018322 0.000000 0.000000 0.000000
# 4 0.000000 0.000000 0.000000 -0.008466 0.000000 0.000000
# 5 0.000000 0.000000 0.000000 0.000000 -0.026917 0.000000
# 6 0.000000 0.000000 0.000000 0.000000 0.000000 0.043526
#
#
# Mechanical properties :
#
#
# Convention : Reuss Voigt Hill
#
# Bulk Modulus (GPa) = 42.33127 47.62297 44.97712
# Shear Modulus (GPa) = 73.33839 -11.55533 30.89153
#
# Velocity S-wave (km/s) = 5.68904 -2.25821 3.69226
# Velocity P-wave (km/s) = 7.86351 3.77058 6.16653
#
# Compressibility (1/GPa) = 0.02362320
#
# Stress axis : x y z
#
# Youngs Moduli (GPa) = 89.93539 118.33730 54.58032
#
# Poissons Ratio (x) = 0.25923 0.19360
# Poissons Ratio (y) = 0.19701 0.07621
# Poissons Ratio (z) = 0.31901 0.16523
#
# Static dielectric constant tensor:
#      x y z
#    x 2.017690 0.000000 0.000000 
#    y 0.000000 1.836300 0.000000 
#    z 0.000000 0.000000 1.922090 
# 
# From -- ./inp_files/18263.got.cif
#   From: 2010.05.17/outbox.cif.g08.bks.cpg/sg40_10_cif.got.tgz:18263.got - 2010.06.03 18:35:42.
