data_PCOD9363164
_publ_section_title
;
Structure prediction by ZEFSAII (Michael W. Deem and Ramdas Pophale) SiO2 
 PCOD9363164
Probable space group: A M A 2
;
_chemical_formula_sum "Si O2"
_cell_formula_units_Z 40
_cell_length_a 16.373279
_cell_length_b 5.095094
_cell_length_c 25.454891
_cell_angle_alpha 90.000000
_cell_angle_beta 90.000000
_cell_angle_gamma 90.000000
_cell_volume 2123.533442
_symmetry_space_group_name_H-M "A M A 2"
_symmetry_group_IT_number 40
_symmetry_cell_setting 'orthorhombic'
loop_
_space_group_symop_operation_xyz
x,y,z
-x,-y,z
1/2-x,y,z
1/2+x,-y,z
x,1/2+y,1/2+z
-x,1/2-y,1/2+z
1/2-x,1/2+y,1/2+z
1/2+x,1/2-y,1/2+z
loop_
_atom_site_type_symbol
_atom_site_label
_atom_site_fract_x
_atom_site_fract_y
_atom_site_fract_z
Si Si1 0.059358 0.249972 0.911160
Si Si2 0.655798 0.387955 0.308302
Si Si3 0.406827 0.105919 0.251278
Si Si4 0.059523 0.751006 0.525838
Si Si5 0.059630 0.749597 0.639237
O O1 0.120855 0.217624 0.863297
O O2 0.000000 0.500000 0.904728
O O3 0.101669 0.259226 0.968879
O O4 0.000000 0.000000 0.910557
O O5 0.750000 0.463646 0.312739
O O6 0.606604 0.644039 0.288772
O O7 0.645514 0.144992 0.268264
O O8 0.389631 0.206921 0.192164
O O9 0.500000 0.000000 0.254014
O O10 0.103791 0.760443 0.582426
O O11 0.000000 0.500000 0.525432
O O12 0.000000 0.000000 0.526486
O O13 0.000000 0.500000 0.636456
O O14 0.000000 0.000000 0.645803
#
# Coordination Sequence:
#
# PCOD9363164 Si02
#       5
#     8   8   8   8   8
#     4  10  19  33  54  76 100 133 174 213 251 306
#     4  12  24  36  51  76 111 142 173 218 269 312
#     4  11  21  36  57  79 102 137 181 218 256 315
#     4   8  15  27  46  75 102 123 158 212 260 294
#     4   9  16  28  49  78 104 125 161 215 261 297
#
# _framework density 18.836531000000001
#
# number of rings (size 3 to 8) (size 9 to 14) (size 15 to 20)
#    0.000    2.000    0.000    6.600    0.000    0.000 
#    0.000    0.000    0.000    2.400    0.000    0.000 
#    0.000    0.000    0.000    0.000    0.000    0.000 
#
# Total GULP energy -111447.194305 kJ/mol
# GULP energy per Si atom -5572.359715 kJ/mol
# Density = 1.879366 g / cm^3
# Si number density = 18.836531 Si / 1000 Ang^3
#
#
#
# Elastic Constant Matrix: (Units=GPa)
#
#
# Indices 1 2 3 4 5 6 
#
# 1 40.1204 11.1477 42.6326 0.0000 0.0000 0.0000
# 2 11.1477 141.8059 30.1646 0.0000 0.0000 0.0000
# 3 42.6326 30.1646 177.9172 0.0000 0.0000 0.0000
# 4 0.0000 0.0000 0.0000 26.0434 0.0000 0.0000
# 5 0.0000 0.0000 0.0000 0.0000 -3.9966 0.0000
# 6 0.0000 0.0000 0.0000 0.0000 0.0000 12.1128
#
#
#
# Elastic Compliance Matrix: (Units=1/GPa)
#
#
# Indices 1 2 3 4 5 6 
#
# 1 0.033566 -0.000962 -0.007880 0.000000 0.000000 0.000000
# 2 -0.000962 0.007343 -0.001014 0.000000 0.000000 0.000000
# 3 -0.007880 -0.001014 0.007681 0.000000 0.000000 0.000000
# 4 0.000000 0.000000 0.000000 0.038397 0.000000 0.000000
# 5 0.000000 0.000000 0.000000 0.000000 -0.250210 0.000000
# 6 0.000000 0.000000 0.000000 0.000000 0.000000 0.082558
#
#
# Mechanical properties :
#
#
# Convention : Reuss Voigt Hill
#
# Bulk Modulus (GPa) = 34.63041 58.63702 46.63372
# Shear Modulus (GPa) = -97.41597 25.22514 -36.09542
#
# Velocity S-wave (km/s) = -7.19922 3.66342 -4.38224
# Velocity P-wave (km/s) = 7.11902 7.00651 0.89140
#
# Compressibility (1/GPa) = 0.02887635
#
# Stress axis : x y z
#
# Youngs Moduli (GPa) = 29.79231 136.17798 130.19569
#
# Poissons Ratio (x) = 0.13107 1.02592
# Poissons Ratio (y) = 0.02867 0.13207
# Poissons Ratio (z) = 0.23476 0.13814
#
# Static dielectric constant tensor:
#      x y z
#    x 1.596240 0.000000 0.000000 
#    y 0.000000 1.624630 0.000000 
#    z 0.000000 0.000000 1.779810 
# 
# From -- ./inp_files/24675.got.cif
#   From: 2010.05.17/outbox.cif.g08.bks.cpg/sg40_13_cif.got.tgz:24675.got - 2010.06.03 18:35:42.
