data_PCOD9363623
_publ_section_title
;
Structure prediction by ZEFSAII (Michael W. Deem and Ramdas Pophale) SiO2 
 PCOD9363623
Probable space group: A M A 2
;
_chemical_formula_sum "Si O2"
_cell_formula_units_Z 36
_cell_length_a 13.423687
_cell_length_b 9.624558
_cell_length_c 11.679378
_cell_angle_alpha 90.000000
_cell_angle_beta 90.000000
_cell_angle_gamma 90.000000
_cell_volume 1508.941231
_symmetry_space_group_name_H-M "A M A 2"
_symmetry_group_IT_number 40
_symmetry_cell_setting 'orthorhombic'
loop_
_space_group_symop_operation_xyz
x,y,z
-x,-y,z
1/2-x,y,z
1/2+x,-y,z
x,1/2+y,1/2+z
-x,1/2-y,1/2+z
1/2-x,1/2+y,1/2+z
1/2+x,1/2-y,1/2+z
loop_
_atom_site_type_symbol
_atom_site_label
_atom_site_fract_x
_atom_site_fract_y
_atom_site_fract_z
Si Si1 0.000000 0.000000 0.490891
Si Si2 0.021330 0.346304 0.334786
Si Si3 0.637885 0.553311 0.561104
Si Si4 0.863737 0.733390 0.985882
Si Si5 0.368741 0.584471 0.781278
O O1 0.941660 0.128319 0.546057
O O2 0.086677 0.052350 0.405624
O O3 0.074051 0.378058 0.459863
O O4 0.089911 0.240720 0.264988
O O5 0.000000 0.500000 0.286615
O O6 0.917870 0.269427 0.365273
O O7 0.750000 0.611201 0.556421
O O8 0.642763 0.387661 0.537174
O O9 0.602059 0.538522 0.691894
O O10 0.750000 0.681043 0.978093
O O11 0.250000 0.588148 0.780047
#
# Coordination Sequence:
#
# PCOD9363623 Si02
#       5
#     4   8   8   8   8
#     4  10  20  32  52  78 104 144 174 234 278 330
#     4   9  18  33  55  79 107 146 179 227 277 331
#     4   9  18  33  55  78 106 140 177 225 275 335
#     4   9  18  33  51  75 105 142 179 217 281 332
#     4  10  20  33  54  83 108 140 186 229 276 335
#
# _framework density 23.857787999999999
#
# number of rings (size 3 to 8) (size 9 to 14) (size 15 to 20)
#    0.000    2.667    0.000    1.333    4.667    0.889 
#    2.000    0.000    0.000    0.000    0.000    0.000 
#    0.000    0.000    0.000    0.000    0.000    0.000 
#
# Total GULP energy -100294.978597 kJ/mol
# GULP energy per Si atom -5571.943255 kJ/mol
# Density = 2.380349 g / cm^3
# Si number density = 23.857788 Si / 1000 Ang^3
#
#
#
# Elastic Constant Matrix: (Units=GPa)
#
#
# Indices 1 2 3 4 5 6 
#
# 1 138.6898 14.8293 24.0362 0.0000 0.0000 0.0000
# 2 14.8293 106.1261 41.6607 0.0000 0.0000 0.0000
# 3 24.0362 41.6607 83.0514 0.0000 0.0000 0.0000
# 4 0.0000 0.0000 0.0000 24.3396 0.0000 0.0000
# 5 0.0000 0.0000 0.0000 0.0000 7.2258 0.0000
# 6 0.0000 0.0000 0.0000 0.0000 0.0000 44.7490
#
#
#
# Elastic Compliance Matrix: (Units=1/GPa)
#
#
# Indices 1 2 3 4 5 6 
#
# 1 0.007596 -0.000247 -0.002075 0.000000 0.000000 0.000000
# 2 -0.000247 0.011741 -0.005818 0.000000 0.000000 0.000000
# 3 -0.002075 -0.005818 0.015560 0.000000 0.000000 0.000000
# 4 0.000000 0.000000 0.000000 0.041085 0.000000 0.000000
# 5 0.000000 0.000000 0.000000 0.000000 0.138394 0.000000
# 6 0.000000 0.000000 0.000000 0.000000 0.000000 0.022347
#
#
# Mechanical properties :
#
#
# Convention : Reuss Voigt Hill
#
# Bulk Modulus (GPa) = 53.71258 54.32442 54.01850
# Shear Modulus (GPa) = 19.28949 31.75229 25.52089
#
# Velocity S-wave (km/s) = 2.84653 3.65211 3.27419
# Velocity P-wave (km/s) = 5.77635 6.37208 6.08151
#
# Compressibility (1/GPa) = 0.01861761
#
# Stress axis : x y z
#
# Youngs Moduli (GPa) = 131.64327 85.16967 64.26863
#
# Poissons Ratio (x) = 0.02104 0.13333
# Poissons Ratio (y) = 0.03253 0.37393
# Poissons Ratio (z) = 0.27310 0.49554
#
# Static dielectric constant tensor:
#      x y z
#    x 1.897690 0.000000 0.000000 
#    y 0.000000 2.026920 0.000000 
#    z 0.000000 0.000000 2.093230 
# 
# From -- ./inp_files/11872.got.cif
#   From: 2010.05.17/outbox.cif.g08.bks.cpg/sg40_6_cif.got.tgz:11872.got - 2010.06.03 18:35:42.
