data_PCOD9363690
_publ_section_title
;
Structure prediction by ZEFSAII (Michael W. Deem and Ramdas Pophale) SiO2 
 PCOD9363690
Probable space group: A M A 2
;
_chemical_formula_sum "Si O2"
_cell_formula_units_Z 64
_cell_length_a 8.869935
_cell_length_b 21.055811
_cell_length_c 19.952326
_cell_angle_alpha 90.000000
_cell_angle_beta 90.000000
_cell_angle_gamma 90.000000
_cell_volume 3726.369727
_symmetry_space_group_name_H-M "A M A 2"
_symmetry_group_IT_number 40
_symmetry_cell_setting 'orthorhombic'
loop_
_space_group_symop_operation_xyz
x,y,z
-x,-y,z
1/2-x,y,z
1/2+x,-y,z
x,1/2+y,1/2+z
-x,1/2-y,1/2+z
1/2-x,1/2+y,1/2+z
1/2+x,1/2-y,1/2+z
loop_
_atom_site_type_symbol
_atom_site_label
_atom_site_fract_x
_atom_site_fract_y
_atom_site_fract_z
Si Si1 0.432109 0.878244 0.024830
Si Si2 0.430114 0.313509 0.164363
Si Si3 0.570923 0.432799 0.240027
Si Si4 0.927947 0.267023 0.879158
Si Si5 0.930828 0.565871 0.665433
Si Si6 0.929781 0.238465 0.520117
Si Si7 0.430798 0.806095 0.242666
Si Si8 0.428046 0.886037 0.874989
O O1 0.250000 0.869679 0.025268
O O2 0.475585 0.920525 0.088193
O O3 0.506280 0.809165 0.033042
O O4 0.471499 0.904126 0.951050
O O5 0.250000 0.316029 0.174469
O O6 0.504475 0.375812 0.195549
O O7 0.461396 0.303609 0.085578
O O8 0.494467 0.252012 0.202596
O O9 0.500000 0.500000 0.220178
O O10 0.750000 0.434539 0.234781
O O11 0.522298 0.418269 0.316667
O O12 0.750000 0.279645 0.875693
O O13 0.947683 0.190514 0.871108
O O14 0.014129 0.300662 0.818819
O O15 0.992909 0.284452 0.951789
O O16 0.750000 0.561538 0.667441
O O17 0.975194 0.627299 0.708721
O O18 0.000000 0.500000 0.688993
O O19 0.750000 0.242070 0.510917
O O20 0.250000 0.799981 0.238754
O O21 0.250000 0.899490 0.864836
#
# Coordination Sequence:
#
# PCOD9363690 Si02
#       8
#     8   8   8   8   8   8   8   8
#     4   9  18  34  53  77 111 149 188 229 275 326
#     4  11  22  37  58  85 114 146 186 233 281 332
#     4  12  25  39  57  79 111 151 190 235 281 337
#     4  10  20  34  56  83 115 147 180 230 283 332
#     4  10  22  37  54  79 112 150 190 233 280 332
#     4  10  20  33  55  85 114 144 183 229 276 332
#     4  11  21  35  58  84 111 146 191 236 279 332
#     4   9  18  33  53  78 112 147 185 228 273 329
#
# _framework density 17.174893000000001
#
# number of rings (size 3 to 8) (size 9 to 14) (size 15 to 20)
#    0.000    1.750    2.500    3.375    0.000    5.500 
#    0.000    1.250    0.000    0.750    0.000    3.500 
#    0.000    0.000    0.000    0.000    0.000    0.000 
#
# Total GULP energy -178724.085973 kJ/mol
# GULP energy per Si atom -5585.127687 kJ/mol
# Density = 1.713580 g / cm^3
# Si number density = 17.174893 Si / 1000 Ang^3
#
#
#
# Elastic Constant Matrix: (Units=GPa)
#
#
# Indices 1 2 3 4 5 6 
#
# 1 72.8776 53.5185 52.7998 0.0000 0.0000 0.0000
# 2 53.5185 117.9807 65.3206 0.0000 0.0000 0.0000
# 3 52.7998 65.3206 109.1296 0.0000 0.0000 0.0000
# 4 0.0000 0.0000 0.0000 17.4708 0.0000 0.0000
# 5 0.0000 0.0000 0.0000 0.0000 24.2122 0.0000
# 6 0.0000 0.0000 0.0000 0.0000 0.0000 26.3620
#
#
#
# Elastic Compliance Matrix: (Units=1/GPa)
#
#
# Indices 1 2 3 4 5 6 
#
# 1 0.024246 -0.006736 -0.007699 0.000000 0.000000 0.000000
# 2 -0.006736 0.014548 -0.005449 0.000000 0.000000 0.000000
# 3 -0.007699 -0.005449 0.016150 0.000000 0.000000 0.000000
# 4 0.000000 0.000000 0.000000 0.057238 0.000000 0.000000
# 5 0.000000 0.000000 0.000000 0.000000 0.041301 0.000000
# 6 0.000000 0.000000 0.000000 0.000000 0.000000 0.037933
#
#
# Mechanical properties :
#
#
# Convention : Reuss Voigt Hill
#
# Bulk Modulus (GPa) = 65.89153 71.47399 68.68276
# Shear Modulus (GPa) = 21.16446 22.16560 21.66503
#
# Velocity S-wave (km/s) = 3.51421 3.59636 3.55552
# Velocity P-wave (km/s) = 7.41043 7.67795 7.54538
#
# Compressibility (1/GPa) = 0.01517646
#
# Stress axis : x y z
#
# Youngs Moduli (GPa) = 41.24350 68.73593 61.91925
#
# Poissons Ratio (x) = 0.46300 0.47672
# Poissons Ratio (y) = 0.27781 0.33740
# Poissons Ratio (z) = 0.31754 0.37455
#
# Static dielectric constant tensor:
#      x y z
#    x 1.574460 0.000000 0.000000 
#    y 0.000000 1.557560 0.000000 
#    z 0.000000 0.000000 1.592570 
# 
# From -- ./inp_files/22384.got.cif
#   From: 2010.05.17/outbox.cif.g08.bks.cpg/sg40_12_cif.got.tgz:22384.got - 2010.06.03 18:35:42.
