data_PCOD9363725
_publ_section_title
;
Structure prediction by ZEFSAII (Michael W. Deem and Ramdas Pophale) SiO2 
 PCOD9363725
Probable space group: A M A 2
;
_chemical_formula_sum "Si O2"
_cell_formula_units_Z 48
_cell_length_a 11.088513
_cell_length_b 15.403529
_cell_length_c 14.800835
_cell_angle_alpha 90.000000
_cell_angle_beta 90.000000
_cell_angle_gamma 90.000000
_cell_volume 2528.015647
_symmetry_space_group_name_H-M "A M A 2"
_symmetry_group_IT_number 40
_symmetry_cell_setting 'orthorhombic'
loop_
_space_group_symop_operation_xyz
x,y,z
-x,-y,z
1/2-x,y,z
1/2+x,-y,z
x,1/2+y,1/2+z
-x,1/2-y,1/2+z
1/2-x,1/2+y,1/2+z
1/2+x,1/2-y,1/2+z
loop_
_atom_site_type_symbol
_atom_site_label
_atom_site_fract_x
_atom_site_fract_y
_atom_site_fract_z
Si Si1 0.618811 0.347098 0.299700
Si Si2 0.120883 0.554236 0.696201
Si Si3 0.383836 0.231922 0.306399
Si Si4 0.109844 0.063378 0.619250
Si Si5 0.056472 0.093222 0.996666
Si Si6 0.886769 0.757490 0.518422
O O1 0.750000 0.303928 0.281859
O O2 0.499616 0.289946 0.284266
O O3 0.611303 0.424973 0.227710
O O4 0.617173 0.375794 0.404059
O O5 0.250000 0.511942 0.721120
O O6 0.111740 0.643642 0.750689
O O7 0.124661 0.575090 0.589670
O O8 0.000000 0.500000 0.713109
O O9 0.250000 0.272586 0.289906
O O10 0.390515 0.213956 0.413505
O O11 0.250000 0.040971 0.592096
O O12 0.081935 0.158960 0.578404
O O13 0.000000 0.000000 0.593071
O O14 0.965965 0.171169 0.023754
O O15 0.000000 0.000000 0.973343
O O16 0.750000 0.733398 0.541635
#
# Coordination Sequence:
#
# PCOD9363725 Si02
#       6
#     8   8   8   8   8   8
#     4  10  20  34  53  79 109 138 173 217 264 317
#     4  10  21  35  52  76 106 139 177 221 266 315
#     4   9  19  36  55  76 104 139 178 219 265 316
#     4  10  21  37  56  80 109 142 181 223 268 317
#     4  10  20  34  55  81 110 141 177 218 266 319
#     4   9  19  36  57  80 108 143 180 220 268 320
#
# _framework density 18.987224000000001
#
# number of rings (size 3 to 8) (size 9 to 14) (size 15 to 20)
#    0.000    2.333    0.000    2.000    0.000    5.333 
#    0.000    7.500    0.000    0.000    0.000    0.000 
#    0.000    0.000    0.000    0.000    0.000    0.000 
#
# Total GULP energy -133612.651850 kJ/mol
# GULP energy per Si atom -5567.193827 kJ/mol
# Density = 1.894401 g / cm^3
# Si number density = 18.987224 Si / 1000 Ang^3
#
#
#
# Elastic Constant Matrix: (Units=GPa)
#
#
# Indices 1 2 3 4 5 6 
#
# 1 179.0806 78.3611 24.5770 0.0000 0.0000 0.0000
# 2 78.3611 70.1201 8.3703 0.0000 0.0000 0.0000
# 3 24.5770 8.3703 18.2326 0.0000 0.0000 0.0000
# 4 0.0000 0.0000 0.0000 22.8921 0.0000 0.0000
# 5 0.0000 0.0000 0.0000 0.0000 4.7376 0.0000
# 6 0.0000 0.0000 0.0000 0.0000 0.0000 -321.6450
#
#
#
# Elastic Compliance Matrix: (Units=1/GPa)
#
#
# Indices 1 2 3 4 5 6 
#
# 1 0.012810 -0.012965 -0.011316 0.000000 0.000000 0.000000
# 2 -0.012965 0.028210 0.004526 0.000000 0.000000 0.000000
# 3 -0.011316 0.004526 0.068022 0.000000 0.000000 0.000000
# 4 0.000000 0.000000 0.000000 0.043683 0.000000 0.000000
# 5 0.000000 0.000000 0.000000 0.000000 0.211077 0.000000
# 6 0.000000 0.000000 0.000000 0.000000 0.000000 -0.003109
#
#
# Mechanical properties :
#
#
# Convention : Reuss Voigt Hill
#
# Bulk Modulus (GPa) = 14.38183 54.45001 34.41592
# Shear Modulus (GPa) = 11.80971 -48.39474 -18.29252
#
# Velocity S-wave (km/s) = 2.49666 -5.05405 -3.10725
# Velocity P-wave (km/s) = 3.98773 2.30617 2.30039
#
# Compressibility (1/GPa) = 0.06953219
#
# Stress axis : x y z
#
# Youngs Moduli (GPa) = 78.06292 35.44878 14.70109
#
# Poissons Ratio (x) = 0.45959 0.16635
# Poissons Ratio (y) = 1.01208 -0.06653
# Poissons Ratio (z) = 0.88333 -0.16043
#
# Static dielectric constant tensor:
#      x y z
#    x 1.709420 0.000000 0.000000 
#    y 0.000000 1.632480 0.000000 
#    z 0.000000 0.000000 1.668520 
# 
# From -- ./inp_files/16332.got.cif
#   From: 2010.05.17/outbox.cif.g08.bks.cpg/sg40_9_cif.got.tgz:16332.got - 2010.06.03 18:35:42.
