data_PCOD9363592
_publ_section_title
;
Structure prediction by ZEFSAII (Michael W. Deem and Ramdas Pophale) SiO2 
 PCOD9363592
Probable space group: A M A 2
;
_chemical_formula_sum "Si O2"
_cell_formula_units_Z 64
_cell_length_a 9.516807
_cell_length_b 13.495952
_cell_length_c 22.486061
_cell_angle_alpha 90.000000
_cell_angle_beta 90.000000
_cell_angle_gamma 90.000000
_cell_volume 2888.073033
_symmetry_space_group_name_H-M "A M A 2"
_symmetry_group_IT_number 40
_symmetry_cell_setting 'orthorhombic'
loop_
_space_group_symop_operation_xyz
x,y,z
-x,-y,z
1/2-x,y,z
1/2+x,-y,z
x,1/2+y,1/2+z
-x,1/2-y,1/2+z
1/2-x,1/2+y,1/2+z
1/2+x,1/2-y,1/2+z
loop_
_atom_site_type_symbol
_atom_site_label
_atom_site_fract_x
_atom_site_fract_y
_atom_site_fract_z
Si Si1 0.409473 0.591792 0.552220
Si Si2 0.582491 0.323795 0.193096
Si Si3 0.402458 0.128552 0.914256
Si Si4 0.906523 0.140004 0.808388
Si Si5 0.581962 0.179942 0.577312
Si Si6 0.909786 0.135754 0.442962
Si Si7 0.914721 0.593162 0.721260
Si Si8 0.907464 0.374918 0.834896
O O1 0.500000 0.500000 0.572921
O O2 0.250000 0.580866 0.573481
O O3 0.409772 0.586604 0.480393
O O4 0.455283 0.703162 0.568406
O O5 0.750000 0.340151 0.193691
O O6 0.507108 0.369099 0.251244
O O7 0.508236 0.358810 0.132456
O O8 0.557660 0.203761 0.196585
O O9 0.250000 0.104453 0.887470
O O10 0.524361 0.101492 0.868945
O O11 0.403535 0.246988 0.926403
O O12 0.750000 0.102130 0.796402
O O13 0.895618 0.257322 0.822903
O O14 0.750000 0.175048 0.589464
O O15 0.558541 0.129121 0.513183
O O16 0.750000 0.098060 0.432144
O O17 0.035023 0.101374 0.400298
O O18 0.750000 0.575158 0.716693
O O19 0.000000 0.500000 0.695864
O O20 0.969710 0.597774 0.789051
O O21 0.750000 0.415162 0.823864
#
# Coordination Sequence:
#
# PCOD9363592 Si02
#       8
#     8   8   8   8   8   8   8   8
#     4   9  18  30  43  60  84 115 147 179 213 248
#     4  10  20  31  43  60  83 113 146 179 214 251
#     4   8  14  26  42  59  80 105 134 170 213 255
#     4   9  16  26  42  62  81 103 133 171 214 256
#     4   9  18  31  44  59  83 115 148 180 212 247
#     4   8  14  26  43  60  79 105 135 169 212 255
#     4  10  20  32  44  59  82 113 147 180 213 250
#     4   9  16  26  42  63  83 103 131 170 214 256
#
# _framework density 22.160104
#
# number of rings (size 3 to 8) (size 9 to 14) (size 15 to 20)
#    0.000    3.000    0.000    3.000    0.000    6.500 
#    0.000    5.000    0.000    0.000    0.000    0.000 
#    0.000    1.000    0.000    7.000    0.000    5.375 
#
# Total GULP energy -178549.830439 kJ/mol
# GULP energy per Si atom -5579.682201 kJ/mol
# Density = 2.210967 g / cm^3
# Si number density = 22.160104 Si / 1000 Ang^3
#
#
#
# Elastic Constant Matrix: (Units=GPa)
#
#
# Indices 1 2 3 4 5 6 
#
# 1 99.2189 -0.2770 68.5896 0.0000 0.0000 0.0000
# 2 -0.2770 35.0291 -16.0540 0.0000 0.0000 0.0000
# 3 68.5896 -16.0540 146.3993 0.0000 0.0000 0.0000
# 4 0.0000 0.0000 0.0000 -9.6436 0.0000 0.0000
# 5 0.0000 0.0000 0.0000 0.0000 -353.4751 0.0000
# 6 0.0000 0.0000 0.0000 0.0000 0.0000 -1.3248
#
#
#
# Elastic Compliance Matrix: (Units=1/GPa)
#
#
# Indices 1 2 3 4 5 6 
#
# 1 0.015266 -0.003324 -0.007517 0.000000 0.000000 0.000000
# 2 -0.003324 0.030782 0.004933 0.000000 0.000000 0.000000
# 3 -0.007517 0.004933 0.010893 0.000000 0.000000 0.000000
# 4 0.000000 0.000000 0.000000 -0.103696 0.000000 0.000000
# 5 0.000000 0.000000 0.000000 0.000000 -0.002829 0.000000
# 6 0.000000 0.000000 0.000000 0.000000 0.000000 -0.754808
#
#
# Mechanical properties :
#
#
# Convention : Reuss Voigt Hill
#
# Bulk Modulus (GPa) = 22.16055 42.79607 32.47831
# Shear Modulus (GPa) = -6.43059 -57.66279 -32.04669
#
# Velocity S-wave (km/s) = -1.70534 -5.10661 -3.80694
# Velocity P-wave (km/s) = 2.47878 3.92630 2.15308
#
# Compressibility (1/GPa) = 0.04512524
#
# Stress axis : x y z
#
# Youngs Moduli (GPa) = 65.50650 32.48636 91.80044
#
# Poissons Ratio (x) = 0.10799 0.69003
# Poissons Ratio (y) = 0.21776 -0.45285
# Poissons Ratio (z) = 0.49239 -0.16025
#
# Static dielectric constant tensor:
#      x y z
#    x 2.093250 0.000000 0.000000 
#    y 0.000000 1.883740 0.000000 
#    z 0.000000 0.000000 1.796780 
# 
# From -- ./inp_files/15613.got.cif
#   From: 2010.05.17/outbox.cif.g08.bks.cpg/sg40_8_cif.got.tgz:15613.got - 2010.06.03 18:35:42.
