data_PCOD9363632
_publ_section_title
;
Structure prediction by ZEFSAII (Michael W. Deem and Ramdas Pophale) SiO2 
 PCOD9363632
Probable space group: A M A 2
;
_chemical_formula_sum "Si O2"
_cell_formula_units_Z 64
_cell_length_a 9.149640
_cell_length_b 23.290346
_cell_length_c 14.253932
_cell_angle_alpha 90.000000
_cell_angle_beta 90.000000
_cell_angle_gamma 90.000000
_cell_volume 3037.488412
_symmetry_space_group_name_H-M "A M A 2"
_symmetry_group_IT_number 40
_symmetry_cell_setting 'orthorhombic'
loop_
_space_group_symop_operation_xyz
x,y,z
-x,-y,z
1/2-x,y,z
1/2+x,-y,z
x,1/2+y,1/2+z
-x,1/2-y,1/2+z
1/2-x,1/2+y,1/2+z
1/2+x,1/2-y,1/2+z
loop_
_atom_site_type_symbol
_atom_site_label
_atom_site_fract_x
_atom_site_fract_y
_atom_site_fract_z
Si Si1 0.088277 0.714308 0.393560
Si Si2 0.922539 0.588355 0.162416
Si Si3 0.416084 0.703408 0.133724
Si Si4 0.427487 0.057579 0.466993
Si Si5 0.412087 0.178647 0.410308
Si Si6 0.578531 0.416879 0.347826
Si Si7 0.426033 0.058210 0.064557
Si Si8 0.580781 0.815272 0.115413
O O1 0.250000 0.735323 0.373541
O O2 0.065997 0.652374 0.349149
O O3 0.082120 0.700543 0.504484
O O4 0.984572 0.765923 0.366297
O O5 0.750000 0.579684 0.149895
O O6 0.965670 0.655851 0.162693
O O7 0.013015 0.564548 0.073582
O O8 0.979268 0.563771 0.261396
O O9 0.250000 0.692447 0.168223
O O10 0.472900 0.767180 0.155826
O O11 0.406559 0.694594 0.021082
O O12 0.250000 0.055735 0.468363
O O13 0.477287 0.114728 0.410910
O O14 0.500000 0.000000 0.428481
O O15 0.250000 0.172923 0.372472
O O16 0.750000 0.431335 0.333166
O O17 0.535703 0.435604 0.453157
O O18 0.250000 0.054289 0.068662
O O19 0.500000 0.000000 0.100046
O O20 0.465571 0.117797 0.117195
O O21 0.750000 0.810047 0.147190
#
# Coordination Sequence:
#
# PCOD9363632 Si02
#       8
#     8   8   8   8   8   8   8   8
#     4   8  14  25  43  61  78 104 136 170 214 257
#     4  11  21  31  44  62  84 115 149 181 215 253
#     4   9  16  27  43  62  82 106 135 173 217 258
#     4  10  20  33  46  62  85 115 148 182 215 250
#     4   8  15  26  41  61  83 103 129 169 215 255
#     4   9  18  32  44  58  84 116 148 183 215 248
#     4   9  18  30  44  61  85 116 148 181 215 250
#     4   8  14  26  42  61  82 105 135 173 215 257
#
# _framework density 21.070041
#
# number of rings (size 3 to 8) (size 9 to 14) (size 15 to 20)
#    0.000    3.000    0.000    4.125    0.000    5.500 
#    0.000    3.750    0.000    0.000    0.000    0.000 
#    0.000    1.000    0.000    5.000    0.000    5.125 
#
# Total GULP energy -178379.010208 kJ/mol
# GULP energy per Si atom -5574.344069 kJ/mol
# Density = 2.102208 g / cm^3
# Si number density = 21.070041 Si / 1000 Ang^3
#
#
#
# Elastic Constant Matrix: (Units=GPa)
#
#
# Indices 1 2 3 4 5 6 
#
# 1 59.6417 39.4837 -2.6930 0.0000 0.0000 0.0000
# 2 39.4837 152.9645 -18.8986 0.0000 0.0000 0.0000
# 3 -2.6930 -18.8986 33.0088 0.0000 0.0000 0.0000
# 4 0.0000 0.0000 0.0000 -12.6515 0.0000 0.0000
# 5 0.0000 0.0000 0.0000 0.0000 -2.0418 0.0000
# 6 0.0000 0.0000 0.0000 0.0000 0.0000 33.6302
#
#
#
# Elastic Compliance Matrix: (Units=1/GPa)
#
#
# Indices 1 2 3 4 5 6 
#
# 1 0.020286 -0.005415 -0.001445 0.000000 0.000000 0.000000
# 2 -0.005415 0.008480 0.004414 0.000000 0.000000 0.000000
# 3 -0.001445 0.004414 0.032704 0.000000 0.000000 0.000000
# 4 0.000000 0.000000 0.000000 -0.079042 0.000000 0.000000
# 5 0.000000 0.000000 0.000000 0.000000 -0.489774 0.000000
# 6 0.000000 0.000000 0.000000 0.000000 0.000000 0.029735
#
#
# Mechanical properties :
#
#
# Convention : Reuss Voigt Hill
#
# Bulk Modulus (GPa) = 17.67479 31.26657 24.47068
# Shear Modulus (GPa) = -11.01665 18.96892 3.97614
#
# Velocity S-wave (km/s) = -2.28909 3.00372 1.37521
# Velocity P-wave (km/s) = 1.19173 5.18665 3.76308
#
# Compressibility (1/GPa) = 0.05657777
#
# Stress axis : x y z
#
# Youngs Moduli (GPa) = 49.29435 117.91804 30.57732
#
# Poissons Ratio (x) = 0.63852 0.04419
# Poissons Ratio (y) = 0.26692 -0.13495
# Poissons Ratio (z) = 0.07124 -0.52044
#
# Static dielectric constant tensor:
#      x y z
#    x 1.726970 0.000000 0.000000 
#    y 0.000000 1.802820 0.000000 
#    z 0.000000 0.000000 1.833290 
# 
# From -- ./inp_files/22357.got.cif
#   From: 2010.05.17/outbox.cif.g08.bks.cpg/sg40_12_cif.got.tgz:22357.got - 2010.06.03 18:35:42.
