data_PCOD9363056
_publ_section_title
;
Structure prediction by ZEFSAII (Michael W. Deem and Ramdas Pophale) SiO2 
 PCOD9363056
Probable space group: A M A 2
;
_chemical_formula_sum "Si O2"
_cell_formula_units_Z 64
_cell_length_a 19.781005
_cell_length_b 18.048309
_cell_length_c 10.058437
_cell_angle_alpha 90.000000
_cell_angle_beta 90.000000
_cell_angle_gamma 90.000000
_cell_volume 3590.999715
_symmetry_space_group_name_H-M "A M A 2"
_symmetry_group_IT_number 40
_symmetry_cell_setting 'orthorhombic'
loop_
_space_group_symop_operation_xyz
x,y,z
-x,-y,z
1/2-x,y,z
1/2+x,-y,z
x,1/2+y,1/2+z
-x,1/2-y,1/2+z
1/2-x,1/2+y,1/2+z
1/2+x,1/2-y,1/2+z
loop_
_atom_site_type_symbol
_atom_site_label
_atom_site_fract_x
_atom_site_fract_y
_atom_site_fract_z
Si Si1 0.327425 0.898391 0.553040
Si Si2 0.174163 0.770835 0.361732
Si Si3 0.960328 0.691400 0.722519
Si Si4 0.035883 0.426064 0.945031
Si Si5 0.028578 0.137085 0.706534
Si Si6 0.674827 0.887026 0.770755
Si Si7 0.826754 0.555831 0.357277
Si Si8 0.530136 0.579991 0.483343
O O1 0.250000 0.921644 0.526377
O O2 0.335710 0.814137 0.499970
O O3 0.383917 0.939196 0.465156
O O4 0.337911 0.909595 0.709779
O O5 0.250000 0.788267 0.316456
O O6 0.119581 0.797530 0.254535
O O7 0.168743 0.682243 0.371763
O O8 0.981683 0.642548 0.849615
O O9 0.986899 0.775193 0.710850
O O10 0.977208 0.642740 0.594654
O O11 0.000000 0.500000 0.897417
O O12 0.011084 0.404130 0.091341
O O13 0.108477 0.123121 0.681559
O O14 0.008743 0.103034 0.848615
O O15 0.750000 0.881156 0.707883
O O16 0.671535 0.967135 0.836821
O O17 0.750000 0.576021 0.400352
O O18 0.890032 0.575569 0.448727
O O19 0.500000 0.500000 0.524515
#
# Coordination Sequence:
#
# PCOD9363056 Si02
#       8
#     8   8   8   8   8   8   8   8
#     4   9  17  31  52  79 103 133 178 223 259 304
#     4   8  16  32  53  75 104 142 181 216 257 315
#     4  10  23  35  52  79 113 142 174 222 273 318
#     4  11  20  35  56  80 107 140 178 217 266 317
#     4  11  20  36  58  80 105 141 186 220 259 315
#     4   9  17  31  52  81 107 137 178 220 259 308
#     4  10  19  32  51  80 108 137 175 223 267 309
#     4  12  22  37  54  80 111 143 179 223 274 318
#
# _framework density 17.822334999999999
#
# number of rings (size 3 to 8) (size 9 to 14) (size 15 to 20)
#    0.000    2.000    2.500    2.250    0.000    0.500 
#    0.000    0.000    0.000    0.000    0.000    3.500 
#    0.000    0.000    0.000    0.000    0.000    0.000 
#
# Total GULP energy -178217.886398 kJ/mol
# GULP energy per Si atom -5569.308950 kJ/mol
# Density = 1.778177 g / cm^3
# Si number density = 17.822335 Si / 1000 Ang^3
#
#
#
# Elastic Constant Matrix: (Units=GPa)
#
#
# Indices 1 2 3 4 5 6 
#
# 1 73.8938 10.8046 3.3752 0.0000 0.0000 0.0000
# 2 10.8046 70.3772 7.3450 0.0000 0.0000 0.0000
# 3 3.3752 7.3450 40.5315 0.0000 0.0000 0.0000
# 4 0.0000 0.0000 0.0000 25.6673 0.0000 0.0000
# 5 0.0000 0.0000 0.0000 0.0000 -0.3077 0.0000
# 6 0.0000 0.0000 0.0000 0.0000 0.0000 23.5454
#
#
#
# Elastic Compliance Matrix: (Units=1/GPa)
#
#
# Indices 1 2 3 4 5 6 
#
# 1 0.013868 -0.002047 -0.000784 0.000000 0.000000 0.000000
# 2 -0.002047 0.014785 -0.002509 0.000000 0.000000 0.000000
# 3 -0.000784 -0.002509 0.025192 0.000000 0.000000 0.000000
# 4 0.000000 0.000000 0.000000 0.038960 0.000000 0.000000
# 5 0.000000 0.000000 0.000000 0.000000 -3.249751 0.000000
# 6 0.000000 0.000000 0.000000 0.000000 0.000000 0.042471
#
#
# Mechanical properties :
#
#
# Convention : Reuss Voigt Hill
#
# Bulk Modulus (GPa) = 23.16666 25.31692 24.24179
# Shear Modulus (GPa) = -1.61843 20.66617 9.52387
#
# Velocity S-wave (km/s) = -0.95397 3.40893 2.31417
# Velocity P-wave (km/s) = 3.43707 5.45256 4.55763
#
# Compressibility (1/GPa) = 0.04316548
#
# Stress axis : x y z
#
# Youngs Moduli (GPa) = 72.10799 67.63477 39.69499
#
# Poissons Ratio (x) = 0.13847 0.03111
# Poissons Ratio (y) = 0.14763 0.09959
# Poissons Ratio (z) = 0.05652 0.16969
#
# Static dielectric constant tensor:
#      x y z
#    x 1.673230 0.000000 0.000000 
#    y 0.000000 1.617720 0.000000 
#    z 0.000000 0.000000 1.578200 
# 
# From -- ./inp_files/8438.got.cif
#   From: 2010.05.17/outbox.cif.g08.bks.cpg/sg40_5_cif.got.tgz:8438.got - 2010.06.03 18:35:42.
