data_PCOD9363174
_publ_section_title
;
Structure prediction by ZEFSAII (Michael W. Deem and Ramdas Pophale) SiO2 
 PCOD9363174
Probable space group: A M A 2
;
_chemical_formula_sum "Si O2"
_cell_formula_units_Z 48
_cell_length_a 9.305713
_cell_length_b 31.745900
_cell_length_c 8.946731
_cell_angle_alpha 90.000000
_cell_angle_beta 90.000000
_cell_angle_gamma 90.000000
_cell_volume 2643.027475
_symmetry_space_group_name_H-M "A M A 2"
_symmetry_group_IT_number 40
_symmetry_cell_setting 'orthorhombic'
loop_
_space_group_symop_operation_xyz
x,y,z
-x,-y,z
1/2-x,y,z
1/2+x,-y,z
x,1/2+y,1/2+z
-x,1/2-y,1/2+z
1/2-x,1/2+y,1/2+z
1/2+x,1/2-y,1/2+z
loop_
_atom_site_type_symbol
_atom_site_label
_atom_site_fract_x
_atom_site_fract_y
_atom_site_fract_z
Si Si1 0.420178 0.627197 0.348620
Si Si2 0.919899 0.789922 0.311777
Si Si3 0.579868 0.705082 0.501413
Si Si4 0.916497 0.541957 0.350777
Si Si5 0.918318 0.374983 0.990818
Si Si6 0.914633 0.041492 0.486017
O O1 0.250000 0.625588 0.381019
O O2 0.495051 0.666804 0.425262
O O3 0.498528 0.583995 0.395748
O O4 0.437555 0.630974 0.168928
O O5 0.750000 0.791684 0.271550
O O6 0.942122 0.748131 0.409425
O O7 0.953443 0.831853 0.406526
O O8 0.017096 0.788707 0.165998
O O9 0.750000 0.696169 0.504369
O O10 0.750000 0.542370 0.398175
O O11 0.916709 0.541315 0.168391
O O12 0.000000 0.500000 0.400191
O O13 0.750000 0.384505 0.966544
O O14 0.010682 0.414973 0.940179
O O15 0.750000 0.039751 0.437645
O O16 0.000000 0.000000 0.436651
#
# Coordination Sequence:
#
# PCOD9363174 Si02
#       6
#     8   8   8   8   8   8
#     4  10  19  33  54  79 109 144 179 219 267 314
#     4  10  22  39  57  78 106 139 174 215 265 318
#     4  11  23  38  57  81 107 137 176 219 263 317
#     4   9  16  27  45  73 107 141 179 221 263 309
#     4   9  18  33  53  77 106 140 178 218 261 311
#     4   9  16  26  44  72 105 139 175 216 260 305
#
# _framework density 18.160990000000002
#
# number of rings (size 3 to 8) (size 9 to 14) (size 15 to 20)
#    0.000    2.333    0.000    3.000    0.000    8.000 
#    0.000    0.000    0.000    1.000    0.000    2.333 
#    0.000    0.000    0.000    0.000    0.000    0.000 
#
# Total GULP energy -133969.417032 kJ/mol
# GULP energy per Si atom -5582.059043 kJ/mol
# Density = 1.811966 g / cm^3
# Si number density = 18.160990 Si / 1000 Ang^3
#
#
#
# Elastic Constant Matrix: (Units=GPa)
#
#
# Indices 1 2 3 4 5 6 
#
# 1 159.5750 126.0385 63.3382 0.0000 0.0000 0.0000
# 2 126.0385 180.1349 51.3290 0.0000 0.0000 0.0000
# 3 63.3382 51.3290 39.1906 0.0000 0.0000 0.0000
# 4 0.0000 0.0000 0.0000 23.4767 0.0000 0.0000
# 5 0.0000 0.0000 0.0000 0.0000 22.2635 0.0000
# 6 0.0000 0.0000 0.0000 0.0000 0.0000 36.2882
#
#
#
# Elastic Compliance Matrix: (Units=1/GPa)
#
#
# Indices 1 2 3 4 5 6 
#
# 1 0.024527 -0.009359 -0.027382 0.000000 0.000000 0.000000
# 2 -0.009359 0.012428 -0.001152 0.000000 0.000000 0.000000
# 3 -0.027382 -0.001152 0.071278 0.000000 0.000000 0.000000
# 4 0.000000 0.000000 0.000000 0.042595 0.000000 0.000000
# 5 0.000000 0.000000 0.000000 0.000000 0.044916 0.000000
# 6 0.000000 0.000000 0.000000 0.000000 0.000000 0.027557
#
#
# Mechanical properties :
#
#
# Convention : Reuss Voigt Hill
#
# Bulk Modulus (GPa) = 30.81849 95.59023 63.20436
# Shear Modulus (GPa) = 16.13407 25.61867 20.87637
#
# Velocity S-wave (km/s) = 2.98382 3.75993 3.39413
# Velocity P-wave (km/s) = 5.37377 8.46159 7.08788
#
# Compressibility (1/GPa) = 0.03244805
#
# Stress axis : x y z
#
# Youngs Moduli (GPa) = 40.77135 80.46422 14.02954
#
# Poissons Ratio (x) = 0.75306 0.38416
# Poissons Ratio (y) = 0.38157 0.01616
# Poissons Ratio (z) = 1.11640 0.09267
#
# Static dielectric constant tensor:
#      x y z
#    x 1.607410 0.000000 0.000000 
#    y 0.000000 1.597480 0.000000 
#    z 0.000000 0.000000 1.610700 
# 
# From -- ./inp_files/4564.got.cif
#   From: 2010.05.17/outbox.cif.g08.bks.cpg/sg40_3_cif.got.tgz:4564.got - 2010.06.03 18:35:42.
