data_PCOD9363040
_publ_section_title
;
Structure prediction by ZEFSAII (Michael W. Deem and Ramdas Pophale) SiO2 
 PCOD9363040
Probable space group: A M A 2
;
_chemical_formula_sum "Si O2"
_cell_formula_units_Z 64
_cell_length_a 23.629866
_cell_length_b 25.307801
_cell_length_c 6.739144
_cell_angle_alpha 90.000000
_cell_angle_beta 90.000000
_cell_angle_gamma 90.000000
_cell_volume 4030.142534
_symmetry_space_group_name_H-M "A M A 2"
_symmetry_group_IT_number 40
_symmetry_cell_setting 'orthorhombic'
loop_
_space_group_symop_operation_xyz
x,y,z
-x,-y,z
1/2-x,y,z
1/2+x,-y,z
x,1/2+y,1/2+z
-x,1/2-y,1/2+z
1/2-x,1/2+y,1/2+z
1/2+x,1/2-y,1/2+z
loop_
_atom_site_type_symbol
_atom_site_label
_atom_site_fract_x
_atom_site_fract_y
_atom_site_fract_z
Si Si1 0.188810 0.438719 0.647170
Si Si2 0.684349 0.162320 0.426509
Si Si3 0.362370 0.919104 0.748916
Si Si4 0.017350 0.187967 0.588035
Si Si5 0.479730 0.585196 0.829377
Si Si6 0.091649 0.981805 0.402322
Si Si7 0.922233 0.718872 0.780307
Si Si8 0.033400 0.367985 0.471442
O O1 0.250000 0.460736 0.705509
O O2 0.183518 0.432610 0.413170
O O3 0.136923 0.472121 0.730294
O O4 0.184272 0.381224 0.750313
O O5 0.750000 0.177740 0.460687
O O6 0.658437 0.129744 0.612647
O O7 0.640293 0.207973 0.365174
O O8 0.376626 0.967821 0.605656
O O9 0.418491 0.903457 0.870757
O O10 0.033965 0.137926 0.452417
O O11 0.065985 0.228943 0.650877
O O12 0.967557 0.216660 0.461614
O O13 0.993075 0.165203 0.793152
O O14 0.436520 0.538620 0.879392
O O15 0.541568 0.561961 0.888551
O O16 0.487246 0.599094 0.597049
O O17 0.938243 0.670282 0.634785
#
# Coordination Sequence:
#
# PCOD9363040 Si02
#       8
#     8   8   8   8   8   8   8   8
#     4  10  19  32  51  76 103 136 173 209 257 308
#     4  10  20  32  49  77 111 137 168 216 260 312
#     4  11  17  32  53  75 105 138 170 207 257 312
#     4  11  20  32  51  76 103 137 170 213 255 310
#     4  10  21  34  48  75 106 135 170 208 259 314
#     4  10  20  34  50  73 106 136 168 212 258 308
#     4  11  20  32  52  76 105 137 173 207 260 314
#     4  11  18  32  51  74 106 134 165 210 256 306
#
# _framework density 15.880331999999999
#
# number of rings (size 3 to 8) (size 9 to 14) (size 15 to 20)
#    0.000    1.500    6.250    1.875    0.000    1.500 
#    0.000    0.000    0.000    0.750    0.000    0.875 
#    0.000    0.000    0.000    0.000    0.000    0.000 
#
# Total GULP energy -178370.303188 kJ/mol
# GULP energy per Si atom -5574.071975 kJ/mol
# Density = 1.584419 g / cm^3
# Si number density = 15.880332 Si / 1000 Ang^3
#
#
#
# Elastic Constant Matrix: (Units=GPa)
#
#
# Indices 1 2 3 4 5 6 
#
# 1 100.5875 48.2112 35.3955 0.0000 0.0000 0.0000
# 2 48.2112 77.1815 29.1419 0.0000 0.0000 0.0000
# 3 35.3955 29.1419 98.4071 0.0000 0.0000 0.0000
# 4 0.0000 0.0000 0.0000 10.5129 0.0000 0.0000
# 5 0.0000 0.0000 0.0000 0.0000 15.2026 0.0000
# 6 0.0000 0.0000 0.0000 0.0000 0.0000 18.7572
#
#
#
# Elastic Compliance Matrix: (Units=1/GPa)
#
#
# Indices 1 2 3 4 5 6 
#
# 1 0.014905 -0.008203 -0.002932 0.000000 0.000000 0.000000
# 2 -0.008203 0.019103 -0.002706 0.000000 0.000000 0.000000
# 3 -0.002932 -0.002706 0.012018 0.000000 0.000000 0.000000
# 4 0.000000 0.000000 0.000000 0.095121 0.000000 0.000000
# 5 0.000000 0.000000 0.000000 0.000000 0.065778 0.000000
# 6 0.000000 0.000000 0.000000 0.000000 0.000000 0.053313
#
#
# Mechanical properties :
#
#
# Convention : Reuss Voigt Hill
#
# Bulk Modulus (GPa) = 54.51852 55.74148 55.13000
# Shear Modulus (GPa) = 17.00479 19.78972 18.39726
#
# Velocity S-wave (km/s) = 3.27587 3.53395 3.40736
# Velocity P-wave (km/s) = 6.97953 7.19923 7.09023
#
# Compressibility (1/GPa) = 0.01834239
#
# Stress axis : x y z
#
# Youngs Moduli (GPa) = 67.09083 52.34891 83.20973
#
# Poissons Ratio (x) = 0.42944 0.24395
# Poissons Ratio (y) = 0.55038 0.22519
# Poissons Ratio (z) = 0.19670 0.14167
#
# Static dielectric constant tensor:
#      x y z
#    x 1.538310 0.000000 0.000000 
#    y 0.000000 1.526870 0.000000 
#    z 0.000000 0.000000 1.553380 
# 
# From -- ./inp_files/2891.got.cif
#   From: 2010.05.17/outbox.cif.g08.bks.cpg/sg40_2_cif.got.tgz:2891.got - 2010.06.03 18:35:42.
