data_PCOD9363324
_publ_section_title
;
Structure prediction by ZEFSAII (Michael W. Deem and Ramdas Pophale) SiO2 
 PCOD9363324
Probable space group: A M A 2
;
_chemical_formula_sum "Si O2"
_cell_formula_units_Z 56
_cell_length_a 16.193057
_cell_length_b 14.107187
_cell_length_c 12.769694
_cell_angle_alpha 90.000000
_cell_angle_beta 90.000000
_cell_angle_gamma 90.000000
_cell_volume 2917.089528
_symmetry_space_group_name_H-M "A M A 2"
_symmetry_group_IT_number 40
_symmetry_cell_setting 'orthorhombic'
loop_
_space_group_symop_operation_xyz
x,y,z
-x,-y,z
1/2-x,y,z
1/2+x,-y,z
x,1/2+y,1/2+z
-x,1/2-y,1/2+z
1/2-x,1/2+y,1/2+z
1/2+x,1/2-y,1/2+z
loop_
_atom_site_type_symbol
_atom_site_label
_atom_site_fract_x
_atom_site_fract_y
_atom_site_fract_z
Si Si1 0.349046 0.904576 0.346510
Si Si2 0.349398 0.194951 0.831516
Si Si3 0.571101 0.077767 0.118245
Si Si4 0.653777 0.946068 0.521149
Si Si5 0.080462 0.933100 0.697624
Si Si6 0.652776 0.011189 0.909513
Si Si7 0.956976 0.793882 0.619355
O O1 0.250000 0.909751 0.341034
O O2 0.369451 0.796958 0.382534
O O3 0.384987 0.918774 0.231002
O O4 0.374860 0.986307 0.426501
O O5 0.250000 0.192903 0.811940
O O6 0.399319 0.194061 0.722940
O O7 0.371517 0.099572 0.893675
O O8 0.539176 0.183551 0.094519
O O9 0.500000 0.000000 0.122495
O O10 0.629845 0.047797 0.023320
O O11 0.750000 0.917970 0.508562
O O12 0.591919 0.857877 0.535005
O O13 0.645566 0.012312 0.624566
O O14 0.110089 0.929572 0.816589
O O15 0.046202 0.836868 0.647669
O O16 0.000000 0.000000 0.695312
O O17 0.750000 0.017060 0.893482
#
# Coordination Sequence:
#
# PCOD9363324 Si02
#       7
#     8   8   8   8   8   8   8
#     4   9  20  39  60  87 121 160 204 242 297 366
#     4   9  17  33  61  88 114 156 201 243 292 361
#     4  11  25  41  58  86 123 166 196 244 305 374
#     4  10  19  35  63  91 117 151 200 254 293 348
#     4  10  19  34  57  93 119 147 194 256 305 346
#     4  11  21  37  63  90 118 153 203 256 297 353
#     4  10  21  38  60  85 117 160 202 245 301 362
#
# _framework density 19.197215
#
# number of rings (size 3 to 8) (size 9 to 14) (size 15 to 20)
#    0.000    2.000    2.857    1.714    0.000    4.571 
#    5.143    0.000    0.000    1.714    0.000    0.000 
#    0.000    0.000    0.000    0.000    0.000    0.000 
#
# Total GULP energy -156256.447346 kJ/mol
# GULP energy per Si atom -5580.587405 kJ/mol
# Density = 1.915352 g / cm^3
# Si number density = 19.197215 Si / 1000 Ang^3
#
#
#
# Elastic Constant Matrix: (Units=GPa)
#
#
# Indices 1 2 3 4 5 6 
#
# 1 30.6430 44.9443 15.1367 0.0000 0.0000 0.0000
# 2 44.9443 152.8092 38.8062 0.0000 0.0000 0.0000
# 3 15.1367 38.8062 72.7665 0.0000 0.0000 0.0000
# 4 0.0000 0.0000 0.0000 -17.2488 0.0000 0.0000
# 5 0.0000 0.0000 0.0000 0.0000 21.2857 0.0000
# 6 0.0000 0.0000 0.0000 0.0000 0.0000 17.8933
#
#
#
# Elastic Compliance Matrix: (Units=1/GPa)
#
#
# Indices 1 2 3 4 5 6 
#
# 1 0.058127 -0.016223 -0.003440 0.000000 0.000000 0.000000
# 2 -0.016223 0.012097 -0.003077 0.000000 0.000000 0.000000
# 3 -0.003440 -0.003077 0.016099 0.000000 0.000000 0.000000
# 4 0.000000 0.000000 0.000000 -0.057975 0.000000 0.000000
# 5 0.000000 0.000000 0.000000 0.000000 0.046980 0.000000
# 6 0.000000 0.000000 0.000000 0.000000 0.000000 0.055887
#
#
# Mechanical properties :
#
#
# Convention : Reuss Voigt Hill
#
# Bulk Modulus (GPa) = 24.48324 50.44369 37.46346
# Shear Modulus (GPa) = 26.27324 14.87481 20.57403
#
# Velocity S-wave (km/s) = 3.70347 2.78662 3.27726
# Velocity P-wave (km/s) = 5.57394 6.05700 5.82048
#
# Compressibility (1/GPa) = 0.04084427
#
# Stress axis : x y z
#
# Youngs Moduli (GPa) = 17.20370 82.66608 62.11603
#
# Poissons Ratio (x) = 1.34107 0.21367
# Poissons Ratio (y) = 0.27909 0.19111
# Poissons Ratio (z) = 0.05918 0.25433
#
# Static dielectric constant tensor:
#      x y z
#    x 1.676420 0.000000 0.000000 
#    y 0.000000 1.727050 0.000000 
#    z 0.000000 0.000000 1.678050 
# 
# From -- ./inp_files/12252.got.cif
#   From: 2010.05.17/outbox.cif.g08.bks.cpg/sg40_7_cif.got.tgz:12252.got - 2010.06.03 18:35:42.
