data_PCOD9363210
_publ_section_title
;
Structure prediction by ZEFSAII (Michael W. Deem and Ramdas Pophale) SiO2 
 PCOD9363210
Probable space group: A M A 2
;
_chemical_formula_sum "Si O2"
_cell_formula_units_Z 48
_cell_length_a 8.005748
_cell_length_b 21.145273
_cell_length_c 14.944594
_cell_angle_alpha 90.000000
_cell_angle_beta 90.000000
_cell_angle_gamma 90.000000
_cell_volume 2529.876571
_symmetry_space_group_name_H-M "A M A 2"
_symmetry_group_IT_number 40
_symmetry_cell_setting 'orthorhombic'
loop_
_space_group_symop_operation_xyz
x,y,z
-x,-y,z
1/2-x,y,z
1/2+x,-y,z
x,1/2+y,1/2+z
-x,1/2-y,1/2+z
1/2-x,1/2+y,1/2+z
1/2+x,1/2-y,1/2+z
loop_
_atom_site_type_symbol
_atom_site_label
_atom_site_fract_x
_atom_site_fract_y
_atom_site_fract_z
Si Si1 0.548517 0.071282 0.672840
Si Si2 0.048753 0.876837 0.481998
Si Si3 0.545337 0.309158 0.680816
Si Si4 0.051328 0.570540 0.791320
Si Si5 0.548823 0.768491 0.985237
Si Si6 0.548852 0.686630 0.294160
O O1 0.750000 0.074581 0.671313
O O2 0.488273 0.090430 0.573297
O O3 0.488486 0.123842 0.743447
O O4 0.500000 0.000000 0.694866
O O5 0.250000 0.874832 0.486512
O O6 0.987992 0.804177 0.477290
O O7 0.001953 0.913768 0.392583
O O8 0.750000 0.309439 0.681064
O O9 0.486291 0.373889 0.726557
O O10 0.490957 0.298386 0.578790
O O11 0.491729 0.249134 0.740447
O O12 0.250000 0.573737 0.788728
O O13 0.000000 0.500000 0.765832
O O14 0.750000 0.765828 0.988983
O O15 0.500268 0.806611 0.897065
O O16 0.750000 0.686541 0.289425
#
# Coordination Sequence:
#
# PCOD9363210 Si02
#       6
#     8   8   8   8   8   8
#     4  10  21  36  55  78 111 147 178 217 268 323
#     4  10  19  33  55  83 112 140 173 220 271 321
#     4   9  18  35  57  77 105 144 179 214 267 321
#     4  11  22  36  55  79 110 146 180 219 268 322
#     4  10  19  34  57  84 109 138 179 223 266 317
#     4  10  19  36  57  79 107 142 181 222 267 314
#
# _framework density 18.973257
#
# number of rings (size 3 to 8) (size 9 to 14) (size 15 to 20)
#    0.000    2.000    3.333    1.000    0.000    2.667 
#    0.000    3.333    0.000    4.000    0.000    0.000 
#    0.000    0.000    0.000    0.000    0.000    0.000 
#
# Total GULP energy -134008.508801 kJ/mol
# GULP energy per Si atom -5583.687867 kJ/mol
# Density = 1.893007 g / cm^3
# Si number density = 18.973257 Si / 1000 Ang^3
#
#
#
# Elastic Constant Matrix: (Units=GPa)
#
#
# Indices 1 2 3 4 5 6 
#
# 1 13.8226 10.8826 6.7414 0.0000 0.0000 0.0000
# 2 10.8826 173.0076 86.3777 0.0000 0.0000 0.0000
# 3 6.7414 86.3777 152.2489 0.0000 0.0000 0.0000
# 4 0.0000 0.0000 0.0000 28.9925 0.0000 0.0000
# 5 0.0000 0.0000 0.0000 0.0000 20.9620 0.0000
# 6 0.0000 0.0000 0.0000 0.0000 0.0000 23.3452
#
#
#
# Elastic Compliance Matrix: (Units=1/GPa)
#
#
# Indices 1 2 3 4 5 6 
#
# 1 0.076205 -0.004337 -0.000913 0.000000 0.000000 0.000000
# 2 -0.004337 0.008311 -0.004523 0.000000 0.000000 0.000000
# 3 -0.000913 -0.004523 0.009175 0.000000 0.000000 0.000000
# 4 0.000000 0.000000 0.000000 0.034492 0.000000 0.000000
# 5 0.000000 0.000000 0.000000 0.000000 0.047705 0.000000
# 6 0.000000 0.000000 0.000000 0.000000 0.000000 0.042835
#
#
# Mechanical properties :
#
#
# Convention : Reuss Voigt Hill
#
# Bulk Modulus (GPa) = 13.48741 60.78696 37.13719
# Shear Modulus (GPa) = 19.01236 30.33177 24.67206
#
# Velocity S-wave (km/s) = 3.16897 4.00266 3.60996
# Velocity P-wave (km/s) = 4.52923 7.31229 6.08208
#
# Compressibility (1/GPa) = 0.07414321
#
# Stress axis : x y z
#
# Youngs Moduli (GPa) = 13.12242 120.31823 108.99272
#
# Poissons Ratio (x) = 0.52187 0.09956
# Poissons Ratio (y) = 0.05692 0.49301
# Poissons Ratio (z) = 0.01199 0.54424
#
# Static dielectric constant tensor:
#      x y z
#    x 1.686420 0.000000 0.000000 
#    y 0.000000 1.618840 0.000000 
#    z 0.000000 0.000000 1.638000 
# 
# From -- ./inp_files/10246.got.cif
#   From: 2010.05.17/outbox.cif.g08.bks.cpg/sg40_6_cif.got.tgz:10246.got - 2010.06.03 18:35:42.
