data_PCOD9363437
_publ_section_title
;
Structure prediction by ZEFSAII (Michael W. Deem and Ramdas Pophale) SiO2 
 PCOD9363437
Probable space group: A M A 2
;
_chemical_formula_sum "Si O2"
_cell_formula_units_Z 56
_cell_length_a 17.822310
_cell_length_b 17.377665
_cell_length_c 9.759053
_cell_angle_alpha 90.000000
_cell_angle_beta 90.000000
_cell_angle_gamma 90.000000
_cell_volume 3022.477600
_symmetry_space_group_name_H-M "A M A 2"
_symmetry_group_IT_number 40
_symmetry_cell_setting 'orthorhombic'
loop_
_space_group_symop_operation_xyz
x,y,z
-x,-y,z
1/2-x,y,z
1/2+x,-y,z
x,1/2+y,1/2+z
-x,1/2-y,1/2+z
1/2-x,1/2+y,1/2+z
1/2+x,1/2-y,1/2+z
loop_
_atom_site_type_symbol
_atom_site_label
_atom_site_fract_x
_atom_site_fract_y
_atom_site_fract_z
Si Si1 0.542422 0.917836 0.354580
Si Si2 0.117562 0.367960 0.812141
Si Si3 0.917540 0.411738 0.546963
Si Si4 0.404684 0.915307 0.005083
Si Si5 0.162756 0.004140 0.510419
Si Si6 0.163954 0.242486 0.006062
Si Si7 0.840381 0.628017 0.220287
O O1 0.470164 0.862677 0.361385
O O2 0.584917 0.904806 0.212242
O O3 0.500000 0.000000 0.339706
O O4 0.602766 0.929238 0.475147
O O5 0.120021 0.379533 0.649996
O O6 0.154083 0.442439 0.885925
O O7 0.158465 0.293884 0.870240
O O8 0.883707 0.494017 0.504992
O O9 0.879164 0.336517 0.489062
O O10 0.005035 0.412347 0.507140
O O11 0.372891 0.874041 0.871791
O O12 0.250000 0.027751 0.521291
O O13 0.140329 0.951656 0.640807
O O14 0.250000 0.224976 0.038547
O O15 0.134721 0.299548 0.127108
O O16 0.750000 0.630444 0.223786
#
# Coordination Sequence:
#
# PCOD9363437 Si02
#       7
#     8   8   8   8   8   8   8
#     4   9  15  32  55  80 107 137 189 238 261 325
#     4   9  17  34  56  78 107 150 192 230 269 340
#     4  10  19  36  56  85 114 140 188 239 278 330
#     4  10  19  36  59  84 112 142 189 238 275 336
#     4   9  16  30  53  81 110 141 186 233 277 329
#     4  10  22  38  55  81 114 146 188 232 280 343
#     4   9  20  36  54  81 115 149 185 230 283 344
#
# _framework density 18.527847000000001
#
# number of rings (size 3 to 8) (size 9 to 14) (size 15 to 20)
#    0.000    2.571    4.286    1.286    0.000    4.571 
#   12.857    0.000    3.143    0.000    0.000    0.000 
#    0.000    0.000    0.000    0.000    0.000    0.000 
#
# Total GULP energy -155988.494696 kJ/mol
# GULP energy per Si atom -5571.017668 kJ/mol
# Density = 1.848568 g / cm^3
# Si number density = 18.527847 Si / 1000 Ang^3
#
#
#
# Elastic Constant Matrix: (Units=GPa)
#
#
# Indices 1 2 3 4 5 6 
#
# 1 24.4079 16.6986 19.3763 0.0000 0.0000 0.0000
# 2 16.6986 59.3850 25.1856 0.0000 0.0000 0.0000
# 3 19.3763 25.1856 98.1097 0.0000 0.0000 0.0000
# 4 0.0000 0.0000 0.0000 9.6221 0.0000 0.0000
# 5 0.0000 0.0000 0.0000 0.0000 22.2061 0.0000
# 6 0.0000 0.0000 0.0000 0.0000 0.0000 22.9898
#
#
#
# Elastic Compliance Matrix: (Units=1/GPa)
#
#
# Indices 1 2 3 4 5 6 
#
# 1 0.055606 -0.012320 -0.007819 0.000000 0.000000 0.000000
# 2 -0.012320 0.021626 -0.003118 0.000000 0.000000 0.000000
# 3 -0.007819 -0.003118 0.012538 0.000000 0.000000 0.000000
# 4 0.000000 0.000000 0.000000 0.103928 0.000000 0.000000
# 5 0.000000 0.000000 0.000000 0.000000 0.045033 0.000000
# 6 0.000000 0.000000 0.000000 0.000000 0.000000 0.043497
#
#
# Mechanical properties :
#
#
# Convention : Reuss Voigt Hill
#
# Bulk Modulus (GPa) = 23.11896 33.82484 28.47190
# Shear Modulus (GPa) = 14.57040 19.00641 16.78841
#
# Velocity S-wave (km/s) = 2.80733 3.20633 3.01344
# Velocity P-wave (km/s) = 4.79721 5.65714 5.24483
#
# Compressibility (1/GPa) = 0.04325453
#
# Stress axis : x y z
#
# Youngs Moduli (GPa) = 17.98355 46.24043 79.76059
#
# Poissons Ratio (x) = 0.56967 0.62368
# Poissons Ratio (y) = 0.22155 0.24873
# Poissons Ratio (z) = 0.14062 0.14420
#
# Static dielectric constant tensor:
#      x y z
#    x 1.668530 0.000000 0.000000 
#    y 0.000000 1.644310 0.000000 
#    z 0.000000 0.000000 1.637440 
# 
# From -- ./inp_files/8412.got.cif
#   From: 2010.05.17/outbox.cif.g08.bks.cpg/sg40_5_cif.got.tgz:8412.got - 2010.06.03 18:35:42.
