data_PCOD9363553
_publ_section_title
;
Structure prediction by ZEFSAII (Michael W. Deem and Ramdas Pophale) SiO2 
 PCOD9363553
Probable space group: A M A 2
;
_chemical_formula_sum "Si O2"
_cell_formula_units_Z 64
_cell_length_a 19.297289
_cell_length_b 15.415277
_cell_length_c 11.599321
_cell_angle_alpha 90.000000
_cell_angle_beta 90.000000
_cell_angle_gamma 90.000000
_cell_volume 3450.485457
_symmetry_space_group_name_H-M "A M A 2"
_symmetry_group_IT_number 40
_symmetry_cell_setting 'orthorhombic'
loop_
_space_group_symop_operation_xyz
x,y,z
-x,-y,z
1/2-x,y,z
1/2+x,-y,z
x,1/2+y,1/2+z
-x,1/2-y,1/2+z
1/2-x,1/2+y,1/2+z
1/2+x,1/2-y,1/2+z
loop_
_atom_site_type_symbol
_atom_site_label
_atom_site_fract_x
_atom_site_fract_y
_atom_site_fract_z
Si Si1 0.330777 0.175070 0.427300
Si Si2 0.671788 0.363374 0.660320
Si Si3 0.170115 0.505334 0.054266
Si Si4 0.568544 0.161489 0.937046
Si Si5 0.447594 0.419928 0.186135
Si Si6 0.329810 0.857128 0.361734
Si Si7 0.669375 0.065719 0.106898
Si Si8 0.567199 0.741915 0.022906
O O1 0.250000 0.196248 0.451867
O O2 0.333438 0.137382 0.298368
O O3 0.354119 0.100501 0.515802
O O4 0.379393 0.257491 0.427636
O O5 0.750000 0.334655 0.630119
O O6 0.663072 0.462390 0.621699
O O7 0.617720 0.297975 0.604099
O O8 0.250000 0.511975 0.087275
O O9 0.126442 0.460745 0.153335
O O10 0.165949 0.442514 0.942782
O O11 0.553737 0.118765 0.813667
O O12 0.610449 0.096862 0.019910
O O13 0.496869 0.198706 0.986348
O O14 0.500000 0.500000 0.174330
O O15 0.458840 0.342065 0.094684
O O16 0.250000 0.824466 0.371549
O O17 0.341156 0.886340 0.230102
O O18 0.386689 0.792096 0.414713
O O19 0.750000 0.083598 0.071610
#
# Coordination Sequence:
#
# PCOD9363553 Si02
#       8
#     8   8   8   8   8   8   8   8
#     4  10  19  38  65  93 117 147 201 257 299 351
#     4  10  20  39  65  92 118 148 200 256 303 355
#     4   9  18  37  67  92 112 149 201 254 305 356
#     4  12  26  39  60  86 127 167 201 245 300 368
#     4  11  25  43  57  85 127 165 200 247 302 366
#     4   9  18  37  64  91 116 149 197 252 305 359
#     4  10  22  40  62  89 121 155 194 247 309 367
#     4  11  24  40  63  88 119 163 206 252 301 355
#
# _framework density 18.548114000000002
#
# number of rings (size 3 to 8) (size 9 to 14) (size 15 to 20)
#    0.000    1.750    2.500    1.500    3.500    1.500 
#    0.000    0.000    0.000    0.000    0.000    0.000 
#    0.000    0.000    0.000    0.000    0.000    0.000 
#
# Total GULP energy -178629.620262 kJ/mol
# GULP energy per Si atom -5582.175633 kJ/mol
# Density = 1.850590 g / cm^3
# Si number density = 18.548114 Si / 1000 Ang^3
#
#
#
# Elastic Constant Matrix: (Units=GPa)
#
#
# Indices 1 2 3 4 5 6 
#
# 1 54.5602 16.7564 14.9694 0.0000 0.0000 0.0000
# 2 16.7564 47.9772 3.0455 0.0000 0.0000 0.0000
# 3 14.9694 3.0455 45.5631 0.0000 0.0000 0.0000
# 4 0.0000 0.0000 0.0000 29.5607 0.0000 0.0000
# 5 0.0000 0.0000 0.0000 0.0000 16.4660 0.0000
# 6 0.0000 0.0000 0.0000 0.0000 0.0000 40.3855
#
#
#
# Elastic Compliance Matrix: (Units=1/GPa)
#
#
# Indices 1 2 3 4 5 6 
#
# 1 0.022499 -0.007420 -0.006896 0.000000 0.000000 0.000000
# 2 -0.007420 0.023379 0.000875 0.000000 0.000000 0.000000
# 3 -0.006896 0.000875 0.024155 0.000000 0.000000 0.000000
# 4 0.000000 0.000000 0.000000 0.033829 0.000000 0.000000
# 5 0.000000 0.000000 0.000000 0.000000 0.060731 0.000000
# 6 0.000000 0.000000 0.000000 0.000000 0.000000 0.024761
#
#
# Mechanical properties :
#
#
# Convention : Reuss Voigt Hill
#
# Bulk Modulus (GPa) = 23.17439 24.18256 23.67847
# Shear Modulus (GPa) = 21.68063 24.83771 23.25917
#
# Velocity S-wave (km/s) = 3.42261 3.66334 3.54502
# Velocity P-wave (km/s) = 5.30474 5.56412 5.43598
#
# Compressibility (1/GPa) = 0.04315108
#
# Stress axis : x y z
#
# Youngs Moduli (GPa) = 44.44580 42.77295 41.39977
#
# Poissons Ratio (x) = 0.31739 0.28549
# Poissons Ratio (y) = 0.32980 -0.03623
# Poissons Ratio (z) = 0.30650 -0.03743
#
# Static dielectric constant tensor:
#      x y z
#    x 1.633320 0.000000 0.000000 
#    y 0.000000 1.634800 0.000000 
#    z 0.000000 0.000000 1.621640 
# 
# From -- ./inp_files/13114.got.cif
#   From: 2010.05.17/outbox.cif.g08.bks.cpg/sg40_7_cif.got.tgz:13114.got - 2010.06.03 18:35:42.
