data_PCOD9363753
_publ_section_title
;
Structure prediction by ZEFSAII (Michael W. Deem and Ramdas Pophale) SiO2 
 PCOD9363753
Probable space group: A M A 2
;
_chemical_formula_sum "Si O2"
_cell_formula_units_Z 48
_cell_length_a 13.988551
_cell_length_b 17.705508
_cell_length_c 10.203099
_cell_angle_alpha 90.000000
_cell_angle_beta 90.000000
_cell_angle_gamma 90.000000
_cell_volume 2527.046440
_symmetry_space_group_name_H-M "A M A 2"
_symmetry_group_IT_number 40
_symmetry_cell_setting 'orthorhombic'
loop_
_space_group_symop_operation_xyz
x,y,z
-x,-y,z
1/2-x,y,z
1/2+x,-y,z
x,1/2+y,1/2+z
-x,1/2-y,1/2+z
1/2-x,1/2+y,1/2+z
1/2+x,1/2-y,1/2+z
loop_
_atom_site_type_symbol
_atom_site_label
_atom_site_fract_x
_atom_site_fract_y
_atom_site_fract_z
Si Si1 0.142793 0.162098 0.018620
Si Si2 0.498103 0.649197 0.915085
Si Si3 0.358828 0.331901 0.134154
Si Si4 0.359770 0.548078 0.760671
Si Si5 0.138814 0.872871 0.192663
Si Si6 0.940498 0.683630 0.419914
O O1 0.250000 0.154211 0.962152
O O2 0.138648 0.243467 0.090990
O O3 0.129444 0.098856 0.130125
O O4 0.052355 0.160035 0.922997
O O5 0.430069 0.582504 0.867737
O O6 0.569703 0.668783 0.794593
O O7 0.439064 0.725686 0.939781
O O8 0.565226 0.629703 0.037533
O O9 0.250000 0.358640 0.115109
O O10 0.390286 0.336838 0.284356
O O11 0.250000 0.555536 0.804363
O O12 0.376476 0.461390 0.723596
O O13 0.250000 0.854796 0.215131
O O14 0.109280 0.854051 0.045147
#
# Coordination Sequence:
#
# PCOD9363753 Si02
#       6
#     8   8   8   8   8   8
#     4   9  18  34  56  83 117 157 198 247 304 361
#     4  11  20  37  58  87 121 164 201 244 303 373
#     4  10  20  34  55  85 124 158 196 256 316 357
#     4  10  20  37  62  87 116 159 203 250 300 355
#     4  11  23  37  62  92 119 154 211 259 294 359
#     4  11  20  35  57  91 121 157 203 255 311 356
#
# _framework density 18.994506999999999
#
# number of rings (size 3 to 8) (size 9 to 14) (size 15 to 20)
#    0.000    1.667    3.333    2.500    0.000    1.333 
#    0.000    0.833    7.333    0.000    0.000    0.000 
#    0.000    0.000    0.000    0.000    0.000    0.000 
#
# Total GULP energy -134041.456369 kJ/mol
# GULP energy per Si atom -5585.060682 kJ/mol
# Density = 1.895127 g / cm^3
# Si number density = 18.994507 Si / 1000 Ang^3
#
#
#
# Elastic Constant Matrix: (Units=GPa)
#
#
# Indices 1 2 3 4 5 6 
#
# 1 100.2706 43.3710 47.8374 0.0000 0.0000 0.0000
# 2 43.3710 51.5119 17.8674 0.0000 0.0000 0.0000
# 3 47.8374 17.8674 100.3792 0.0000 0.0000 0.0000
# 4 0.0000 0.0000 0.0000 23.4541 0.0000 0.0000
# 5 0.0000 0.0000 0.0000 0.0000 29.0337 0.0000
# 6 0.0000 0.0000 0.0000 0.0000 0.0000 9.1583
#
#
#
# Elastic Compliance Matrix: (Units=1/GPa)
#
#
# Indices 1 2 3 4 5 6 
#
# 1 0.019108 -0.013780 -0.006653 0.000000 0.000000 0.000000
# 2 -0.013780 0.030628 0.001115 0.000000 0.000000 0.000000
# 3 -0.006653 0.001115 0.012934 0.000000 0.000000 0.000000
# 4 0.000000 0.000000 0.000000 0.042636 0.000000 0.000000
# 5 0.000000 0.000000 0.000000 0.000000 0.034443 0.000000
# 6 0.000000 0.000000 0.000000 0.000000 0.000000 0.109190
#
#
# Mechanical properties :
#
#
# Convention : Reuss Voigt Hill
#
# Bulk Modulus (GPa) = 41.60699 52.25704 46.93201
# Shear Modulus (GPa) = 16.91549 21.86829 19.39189
#
# Velocity S-wave (km/s) = 2.98744 3.39676 3.19865
# Velocity P-wave (km/s) = 5.81825 6.55403 6.19707
#
# Compressibility (1/GPa) = 0.02403443
#
# Stress axis : x y z
#
# Youngs Moduli (GPa) = 52.33529 32.64943 77.31322
#
# Poissons Ratio (x) = 0.44991 0.51438
# Poissons Ratio (y) = 0.72118 -0.08623
# Poissons Ratio (z) = 0.34820 -0.03641
#
# Static dielectric constant tensor:
#      x y z
#    x 1.706850 0.000000 0.000000 
#    y 0.000000 1.661340 0.000000 
#    z 0.000000 0.000000 1.630550 
# 
# From -- ./inp_files/6453.got.cif
#   From: 2010.05.17/outbox.cif.g08.bks.cpg/sg40_4_cif.got.tgz:6453.got - 2010.06.03 18:35:42.
