data_PCOD9363150
_publ_section_title
;
Structure prediction by ZEFSAII (Michael W. Deem and Ramdas Pophale) SiO2 
 PCOD9363150
Probable space group: A M A 2
;
_chemical_formula_sum "Si O2"
_cell_formula_units_Z 40
_cell_length_a 8.517172
_cell_length_b 13.932270
_cell_length_c 19.147928
_cell_angle_alpha 90.000000
_cell_angle_beta 90.000000
_cell_angle_gamma 90.000000
_cell_volume 2272.160919
_symmetry_space_group_name_H-M "A M A 2"
_symmetry_group_IT_number 40
_symmetry_cell_setting 'orthorhombic'
loop_
_space_group_symop_operation_xyz
x,y,z
-x,-y,z
1/2-x,y,z
1/2+x,-y,z
x,1/2+y,1/2+z
-x,1/2-y,1/2+z
1/2-x,1/2+y,1/2+z
1/2+x,1/2-y,1/2+z
loop_
_atom_site_type_symbol
_atom_site_label
_atom_site_fract_x
_atom_site_fract_y
_atom_site_fract_z
Si Si1 0.561787 0.394799 0.375000
Si Si2 0.938416 0.296250 0.809217
Si Si3 0.059128 0.701521 0.519444
Si Si4 0.561830 0.604784 0.947876
Si Si5 0.440163 0.608524 0.663999
O O1 0.500000 0.500000 0.357773
O O2 0.750000 0.393737 0.373041
O O3 0.498562 0.310697 0.325320
O O4 0.511205 0.364752 0.453840
O O5 0.750000 0.296966 0.812028
O O6 0.989536 0.336172 0.734147
O O7 0.002374 0.363401 0.871403
O O8 0.250000 0.701096 0.520621
O O9 0.010408 0.809913 0.500152
O O10 0.004419 0.661176 0.593373
O O11 0.500000 0.500000 0.966226
O O12 0.750000 0.603457 0.946473
O O13 0.500000 0.500000 0.665302
O O14 0.250000 0.607216 0.663055
#
# Coordination Sequence:
#
# PCOD9363150 Si02
#       5
#     8   8   8   8   8
#     4  10  19  33  54  76 101 132 167 207 247 292
#     4  10  20  33  51  75 103 133 166 204 247 297
#     4   8  17  33  51  73 100 130 164 203 246 293
#     4  10  19  33  53  74 100 132 168 209 249 293
#     4  10  20  34  52  74 101 131 162 201 249 297
#
# _framework density 17.604388
#
# number of rings (size 3 to 8) (size 9 to 14) (size 15 to 20)
#    0.000    2.400    0.000    4.200    0.000    3.200 
#    0.000    6.000    0.000    2.400    0.000    0.000 
#    0.000    0.000    0.000    0.000    0.000    0.000 
#
# Total GULP energy -111599.106057 kJ/mol
# GULP energy per Si atom -5579.955303 kJ/mol
# Density = 1.756432 g / cm^3
# Si number density = 17.604388 Si / 1000 Ang^3
#
#
#
# Elastic Constant Matrix: (Units=GPa)
#
#
# Indices 1 2 3 4 5 6 
#
# 1 37.3930 28.9847 26.2520 0.0000 0.0000 0.0000
# 2 28.9847 166.1338 92.9121 0.0000 0.0000 0.0000
# 3 26.2520 92.9121 152.1211 0.0000 0.0000 0.0000
# 4 0.0000 0.0000 0.0000 -6.1439 0.0000 0.0000
# 5 0.0000 0.0000 0.0000 0.0000 16.5915 0.0000
# 6 0.0000 0.0000 0.0000 0.0000 0.0000 32.9835
#
#
#
# Elastic Compliance Matrix: (Units=1/GPa)
#
#
# Indices 1 2 3 4 5 6 
#
# 1 0.031919 -0.003779 -0.003200 0.000000 0.000000 0.000000
# 2 -0.003779 0.009589 -0.005205 0.000000 0.000000 0.000000
# 3 -0.003200 -0.005205 0.010305 0.000000 0.000000 0.000000
# 4 0.000000 0.000000 0.000000 -0.162763 0.000000 0.000000
# 5 0.000000 0.000000 0.000000 0.000000 0.060272 0.000000
# 6 0.000000 0.000000 0.000000 0.000000 0.000000 0.030318
#
#
# Mechanical properties :
#
#
# Convention : Reuss Voigt Hill
#
# Bulk Modulus (GPa) = 36.43623 72.43837 54.43730
# Shear Modulus (GPa) = 380.03447 22.51951 201.27699
#
# Velocity S-wave (km/s) = 14.70862 3.58047 10.70428
# Velocity P-wave (km/s) = 17.58409 7.63742 13.55600
#
# Compressibility (1/GPa) = 0.02744521
#
# Stress axis : x y z
#
# Youngs Moduli (GPa) = 31.32936 104.28168 97.04049
#
# Poissons Ratio (x) = 0.39408 0.31055
# Poissons Ratio (y) = 0.11839 0.50508
# Poissons Ratio (z) = 0.10026 0.54277
#
# Static dielectric constant tensor:
#      x y z
#    x 1.598830 0.000000 0.000000 
#    y 0.000000 1.581430 0.000000 
#    z 0.000000 0.000000 1.592050 
# 
# From -- ./inp_files/14805.got.cif
#   From: 2010.05.17/outbox.cif.g08.bks.cpg/sg40_8_cif.got.tgz:14805.got - 2010.06.03 18:35:42.
