data_PCOD9363360
_publ_section_title
;
Structure prediction by ZEFSAII (Michael W. Deem and Ramdas Pophale) SiO2 
 PCOD9363360
Probable space group: A M A 2
;
_chemical_formula_sum "Si O2"
_cell_formula_units_Z 56
_cell_length_a 8.472302
_cell_length_b 19.416106
_cell_length_c 18.124381
_cell_angle_alpha 90.000000
_cell_angle_beta 90.000000
_cell_angle_gamma 90.000000
_cell_volume 2981.444611
_symmetry_space_group_name_H-M "A M A 2"
_symmetry_group_IT_number 40
_symmetry_cell_setting 'orthorhombic'
loop_
_space_group_symop_operation_xyz
x,y,z
-x,-y,z
1/2-x,y,z
1/2+x,-y,z
x,1/2+y,1/2+z
-x,1/2-y,1/2+z
1/2-x,1/2+y,1/2+z
1/2+x,1/2-y,1/2+z
loop_
_atom_site_type_symbol
_atom_site_label
_atom_site_fract_x
_atom_site_fract_y
_atom_site_fract_z
Si Si1 0.566341 0.567568 0.774980
Si Si2 0.565651 0.427047 0.612631
Si Si3 0.931504 0.159313 0.526243
Si Si4 0.432462 0.781599 0.110274
Si Si5 0.567086 0.812219 0.367479
Si Si6 0.439889 0.077000 0.664020
Si Si7 0.563934 0.292891 0.263001
O O1 0.500000 0.500000 0.815785
O O2 0.750000 0.560213 0.754821
O O3 0.462929 0.572037 0.700939
O O4 0.540679 0.634173 0.823434
O O5 0.500000 0.500000 0.584422
O O6 0.750000 0.419975 0.596472
O O7 0.469207 0.359718 0.589496
O O8 0.750000 0.143985 0.508153
O O9 0.948969 0.231236 0.569321
O O10 0.030608 0.172384 0.452478
O O11 0.997001 0.103427 0.584564
O O12 0.250000 0.763961 0.092817
O O13 0.452527 0.763574 0.196950
O O14 0.750000 0.825726 0.351722
O O15 0.523922 0.737090 0.334433
O O16 0.250000 0.077770 0.661730
O O17 0.488124 0.134826 0.725260
O O18 0.500000 0.000000 0.679482
O O19 0.750000 0.298685 0.279812
#
# Coordination Sequence:
#
# PCOD9363360 Si02
#       7
#     8   8   8   8   8   8   8
#     4  11  21  34  50  74 108 143 179 220 266 317
#     4  11  20  31  50  77 106 140 178 218 265 316
#     4  11  23  38  57  81 112 149 189 230 285 345
#     4  10  19  35  56  79 109 141 181 231 277 327
#     4  12  23  36  55  81 113 149 191 233 282 341
#     4  10  21  39  62  88 118 150 193 240 290 345
#     4   9  19  35  57  82 111 146 185 232 283 335
#
# _framework density 18.78284
#
# number of rings (size 3 to 8) (size 9 to 14) (size 15 to 20)
#    0.000    1.429    1.429    7.714    0.000    3.429 
#    0.000    2.857    0.000    0.857    0.000    4.000 
#    0.000    0.000    0.000    0.000    0.000    0.000 
#
# Total GULP energy -156217.846182 kJ/mol
# GULP energy per Si atom -5579.208792 kJ/mol
# Density = 1.874009 g / cm^3
# Si number density = 18.782840 Si / 1000 Ang^3
#
#
#
# Elastic Constant Matrix: (Units=GPa)
#
#
# Indices 1 2 3 4 5 6 
#
# 1 76.5083 12.8504 2.5103 0.0000 0.0000 0.0000
# 2 12.8504 114.8420 10.2212 0.0000 0.0000 0.0000
# 3 2.5103 10.2212 30.1883 0.0000 0.0000 0.0000
# 4 0.0000 0.0000 0.0000 11.7259 0.0000 0.0000
# 5 0.0000 0.0000 0.0000 0.0000 22.4165 0.0000
# 6 0.0000 0.0000 0.0000 0.0000 0.0000 29.5464
#
#
#
# Elastic Compliance Matrix: (Units=1/GPa)
#
#
# Indices 1 2 3 4 5 6 
#
# 1 0.013332 -0.001436 -0.000622 0.000000 0.000000 0.000000
# 2 -0.001436 0.009133 -0.002973 0.000000 0.000000 0.000000
# 3 -0.000622 -0.002973 0.034184 0.000000 0.000000 0.000000
# 4 0.000000 0.000000 0.000000 0.085281 0.000000 0.000000
# 5 0.000000 0.000000 0.000000 0.000000 0.044610 0.000000
# 6 0.000000 0.000000 0.000000 0.000000 0.000000 0.033845
#
#
# Mechanical properties :
#
#
# Convention : Reuss Voigt Hill
#
# Bulk Modulus (GPa) = 21.46576 30.30025 25.88301
# Shear Modulus (GPa) = 20.32712 25.80154 23.06433
#
# Velocity S-wave (km/s) = 3.29328 3.71033 3.50801
# Velocity P-wave (km/s) = 5.09059 5.87557 5.49711
#
# Compressibility (1/GPa) = 0.04658581
#
# Stress axis : x y z
#
# Youngs Moduli (GPa) = 75.00662 109.49393 29.25369
#
# Poissons Ratio (x) = 0.15728 0.01820
# Poissons Ratio (y) = 0.10774 0.08696
# Poissons Ratio (z) = 0.04668 0.32550
#
# Static dielectric constant tensor:
#      x y z
#    x 1.618230 0.000000 0.000000 
#    y 0.000000 1.696560 0.000000 
#    z 0.000000 0.000000 1.651890 
# 
# From -- ./inp_files/22319.got.cif
#   From: 2010.05.17/outbox.cif.g08.bks.cpg/sg40_12_cif.got.tgz:22319.got - 2010.06.03 18:35:42.
