data_PCOD9363665
_publ_section_title
;
Structure prediction by ZEFSAII (Michael W. Deem and Ramdas Pophale) SiO2 
 PCOD9363665
Probable space group: A M A 2
;
_chemical_formula_sum "Si O2"
_cell_formula_units_Z 56
_cell_length_a 8.852138
_cell_length_b 24.518239
_cell_length_c 14.003952
_cell_angle_alpha 90.000000
_cell_angle_beta 90.000000
_cell_angle_gamma 90.000000
_cell_volume 3039.401430
_symmetry_space_group_name_H-M "A M A 2"
_symmetry_group_IT_number 40
_symmetry_cell_setting 'orthorhombic'
loop_
_space_group_symop_operation_xyz
x,y,z
-x,-y,z
1/2-x,y,z
1/2+x,-y,z
x,1/2+y,1/2+z
-x,1/2-y,1/2+z
1/2-x,1/2+y,1/2+z
1/2+x,1/2-y,1/2+z
loop_
_atom_site_type_symbol
_atom_site_label
_atom_site_fract_x
_atom_site_fract_y
_atom_site_fract_z
Si Si1 0.931196 0.623549 0.032410
Si Si2 0.931804 0.058821 0.722362
Si Si3 0.931412 0.664836 0.548712
Si Si4 0.570231 0.941441 0.365454
Si Si5 0.567636 0.231771 0.647446
Si Si6 0.930903 0.441374 0.641718
Si Si7 0.433558 0.333757 0.332066
O O1 0.750000 0.621570 0.021867
O O2 0.973118 0.581237 0.117036
O O3 0.970373 0.683408 0.072441
O O4 0.007640 0.604812 0.935159
O O5 0.750000 0.055530 0.725739
O O6 0.980426 0.106161 0.795851
O O7 0.000000 0.000000 0.741254
O O8 0.750000 0.662806 0.551571
O O9 0.981056 0.677149 0.439830
O O10 0.991990 0.712388 0.616692
O O11 0.998114 0.607173 0.581221
O O12 0.750000 0.944774 0.374297
O O13 0.532975 0.931753 0.254124
O O14 0.500000 0.000000 0.392736
O O15 0.750000 0.237635 0.647771
O O16 0.519510 0.209619 0.751581
O O17 0.750000 0.442512 0.631669
O O18 0.000000 0.500000 0.615570
O O19 0.250000 0.333694 0.330168
#
# Coordination Sequence:
#
# PCOD9363665 Si02
#       7
#     8   8   8   8   8   8   8
#     4   9  18  32  52  77 108 144 180 219 267 317
#     4   9  17  31  50  74 104 140 176 213 261 314
#     4  11  22  37  59  84 107 137 177 221 266 316
#     4  10  20  33  52  77 108 144 181 221 268 319
#     4   9  19  38  58  77 107 145 180 219 266 317
#     4  10  22  40  58  79 108 142 178 219 266 317
#     4   8  18  37  56  74 104 142 177 214 262 316
#
# _framework density 18.424679999999999
#
# number of rings (size 3 to 8) (size 9 to 14) (size 15 to 20)
#    0.000    2.571    0.000    3.429    0.000    5.714 
#    0.000   10.714    0.000    0.000    0.000    0.000 
#    0.000    0.000    0.000    0.000    0.000    0.000 
#
# Total GULP energy -156254.860191 kJ/mol
# GULP energy per Si atom -5580.530721 kJ/mol
# Density = 1.838274 g / cm^3
# Si number density = 18.424680 Si / 1000 Ang^3
#
#
#
# Elastic Constant Matrix: (Units=GPa)
#
#
# Indices 1 2 3 4 5 6 
#
# 1 29.1884 38.8604 35.1845 0.0000 0.0000 0.0000
# 2 38.8604 135.6564 78.8184 0.0000 0.0000 0.0000
# 3 35.1845 78.8184 97.2199 0.0000 0.0000 0.0000
# 4 0.0000 0.0000 0.0000 19.0207 0.0000 0.0000
# 5 0.0000 0.0000 0.0000 0.0000 24.0423 0.0000
# 6 0.0000 0.0000 0.0000 0.0000 0.0000 33.1039
#
#
#
# Elastic Compliance Matrix: (Units=1/GPa)
#
#
# Indices 1 2 3 4 5 6 
#
# 1 0.066817 -0.009624 -0.016379 0.000000 0.000000 0.000000
# 2 -0.009624 0.015322 -0.008939 0.000000 0.000000 0.000000
# 3 -0.016379 -0.008939 0.023461 0.000000 0.000000 0.000000
# 4 0.000000 0.000000 0.000000 0.052574 0.000000 0.000000
# 5 0.000000 0.000000 0.000000 0.000000 0.041593 0.000000
# 6 0.000000 0.000000 0.000000 0.000000 0.000000 0.030208
#
#
# Mechanical properties :
#
#
# Convention : Reuss Voigt Hill
#
# Bulk Modulus (GPa) = 27.99894 63.08791 45.54343
# Shear Modulus (GPa) = 16.03772 22.51349 19.27561
#
# Velocity S-wave (km/s) = 2.95354 3.49939 3.23799
# Velocity P-wave (km/s) = 5.18272 7.11639 6.22509
#
# Compressibility (1/GPa) = 0.03571564
#
# Stress axis : x y z
#
# Youngs Moduli (GPa) = 14.96625 65.26473 42.62441
#
# Poissons Ratio (x) = 0.62811 0.69815
# Poissons Ratio (y) = 0.14404 0.38102
# Poissons Ratio (z) = 0.24513 0.58341
#
# Static dielectric constant tensor:
#      x y z
#    x 1.616680 0.000000 0.000000 
#    y 0.000000 1.609080 0.000000 
#    z 0.000000 0.000000 1.642910 
# 
# From -- ./inp_files/15338.got.cif
#   From: 2010.05.17/outbox.cif.g08.bks.cpg/sg40_8_cif.got.tgz:15338.got - 2010.06.03 18:35:42.
