data_PCOD9363115
_publ_section_title
;
Structure prediction by ZEFSAII (Michael W. Deem and Ramdas Pophale) SiO2 
 PCOD9363115
Probable space group: A M A 2
;
_chemical_formula_sum "Si O2"
_cell_formula_units_Z 64
_cell_length_a 8.835114
_cell_length_b 23.774976
_cell_length_c 19.552875
_cell_angle_alpha 90.000000
_cell_angle_beta 90.000000
_cell_angle_gamma 90.000000
_cell_volume 4107.171793
_symmetry_space_group_name_H-M "A M A 2"
_symmetry_group_IT_number 40
_symmetry_cell_setting 'orthorhombic'
loop_
_space_group_symop_operation_xyz
x,y,z
-x,-y,z
1/2-x,y,z
1/2+x,-y,z
x,1/2+y,1/2+z
-x,1/2-y,1/2+z
1/2-x,1/2+y,1/2+z
1/2+x,1/2-y,1/2+z
loop_
_atom_site_type_symbol
_atom_site_label
_atom_site_fract_x
_atom_site_fract_y
_atom_site_fract_z
Si Si1 0.069269 0.756444 0.742210
Si Si2 0.568037 0.438639 0.386009
Si Si3 0.569659 0.841457 0.520669
Si Si4 0.931288 0.335076 0.477076
Si Si5 0.931143 0.268025 0.894877
Si Si6 0.567816 0.381597 0.241451
Si Si7 0.569829 0.225672 0.102563
Si Si8 0.930335 0.561261 0.106581
O O1 0.250000 0.762600 0.736084
O O2 0.035751 0.726990 0.814811
O O3 0.994687 0.818252 0.743059
O O4 0.005112 0.724329 0.676641
O O5 0.500000 0.500000 0.394746
O O6 0.750000 0.442227 0.387370
O O7 0.521031 0.394263 0.444241
O O8 0.526525 0.412682 0.312087
O O9 0.750000 0.852645 0.524919
O O10 0.532037 0.820382 0.444171
O O11 0.538121 0.787251 0.569044
O O12 0.479526 0.894525 0.548370
O O13 0.750000 0.333864 0.482562
O O14 0.984074 0.286135 0.425121
O O15 0.004425 0.319452 0.549467
O O16 0.750000 0.258300 0.902922
O O17 0.750000 0.380106 0.235104
O O18 0.498229 0.414264 0.177228
O O19 0.750000 0.220284 0.107414
O O20 0.750000 0.557819 0.111630
O O21 0.000000 0.500000 0.094027
#
# Coordination Sequence:
#
# PCOD9363115 Si02
#       8
#     8   8   8   8   8   8   8   8
#     4  11  20  31  51  78 103 135 171 205 249 305
#     4  10  22  35  50  71  98 135 174 212 251 293
#     4   9  18  34  51  70  99 131 165 207 250 296
#     4  10  19  33  50  72  99 130 170 212 252 296
#     4   9  19  33  51  74 101 132 165 203 253 301
#     4  11  21  35  49  70 103 138 174 211 247 291
#     4  10  20  33  51  73 101 134 165 206 257 301
#     4  12  24  36  51  72  98 135 176 213 251 296
#
# _framework density 15.5825
#
# number of rings (size 3 to 8) (size 9 to 14) (size 15 to 20)
#    0.000    1.750    2.500    3.750    0.000    5.500 
#    0.000    0.000    0.000    0.000    0.000    0.875 
#    0.000    4.000    0.000    0.000    0.000    0.000 
#
# Total GULP energy -178650.495884 kJ/mol
# GULP energy per Si atom -5582.827996 kJ/mol
# Density = 1.554703 g / cm^3
# Si number density = 15.582500 Si / 1000 Ang^3
#
#
#
# Elastic Constant Matrix: (Units=GPa)
#
#
# Indices 1 2 3 4 5 6 
#
# 1 62.4706 44.9385 59.6117 0.0000 0.0000 0.0000
# 2 44.9385 98.6541 74.1573 0.0000 0.0000 0.0000
# 3 59.6117 74.1573 142.7727 0.0000 0.0000 0.0000
# 4 0.0000 0.0000 0.0000 18.2431 0.0000 0.0000
# 5 0.0000 0.0000 0.0000 0.0000 26.2975 0.0000
# 6 0.0000 0.0000 0.0000 0.0000 0.0000 25.0777
#
#
#
# Elastic Compliance Matrix: (Units=1/GPa)
#
#
# Indices 1 2 3 4 5 6 
#
# 1 0.029127 -0.006769 -0.008645 0.000000 0.000000 0.000000
# 2 -0.006769 0.018202 -0.006628 0.000000 0.000000 0.000000
# 3 -0.008645 -0.006628 0.014056 0.000000 0.000000 0.000000
# 4 0.000000 0.000000 0.000000 0.054815 0.000000 0.000000
# 5 0.000000 0.000000 0.000000 0.000000 0.038026 0.000000
# 6 0.000000 0.000000 0.000000 0.000000 0.000000 0.039876
#
#
# Mechanical properties :
#
#
# Convention : Reuss Voigt Hill
#
# Bulk Modulus (GPa) = 57.80231 73.47916 65.64074
# Shear Modulus (GPa) = 20.49564 22.26964 21.38264
#
# Velocity S-wave (km/s) = 3.63064 3.78450 3.70837
# Velocity P-wave (km/s) = 7.39934 8.14579 7.78152
#
# Compressibility (1/GPa) = 0.01730035
#
# Stress axis : x y z
#
# Youngs Moduli (GPa) = 34.33299 54.93892 71.14172
#
# Poissons Ratio (x) = 0.37188 0.61504
# Poissons Ratio (y) = 0.23240 0.47153
# Poissons Ratio (z) = 0.29682 0.36414
#
# Static dielectric constant tensor:
#      x y z
#    x 1.518490 0.000000 0.000000 
#    y 0.000000 1.489790 0.000000 
#    z 0.000000 0.000000 1.527380 
# 
# From -- ./inp_files/19742.got.cif
#   From: 2010.05.17/outbox.cif.g08.bks.cpg/sg40_10_cif.got.tgz:19742.got - 2010.06.03 18:35:42.
