data_PCOD9363466
_publ_section_title
;
Structure prediction by ZEFSAII (Michael W. Deem and Ramdas Pophale) SiO2 
 PCOD9363466
Probable space group: A M A 2
;
_chemical_formula_sum "Si O2"
_cell_formula_units_Z 64
_cell_length_a 14.879283
_cell_length_b 11.357573
_cell_length_c 16.563139
_cell_angle_alpha 90.000000
_cell_angle_beta 90.000000
_cell_angle_gamma 90.000000
_cell_volume 2799.046977
_symmetry_space_group_name_H-M "A M A 2"
_symmetry_group_IT_number 40
_symmetry_cell_setting 'orthorhombic'
loop_
_space_group_symop_operation_xyz
x,y,z
-x,-y,z
1/2-x,y,z
1/2+x,-y,z
x,1/2+y,1/2+z
-x,1/2-y,1/2+z
1/2-x,1/2+y,1/2+z
1/2+x,1/2-y,1/2+z
loop_
_atom_site_type_symbol
_atom_site_label
_atom_site_fract_x
_atom_site_fract_y
_atom_site_fract_z
Si Si1 0.349041 0.664310 0.594170
Si Si2 0.149636 0.421621 0.015757
Si Si3 0.904429 0.029107 0.354424
Si Si4 0.403676 0.730272 0.292922
Si Si5 0.524026 0.870253 0.954177
Si Si6 0.152103 0.724631 0.923241
Si Si7 0.893001 0.472070 0.173246
Si Si8 0.884780 0.715000 0.251139
O O1 0.250000 0.616099 0.575858
O O2 0.354234 0.799143 0.562519
O O3 0.426154 0.608803 0.539585
O O4 0.358908 0.679413 0.690362
O O5 0.250000 0.429526 0.980837
O O6 0.134018 0.526505 0.079210
O O7 0.079787 0.415930 0.943608
O O8 0.865126 0.137113 0.302148
O O9 0.861023 0.907318 0.385229
O O10 0.000000 0.000000 0.316071
O O11 0.409303 0.678601 0.384033
O O12 0.365397 0.639564 0.226789
O O13 0.508648 0.732196 0.265960
O O14 0.436350 0.784459 0.963675
O O15 0.500000 0.000000 0.922606
O O16 0.250000 0.731786 0.964713
O O17 0.155796 0.792570 0.838960
O O18 0.857055 0.591945 0.211489
O O19 0.000000 0.500000 0.174460
#
# Coordination Sequence:
#
# PCOD9363466 Si02
#       8
#     8   8   8   8   8   8   8   8
#     4  10  20  37  61  90 125 164 211 267 329 404
#     4  10  20  35  56  87 122 158 205 257 319 392
#     4  12  20  37  61  87 121 168 212 262 325 391
#     4  10  19  36  60  90 124 156 213 271 320 391
#     4  11  22  40  61  93 126 168 218 273 339 399
#     4  11  23  39  62  90 123 168 217 269 328 404
#     4   9  18  34  60  90 119 153 199 261 326 384
#     4   9  18  36  60  89 118 162 208 261 324 393
#
# _framework density 22.864924999999999
#
# number of rings (size 3 to 8) (size 9 to 14) (size 15 to 20)
#    0.000    1.750    3.750    3.000    0.000    3.000 
#    2.250    1.875    0.000    0.000    0.000    3.500 
#    0.000    0.000    0.000    0.000    0.000    0.000 
#
# Total GULP energy -178140.448504 kJ/mol
# GULP energy per Si atom -5566.889016 kJ/mol
# Density = 2.281288 g / cm^3
# Si number density = 22.864925 Si / 1000 Ang^3
#
#
#
# Elastic Constant Matrix: (Units=GPa)
#
#
# Indices 1 2 3 4 5 6 
#
# 1 71.7569 3.9872 -1.8202 0.0000 0.0000 0.0000
# 2 3.9872 90.5733 -4.8825 0.0000 0.0000 0.0000
# 3 -1.8202 -4.8825 45.6142 0.0000 0.0000 0.0000
# 4 0.0000 0.0000 0.0000 28.1299 0.0000 0.0000
# 5 0.0000 0.0000 0.0000 0.0000 -6.5560 0.0000
# 6 0.0000 0.0000 0.0000 0.0000 0.0000 -0.2513
#
#
#
# Elastic Compliance Matrix: (Units=1/GPa)
#
#
# Indices 1 2 3 4 5 6 
#
# 1 0.013981 -0.000589 0.000495 0.000000 0.000000 0.000000
# 2 -0.000589 0.011130 0.001168 0.000000 0.000000 0.000000
# 3 0.000495 0.001168 0.022068 0.000000 0.000000 0.000000
# 4 0.000000 0.000000 0.000000 0.035549 0.000000 0.000000
# 5 0.000000 0.000000 0.000000 0.000000 -0.152533 0.000000
# 6 0.000000 0.000000 0.000000 0.000000 0.000000 -3.978536
#
#
# Mechanical properties :
#
#
# Convention : Reuss Voigt Hill
#
# Bulk Modulus (GPa) = 20.27310 22.50148 21.38729
# Shear Modulus (GPa) = -1.23945 18.30850 8.53452
#
# Velocity S-wave (km/s) = -0.73706 2.83278 1.93409
# Velocity P-wave (km/s) = 2.85681 4.53452 3.78968
#
# Compressibility (1/GPa) = 0.04932644
#
# Stress axis : x y z
#
# Youngs Moduli (GPa) = 71.52456 89.85004 45.31496
#
# Poissons Ratio (x) = 0.05290 -0.02243
# Poissons Ratio (y) = 0.04211 -0.05292
# Poissons Ratio (z) = -0.03540 -0.10493
#
# Static dielectric constant tensor:
#      x y z
#    x 1.978180 0.000000 0.000000 
#    y 0.000000 1.955340 0.000000 
#    z 0.000000 0.000000 1.918610 
# 
# From -- ./inp_files/20782.got.cif
#   From: 2010.05.17/outbox.cif.g08.bks.cpg/sg40_11_cif.got.tgz:20782.got - 2010.06.03 18:35:42.
