data_PCOD9363789
_publ_section_title
;
Structure prediction by ZEFSAII (Michael W. Deem and Ramdas Pophale) SiO2 
 PCOD9363789
Probable space group: A M A 2
;
_chemical_formula_sum "Si O2"
_cell_formula_units_Z 36
_cell_length_a 20.420016
_cell_length_b 9.004770
_cell_length_c 10.092103
_cell_angle_alpha 90.000000
_cell_angle_beta 90.000000
_cell_angle_gamma 90.000000
_cell_volume 1855.711149
_symmetry_space_group_name_H-M "A M A 2"
_symmetry_group_IT_number 40
_symmetry_cell_setting 'orthorhombic'
loop_
_space_group_symop_operation_xyz
x,y,z
-x,-y,z
1/2-x,y,z
1/2+x,-y,z
x,1/2+y,1/2+z
-x,1/2-y,1/2+z
1/2-x,1/2+y,1/2+z
1/2+x,1/2-y,1/2+z
loop_
_atom_site_type_symbol
_atom_site_label
_atom_site_fract_x
_atom_site_fract_y
_atom_site_fract_z
Si Si1 0.387688 0.811841 0.859380
Si Si2 0.577831 0.525962 0.830340
Si Si3 0.322688 0.460182 0.592123
Si Si4 0.897113 0.755069 0.064628
Si Si5 0.000000 0.000000 0.998157
O O1 0.396364 0.635490 0.874101
O O2 0.384475 0.831338 0.701284
O O3 0.448643 0.909397 0.909777
O O4 0.331497 0.864479 0.959249
O O5 0.500000 0.500000 0.812751
O O6 0.620880 0.574384 0.701612
O O7 0.590098 0.646895 0.943475
O O8 0.250000 0.444147 0.647921
O O9 0.337237 0.630234 0.549919
O O10 0.959661 0.868314 0.071874
#
# Coordination Sequence:
#
# PCOD9363789 Si02
#       5
#     8   8   8   8   4
#     4  10  23  35  64  92 131 163 210 257 319 376
#     4  11  23  40  68 100 129 162 211 269 326 382
#     4  10  25  46  64  89 131 177 216 259 316 382
#     4  10  23  39  64  94 126 166 209 260 316 378
#     4  10  20  34  58  92 130 162 194 256 322 374
#
# _framework density 19.399569
#
# number of rings (size 3 to 8) (size 9 to 14) (size 15 to 20)
#    0.000    1.778    2.222    0.000   15.556    8.000 
#    0.000    0.000    0.000    0.000    0.000    0.000 
#    0.000    0.000    0.000    0.000    0.000    0.000 
#
# Total GULP energy -100265.402413 kJ/mol
# GULP energy per Si atom -5570.300134 kJ/mol
# Density = 1.935542 g / cm^3
# Si number density = 19.399569 Si / 1000 Ang^3
#
#
#
# Elastic Constant Matrix: (Units=GPa)
#
#
# Indices 1 2 3 4 5 6 
#
# 1 99.2584 9.3100 52.8040 0.0000 0.0000 0.0000
# 2 9.3100 49.9865 64.9845 0.0000 0.0000 0.0000
# 3 52.8040 64.9845 152.5212 0.0000 0.0000 0.0000
# 4 0.0000 0.0000 0.0000 45.8741 0.0000 0.0000
# 5 0.0000 0.0000 0.0000 0.0000 11.3414 0.0000
# 6 0.0000 0.0000 0.0000 0.0000 0.0000 10.9783
#
#
#
# Elastic Compliance Matrix: (Units=1/GPa)
#
#
# Indices 1 2 3 4 5 6 
#
# 1 0.013665 0.008082 -0.008175 0.000000 0.000000 0.000000
# 2 0.008082 0.049626 -0.023942 0.000000 0.000000 0.000000
# 3 -0.008175 -0.023942 0.019588 0.000000 0.000000 0.000000
# 4 0.000000 0.000000 0.000000 0.021799 0.000000 0.000000
# 5 0.000000 0.000000 0.000000 0.000000 0.088172 0.000000
# 6 0.000000 0.000000 0.000000 0.000000 0.000000 0.091089
#
#
# Mechanical properties :
#
#
# Convention : Reuss Voigt Hill
#
# Bulk Modulus (GPa) = 28.72763 61.77364 45.25064
# Shear Modulus (GPa) = 14.55135 25.28328 19.91731
#
# Velocity S-wave (km/s) = 2.74174 3.61403 3.20767
# Velocity P-wave (km/s) = 4.98632 7.02331 6.09058
#
# Compressibility (1/GPa) = 0.03480969
#
# Stress axis : x y z
#
# Youngs Moduli (GPa) = 73.17736 20.15080 51.05283
#
# Poissons Ratio (x) = -0.16286 0.41734
# Poissons Ratio (y) = -0.59143 1.22231
# Poissons Ratio (z) = 0.59820 0.48245
#
# Static dielectric constant tensor:
#      x y z
#    x 1.707210 0.000000 0.000000 
#    y 0.000000 1.663020 0.000000 
#    z 0.000000 0.000000 1.726750 
# 
# From -- ./inp_files/7982.got.cif
#   From: 2010.05.17/outbox.cif.g08.bks.cpg/sg40_4_cif.got.tgz:7982.got - 2010.06.03 18:35:42.
