data_PCOD9363366
_publ_section_title
;
Structure prediction by ZEFSAII (Michael W. Deem and Ramdas Pophale) SiO2 
 PCOD9363366
Probable space group: A M A 2
;
_chemical_formula_sum "Si O2"
_cell_formula_units_Z 56
_cell_length_a 8.970375
_cell_length_b 20.536629
_cell_length_c 15.875540
_cell_angle_alpha 90.000000
_cell_angle_beta 90.000000
_cell_angle_gamma 90.000000
_cell_volume 2924.612035
_symmetry_space_group_name_H-M "A M A 2"
_symmetry_group_IT_number 40
_symmetry_cell_setting 'orthorhombic'
loop_
_space_group_symop_operation_xyz
x,y,z
-x,-y,z
1/2-x,y,z
1/2+x,-y,z
x,1/2+y,1/2+z
-x,1/2-y,1/2+z
1/2-x,1/2+y,1/2+z
1/2+x,1/2-y,1/2+z
loop_
_atom_site_type_symbol
_atom_site_label
_atom_site_fract_x
_atom_site_fract_y
_atom_site_fract_z
Si Si1 0.068725 0.688292 0.174350
Si Si2 0.927525 0.071822 0.582079
Si Si3 0.075090 0.929203 0.077598
Si Si4 0.430308 0.287186 0.522117
Si Si5 0.578942 0.931174 0.422952
Si Si6 0.580232 0.254827 0.347581
Si Si7 0.085507 0.889716 0.272816
O O1 0.250000 0.684921 0.172418
O O2 0.026232 0.743881 0.104639
O O3 0.021688 0.702224 0.270263
O O4 0.994361 0.620726 0.149280
O O5 0.750000 0.066810 0.582710
O O6 0.983068 0.104890 0.493826
O O7 0.000000 0.000000 0.592318
O O8 0.250000 0.936815 0.057391
O O9 0.019829 0.863165 0.030950
O O10 0.066127 0.908253 0.176215
O O11 0.000000 0.000000 0.064573
O O12 0.250000 0.287260 0.521899
O O13 0.487763 0.258084 0.433632
O O14 0.750000 0.930892 0.447475
O O15 0.553115 0.912649 0.327471
O O16 0.500000 0.000000 0.426930
O O17 0.750000 0.273637 0.369315
O O18 0.590079 0.185341 0.299915
O O19 0.250000 0.917147 0.299237
#
# Coordination Sequence:
#
# PCOD9363366 Si02
#       7
#     8   8   8   8   8   8   8
#     4  10  20  39  62  85 117 156 194 242 303 360
#     4  11  22  37  57  83 114 151 193 240 293 354
#     4  10  21  38  59  84 118 162 204 251 308 363
#     4  10  21  39  61  86 120 161 202 249 305 362
#     4  11  21  33  50  77 112 150 188 230 283 347
#     4  10  21  37  60  87 116 153 196 244 300 359
#     4  10  19  35  56  82 116 151 191 240 300 361
#
# _framework density 19.147839999999999
#
# number of rings (size 3 to 8) (size 9 to 14) (size 15 to 20)
#    0.000    1.714    1.429    4.714    0.000    6.286 
#    0.000    0.714    0.000    1.714    0.000    0.000 
#    0.000    0.000    0.000    0.000    0.000    0.000 
#
# Total GULP energy -155922.187701 kJ/mol
# GULP energy per Si atom -5568.649561 kJ/mol
# Density = 1.910426 g / cm^3
# Si number density = 19.147840 Si / 1000 Ang^3
#
#
#
# Elastic Constant Matrix: (Units=GPa)
#
#
# Indices 1 2 3 4 5 6 
#
# 1 51.2564 28.0300 22.7903 0.0000 0.0000 0.0000
# 2 28.0300 97.1718 23.8229 0.0000 0.0000 0.0000
# 3 22.7903 23.8229 69.9617 0.0000 0.0000 0.0000
# 4 0.0000 0.0000 0.0000 26.6036 0.0000 0.0000
# 5 0.0000 0.0000 0.0000 0.0000 -6.7412 0.0000
# 6 0.0000 0.0000 0.0000 0.0000 0.0000 16.6640
#
#
#
# Elastic Compliance Matrix: (Units=1/GPa)
#
#
# Indices 1 2 3 4 5 6 
#
# 1 0.025498 -0.005803 -0.006330 0.000000 0.000000 0.000000
# 2 -0.005803 0.012549 -0.002383 0.000000 0.000000 0.000000
# 3 -0.006330 -0.002383 0.017167 0.000000 0.000000 0.000000
# 4 0.000000 0.000000 0.000000 0.037589 0.000000 0.000000
# 5 0.000000 0.000000 0.000000 0.000000 -0.148342 0.000000
# 6 0.000000 0.000000 0.000000 0.000000 0.000000 0.060010
#
#
# Mechanical properties :
#
#
# Convention : Reuss Voigt Hill
#
# Bulk Modulus (GPa) = 38.19403 40.85293 39.52348
# Shear Modulus (GPa) = 118.39923 16.88838 67.64381
#
# Velocity S-wave (km/s) = 7.87201 2.97307 5.95011
# Velocity P-wave (km/s) = 10.12990 5.75911 8.23961
#
# Compressibility (1/GPa) = 0.02618210
#
# Stress axis : x y z
#
# Youngs Moduli (GPa) = 39.21910 79.68638 58.25165
#
# Poissons Ratio (x) = 0.46244 0.36873
# Poissons Ratio (y) = 0.22760 0.13880
# Poissons Ratio (z) = 0.24825 0.18987
#
# Static dielectric constant tensor:
#      x y z
#    x 1.669060 0.000000 0.000000 
#    y 0.000000 6.460250 0.000000 
#    z 0.000000 0.000000 1.849670 
# 
# From -- ./inp_files/15281.got.cif
#   From: 2010.05.17/outbox.cif.g08.bks.cpg/sg40_8_cif.got.tgz:15281.got - 2010.06.03 18:35:42.
