data_PCOD9363773
_publ_section_title
;
Structure prediction by ZEFSAII (Michael W. Deem and Ramdas Pophale) SiO2 
 PCOD9363773
Probable space group: A M A 2
;
_chemical_formula_sum "Si O2"
_cell_formula_units_Z 64
_cell_length_a 9.087128
_cell_length_b 25.277272
_cell_length_c 15.346188
_cell_angle_alpha 90.000000
_cell_angle_beta 90.000000
_cell_angle_gamma 90.000000
_cell_volume 3524.985716
_symmetry_space_group_name_H-M "A M A 2"
_symmetry_group_IT_number 40
_symmetry_cell_setting 'orthorhombic'
loop_
_space_group_symop_operation_xyz
x,y,z
-x,-y,z
1/2-x,y,z
1/2+x,-y,z
x,1/2+y,1/2+z
-x,1/2-y,1/2+z
1/2-x,1/2+y,1/2+z
1/2+x,1/2-y,1/2+z
loop_
_atom_site_type_symbol
_atom_site_label
_atom_site_fract_x
_atom_site_fract_y
_atom_site_fract_z
Si Si1 0.424980 0.848200 0.732410
Si Si2 0.422650 0.761085 0.196754
Si Si3 0.074247 0.161992 0.915992
Si Si4 0.074719 0.109564 0.438048
Si Si5 0.073373 0.557062 0.751813
Si Si6 0.421211 0.283516 0.902415
Si Si7 0.572926 0.859038 0.105945
Si Si8 0.425492 0.444532 0.102196
O O1 0.250000 0.839770 0.735892
O O2 0.500506 0.795956 0.692332
O O3 0.488581 0.854600 0.829722
O O4 0.455333 0.899382 0.673865
O O5 0.250000 0.756131 0.177309
O O6 0.436699 0.780251 0.297493
O O7 0.498677 0.805106 0.138023
O O8 0.250000 0.158548 0.898815
O O9 0.043052 0.224248 0.933238
O O10 0.037945 0.131424 0.004600
O O11 0.250000 0.106464 0.450094
O O12 0.037472 0.086205 0.342691
O O13 0.020813 0.170148 0.439830
O O14 0.992868 0.076129 0.511612
O O15 0.250000 0.551282 0.748611
O O16 0.027983 0.594208 0.671153
O O17 0.000000 0.500000 0.748547
O O18 0.250000 0.294671 0.923138
O O19 0.750000 0.852791 0.112238
O O20 0.500000 0.500000 0.125432
O O21 0.250000 0.450931 0.093992
#
# Coordination Sequence:
#
# PCOD9363773 Si02
#       8
#     8   8   8   8   8   8   8   8
#     4  10  22  40  61  84 115 152 192 243 298 349
#     4  10  20  34  56  87 118 153 193 234 284 343
#     4   9  20  37  59  85 118 156 193 239 292 346
#     4  11  22  36  57  86 118 155 193 237 289 347
#     4  10  22  38  57  82 114 154 195 234 284 339
#     4   9  18  33  52  81 118 153 190 231 281 339
#     4  10  20  37  58  84 119 156 194 238 291 345
#     4  11  25  43  62  85 113 151 197 246 299 350
#
# _framework density 18.156102000000001
#
# number of rings (size 3 to 8) (size 9 to 14) (size 15 to 20)
#    0.000    2.000    1.250    2.625    1.750    7.000 
#    0.000    0.625    0.000    3.000    0.000    0.000 
#    0.000    0.000    0.000    0.000    0.000    0.000 
#
# Total GULP energy -178742.912554 kJ/mol
# GULP energy per Si atom -5585.716017 kJ/mol
# Density = 1.811478 g / cm^3
# Si number density = 18.156102 Si / 1000 Ang^3
#
#
#
# Elastic Constant Matrix: (Units=GPa)
#
#
# Indices 1 2 3 4 5 6 
#
# 1 53.2934 58.3422 43.8747 0.0000 0.0000 0.0000
# 2 58.3422 103.6533 55.7873 0.0000 0.0000 0.0000
# 3 43.8747 55.7873 88.7829 0.0000 0.0000 0.0000
# 4 0.0000 0.0000 0.0000 21.8061 0.0000 0.0000
# 5 0.0000 0.0000 0.0000 0.0000 -254.5091 0.0000
# 6 0.0000 0.0000 0.0000 0.0000 0.0000 32.7796
#
#
#
# Elastic Compliance Matrix: (Units=1/GPa)
#
#
# Indices 1 2 3 4 5 6 
#
# 1 0.056159 -0.025193 -0.011923 0.000000 0.000000 0.000000
# 2 -0.025193 0.025879 -0.003811 0.000000 0.000000 0.000000
# 3 -0.011923 -0.003811 0.019550 0.000000 0.000000 0.000000
# 4 0.000000 0.000000 0.000000 0.045859 0.000000 0.000000
# 5 0.000000 0.000000 0.000000 0.000000 -0.003929 0.000000
# 6 0.000000 0.000000 0.000000 0.000000 0.000000 0.030507
#
#
# Mechanical properties :
#
#
# Convention : Reuss Voigt Hill
#
# Bulk Modulus (GPa) = 50.67250 62.41535 56.54392
# Shear Modulus (GPa) = 19.05082 -34.13634 -7.54276
#
# Velocity S-wave (km/s) = 3.24277 -4.34078 -2.04044
# Velocity P-wave (km/s) = 6.48002 3.05426 5.06553
#
# Compressibility (1/GPa) = 0.01973457
#
# Stress axis : x y z
#
# Youngs Moduli (GPa) = 17.80665 38.64164 51.15016
#
# Poissons Ratio (x) = 0.97348 0.60984
# Poissons Ratio (y) = 0.44860 0.19496
# Poissons Ratio (z) = 0.21230 0.14728
#
# Static dielectric constant tensor:
#      x y z
#    x 1.605250 0.000000 0.000000 
#    y 0.000000 1.592160 0.000000 
#    z 0.000000 0.000000 1.632830 
# 
# From -- ./inp_files/15550.got.cif
#   From: 2010.05.17/outbox.cif.g08.bks.cpg/sg40_8_cif.got.tgz:15550.got - 2010.06.03 18:35:42.
