data_PCOD9363614
_publ_section_title
;
Structure prediction by ZEFSAII (Michael W. Deem and Ramdas Pophale) SiO2 
 PCOD9363614
Probable space group: A M A 2
;
_chemical_formula_sum "Si O2"
_cell_formula_units_Z 48
_cell_length_a 8.782366
_cell_length_b 24.344451
_cell_length_c 13.951777
_cell_angle_alpha 90.000000
_cell_angle_beta 90.000000
_cell_angle_gamma 90.000000
_cell_volume 2982.916135
_symmetry_space_group_name_H-M "A M A 2"
_symmetry_group_IT_number 40
_symmetry_cell_setting 'orthorhombic'
loop_
_space_group_symop_operation_xyz
x,y,z
-x,-y,z
1/2-x,y,z
1/2+x,-y,z
x,1/2+y,1/2+z
-x,1/2-y,1/2+z
1/2-x,1/2+y,1/2+z
1/2+x,1/2-y,1/2+z
loop_
_atom_site_type_symbol
_atom_site_label
_atom_site_fract_x
_atom_site_fract_y
_atom_site_fract_z
Si Si1 0.933084 0.228826 0.048250
Si Si2 0.432365 0.833380 0.440736
Si Si3 0.068895 0.558645 0.260644
Si Si4 0.931719 0.663869 0.358739
Si Si5 0.433086 0.559435 0.036583
Si Si6 0.567082 0.277646 0.755903
O O1 0.750000 0.234250 0.052507
O O2 0.000446 0.213503 0.150810
O O3 0.970284 0.184378 0.965726
O O4 0.003142 0.286315 0.011815
O O5 0.250000 0.832584 0.442159
O O6 0.495577 0.891730 0.475151
O O7 0.494526 0.817012 0.335919
O O8 0.250000 0.555196 0.265226
O O9 0.000000 0.500000 0.289468
O O10 0.011198 0.608881 0.324116
O O11 0.026280 0.568531 0.148943
O O12 0.750000 0.656083 0.354068
O O13 0.970152 0.715362 0.289847
O O14 0.500000 0.500000 0.009655
O O15 0.250000 0.559387 0.028253
O O16 0.750000 0.283239 0.757206
#
# Coordination Sequence:
#
# PCOD9363614 Si02
#       6
#     8   8   8   8   8   8
#     4  10  20  34  51  74 103 134 167 207 251 298
#     4  11  21  33  51  75 103 136 169 205 249 298
#     4  10  20  32  50  73  99 130 164 202 245 292
#     4   9  19  33  49  71 101 131 162 201 245 291
#     4  10  20  34  51  74 102 132 167 208 251 299
#     4  10  20  34  52  75 102 133 167 207 251 298
#
# _framework density 16.091636000000001
#
# number of rings (size 3 to 8) (size 9 to 14) (size 15 to 20)
#    0.000    2.000    0.000    5.500    0.000    8.667 
#    0.000    0.000    0.000    1.000    0.000    2.333 
#    0.000    0.000    0.000    0.000    0.000    0.000 
#
# Total GULP energy -134002.835418 kJ/mol
# GULP energy per Si atom -5583.451476 kJ/mol
# Density = 1.605501 g / cm^3
# Si number density = 16.091636 Si / 1000 Ang^3
#
#
#
# Elastic Constant Matrix: (Units=GPa)
#
#
# Indices 1 2 3 4 5 6 
#
# 1 82.4914 67.7190 54.4868 0.0000 0.0000 0.0000
# 2 67.7190 153.1875 81.3515 0.0000 0.0000 0.0000
# 3 54.4868 81.3515 111.2867 0.0000 0.0000 0.0000
# 4 0.0000 0.0000 0.0000 18.3751 0.0000 0.0000
# 5 0.0000 0.0000 0.0000 0.0000 29.3220 0.0000
# 6 0.0000 0.0000 0.0000 0.0000 0.0000 31.0177
#
#
#
# Elastic Compliance Matrix: (Units=1/GPa)
#
#
# Indices 1 2 3 4 5 6 
#
# 1 0.021046 -0.006263 -0.005726 0.000000 0.000000 0.000000
# 2 -0.006263 0.012534 -0.006096 0.000000 0.000000 0.000000
# 3 -0.005726 -0.006096 0.016246 0.000000 0.000000 0.000000
# 4 0.000000 0.000000 0.000000 0.054422 0.000000 0.000000
# 5 0.000000 0.000000 0.000000 0.000000 0.034104 0.000000
# 6 0.000000 0.000000 0.000000 0.000000 0.000000 0.032240
#
#
# Mechanical properties :
#
#
# Convention : Reuss Voigt Hill
#
# Bulk Modulus (GPa) = 73.23048 83.78671 78.50859
# Shear Modulus (GPa) = 23.66165 25.30351 24.48258
#
# Velocity S-wave (km/s) = 3.83878 3.96973 3.90481
# Velocity P-wave (km/s) = 8.07809 8.55530 8.32012
#
# Compressibility (1/GPa) = 0.01365552
#
# Stress axis : x y z
#
# Youngs Moduli (GPa) = 47.51520 79.78373 61.55514
#
# Poissons Ratio (x) = 0.49967 0.35247
# Poissons Ratio (y) = 0.29758 0.37524
# Poissons Ratio (z) = 0.27208 0.48637
#
# Static dielectric constant tensor:
#      x y z
#    x 1.531830 0.000000 0.000000 
#    y 0.000000 1.512810 0.000000 
#    z 0.000000 0.000000 1.528030 
# 
# From -- ./inp_files/10240.got.cif
#   From: 2010.05.17/outbox.cif.g08.bks.cpg/sg40_6_cif.got.tgz:10240.got - 2010.06.03 18:35:42.
