data_PCOD9363700
_publ_section_title
;
Structure prediction by ZEFSAII (Michael W. Deem and Ramdas Pophale) SiO2 
 PCOD9363700
Probable space group: A M A 2
;
_chemical_formula_sum "Si O2"
_cell_formula_units_Z 52
_cell_length_a 23.903726
_cell_length_b 12.639353
_cell_length_c 7.333994
_cell_angle_alpha 90.000000
_cell_angle_beta 90.000000
_cell_angle_gamma 90.000000
_cell_volume 2215.802232
_symmetry_space_group_name_H-M "A M A 2"
_symmetry_group_IT_number 40
_symmetry_cell_setting 'orthorhombic'
loop_
_space_group_symop_operation_xyz
x,y,z
-x,-y,z
1/2-x,y,z
1/2+x,-y,z
x,1/2+y,1/2+z
-x,1/2-y,1/2+z
1/2-x,1/2+y,1/2+z
1/2+x,1/2-y,1/2+z
loop_
_atom_site_type_symbol
_atom_site_label
_atom_site_fract_x
_atom_site_fract_y
_atom_site_fract_z
Si Si1 0.127921 0.154229 0.445700
Si Si2 0.131302 0.881828 0.040630
Si Si3 0.868844 0.388042 0.530024
Si Si4 0.944743 0.704775 0.862309
Si Si5 0.250000 0.708560 0.530133
Si Si6 0.250000 0.397211 0.742614
Si Si7 0.750000 0.871149 0.420210
Si Si8 0.984242 0.390439 0.160459
O O1 0.124118 0.280304 0.413137
O O2 0.125033 0.100618 0.248814
O O3 0.190919 0.137644 0.522420
O O4 0.078781 0.117036 0.579032
O O5 0.090100 0.854386 0.207731
O O6 0.194230 0.883780 0.121969
O O7 0.118461 0.995494 0.955136
O O8 0.905945 0.290717 0.463341
O O9 0.805600 0.356312 0.486618
O O10 0.990958 0.783161 0.775749
O O11 0.973459 0.621531 0.992931
O O12 0.250000 0.814831 0.411255
O O13 0.250000 0.714431 0.752894
O O14 0.250000 0.514690 0.824423
O O15 0.000000 0.500000 0.255722
#
# Coordination Sequence:
#
# PCOD9363700 Si02
#       8
#     8   8   8   8   4   4   4   8
#     4  10  22  41  65  95 123 166 212 253 313 378
#     4  11  22  39  67  92 127 172 209 259 316 372
#     4  11  21  41  63  90 130 165 210 261 316 369
#     4  11  25  41  64  94 123 169 214 264 311 376
#     4  10  20  33  62  93 121 166 205 253 310 375
#     4  12  19  37  67  92 130 168 207 253 319 378
#     4  10  21  40  63  93 131 164 206 260 313 371
#     4  11  25  43  65  93 129 166 212 264 316 372
#
# _framework density 23.467797000000001
#
# number of rings (size 3 to 8) (size 9 to 14) (size 15 to 20)
#    0.000    1.231    4.615    2.308    0.000    3.692 
#    0.000    5.385    0.000    0.000    0.000    0.000 
#    0.000    0.000    0.000    0.000    0.000    0.000 
#
# Total GULP energy -145442.936202 kJ/mol
# GULP energy per Si atom -5593.959085 kJ/mol
# Density = 2.341438 g / cm^3
# Si number density = 23.467797 Si / 1000 Ang^3
#
#
#
# Elastic Constant Matrix: (Units=GPa)
#
#
# Indices 1 2 3 4 5 6 
#
# 1 113.4570 33.6299 3.5522 0.0000 0.0000 0.0000
# 2 33.6299 106.7568 8.6806 0.0000 0.0000 0.0000
# 3 3.5522 8.6806 30.7991 0.0000 0.0000 0.0000
# 4 0.0000 0.0000 0.0000 32.4511 0.0000 0.0000
# 5 0.0000 0.0000 0.0000 0.0000 27.1020 0.0000
# 6 0.0000 0.0000 0.0000 0.0000 0.0000 27.0826
#
#
#
# Elastic Compliance Matrix: (Units=1/GPa)
#
#
# Indices 1 2 3 4 5 6 
#
# 1 0.009724 -0.003042 -0.000264 0.000000 0.000000 0.000000
# 2 -0.003042 0.010538 -0.002619 0.000000 0.000000 0.000000
# 3 -0.000264 -0.002619 0.033237 0.000000 0.000000 0.000000
# 4 0.000000 0.000000 0.000000 0.030816 0.000000 0.000000
# 5 0.000000 0.000000 0.000000 0.000000 0.036898 0.000000
# 6 0.000000 0.000000 0.000000 0.000000 0.000000 0.036924
#
#
# Mechanical properties :
#
#
# Convention : Reuss Voigt Hill
#
# Bulk Modulus (GPa) = 24.01030 38.08204 31.04617
# Shear Modulus (GPa) = 27.19314 31.00382 29.09848
#
# Velocity S-wave (km/s) = 3.40772 3.63867 3.52509
# Velocity P-wave (km/s) = 5.07315 5.82373 5.46135
#
# Compressibility (1/GPa) = 0.04164879
#
# Stress axis : x y z
#
# Youngs Moduli (GPa) = 102.84087 94.89260 30.08673
#
# Poissons Ratio (x) = 0.28863 0.00795
# Poissons Ratio (y) = 0.31280 0.07881
# Poissons Ratio (z) = 0.02717 0.24856
#
# Static dielectric constant tensor:
#      x y z
#    x 1.989800 0.000000 0.000000 
#    y 0.000000 1.838240 0.000000 
#    z 0.000000 0.000000 1.897030 
# 
# From -- ./inp_files/9134.got.cif
#   From: 2010.05.17/outbox.cif.g08.bks.cpg/sg40_5_cif.got.tgz:9134.got - 2010.06.03 18:35:42.
