data_PCOD9363382
_publ_section_title
;
Structure prediction by ZEFSAII (Michael W. Deem and Ramdas Pophale) SiO2 
 PCOD9363382
Probable space group: A M A 2
;
_chemical_formula_sum "Si O2"
_cell_formula_units_Z 64
_cell_length_a 8.794806
_cell_length_b 21.143144
_cell_length_c 20.109484
_cell_angle_alpha 90.000000
_cell_angle_beta 90.000000
_cell_angle_gamma 90.000000
_cell_volume 3739.355528
_symmetry_space_group_name_H-M "A M A 2"
_symmetry_group_IT_number 40
_symmetry_cell_setting 'orthorhombic'
loop_
_space_group_symop_operation_xyz
x,y,z
-x,-y,z
1/2-x,y,z
1/2+x,-y,z
x,1/2+y,1/2+z
-x,1/2-y,1/2+z
1/2-x,1/2+y,1/2+z
1/2+x,1/2-y,1/2+z
loop_
_atom_site_type_symbol
_atom_site_label
_atom_site_fract_x
_atom_site_fract_y
_atom_site_fract_z
Si Si1 0.930821 0.617198 0.845850
Si Si2 0.931308 0.732877 0.493234
Si Si3 0.432652 0.566284 0.711635
Si Si4 0.433031 0.314217 0.205196
Si Si5 0.932740 0.812207 0.126258
Si Si6 0.068124 0.566758 0.129626
Si Si7 0.432746 0.118087 0.486871
Si Si8 0.432889 0.257472 0.344717
O O1 0.750000 0.612407 0.841713
O O2 0.007663 0.579258 0.786005
O O3 0.988100 0.596946 0.918908
O O4 0.984692 0.690124 0.837847
O O5 0.750000 0.727735 0.501549
O O6 0.970593 0.807644 0.498802
O O7 0.969971 0.714989 0.417325
O O8 0.010322 0.693917 0.551139
O O9 0.500000 0.500000 0.687690
O O10 0.250000 0.564102 0.712331
O O11 0.482581 0.625236 0.665610
O O12 0.250000 0.319618 0.198952
O O13 0.482379 0.251185 0.165284
O O14 0.508893 0.375576 0.174065
O O15 0.469051 0.301621 0.282446
O O16 0.750000 0.812278 0.126895
O O17 0.250000 0.565062 0.131777
O O18 0.000000 0.500000 0.150993
O O19 0.022223 0.580779 0.052987
O O20 0.250000 0.114449 0.478200
O O21 0.250000 0.244850 0.343522
#
# Coordination Sequence:
#
# PCOD9363382 Si02
#       8
#     8   8   8   8   8   8   8   8
#     4  11  21  32  52  81 110 145 184 223 264 318
#     4   9  17  31  54  81 109 139 177 223 268 316
#     4  11  23  40  56  77 109 147 184 224 273 325
#     4  10  19  35  58  81 108 144 181 225 275 322
#     4  10  20  34  56  81 109 142 177 223 274 321
#     4  11  23  38  55  79 110 146 185 227 272 324
#     4   9  19  35  52  73 108 149 183 222 265 316
#     4   9  18  35  55  79 111 146 179 221 274 320
#
# _framework density 17.115248000000001
#
# number of rings (size 3 to 8) (size 9 to 14) (size 15 to 20)
#    0.000    2.000    2.500    2.625    0.000    5.000 
#    0.000    1.250    0.000    0.750    0.000    1.750 
#    0.000    0.000    0.000    0.000    0.000    0.000 
#
# Total GULP energy -178635.078682 kJ/mol
# GULP energy per Si atom -5582.346209 kJ/mol
# Density = 1.707629 g / cm^3
# Si number density = 17.115248 Si / 1000 Ang^3
#
#
#
# Elastic Constant Matrix: (Units=GPa)
#
#
# Indices 1 2 3 4 5 6 
#
# 1 36.5596 35.3639 32.1132 0.0000 0.0000 0.0000
# 2 35.3639 116.2328 65.7107 0.0000 0.0000 0.0000
# 3 32.1132 65.7107 113.1406 0.0000 0.0000 0.0000
# 4 0.0000 0.0000 0.0000 22.1880 0.0000 0.0000
# 5 0.0000 0.0000 0.0000 0.0000 28.1782 0.0000
# 6 0.0000 0.0000 0.0000 0.0000 0.0000 22.2979
#
#
#
# Elastic Compliance Matrix: (Units=1/GPa)
#
#
# Indices 1 2 3 4 5 6 
#
# 1 0.041899 -0.008970 -0.006683 0.000000 0.000000 0.000000
# 2 -0.008970 0.014729 -0.006009 0.000000 0.000000 0.000000
# 3 -0.006683 -0.006009 0.014225 0.000000 0.000000 0.000000
# 4 0.000000 0.000000 0.000000 0.045069 0.000000 0.000000
# 5 0.000000 0.000000 0.000000 0.000000 0.035488 0.000000
# 6 0.000000 0.000000 0.000000 0.000000 0.000000 0.044847
#
#
# Mechanical properties :
#
#
# Convention : Reuss Voigt Hill
#
# Bulk Modulus (GPa) = 36.32279 59.14540 47.73410
# Shear Modulus (GPa) = 20.09981 23.38249 21.74115
#
# Velocity S-wave (km/s) = 3.43064 3.70020 3.56796
# Velocity P-wave (km/s) = 6.07955 7.27237 6.70255
#
# Compressibility (1/GPa) = 0.02753093
#
# Stress axis : x y z
#
# Youngs Moduli (GPa) = 23.86690 67.89118 70.29768
#
# Poissons Ratio (x) = 0.60897 0.46979
# Poissons Ratio (y) = 0.21408 0.42240
# Poissons Ratio (z) = 0.15950 0.40794
#
# Static dielectric constant tensor:
#      x y z
#    x 1.574910 0.000000 0.000000 
#    y 0.000000 1.565920 0.000000 
#    z 0.000000 0.000000 1.583710 
# 
# From -- ./inp_files/22431.got.cif
#   From: 2010.05.17/outbox.cif.g08.bks.cpg/sg40_12_cif.got.tgz:22431.got - 2010.06.03 18:35:42.
