data_PCOD9363682
_publ_section_title
;
Structure prediction by ZEFSAII (Michael W. Deem and Ramdas Pophale) SiO2 
 PCOD9363682
Probable space group: A M A 2
;
_chemical_formula_sum "Si O2"
_cell_formula_units_Z 56
_cell_length_a 8.684290
_cell_length_b 24.473897
_cell_length_c 13.890936
_cell_angle_alpha 90.000000
_cell_angle_beta 90.000000
_cell_angle_gamma 90.000000
_cell_volume 2952.357576
_symmetry_space_group_name_H-M "A M A 2"
_symmetry_group_IT_number 40
_symmetry_cell_setting 'orthorhombic'
loop_
_space_group_symop_operation_xyz
x,y,z
-x,-y,z
1/2-x,y,z
1/2+x,-y,z
x,1/2+y,1/2+z
-x,1/2-y,1/2+z
1/2-x,1/2+y,1/2+z
1/2+x,1/2-y,1/2+z
loop_
_atom_site_type_symbol
_atom_site_label
_atom_site_fract_x
_atom_site_fract_y
_atom_site_fract_z
Si Si1 0.434868 0.665151 0.484000
Si Si2 0.934632 0.626510 0.000645
Si Si3 0.435181 0.163065 0.202599
Si Si4 0.934228 0.558879 0.387286
Si Si5 0.933395 0.060133 0.308071
Si Si6 0.064958 0.728780 0.890031
Si Si7 0.565655 0.940850 0.673096
O O1 0.250000 0.662676 0.477831
O O2 0.479674 0.678044 0.594358
O O3 0.505466 0.607358 0.453796
O O4 0.497647 0.712501 0.415224
O O5 0.750000 0.629744 0.010140
O O6 0.009069 0.604188 0.097858
O O7 0.971960 0.584069 0.914109
O O8 0.000671 0.684376 0.965710
O O9 0.250000 0.159537 0.206024
O O10 0.501341 0.104443 0.233539
O O11 0.482581 0.206299 0.284671
O O12 0.750000 0.557074 0.385155
O O13 0.000000 0.500000 0.417918
O O14 0.997884 0.568980 0.279338
O O15 0.750000 0.058401 0.299927
O O16 0.000000 0.000000 0.295041
O O17 0.250000 0.730064 0.894378
O O18 0.750000 0.943167 0.677388
O O19 0.500000 0.000000 0.641504
#
# Coordination Sequence:
#
# PCOD9363682 Si02
#       7
#     8   8   8   8   8   8   8
#     4  11  23  41  63  87 114 150 191 235 286 342
#     4  10  20  35  55  83 117 155 195 240 289 341
#     4   9  21  40  60  81 112 149 189 235 283 334
#     4  11  23  41  62  86 116 150 189 237 287 342
#     4  10  20  33  54  82 115 152 192 236 285 337
#     4  10  21  39  60  85 115 151 193 240 288 339
#     4  11  21  35  56  84 117 155 195 239 288 343
#
# _framework density 18.967891999999999
#
# number of rings (size 3 to 8) (size 9 to 14) (size 15 to 20)
#    0.000    1.714    0.000    5.571    0.000    6.286 
#    0.000    4.286    0.000    0.000    0.000    0.000 
#    0.000    0.000    0.000    0.000    0.000    0.000 
#
# Total GULP energy -156496.669945 kJ/mol
# GULP energy per Si atom -5589.166784 kJ/mol
# Density = 1.892472 g / cm^3
# Si number density = 18.967892 Si / 1000 Ang^3
#
#
#
# Elastic Constant Matrix: (Units=GPa)
#
#
# Indices 1 2 3 4 5 6 
#
# 1 92.4411 45.8747 40.9886 0.0000 0.0000 0.0000
# 2 45.8747 127.0147 67.9360 0.0000 0.0000 0.0000
# 3 40.9886 67.9360 78.4934 0.0000 0.0000 0.0000
# 4 0.0000 0.0000 0.0000 20.9967 0.0000 0.0000
# 5 0.0000 0.0000 0.0000 0.0000 26.5238 0.0000
# 6 0.0000 0.0000 0.0000 0.0000 0.0000 37.0381
#
#
#
# Elastic Compliance Matrix: (Units=1/GPa)
#
#
# Indices 1 2 3 4 5 6 
#
# 1 0.014398 -0.002195 -0.005619 0.000000 0.000000 0.000000
# 2 -0.002195 0.014994 -0.011831 0.000000 0.000000 0.000000
# 3 -0.005619 -0.011831 0.025914 0.000000 0.000000 0.000000
# 4 0.000000 0.000000 0.000000 0.047626 0.000000 0.000000
# 5 0.000000 0.000000 0.000000 0.000000 0.037702 0.000000
# 6 0.000000 0.000000 0.000000 0.000000 0.000000 0.026999
#
#
# Mechanical properties :
#
#
# Convention : Reuss Voigt Hill
#
# Bulk Modulus (GPa) = 62.43668 67.50533 64.97100
# Shear Modulus (GPa) = 23.55571 26.45506 25.00538
#
# Velocity S-wave (km/s) = 3.52784 3.73866 3.63478
# Velocity P-wave (km/s) = 7.04150 7.36908 7.20715
#
# Compressibility (1/GPa) = 0.01601623
#
# Stress axis : x y z
#
# Youngs Moduli (GPa) = 69.45195 66.69372 38.58929
#
# Poissons Ratio (x) = 0.14639 0.21683
# Poissons Ratio (y) = 0.15244 0.45655
# Poissons Ratio (z) = 0.39025 0.78906
#
# Static dielectric constant tensor:
#      x y z
#    x 1.631540 0.000000 0.000000 
#    y 0.000000 1.633970 0.000000 
#    z 0.000000 0.000000 1.660180 
# 
# From -- ./inp_files/15314.got.cif
#   From: 2010.05.17/outbox.cif.g08.bks.cpg/sg40_8_cif.got.tgz:15314.got - 2010.06.03 18:35:42.
