data_PCOD9363641
_publ_section_title
;
Structure prediction by ZEFSAII (Michael W. Deem and Ramdas Pophale) SiO2 
 PCOD9363641
Probable space group: A M A 2
;
_chemical_formula_sum "Si O2"
_cell_formula_units_Z 48
_cell_length_a 8.812900
_cell_length_b 24.253751
_cell_length_c 14.003125
_cell_angle_alpha 90.000000
_cell_angle_beta 90.000000
_cell_angle_gamma 90.000000
_cell_volume 2993.110307
_symmetry_space_group_name_H-M "A M A 2"
_symmetry_group_IT_number 40
_symmetry_cell_setting 'orthorhombic'
loop_
_space_group_symop_operation_xyz
x,y,z
-x,-y,z
1/2-x,y,z
1/2+x,-y,z
x,1/2+y,1/2+z
-x,1/2-y,1/2+z
1/2-x,1/2+y,1/2+z
1/2+x,1/2-y,1/2+z
loop_
_atom_site_type_symbol
_atom_site_label
_atom_site_fract_x
_atom_site_fract_y
_atom_site_fract_z
Si Si1 0.069243 0.558775 0.265560
Si Si2 0.068906 0.837818 0.866956
Si Si3 0.568396 0.728254 0.555564
Si Si4 0.568341 0.169093 0.445127
Si Si5 0.931988 0.058475 0.555475
Si Si6 0.431550 0.723417 0.761918
O O1 0.250000 0.554604 0.259491
O O2 0.000000 0.500000 0.296443
O O3 0.019091 0.608406 0.333632
O O4 0.001208 0.570011 0.160094
O O5 0.250000 0.847724 0.860071
O O6 0.032972 0.785579 0.798691
O O7 0.034000 0.817066 0.973983
O O8 0.750000 0.734446 0.559227
O O9 0.496155 0.785163 0.517898
O O10 0.503237 0.714157 0.658748
O O11 0.750000 0.174615 0.440295
O O12 0.531564 0.108669 0.485079
O O13 0.496976 0.183016 0.342681
O O14 0.750000 0.054281 0.564422
O O15 0.000000 0.000000 0.523534
O O16 0.250000 0.718554 0.758235
#
# Coordination Sequence:
#
# PCOD9363641 Si02
#       6
#     8   8   8   8   8   8
#     4  11  21  32  50  73  98 129 162 199 242 289
#     4   9  19  34  49  70 100 130 161 199 241 285
#     4  10  20  33  51  74 101 132 163 200 245 291
#     4  10  20  33  50  73 101 131 164 203 245 289
#     4  10  20  33  50  72  99 130 162 200 243 287
#     4  10  20  33  51  74 101 132 164 201 243 289
#
# _framework density 16.036829999999998
#
# number of rings (size 3 to 8) (size 9 to 14) (size 15 to 20)
#    0.000    2.000    0.000    6.500    0.000   10.667 
#    0.000    0.000    0.000    1.000    0.000    4.667 
#    0.000    0.000    0.000    0.000    0.000    0.000 
#
# Total GULP energy -133990.082540 kJ/mol
# GULP energy per Si atom -5582.920106 kJ/mol
# Density = 1.600033 g / cm^3
# Si number density = 16.036830 Si / 1000 Ang^3
#
#
#
# Elastic Constant Matrix: (Units=GPa)
#
#
# Indices 1 2 3 4 5 6 
#
# 1 83.5073 70.3899 56.6776 0.0000 0.0000 0.0000
# 2 70.3899 130.1110 79.0479 0.0000 0.0000 0.0000
# 3 56.6776 79.0479 113.5170 0.0000 0.0000 0.0000
# 4 0.0000 0.0000 0.0000 17.9844 0.0000 0.0000
# 5 0.0000 0.0000 0.0000 0.0000 31.9839 0.0000
# 6 0.0000 0.0000 0.0000 0.0000 0.0000 29.3835
#
#
#
# Elastic Compliance Matrix: (Units=1/GPa)
#
#
# Indices 1 2 3 4 5 6 
#
# 1 0.023546 -0.009699 -0.005002 0.000000 0.000000 0.000000
# 2 -0.009699 0.017317 -0.007216 0.000000 0.000000 0.000000
# 3 -0.005002 -0.007216 0.016332 0.000000 0.000000 0.000000
# 4 0.000000 0.000000 0.000000 0.055604 0.000000 0.000000
# 5 0.000000 0.000000 0.000000 0.000000 0.031266 0.000000
# 6 0.000000 0.000000 0.000000 0.000000 0.000000 0.034033
#
#
# Mechanical properties :
#
#
# Convention : Reuss Voigt Hill
#
# Bulk Modulus (GPa) = 74.85169 82.15178 78.50174
# Shear Modulus (GPa) = 22.08633 23.93834 23.01233
#
# Velocity S-wave (km/s) = 3.71512 3.86775 3.79221
# Velocity P-wave (km/s) = 8.07335 8.44299 8.26024
#
# Compressibility (1/GPa) = 0.01335975
#
# Stress axis : x y z
#
# Youngs Moduli (GPa) = 42.47082 57.74627 61.23108
#
# Poissons Ratio (x) = 0.56010 0.30627
# Poissons Ratio (y) = 0.41194 0.44185
# Poissons Ratio (z) = 0.21243 0.41670
#
# Static dielectric constant tensor:
#      x y z
#    x 1.534230 0.000000 0.000000 
#    y 0.000000 1.522360 0.000000 
#    z 0.000000 0.000000 1.518840 
# 
# From -- ./inp_files/10224.got.cif
#   From: 2010.05.17/outbox.cif.g08.bks.cpg/sg40_6_cif.got.tgz:10224.got - 2010.06.03 18:35:42.
