data_PCOD9363317
_publ_section_title
;
Structure prediction by ZEFSAII (Michael W. Deem and Ramdas Pophale) SiO2 
 PCOD9363317
Probable space group: A M A 2
;
_chemical_formula_sum "Si O2"
_cell_formula_units_Z 48
_cell_length_a 8.150380
_cell_length_b 22.931359
_cell_length_c 12.077465
_cell_angle_alpha 90.000000
_cell_angle_beta 90.000000
_cell_angle_gamma 90.000000
_cell_volume 2257.269631
_symmetry_space_group_name_H-M "A M A 2"
_symmetry_group_IT_number 40
_symmetry_cell_setting 'orthorhombic'
loop_
_space_group_symop_operation_xyz
x,y,z
-x,-y,z
1/2-x,y,z
1/2+x,-y,z
x,1/2+y,1/2+z
-x,1/2-y,1/2+z
1/2-x,1/2+y,1/2+z
1/2+x,1/2-y,1/2+z
loop_
_atom_site_type_symbol
_atom_site_label
_atom_site_fract_x
_atom_site_fract_y
_atom_site_fract_z
Si Si1 0.556626 0.865709 0.134140
Si Si2 0.943605 0.844108 0.892097
Si Si3 0.935921 0.651350 0.026937
Si Si4 0.945865 0.934572 0.337139
Si Si5 0.941080 0.434691 0.204905
Si Si6 0.945189 0.757392 0.700665
O O1 0.750000 0.878424 0.119121
O O2 0.489525 0.915644 0.215469
O O3 0.534792 0.803868 0.194317
O O4 0.482034 0.854714 0.012569
O O5 0.750000 0.829834 0.907205
O O6 0.953156 0.903665 0.823042
O O7 0.005815 0.794814 0.806829
O O8 0.750000 0.669604 0.004856
O O9 0.003485 0.617353 0.920452
O O10 0.949009 0.601595 0.120613
O O11 0.024677 0.705465 0.087679
O O12 0.750000 0.935293 0.334852
O O13 0.000000 0.000000 0.369558
O O14 0.750000 0.429933 0.168743
O O15 0.000000 0.500000 0.208639
O O16 0.750000 0.748813 0.711186
#
# Coordination Sequence:
#
# PCOD9363317 Si02
#       6
#     8   8   8   8   8   8
#     4  10  22  40  61  86 118 159 201 245 297 360
#     4   8  18  37  57  80 113 151 189 236 292 351
#     4  11  22  38  61  87 118 157 201 248 302 355
#     4  11  24  41  61  88 124 163 209 253 302 362
#     4  10  19  34  57  85 116 150 191 240 295 348
#     4  10  21  38  61  90 121 152 195 248 306 361
#
# _framework density 21.264627000000001
#
# number of rings (size 3 to 8) (size 9 to 14) (size 15 to 20)
#    0.000    2.000    0.000    4.500    2.333    2.000 
#    0.000    4.167    0.000    0.000    0.000    0.000 
#    0.000    0.000    0.000    0.000    0.000    0.000 
#
# Total GULP energy -133930.643145 kJ/mol
# GULP energy per Si atom -5580.443464 kJ/mol
# Density = 2.121623 g / cm^3
# Si number density = 21.264627 Si / 1000 Ang^3
#
#
#
# Elastic Constant Matrix: (Units=GPa)
#
#
# Indices 1 2 3 4 5 6 
#
# 1 31.7751 -17.1550 7.9187 0.0000 0.0000 0.0000
# 2 -17.1550 34.6266 0.3037 0.0000 0.0000 0.0000
# 3 7.9187 0.3037 101.5738 0.0000 0.0000 0.0000
# 4 0.0000 0.0000 0.0000 9.3914 0.0000 0.0000
# 5 0.0000 0.0000 0.0000 0.0000 32.3069 0.0000
# 6 0.0000 0.0000 0.0000 0.0000 0.0000 22.1308
#
#
#
# Elastic Compliance Matrix: (Units=1/GPa)
#
#
# Indices 1 2 3 4 5 6 
#
# 1 0.044179 0.021918 -0.003510 0.000000 0.000000 0.000000
# 2 0.021918 0.039755 -0.001828 0.000000 0.000000 0.000000
# 3 -0.003510 -0.001828 0.010124 0.000000 0.000000 0.000000
# 4 0.000000 0.000000 0.000000 0.106480 0.000000 0.000000
# 5 0.000000 0.000000 0.000000 0.000000 0.030953 0.000000
# 6 0.000000 0.000000 0.000000 0.000000 0.000000 0.045186
#
#
# Mechanical properties :
#
#
# Convention : Reuss Voigt Hill
#
# Bulk Modulus (GPa) = 7.86040 16.67895 12.26967
# Shear Modulus (GPa) = 17.48729 24.55970 21.02349
#
# Velocity S-wave (km/s) = 2.87080 3.40215 3.14771
# Velocity P-wave (km/s) = 3.83317 4.82632 4.35813
#
# Compressibility (1/GPa) = 0.12721998
#
# Stress axis : x y z
#
# Youngs Moduli (GPa) = 22.63505 25.15436 98.77377
#
# Poissons Ratio (x) = -0.55134 0.34667
# Poissons Ratio (y) = -0.49612 0.18052
# Poissons Ratio (z) = 0.07944 0.04597
#
# Static dielectric constant tensor:
#      x y z
#    x 1.724130 0.000000 0.000000 
#    y 0.000000 1.751390 0.000000 
#    z 0.000000 0.000000 1.821670 
# 
# From -- ./inp_files/10261.got.cif
#   From: 2010.05.17/outbox.cif.g08.bks.cpg/sg40_6_cif.got.tgz:10261.got - 2010.06.03 18:35:42.
