data_PCOD9363877
_publ_section_title
;
Structure prediction by ZEFSAII (Michael W. Deem and Ramdas Pophale) SiO2 
 PCOD9363877
Probable space group: A M A 2
;
_chemical_formula_sum "Si O2"
_cell_formula_units_Z 64
_cell_length_a 15.891127
_cell_length_b 9.229264
_cell_length_c 23.440504
_cell_angle_alpha 90.000000
_cell_angle_beta 90.000000
_cell_angle_gamma 90.000000
_cell_volume 3437.864163
_symmetry_space_group_name_H-M "A M A 2"
_symmetry_group_IT_number 40
_symmetry_cell_setting 'orthorhombic'
loop_
_space_group_symop_operation_xyz
x,y,z
-x,-y,z
1/2-x,y,z
1/2+x,-y,z
x,1/2+y,1/2+z
-x,1/2-y,1/2+z
1/2-x,1/2+y,1/2+z
1/2+x,1/2-y,1/2+z
loop_
_atom_site_type_symbol
_atom_site_label
_atom_site_fract_x
_atom_site_fract_y
_atom_site_fract_z
Si Si1 0.346229 0.292959 0.881660
Si Si2 0.590768 0.420479 0.208341
Si Si3 0.653521 0.033002 0.929544
Si Si4 0.970317 0.659845 0.775682
Si Si5 0.034482 0.853716 0.031305
Si Si6 0.580706 0.596768 0.992441
Si Si7 0.846136 0.382932 0.084806
Si Si8 0.085354 0.405602 0.314764
O O1 0.250000 0.300572 0.861744
O O2 0.410133 0.333704 0.831379
O O3 0.361223 0.130671 0.906403
O O4 0.361564 0.390639 0.937188
O O5 0.500000 0.500000 0.199494
O O6 0.574709 0.254611 0.226746
O O7 0.641239 0.427394 0.150311
O O8 0.627886 0.501922 0.264077
O O9 0.750000 0.043148 0.949580
O O10 0.638358 0.119575 0.871082
O O11 0.589137 0.090005 0.977053
O O12 0.000000 0.500000 0.760869
O O13 0.051991 0.755022 0.791030
O O14 0.093096 0.751104 0.069459
O O15 0.957526 0.751411 0.011237
O O16 0.000000 0.000000 0.059828
O O17 0.500000 0.500000 0.976780
O O18 0.626016 0.515332 0.044203
O O19 0.750000 0.344384 0.073332
O O20 0.000000 0.500000 0.328798
#
# Coordination Sequence:
#
# PCOD9363877 Si02
#       8
#     8   8   8   8   8   8   8   8
#     4  11  20  32  53  86 123 153 187 236 296 347
#     4   9  19  38  61  80 108 150 200 238 277 340
#     4  11  20  32  55  87 121 152 192 240 288 339
#     4  10  20  35  58  86 112 150 189 237 286 345
#     4  11  21  37  59  82 115 156 199 237 283 349
#     4  10  21  37  58  80 113 157 198 238 283 345
#     4  11  24  41  60  87 117 150 196 248 297 344
#     4   9  17  35  57  81 111 148 196 234 273 341
#
# _framework density 18.616209000000001
#
# number of rings (size 3 to 8) (size 9 to 14) (size 15 to 20)
#    0.000    2.000    3.750    3.375    0.000    2.500 
#    0.000    3.125    0.000    0.750    0.000    0.000 
#    0.000    0.000    0.000    0.000    0.000    0.000 
#
# Total GULP energy -178489.453873 kJ/mol
# GULP energy per Si atom -5577.795434 kJ/mol
# Density = 1.857384 g / cm^3
# Si number density = 18.616209 Si / 1000 Ang^3
#
#
#
# Elastic Constant Matrix: (Units=GPa)
#
#
# Indices 1 2 3 4 5 6 
#
# 1 52.0299 18.0706 26.2124 0.0000 0.0000 0.0000
# 2 18.0706 92.7017 12.7521 0.0000 0.0000 0.0000
# 3 26.2124 12.7521 80.7656 0.0000 0.0000 0.0000
# 4 0.0000 0.0000 0.0000 21.0538 0.0000 0.0000
# 5 0.0000 0.0000 0.0000 0.0000 2.5571 0.0000
# 6 0.0000 0.0000 0.0000 0.0000 0.0000 13.0382
#
#
#
# Elastic Compliance Matrix: (Units=1/GPa)
#
#
# Indices 1 2 3 4 5 6 
#
# 1 0.024165 -0.003712 -0.007257 0.000000 0.000000 0.000000
# 2 -0.003712 0.011597 -0.000626 0.000000 0.000000 0.000000
# 3 -0.007257 -0.000626 0.014835 0.000000 0.000000 0.000000
# 4 0.000000 0.000000 0.000000 0.047497 0.000000 0.000000
# 5 0.000000 0.000000 0.000000 0.000000 0.391065 0.000000
# 6 0.000000 0.000000 0.000000 0.000000 0.000000 0.076698
#
#
# Mechanical properties :
#
#
# Convention : Reuss Voigt Hill
#
# Bulk Modulus (GPa) = 36.48668 37.72968 37.10818
# Shear Modulus (GPa) = 8.35864 18.56063 13.45964
#
# Velocity S-wave (km/s) = 2.12126 3.16098 2.69179
# Velocity P-wave (km/s) = 5.06375 5.79944 5.44404
#
# Compressibility (1/GPa) = 0.02740727
#
# Stress axis : x y z
#
# Youngs Moduli (GPa) = 41.38245 86.22854 67.40594
#
# Poissons Ratio (x) = 0.32011 0.48913
# Poissons Ratio (y) = 0.15362 0.04221
# Poissons Ratio (z) = 0.30029 0.05400
#
# Static dielectric constant tensor:
#      x y z
#    x 1.655030 0.000000 0.000000 
#    y 0.000000 1.683060 0.000000 
#    z 0.000000 0.000000 1.637800 
# 
# From -- ./inp_files/24931.got.cif
#   From: 2010.05.17/outbox.cif.g08.bks.cpg/sg40_13_cif.got.tgz:24931.got - 2010.06.03 18:35:42.
