data_PCOD9363942
_publ_section_title
;
Structure prediction by ZEFSAII (Michael W. Deem and Ramdas Pophale) SiO2 
 PCOD9363942
Probable space group: A M A 2
;
_chemical_formula_sum "Si O2"
_cell_formula_units_Z 56
_cell_length_a 9.117935
_cell_length_b 21.176466
_cell_length_c 15.579918
_cell_angle_alpha 90.000000
_cell_angle_beta 90.000000
_cell_angle_gamma 90.000000
_cell_volume 3008.258446
_symmetry_space_group_name_H-M "A M A 2"
_symmetry_group_IT_number 40
_symmetry_cell_setting 'orthorhombic'
loop_
_space_group_symop_operation_xyz
x,y,z
-x,-y,z
1/2-x,y,z
1/2+x,-y,z
x,1/2+y,1/2+z
-x,1/2-y,1/2+z
1/2-x,1/2+y,1/2+z
1/2+x,1/2-y,1/2+z
loop_
_atom_site_type_symbol
_atom_site_label
_atom_site_fract_x
_atom_site_fract_y
_atom_site_fract_z
Si Si1 0.074069 0.437161 0.530750
Si Si2 0.581490 0.442749 0.712812
Si Si3 0.922747 0.069179 0.520467
Si Si4 0.927127 0.806366 0.589754
Si Si5 0.925304 0.697317 0.454267
Si Si6 0.085863 0.224344 0.786568
Si Si7 0.089618 0.370132 0.831424
O O1 0.250000 0.443136 0.529885
O O2 0.030164 0.370545 0.491243
O O3 0.000000 0.500000 0.491803
O O4 0.012060 0.434104 0.627236
O O5 0.500000 0.500000 0.760565
O O6 0.750000 0.454269 0.694481
O O7 0.551622 0.385567 0.774887
O O8 0.750000 0.062511 0.542331
O O9 0.929022 0.098778 0.424248
O O10 0.999309 0.125051 0.575752
O O11 0.000000 0.000000 0.524720
O O12 0.750000 0.812563 0.581866
O O13 0.976585 0.755252 0.516580
O O14 0.957198 0.780334 0.686267
O O15 0.750000 0.701098 0.457152
O O16 0.977213 0.696078 0.356231
O O17 0.250000 0.195933 0.792453
O O18 0.098190 0.295394 0.822548
O O19 0.250000 0.393521 0.797320
#
# Coordination Sequence:
#
# PCOD9363942 Si02
#       7
#     8   8   8   8   8   8   8
#     4  10  20  36  56  81 115 154 194 239 295 353
#     4  11  21  32  50  78 111 149 189 231 282 346
#     4  11  23  39  61  87 120 162 207 257 308 367
#     4  10  21  39  62  88 122 162 202 249 307 365
#     4  10  21  38  61  87 118 155 196 246 300 358
#     4  10  21  38  61  88 118 153 196 247 302 358
#     4  10  20  36  56  83 117 151 190 241 302 361
#
# _framework density 18.615421000000001
#
# number of rings (size 3 to 8) (size 9 to 14) (size 15 to 20)
#    0.000    1.714    1.429    4.286    0.000    6.857 
#    0.000    2.143    0.000    1.714    0.000    0.000 
#    0.000    0.000    0.000    0.000    0.000    0.000 
#
# Total GULP energy -155893.564499 kJ/mol
# GULP energy per Si atom -5567.627304 kJ/mol
# Density = 1.857305 g / cm^3
# Si number density = 18.615421 Si / 1000 Ang^3
#
#
#
# Elastic Constant Matrix: (Units=GPa)
#
#
# Indices 1 2 3 4 5 6 
#
# 1 49.3303 45.9987 21.1896 0.0000 0.0000 0.0000
# 2 45.9987 108.5951 36.5103 0.0000 0.0000 0.0000
# 3 21.1896 36.5103 81.6027 0.0000 0.0000 0.0000
# 4 0.0000 0.0000 0.0000 25.7180 0.0000 0.0000
# 5 0.0000 0.0000 0.0000 0.0000 30.6462 0.0000
# 6 0.0000 0.0000 0.0000 0.0000 0.0000 38.6868
#
#
#
# Elastic Compliance Matrix: (Units=1/GPa)
#
#
# Indices 1 2 3 4 5 6 
#
# 1 0.034044 -0.013475 -0.002811 0.000000 0.000000 0.000000
# 2 -0.013475 0.016173 -0.003737 0.000000 0.000000 0.000000
# 3 -0.002811 -0.003737 0.014656 0.000000 0.000000 0.000000
# 4 0.000000 0.000000 0.000000 0.038883 0.000000 0.000000
# 5 0.000000 0.000000 0.000000 0.000000 0.032630 0.000000
# 6 0.000000 0.000000 0.000000 0.000000 0.000000 0.025849
#
#
# Mechanical properties :
#
#
# Convention : Reuss Voigt Hill
#
# Bulk Modulus (GPa) = 40.27907 49.65838 44.96873
# Shear Modulus (GPa) = 23.74644 28.06551 25.90598
#
# Velocity S-wave (km/s) = 3.57548 3.88706 3.73452
# Velocity P-wave (km/s) = 6.22333 6.84686 6.54253
#
# Compressibility (1/GPa) = 0.02482679
#
# Stress axis : x y z
#
# Youngs Moduli (GPa) = 29.37354 61.83244 68.22967
#
# Poissons Ratio (x) = 0.83321 0.19180
# Poissons Ratio (y) = 0.39582 0.25496
# Poissons Ratio (z) = 0.08257 0.23106
#
# Static dielectric constant tensor:
#      x y z
#    x 1.682440 0.000000 0.000000 
#    y 0.000000 1.792520 0.000000 
#    z 0.000000 0.000000 1.635520 
# 
# From -- ./inp_files/15320.got.cif
#   From: 2010.05.17/outbox.cif.g08.bks.cpg/sg40_8_cif.got.tgz:15320.got - 2010.06.03 18:35:42.
