data_PCOD9363431
_publ_section_title
;
Structure prediction by ZEFSAII (Michael W. Deem and Ramdas Pophale) SiO2 
 PCOD9363431
Probable space group: A M A 2
;
_chemical_formula_sum "Si O2"
_cell_formula_units_Z 56
_cell_length_a 20.442898
_cell_length_b 15.269412
_cell_length_c 9.945526
_cell_angle_alpha 90.000000
_cell_angle_beta 90.000000
_cell_angle_gamma 90.000000
_cell_volume 3104.506205
_symmetry_space_group_name_H-M "A M A 2"
_symmetry_group_IT_number 40
_symmetry_cell_setting 'orthorhombic'
loop_
_space_group_symop_operation_xyz
x,y,z
-x,-y,z
1/2-x,y,z
1/2+x,-y,z
x,1/2+y,1/2+z
-x,1/2-y,1/2+z
1/2-x,1/2+y,1/2+z
1/2+x,1/2-y,1/2+z
loop_
_atom_site_type_symbol
_atom_site_label
_atom_site_fract_x
_atom_site_fract_y
_atom_site_fract_z
Si Si1 0.480918 0.099354 0.113470
Si Si2 0.824298 0.271541 0.258626
Si Si3 0.035709 0.647108 0.912234
Si Si4 0.418075 0.888829 0.757582
Si Si5 0.435960 0.087134 0.698272
Si Si6 0.405792 0.260036 0.005756
Si Si7 0.388729 0.808507 0.018684
O O1 0.461525 0.099368 0.270600
O O2 0.500000 0.000000 0.069591
O O3 0.425135 0.159368 0.042699
O O4 0.546142 0.157593 0.094489
O O5 0.750000 0.302418 0.259529
O O6 0.878471 0.345359 0.227526
O O7 0.845067 0.235220 0.404496
O O8 0.835386 0.205542 0.133222
O O9 0.091635 0.719431 0.939664
O O10 0.967144 0.697953 0.926236
O O11 0.042231 0.587649 0.042970
O O12 0.497758 0.882858 0.776228
O O13 0.400233 0.819335 0.640768
O O14 0.378711 0.872520 0.894146
O O15 0.411411 0.990273 0.724670
#
# Coordination Sequence:
#
# PCOD9363431 Si02
#       7
#     8   8   8   8   8   8   8
#     4  11  21  29  56  89 122 142 177 242 298 343
#     4  11  23  41  58  75 115 162 198 230 281 357
#     4   9  17  33  52  84 117 143 180 234 288 348
#     4  10  19  35  63  91 117 137 186 255 297 348
#     4   9  20  33  60  91 117 146 182 237 306 342
#     4  10  20  36  53  84 112 153 187 227 288 342
#     4  10  20  35  54  84 112 149 187 234 292 341
#
# _framework density 18.038295000000002
#
# number of rings (size 3 to 8) (size 9 to 14) (size 15 to 20)
#    0.000    2.000    2.857    2.571    8.000    0.000 
#    0.000    2.143    0.000    0.000    0.000    0.000 
#    0.000    0.000    0.000    0.000    0.000    0.000 
#
# Total GULP energy -155983.480828 kJ/mol
# GULP energy per Si atom -5570.838601 kJ/mol
# Density = 1.799724 g / cm^3
# Si number density = 18.038295 Si / 1000 Ang^3
#
#
#
# Elastic Constant Matrix: (Units=GPa)
#
#
# Indices 1 2 3 4 5 6 
#
# 1 54.1197 10.5051 17.3144 0.0000 0.0000 0.0000
# 2 10.5051 86.3495 36.9073 0.0000 0.0000 0.0000
# 3 17.3144 36.9073 106.2864 0.0000 0.0000 0.0000
# 4 0.0000 0.0000 0.0000 20.0285 0.0000 0.0000
# 5 0.0000 0.0000 0.0000 0.0000 12.9768 0.0000
# 6 0.0000 0.0000 0.0000 0.0000 0.0000 9.8955
#
#
#
# Elastic Compliance Matrix: (Units=1/GPa)
#
#
# Indices 1 2 3 4 5 6 
#
# 1 0.019598 -0.001197 -0.002777 0.000000 0.000000 0.000000
# 2 -0.001197 0.013672 -0.004553 0.000000 0.000000 0.000000
# 3 -0.002777 -0.004553 0.011442 0.000000 0.000000 0.000000
# 4 0.000000 0.000000 0.000000 0.049929 0.000000 0.000000
# 5 0.000000 0.000000 0.000000 0.000000 0.077061 0.000000
# 6 0.000000 0.000000 0.000000 0.000000 0.000000 0.101056
#
#
# Mechanical properties :
#
#
# Convention : Reuss Voigt Hill
#
# Bulk Modulus (GPa) = 36.15487 41.80103 38.97795
# Shear Modulus (GPa) = 16.72065 20.71540 18.71802
#
# Velocity S-wave (km/s) = 3.04789 3.39250 3.22480
# Velocity P-wave (km/s) = 5.69852 6.21041 5.95996
#
# Compressibility (1/GPa) = 0.02765879
#
# Stress axis : x y z
#
# Youngs Moduli (GPa) = 51.02465 73.14015 87.39912
#
# Poissons Ratio (x) = 0.08758 0.24269
# Poissons Ratio (y) = 0.06110 0.39789
# Poissons Ratio (z) = 0.14169 0.33298
#
# Static dielectric constant tensor:
#      x y z
#    x 1.595320 0.000000 0.000000 
#    y 0.000000 1.656910 0.000000 
#    z 0.000000 0.000000 1.687440 
# 
# From -- ./inp_files/8421.got.cif
#   From: 2010.05.17/outbox.cif.g08.bks.cpg/sg40_5_cif.got.tgz:8421.got - 2010.06.03 18:35:42.
