data_PCOD9363507
_publ_section_title
;
Structure prediction by ZEFSAII (Michael W. Deem and Ramdas Pophale) SiO2 
 PCOD9363507
Probable space group: A M A 2
;
_chemical_formula_sum "Si O2"
_cell_formula_units_Z 64
_cell_length_a 8.471106
_cell_length_b 28.517109
_cell_length_c 12.931571
_cell_angle_alpha 90.000000
_cell_angle_beta 90.000000
_cell_angle_gamma 90.000000
_cell_volume 3123.898398
_symmetry_space_group_name_H-M "A M A 2"
_symmetry_group_IT_number 40
_symmetry_cell_setting 'orthorhombic'
loop_
_space_group_symop_operation_xyz
x,y,z
-x,-y,z
1/2-x,y,z
1/2+x,-y,z
x,1/2+y,1/2+z
-x,1/2-y,1/2+z
1/2-x,1/2+y,1/2+z
1/2+x,1/2-y,1/2+z
loop_
_atom_site_type_symbol
_atom_site_label
_atom_site_fract_x
_atom_site_fract_y
_atom_site_fract_z
Si Si1 0.059880 0.452111 0.440560
Si Si2 0.435529 0.191062 0.330380
Si Si3 0.939063 0.447821 0.100750
Si Si4 0.560383 0.588901 0.882813
Si Si5 0.568822 0.568865 0.661325
Si Si6 0.940338 0.377591 0.280240
Si Si7 0.069426 0.820485 0.110465
Si Si8 0.062847 0.212274 0.895842
O O1 0.250000 0.450218 0.443066
O O2 0.993119 0.451182 0.557713
O O3 0.000000 0.500000 0.390190
O O4 0.996136 0.408672 0.376660
O O5 0.250000 0.182256 0.330402
O O6 0.517356 0.144004 0.373709
O O7 0.494369 0.200649 0.213629
O O8 0.478359 0.237820 0.391694
O O9 0.750000 0.448969 0.105590
O O10 0.995157 0.406631 0.179372
O O11 0.000000 0.500000 0.126911
O O12 0.992222 0.434109 0.985435
O O13 0.750000 0.584956 0.883213
O O14 0.499042 0.564960 0.775943
O O15 0.750000 0.551538 0.666735
O O16 0.574118 0.624213 0.635587
O O17 0.750000 0.376587 0.277195
O O18 0.992043 0.324509 0.306799
O O19 0.250000 0.804454 0.096800
O O20 0.973922 0.810449 0.006961
O O21 0.250000 0.219393 0.883894
#
# Coordination Sequence:
#
# PCOD9363507 Si02
#       8
#     8   8   8   8   8   8   8   8
#     4  11  21  35  56  85 118 152 192 239 300 363
#     4  11  23  39  60  91 126 167 212 257 315 382
#     4  11  24  43  64  90 125 169 218 269 326 386
#     4  10  21  41  65  90 123 161 208 263 320 375
#     4   8  17  34  57  83 113 149 188 239 300 360
#     4  10  23  41  61  87 120 158 206 260 312 371
#     4  10  19  37  60  84 117 156 197 250 309 368
#     4  11  22  38  61  90 122 161 210 264 321 381
#
# _framework density 20.487221999999999
#
# number of rings (size 3 to 8) (size 9 to 14) (size 15 to 20)
#    0.000    1.750    1.250    4.125    0.000    4.000 
#    0.000    6.875    0.000    0.000    0.000    0.000 
#    0.000    0.000    0.000    0.000    0.000    0.000 
#
# Total GULP energy -178620.582067 kJ/mol
# GULP energy per Si atom -5581.893190 kJ/mol
# Density = 2.044059 g / cm^3
# Si number density = 20.487222 Si / 1000 Ang^3
#
#
#
# Elastic Constant Matrix: (Units=GPa)
#
#
# Indices 1 2 3 4 5 6 
#
# 1 25.9857 -2.6711 -1.0046 0.0000 0.0000 0.0000
# 2 -2.6711 44.4270 6.9860 0.0000 0.0000 0.0000
# 3 -1.0046 6.9860 96.5268 0.0000 0.0000 0.0000
# 4 0.0000 0.0000 0.0000 24.4356 0.0000 0.0000
# 5 0.0000 0.0000 0.0000 0.0000 20.5582 0.0000
# 6 0.0000 0.0000 0.0000 0.0000 0.0000 22.2347
#
#
#
# Elastic Compliance Matrix: (Units=1/GPa)
#
#
# Indices 1 2 3 4 5 6 
#
# 1 0.038727 0.002291 0.000237 0.000000 0.000000 0.000000
# 2 0.002291 0.022903 -0.001634 0.000000 0.000000 0.000000
# 3 0.000237 -0.001634 0.010481 0.000000 0.000000 0.000000
# 4 0.000000 0.000000 0.000000 0.040924 0.000000 0.000000
# 5 0.000000 0.000000 0.000000 0.000000 0.048642 0.000000
# 6 0.000000 0.000000 0.000000 0.000000 0.000000 0.044975
#
#
# Mechanical properties :
#
#
# Convention : Reuss Voigt Hill
#
# Bulk Modulus (GPa) = 13.53170 19.28446 16.40808
# Shear Modulus (GPa) = 21.78680 24.35432 23.07056
#
# Velocity S-wave (km/s) = 3.26457 3.45158 3.35937
# Velocity P-wave (km/s) = 4.56390 5.03168 4.80349
#
# Compressibility (1/GPa) = 0.07390053
#
# Stress axis : x y z
#
# Youngs Moduli (GPa) = 25.82151 43.66152 95.41503
#
# Poissons Ratio (x) = -0.10003 -0.02264
# Poissons Ratio (y) = -0.05916 0.15589
# Poissons Ratio (z) = -0.00613 0.07133
#
# Static dielectric constant tensor:
#      x y z
#    x 1.706840 0.000000 0.000000 
#    y 0.000000 1.655420 0.000000 
#    z 0.000000 0.000000 1.748790 
# 
# From -- ./inp_files/10653.got.cif
#   From: 2010.05.17/outbox.cif.g08.bks.cpg/sg40_6_cif.got.tgz:10653.got - 2010.06.03 18:35:42.
