data_PCOD9363473
_publ_section_title
;
Structure prediction by ZEFSAII (Michael W. Deem and Ramdas Pophale) SiO2 
 PCOD9363473
Probable space group: A M A 2
;
_chemical_formula_sum "Si O2"
_cell_formula_units_Z 56
_cell_length_a 15.064673
_cell_length_b 15.009650
_cell_length_c 11.790268
_cell_angle_alpha 90.000000
_cell_angle_beta 90.000000
_cell_angle_gamma 90.000000
_cell_volume 2665.961980
_symmetry_space_group_name_H-M "A M A 2"
_symmetry_group_IT_number 40
_symmetry_cell_setting 'orthorhombic'
loop_
_space_group_symop_operation_xyz
x,y,z
-x,-y,z
1/2-x,y,z
1/2+x,-y,z
x,1/2+y,1/2+z
-x,1/2-y,1/2+z
1/2-x,1/2+y,1/2+z
1/2+x,1/2-y,1/2+z
loop_
_atom_site_type_symbol
_atom_site_label
_atom_site_fract_x
_atom_site_fract_y
_atom_site_fract_z
Si Si1 0.063884 0.866252 0.698120
Si Si2 0.355701 0.684137 0.625623
Si Si3 0.850150 0.175268 0.247573
Si Si4 0.104420 0.695503 0.055309
Si Si5 0.642931 0.980328 0.284260
Si Si6 0.978650 0.792699 0.904466
Si Si7 0.152248 0.501266 0.035441
O O1 0.129389 0.781230 0.682923
O O2 0.104523 0.953829 0.640465
O O3 0.983878 0.838284 0.617065
O O4 0.018540 0.868737 0.821839
O O5 0.250000 0.673007 0.599477
O O6 0.385094 0.606191 0.713566
O O7 0.418592 0.679362 0.513092
O O8 0.750000 0.176067 0.295856
O O9 0.851810 0.230120 0.132104
O O10 0.916934 0.225873 0.331481
O O11 0.874515 0.073371 0.221699
O O12 0.159892 0.606701 0.048988
O O13 0.066217 0.739122 0.942833
O O14 0.750000 0.969032 0.297362
O O15 0.607776 0.002158 0.411004
O O16 0.250000 0.459254 0.028499
#
# Coordination Sequence:
#
# PCOD9363473 Si02
#       7
#     8   8   8   8   8   8   8
#     4  10  21  36  56  87 123 157 199 253 310 366
#     4  10  19  36  61  91 122 160 208 259 312 376
#     4  10  20  38  59  82 114 156 197 240 298 370
#     4  10  21  37  56  82 116 152 193 245 301 355
#     4   9  19  34  59  88 111 141 195 252 296 350
#     4  10  21  38  59  85 123 162 199 254 317 370
#     4  11  21  37  61  87 113 152 201 251 303 365
#
# _framework density 21.005551000000001
#
# number of rings (size 3 to 8) (size 9 to 14) (size 15 to 20)
#    0.000    2.000    0.000    4.286    0.000    1.143 
#    0.000   18.571    0.000    3.429    0.000    0.000 
#    0.000    0.000    0.000    0.000    0.000    0.000 
#
# Total GULP energy -156063.342726 kJ/mol
# GULP energy per Si atom -5573.690812 kJ/mol
# Density = 2.095774 g / cm^3
# Si number density = 21.005551 Si / 1000 Ang^3
#
#
#
# Elastic Constant Matrix: (Units=GPa)
#
#
# Indices 1 2 3 4 5 6 
#
# 1 78.3008 31.4027 42.6767 0.0000 0.0000 0.0000
# 2 31.4027 108.3123 42.8996 0.0000 0.0000 0.0000
# 3 42.6767 42.8996 101.8094 0.0000 0.0000 0.0000
# 4 0.0000 0.0000 0.0000 32.8522 0.0000 0.0000
# 5 0.0000 0.0000 0.0000 0.0000 10.8852 0.0000
# 6 0.0000 0.0000 0.0000 0.0000 0.0000 24.3933
#
#
#
# Elastic Compliance Matrix: (Units=1/GPa)
#
#
# Indices 1 2 3 4 5 6 
#
# 1 0.017119 -0.002546 -0.006103 0.000000 0.000000 0.000000
# 2 -0.002546 0.011461 -0.003762 0.000000 0.000000 0.000000
# 3 -0.006103 -0.003762 0.013966 0.000000 0.000000 0.000000
# 4 0.000000 0.000000 0.000000 0.030439 0.000000 0.000000
# 5 0.000000 0.000000 0.000000 0.000000 0.091868 0.000000
# 6 0.000000 0.000000 0.000000 0.000000 0.000000 0.040995
#
#
# Mechanical properties :
#
#
# Convention : Reuss Voigt Hill
#
# Bulk Modulus (GPa) = 56.42327 58.04227 57.23277
# Shear Modulus (GPa) = 21.13477 25.05570 23.09524
#
# Velocity S-wave (km/s) = 3.17543 3.45746 3.31944
# Velocity P-wave (km/s) = 6.35326 6.60534 6.48053
#
# Compressibility (1/GPa) = 0.01772318
#
# Stress axis : x y z
#
# Youngs Moduli (GPa) = 58.41563 87.25447 71.60354
#
# Poissons Ratio (x) = 0.22214 0.43700
# Poissons Ratio (y) = 0.14872 0.26937
# Poissons Ratio (z) = 0.35652 0.32825
#
# Static dielectric constant tensor:
#      x y z
#    x 1.787220 0.000000 0.000000 
#    y 0.000000 1.842580 0.000000 
#    z 0.000000 0.000000 1.811610 
# 
# From -- ./inp_files/12248.got.cif
#   From: 2010.05.17/outbox.cif.g08.bks.cpg/sg40_7_cif.got.tgz:12248.got - 2010.06.03 18:35:42.
