data_PCOD9363848
_publ_section_title
;
Structure prediction by ZEFSAII (Michael W. Deem and Ramdas Pophale) SiO2 
 PCOD9363848
Probable space group: A M A 2
;
_chemical_formula_sum "Si O2"
_cell_formula_units_Z 48
_cell_length_a 8.959655
_cell_length_b 23.497797
_cell_length_c 12.037524
_cell_angle_alpha 90.000000
_cell_angle_beta 90.000000
_cell_angle_gamma 90.000000
_cell_volume 2534.285861
_symmetry_space_group_name_H-M "A M A 2"
_symmetry_group_IT_number 40
_symmetry_cell_setting 'orthorhombic'
loop_
_space_group_symop_operation_xyz
x,y,z
-x,-y,z
1/2-x,y,z
1/2+x,-y,z
x,1/2+y,1/2+z
-x,1/2-y,1/2+z
1/2-x,1/2+y,1/2+z
1/2+x,1/2-y,1/2+z
loop_
_atom_site_type_symbol
_atom_site_label
_atom_site_fract_x
_atom_site_fract_y
_atom_site_fract_z
Si Si1 0.579377 0.058256 0.042920
Si Si2 0.069403 0.062425 0.437867
Si Si3 0.569542 0.729790 0.573575
Si Si4 0.079865 0.343178 0.366462
Si Si5 0.428912 0.143126 0.631311
Si Si6 0.928200 0.363118 0.724466
O O1 0.750000 0.049931 0.081626
O O2 0.484471 0.090131 0.136497
O O3 0.500000 0.000000 0.015579
O O4 0.583557 0.098934 0.936827
O O5 0.250000 0.056747 0.436443
O O6 0.020637 0.090522 0.554897
O O7 0.031106 0.109404 0.343307
O O8 0.000000 0.000000 0.418643
O O9 0.750000 0.722589 0.578008
O O10 0.519371 0.702139 0.456686
O O11 0.531976 0.795970 0.577326
O O12 0.502248 0.694908 0.677927
O O13 0.250000 0.326386 0.338037
O O14 0.990369 0.353528 0.255164
O O15 0.250000 0.140215 0.634982
O O16 0.750000 0.356129 0.721858
#
# Coordination Sequence:
#
# PCOD9363848 Si02
#       6
#     8   8   8   8   8   8
#     4  10  20  35  56  82 114 148 185 233 285 332
#     4  10  23  40  58  83 117 157 194 237 286 339
#     4   9  20  38  59  83 115 148 185 238 295 343
#     4   9  20  37  56  80 110 145 184 231 284 338
#     4  10  22  39  58  81 113 152 190 234 288 343
#     4  10  20  35  59  87 114 148 191 236 286 342
#
# _framework density 18.940248
#
# number of rings (size 3 to 8) (size 9 to 14) (size 15 to 20)
#    0.000    2.333    0.000    2.500    2.333    8.000 
#    0.000    3.333    0.000    0.000    0.000    0.000 
#    0.000    0.000    0.000    0.000    0.000    0.000 
#
# Total GULP energy -133852.570571 kJ/mol
# GULP energy per Si atom -5577.190440 kJ/mol
# Density = 1.889714 g / cm^3
# Si number density = 18.940248 Si / 1000 Ang^3
#
#
#
# Elastic Constant Matrix: (Units=GPa)
#
#
# Indices 1 2 3 4 5 6 
#
# 1 12.8723 15.5756 11.7380 0.0000 0.0000 0.0000
# 2 15.5756 53.0987 18.3702 0.0000 0.0000 0.0000
# 3 11.7380 18.3702 82.6503 0.0000 0.0000 0.0000
# 4 0.0000 0.0000 0.0000 5.4634 0.0000 0.0000
# 5 0.0000 0.0000 0.0000 0.0000 28.4837 0.0000
# 6 0.0000 0.0000 0.0000 0.0000 0.0000 26.3212
#
#
#
# Elastic Compliance Matrix: (Units=1/GPa)
#
#
# Indices 1 2 3 4 5 6 
#
# 1 0.128617 -0.034025 -0.010704 0.000000 0.000000 0.000000
# 2 -0.034025 0.029403 -0.001703 0.000000 0.000000 0.000000
# 3 -0.010704 -0.001703 0.013998 0.000000 0.000000 0.000000
# 4 0.000000 0.000000 0.000000 0.183036 0.000000 0.000000
# 5 0.000000 0.000000 0.000000 0.000000 0.035108 0.000000
# 6 0.000000 0.000000 0.000000 0.000000 0.000000 0.037992
#
#
# Mechanical properties :
#
#
# Convention : Reuss Voigt Hill
#
# Bulk Modulus (GPa) = 12.63345 26.66544 19.64945
# Shear Modulus (GPa) = 9.13407 18.91616 14.02511
#
# Velocity S-wave (km/s) = 2.19842 3.16369 2.72415
# Velocity P-wave (km/s) = 3.62335 5.23971 4.50462
#
# Compressibility (1/GPa) = 0.07915492
#
# Stress axis : x y z
#
# Youngs Moduli (GPa) = 7.77500 34.01059 71.43966
#
# Poissons Ratio (x) = 1.15720 0.76468
# Poissons Ratio (y) = 0.26454 0.12166
# Poissons Ratio (z) = 0.08322 0.05792
#
# Static dielectric constant tensor:
#      x y z
#    x 1.655560 0.000000 0.000000 
#    y 0.000000 1.726330 0.000000 
#    z 0.000000 0.000000 1.659580 
# 
# From -- ./inp_files/10237.got.cif
#   From: 2010.05.17/outbox.cif.g08.bks.cpg/sg40_6_cif.got.tgz:10237.got - 2010.06.03 18:35:42.
