data_PCOD9363692
_publ_section_title
;
Structure prediction by ZEFSAII (Michael W. Deem and Ramdas Pophale) SiO2 
 PCOD9363692
Probable space group: A M A 2
;
_chemical_formula_sum "Si O2"
_cell_formula_units_Z 56
_cell_length_a 8.761972
_cell_length_b 14.253985
_cell_length_c 23.257154
_cell_angle_alpha 90.000000
_cell_angle_beta 90.000000
_cell_angle_gamma 90.000000
_cell_volume 2904.656141
_symmetry_space_group_name_H-M "A M A 2"
_symmetry_group_IT_number 40
_symmetry_cell_setting 'orthorhombic'
loop_
_space_group_symop_operation_xyz
x,y,z
-x,-y,z
1/2-x,y,z
1/2+x,-y,z
x,1/2+y,1/2+z
-x,1/2-y,1/2+z
1/2-x,1/2+y,1/2+z
1/2+x,1/2-y,1/2+z
loop_
_atom_site_type_symbol
_atom_site_label
_atom_site_fract_x
_atom_site_fract_y
_atom_site_fract_z
Si Si1 0.565690 0.694681 0.720240
Si Si2 0.569141 0.596734 0.484431
Si Si3 0.570635 0.404573 0.186435
Si Si4 0.065684 0.795610 0.447378
Si Si5 0.933080 0.395425 0.835553
Si Si6 0.423344 0.639325 0.603130
Si Si7 0.077945 0.359120 0.069950
O O1 0.750000 0.689918 0.719883
O O2 0.519050 0.804497 0.712426
O O3 0.497658 0.653661 0.778374
O O4 0.499621 0.637834 0.665585
O O5 0.500000 0.500000 0.460521
O O6 0.750000 0.599478 0.477170
O O7 0.493654 0.689910 0.457732
O O8 0.525738 0.598993 0.552131
O O9 0.500000 0.500000 0.210892
O O10 0.750000 0.409267 0.193607
O O11 0.529100 0.400555 0.118737
O O12 0.250000 0.794448 0.444255
O O13 0.024812 0.857574 0.504022
O O14 0.992483 0.839198 0.390972
O O15 0.750000 0.397842 0.834326
O O16 0.000000 0.500000 0.838223
O O17 0.250000 0.601189 0.602896
O O18 0.411993 0.749222 0.586443
O O19 0.250000 0.398572 0.074165
#
# Coordination Sequence:
#
# PCOD9363692 Si02
#       7
#     8   8   8   8   8   8   8
#     4  10  21  39  60  85 116 152 194 244 294 344
#     4  11  21  35  57  88 123 159 196 237 288 349
#     4  10  20  33  55  85 119 154 189 230 280 338
#     4  10  21  40  62  86 117 153 194 244 293 343
#     4  12  26  44  65  87 111 147 192 241 293 349
#     4   9  17  32  54  82 114 150 189 233 284 339
#     4   8  16  31  53  79 111 147 183 225 276 328
#
# _framework density 19.279391
#
# number of rings (size 3 to 8) (size 9 to 14) (size 15 to 20)
#    0.000    2.000    0.000    5.143    0.000    6.857 
#    0.000    3.571    0.000    1.714    0.000    0.000 
#    0.000    0.000    0.000    0.000    0.000    0.000 
#
# Total GULP energy -156324.353123 kJ/mol
# GULP energy per Si atom -5583.012612 kJ/mol
# Density = 1.923551 g / cm^3
# Si number density = 19.279391 Si / 1000 Ang^3
#
#
#
# Elastic Constant Matrix: (Units=GPa)
#
#
# Indices 1 2 3 4 5 6 
#
# 1 98.7804 36.5543 40.6568 0.0000 0.0000 0.0000
# 2 36.5543 107.0326 48.6458 0.0000 0.0000 0.0000
# 3 40.6568 48.6458 138.3278 0.0000 0.0000 0.0000
# 4 0.0000 0.0000 0.0000 15.1877 0.0000 0.0000
# 5 0.0000 0.0000 0.0000 0.0000 29.6416 0.0000
# 6 0.0000 0.0000 0.0000 0.0000 0.0000 26.6285
#
#
#
# Elastic Compliance Matrix: (Units=1/GPa)
#
#
# Indices 1 2 3 4 5 6 
#
# 1 0.012297 -0.003043 -0.002544 0.000000 0.000000 0.000000
# 2 -0.003043 0.011874 -0.003281 0.000000 0.000000 0.000000
# 3 -0.002544 -0.003281 0.009131 0.000000 0.000000 0.000000
# 4 0.000000 0.000000 0.000000 0.065843 0.000000 0.000000
# 5 0.000000 0.000000 0.000000 0.000000 0.033736 0.000000
# 6 0.000000 0.000000 0.000000 0.000000 0.000000 0.037554
#
#
# Mechanical properties :
#
#
# Convention : Reuss Voigt Hill
#
# Bulk Modulus (GPa) = 64.24991 66.20605 65.22798
# Shear Modulus (GPa) = 25.85865 28.84383 27.35124
#
# Velocity S-wave (km/s) = 3.66629 3.87214 3.77062
# Velocity P-wave (km/s) = 7.16382 7.37605 7.27071
#
# Compressibility (1/GPa) = 0.01556422
#
# Stress axis : x y z
#
# Youngs Moduli (GPa) = 81.32223 84.22050 109.51984
#
# Poissons Ratio (x) = 0.25632 0.27861
# Poissons Ratio (y) = 0.24750 0.35934
# Poissons Ratio (z) = 0.20688 0.27633
#
# Static dielectric constant tensor:
#      x y z
#    x 1.654590 0.000000 0.000000 
#    y 0.000000 1.709750 0.000000 
#    z 0.000000 0.000000 1.650530 
# 
# From -- ./inp_files/22211.got.cif
#   From: 2010.05.17/outbox.cif.g08.bks.cpg/sg40_12_cif.got.tgz:22211.got - 2010.06.03 18:35:42.
