data_PCOD9363911
_publ_section_title
;
Structure prediction by ZEFSAII (Michael W. Deem and Ramdas Pophale) SiO2 
 PCOD9363911
Probable space group: A M A 2
;
_chemical_formula_sum "Si O2"
_cell_formula_units_Z 48
_cell_length_a 20.268177
_cell_length_b 11.344611
_cell_length_c 8.655971
_cell_angle_alpha 90.000000
_cell_angle_beta 90.000000
_cell_angle_gamma 90.000000
_cell_volume 1990.307089
_symmetry_space_group_name_H-M "A M A 2"
_symmetry_group_IT_number 40
_symmetry_cell_setting 'orthorhombic'
loop_
_space_group_symop_operation_xyz
x,y,z
-x,-y,z
1/2-x,y,z
1/2+x,-y,z
x,1/2+y,1/2+z
-x,1/2-y,1/2+z
1/2-x,1/2+y,1/2+z
1/2+x,1/2-y,1/2+z
loop_
_atom_site_type_symbol
_atom_site_label
_atom_site_fract_x
_atom_site_fract_y
_atom_site_fract_z
Si Si1 0.402486 0.323982 0.781490
Si Si2 0.452508 0.108231 0.921059
Si Si3 0.172621 0.187274 0.523556
Si Si4 0.676238 0.505534 0.287187
Si Si5 0.175201 0.273760 0.095695
Si Si6 0.404753 0.098521 0.241779
O O1 0.458069 0.223036 0.812261
O O2 0.355298 0.287222 0.639265
O O3 0.418347 0.460953 0.764452
O O4 0.364572 0.307744 0.944027
O O5 0.500000 0.000000 0.885861
O O6 0.380855 0.052238 0.885713
O O7 0.454685 0.138386 0.104181
O O8 0.250000 0.210649 0.471818
O O9 0.112074 0.156501 0.406847
O O10 0.178246 0.071247 0.630741
O O11 0.750000 0.501939 0.354864
O O12 0.658686 0.637214 0.235350
O O13 0.250000 0.292757 0.055283
O O14 0.162874 0.143249 0.159485
#
# Coordination Sequence:
#
# PCOD9363911 Si02
#       6
#     8   8   8   8   8   8
#     4  10  22  42  62  91 133 174 220 271 336 392
#     4  10  24  47  65  93 132 173 229 282 337 406
#     4  10  20  35  61  95 131 171 218 265 325 397
#     4   9  19  39  67  96 131 173 215 272 338 398
#     4  10  20  36  61  95 137 175 214 269 330 403
#     4  11  23  39  61  93 129 171 221 272 332 391
#
# _framework density 24.116880999999999
#
# number of rings (size 3 to 8) (size 9 to 14) (size 15 to 20)
#    0.000    2.000    1.667    1.000    2.333    6.667 
#    6.000    3.333    0.000    0.000    0.000    0.000 
#    0.000    0.000    0.000    0.000    0.000    0.000 
#
# Total GULP energy -133770.580561 kJ/mol
# GULP energy per Si atom -5573.774190 kJ/mol
# Density = 2.406199 g / cm^3
# Si number density = 24.116881 Si / 1000 Ang^3
#
#
#
# Elastic Constant Matrix: (Units=GPa)
#
#
# Indices 1 2 3 4 5 6 
#
# 1 48.6607 27.5809 41.6479 0.0000 0.0000 0.0000
# 2 27.5809 86.2836 33.7384 0.0000 0.0000 0.0000
# 3 41.6479 33.7384 75.0791 0.0000 0.0000 0.0000
# 4 0.0000 0.0000 0.0000 19.2415 0.0000 0.0000
# 5 0.0000 0.0000 0.0000 0.0000 25.0121 0.0000
# 6 0.0000 0.0000 0.0000 0.0000 0.0000 20.7336
#
#
#
# Elastic Compliance Matrix: (Units=1/GPa)
#
#
# Indices 1 2 3 4 5 6 
#
# 1 0.040895 -0.005098 -0.020395 0.000000 0.000000 0.000000
# 2 -0.005098 0.014696 -0.003776 0.000000 0.000000 0.000000
# 3 -0.020395 -0.003776 0.026329 0.000000 0.000000 0.000000
# 4 0.000000 0.000000 0.000000 0.051971 0.000000 0.000000
# 5 0.000000 0.000000 0.000000 0.000000 0.039981 0.000000
# 6 0.000000 0.000000 0.000000 0.000000 0.000000 0.048231
#
#
# Mechanical properties :
#
#
# Convention : Reuss Voigt Hill
#
# Bulk Modulus (GPa) = 42.76494 46.21755 44.49124
# Shear Modulus (GPa) = 17.33496 20.13452 18.73474
#
# Velocity S-wave (km/s) = 2.68393 2.89255 2.79019
# Velocity P-wave (km/s) = 5.23216 5.51012 5.37294
#
# Compressibility (1/GPa) = 0.02338364
#
# Stress axis : x y z
#
# Youngs Moduli (GPa) = 24.45267 68.04730 37.98025
#
# Poissons Ratio (x) = 0.34688 0.77460
# Poissons Ratio (y) = 0.12465 0.14341
# Poissons Ratio (z) = 0.49871 0.25695
#
# Static dielectric constant tensor:
#      x y z
#    x 1.994020 0.000000 0.000000 
#    y 0.000000 1.991020 0.000000 
#    z 0.000000 0.000000 1.973390 
# 
# From -- ./inp_files/8745.got.cif
#   From: 2010.05.17/outbox.cif.g08.bks.cpg/sg40_5_cif.got.tgz:8745.got - 2010.06.03 18:35:42.
