data_PCOD9363785
_publ_section_title
;
Structure prediction by ZEFSAII (Michael W. Deem and Ramdas Pophale) SiO2 
 PCOD9363785
Probable space group: A M A 2
;
_chemical_formula_sum "Si O2"
_cell_formula_units_Z 40
_cell_length_a 19.866594
_cell_length_b 17.668721
_cell_length_c 6.164187
_cell_angle_alpha 90.000000
_cell_angle_beta 90.000000
_cell_angle_gamma 90.000000
_cell_volume 2163.736318
_symmetry_space_group_name_H-M "A M A 2"
_symmetry_group_IT_number 40
_symmetry_cell_setting 'orthorhombic'
loop_
_space_group_symop_operation_xyz
x,y,z
-x,-y,z
1/2-x,y,z
1/2+x,-y,z
x,1/2+y,1/2+z
-x,1/2-y,1/2+z
1/2-x,1/2+y,1/2+z
1/2+x,1/2-y,1/2+z
loop_
_atom_site_type_symbol
_atom_site_label
_atom_site_fract_x
_atom_site_fract_y
_atom_site_fract_z
Si Si1 0.930593 0.583941 0.941930
Si Si2 0.576947 0.479195 0.323864
Si Si3 0.670715 0.598775 0.565704
Si Si4 0.418497 0.293421 0.322966
Si Si5 0.537640 0.851885 0.114391
O O1 0.864310 0.598127 0.799863
O O2 0.994440 0.596193 0.782361
O O3 0.922132 0.504590 0.071852
O O4 0.934288 0.648561 0.126213
O O5 0.500000 0.500000 0.385613
O O6 0.632072 0.531459 0.438861
O O7 0.579652 0.396744 0.431109
O O8 0.750000 0.589398 0.571084
O O9 0.647513 0.674737 0.441316
O O10 0.417261 0.208045 0.242265
O O11 0.479831 0.304399 0.490611
#
# Coordination Sequence:
#
# PCOD9363785 Si02
#       5
#     8   8   8   8   8
#     4  10  20  34  58  86 126 158 200 253 316 363
#     4  11  21  34  60  94 121 156 206 265 310 365
#     4  10  23  41  59  84 123 174 216 250 311 385
#     4  10  20  34  61  90 121 155 198 262 313 370
#     4  11  20  34  59  97 123 150 203 261 320 364
#
# _framework density 18.486540999999999
#
# number of rings (size 3 to 8) (size 9 to 14) (size 15 to 20)
#    0.000    1.600    8.000    0.000    2.800    3.200 
#    0.000    1.000    0.000    0.000    0.000    0.000 
#    0.000    0.000    0.000    0.000    0.000    0.000 
#
# Total GULP energy -111423.983916 kJ/mol
# GULP energy per Si atom -5571.199196 kJ/mol
# Density = 1.844447 g / cm^3
# Si number density = 18.486541 Si / 1000 Ang^3
#
#
#
# Elastic Constant Matrix: (Units=GPa)
#
#
# Indices 1 2 3 4 5 6 
#
# 1 111.1525 38.9218 31.8169 0.0000 0.0000 0.0000
# 2 38.9218 94.2601 43.3127 0.0000 0.0000 0.0000
# 3 31.8169 43.3127 102.7424 0.0000 0.0000 0.0000
# 4 0.0000 0.0000 0.0000 41.8831 0.0000 0.0000
# 5 0.0000 0.0000 0.0000 0.0000 13.4273 0.0000
# 6 0.0000 0.0000 0.0000 0.0000 0.0000 18.0772
#
#
#
# Elastic Compliance Matrix: (Units=1/GPa)
#
#
# Indices 1 2 3 4 5 6 
#
# 1 0.010783 -0.003619 -0.001814 0.000000 0.000000 0.000000
# 2 -0.003619 0.014372 -0.004938 0.000000 0.000000 0.000000
# 3 -0.001814 -0.004938 0.012376 0.000000 0.000000 0.000000
# 4 0.000000 0.000000 0.000000 0.023876 0.000000 0.000000
# 5 0.000000 0.000000 0.000000 0.000000 0.074475 0.000000
# 6 0.000000 0.000000 0.000000 0.000000 0.000000 0.055318
#
#
# Mechanical properties :
#
#
# Convention : Reuss Voigt Hill
#
# Bulk Modulus (GPa) = 59.55854 59.58417 59.57136
# Shear Modulus (GPa) = 22.98425 27.61776 25.30101
#
# Velocity S-wave (km/s) = 3.52987 3.86934 3.70350
# Velocity P-wave (km/s) = 6.99289 7.22935 7.11210
#
# Compressibility (1/GPa) = 0.01679020
#
# Stress axis : x y z
#
# Youngs Moduli (GPa) = 92.73782 69.57734 80.79859
#
# Poissons Ratio (x) = 0.25182 0.14653
# Poissons Ratio (y) = 0.33564 0.39900
# Poissons Ratio (z) = 0.16818 0.34358
#
# Static dielectric constant tensor:
#      x y z
#    x 1.581870 0.000000 0.000000 
#    y 0.000000 1.721360 0.000000 
#    z 0.000000 0.000000 1.695230 
# 
# From -- ./inp_files/1811.got.cif
#   From: 2010.05.17/outbox.cif.g08.bks.cpg/sg40_1_cif.got.tgz:1811.got - 2010.06.03 18:35:42.
