data_PCOD9363855
_publ_section_title
;
Structure prediction by ZEFSAII (Michael W. Deem and Ramdas Pophale) SiO2 
 PCOD9363855
Probable space group: A M A 2
;
_chemical_formula_sum "Si O2"
_cell_formula_units_Z 64
_cell_length_a 8.875597
_cell_length_b 18.520749
_cell_length_c 21.469588
_cell_angle_alpha 90.000000
_cell_angle_beta 90.000000
_cell_angle_gamma 90.000000
_cell_volume 3529.228935
_symmetry_space_group_name_H-M "A M A 2"
_symmetry_group_IT_number 40
_symmetry_cell_setting 'orthorhombic'
loop_
_space_group_symop_operation_xyz
x,y,z
-x,-y,z
1/2-x,y,z
1/2+x,-y,z
x,1/2+y,1/2+z
-x,1/2-y,1/2+z
1/2-x,1/2+y,1/2+z
1/2+x,1/2-y,1/2+z
loop_
_atom_site_type_symbol
_atom_site_label
_atom_site_fract_x
_atom_site_fract_y
_atom_site_fract_z
Si Si1 0.429343 0.172099 0.333150
Si Si2 0.928391 0.329351 0.335535
Si Si3 0.069144 0.671304 0.196539
Si Si4 0.430332 0.578929 0.575609
Si Si5 0.930041 0.331066 0.695880
Si Si6 0.071009 0.920713 0.584930
Si Si7 0.427760 0.831856 0.963919
Si Si8 0.072466 0.158357 0.469194
O O1 0.250000 0.191894 0.336222
O O2 0.527141 0.244788 0.333078
O O3 0.455756 0.137648 0.265542
O O4 0.460950 0.132828 0.398331
O O5 0.750000 0.337713 0.344278
O O6 0.969748 0.356597 0.266394
O O7 0.014729 0.357489 0.396156
O O8 0.250000 0.671026 0.190843
O O9 0.010271 0.753537 0.190937
O O10 0.995695 0.623845 0.142894
O O11 0.500000 0.500000 0.570450
O O12 0.250000 0.574206 0.574930
O O13 0.477968 0.616824 0.640347
O O14 0.485772 0.627971 0.518665
O O15 0.750000 0.318778 0.689986
O O16 0.250000 0.924995 0.590051
O O17 0.024227 0.879834 0.521641
O O18 0.000000 0.000000 0.584237
O O19 0.250000 0.844716 0.969326
O O20 0.451936 0.745153 0.969317
O O21 0.250000 0.145825 0.481989
#
# Coordination Sequence:
#
# PCOD9363855 Si02
#       8
#     8   8   8   8   8   8   8   8
#     4   8  15  30  53  80 109 138 171 215 264 311
#     4   9  17  30  52  82 111 136 169 215 262 311
#     4  10  20  35  57  84 111 138 172 216 264 315
#     4  11  23  37  53  75 107 144 182 224 266 313
#     4   9  18  34  57  83 108 139 179 219 262 313
#     4  12  25  39  55  75 105 143 181 222 265 314
#     4  10  20  35  57  82 109 141 176 217 263 313
#     4   9  18  34  57  83 110 139 172 214 264 316
#
# _framework density 18.134271999999999
#
# number of rings (size 3 to 8) (size 9 to 14) (size 15 to 20)
#    0.000    2.250    0.000    4.125    0.000    7.000 
#    0.000    1.250    0.000    4.500    0.000    0.000 
#    0.000    0.000    0.000    0.000    0.000    0.000 
#
# Total GULP energy -178477.114447 kJ/mol
# GULP energy per Si atom -5577.409826 kJ/mol
# Density = 1.809300 g / cm^3
# Si number density = 18.134272 Si / 1000 Ang^3
#
#
#
# Elastic Constant Matrix: (Units=GPa)
#
#
# Indices 1 2 3 4 5 6 
#
# 1 69.8073 39.7746 67.7144 0.0000 0.0000 0.0000
# 2 39.7746 58.1752 63.4979 0.0000 0.0000 0.0000
# 3 67.7144 63.4979 177.1234 0.0000 0.0000 0.0000
# 4 0.0000 0.0000 0.0000 -8.5685 0.0000 0.0000
# 5 0.0000 0.0000 0.0000 0.0000 -9.0597 0.0000
# 6 0.0000 0.0000 0.0000 0.0000 0.0000 -47.3974
#
#
#
# Elastic Compliance Matrix: (Units=1/GPa)
#
#
# Indices 1 2 3 4 5 6 
#
# 1 0.026928 -0.011786 -0.006069 0.000000 0.000000 0.000000
# 2 -0.011786 0.033398 -0.007467 0.000000 0.000000 0.000000
# 3 -0.006069 -0.007467 0.010643 0.000000 0.000000 0.000000
# 4 0.000000 0.000000 0.000000 -0.116707 0.000000 0.000000
# 5 0.000000 0.000000 0.000000 0.000000 -0.110379 0.000000
# 6 0.000000 0.000000 0.000000 0.000000 0.000000 -0.021098
#
#
# Mechanical properties :
#
#
# Convention : Reuss Voigt Hill
#
# Bulk Modulus (GPa) = 49.20340 71.89773 60.55057
# Shear Modulus (GPa) = -41.73810 -4.06385 -22.90098
#
# Velocity S-wave (km/s) = -4.80272 -1.49861 -3.55752
# Velocity P-wave (km/s) = 1.88761 6.06127 4.07283
#
# Compressibility (1/GPa) = 0.02032380
#
# Stress axis : x y z
#
# Youngs Moduli (GPa) = 37.13617 29.94183 93.95812
#
# Poissons Ratio (x) = 0.35290 0.57026
# Poissons Ratio (y) = 0.43769 0.70161
# Poissons Ratio (z) = 0.22539 0.22358
#
# Static dielectric constant tensor:
#      x y z
#    x 1.604120 0.000000 0.000000 
#    y 0.000000 1.579530 0.000000 
#    z 0.000000 0.000000 1.659650 
# 
# From -- ./inp_files/22446.got.cif
#   From: 2010.05.17/outbox.cif.g08.bks.cpg/sg40_12_cif.got.tgz:22446.got - 2010.06.03 18:35:42.
