data_PCOD9363989
_publ_section_title
;
Structure prediction by ZEFSAII (Michael W. Deem and Ramdas Pophale) SiO2 
 PCOD9363989
Probable space group: A M A 2
;
_chemical_formula_sum "Si O2"
_cell_formula_units_Z 28
_cell_length_a 9.669128
_cell_length_b 7.566223
_cell_length_c 16.532553
_cell_angle_alpha 90.000000
_cell_angle_beta 90.000000
_cell_angle_gamma 90.000000
_cell_volume 1209.501386
_symmetry_space_group_name_H-M "A M A 2"
_symmetry_group_IT_number 40
_symmetry_cell_setting 'orthorhombic'
loop_
_space_group_symop_operation_xyz
x,y,z
-x,-y,z
1/2-x,y,z
1/2+x,-y,z
x,1/2+y,1/2+z
-x,1/2-y,1/2+z
1/2-x,1/2+y,1/2+z
1/2+x,1/2-y,1/2+z
loop_
_atom_site_type_symbol
_atom_site_label
_atom_site_fract_x
_atom_site_fract_y
_atom_site_fract_z
Si Si1 0.397986 0.654895 0.589710
Si Si2 0.500000 0.500000 0.359629
Si Si3 0.750000 0.586156 0.992229
Si Si4 0.250000 0.612283 0.740413
Si Si5 0.750000 0.762161 0.813191
Si Si6 0.250000 0.280093 0.417968
O O1 0.500000 0.500000 0.574869
O O2 0.250000 0.570620 0.565767
O O3 0.382980 0.836651 0.540984
O O4 0.378879 0.679148 0.686271
O O5 0.609927 0.379307 0.310102
O O6 0.393200 0.387472 0.414226
O O7 0.750000 0.675709 0.903565
O O8 0.750000 0.377337 0.982151
O O9 0.250000 0.400377 0.750687
O O10 0.250000 0.690525 0.828666
#
# Coordination Sequence:
#
# PCOD9363989 Si02
#       6
#     8   4   4   4   4   4
#     4   8  18  33  59  96 128 176 209 262 334 404
#     4  10  24  34  60  90 136 168 218 274 326 382
#     4   8  20  34  66  85 127 172 228 260 336 392
#     4   8  20  32  68  90 131 171 212 263 345 389
#     4  10  20  36  58  97 121 175 211 271 321 392
#     4  10  20  42  60  92 131 176 221 278 332 397
#
# _framework density 23.150037000000001
#
# number of rings (size 3 to 8) (size 9 to 14) (size 15 to 20)
#    1.714    1.143    0.000    0.000    6.000    3.429 
#    0.000    0.000    6.286   41.143    0.000    0.000 
#    0.000    0.000    0.000    0.000    0.000    0.000 
#
# Total GULP energy -77934.716487 kJ/mol
# GULP energy per Si atom -5566.765463 kJ/mol
# Density = 2.309735 g / cm^3
# Si number density = 23.150037 Si / 1000 Ang^3
#
#
#
# Elastic Constant Matrix: (Units=GPa)
#
#
# Indices 1 2 3 4 5 6 
#
# 1 145.5621 73.9257 10.2986 0.0000 0.0000 0.0000
# 2 73.9257 142.8329 44.5548 0.0000 0.0000 0.0000
# 3 10.2986 44.5548 93.7781 0.0000 0.0000 0.0000
# 4 0.0000 0.0000 0.0000 37.1788 0.0000 0.0000
# 5 0.0000 0.0000 0.0000 0.0000 7.9904 0.0000
# 6 0.0000 0.0000 0.0000 0.0000 0.0000 38.9101
#
#
#
# Elastic Compliance Matrix: (Units=1/GPa)
#
#
# Indices 1 2 3 4 5 6 
#
# 1 0.009500 -0.005390 0.001518 0.000000 0.000000 0.000000
# 2 -0.005390 0.011278 -0.004766 0.000000 0.000000 0.000000
# 3 0.001518 -0.004766 0.012761 0.000000 0.000000 0.000000
# 4 0.000000 0.000000 0.000000 0.026897 0.000000 0.000000
# 5 0.000000 0.000000 0.000000 0.000000 0.125150 0.000000
# 6 0.000000 0.000000 0.000000 0.000000 0.000000 0.025700
#
#
# Mechanical properties :
#
#
# Convention : Reuss Voigt Hill
#
# Bulk Modulus (GPa) = 61.49513 71.08125 66.28819
# Shear Modulus (GPa) = 21.36891 33.70879 27.53885
#
# Velocity S-wave (km/s) = 3.04149 3.82003 3.45277
# Velocity P-wave (km/s) = 6.24144 7.08718 6.67771
#
# Compressibility (1/GPa) = 0.01626145
#
# Stress axis : x y z
#
# Youngs Moduli (GPa) = 105.26184 88.66942 78.36203
#
# Poissons Ratio (x) = 0.47796 -0.11893
# Poissons Ratio (y) = 0.56740 0.37349
# Poissons Ratio (z) = -0.15976 0.42262
#
# Static dielectric constant tensor:
#      x y z
#    x 1.836910 0.000000 0.000000 
#    y 0.000000 1.884500 0.000000 
#    z 0.000000 0.000000 1.974610 
# 
# From -- ./inp_files/18912.got.cif
#   From: 2010.05.17/outbox.cif.g08.bks.cpg/sg40_10_cif.got.tgz:18912.got - 2010.06.03 18:35:42.
