data_PCOD9363321
_publ_section_title
;
Structure prediction by ZEFSAII (Michael W. Deem and Ramdas Pophale) SiO2 
 PCOD9363321
Probable space group: A M A 2
;
_chemical_formula_sum "Si O2"
_cell_formula_units_Z 64
_cell_length_a 9.012060
_cell_length_b 25.364691
_cell_length_c 15.025156
_cell_angle_alpha 90.000000
_cell_angle_beta 90.000000
_cell_angle_gamma 90.000000
_cell_volume 3434.572120
_symmetry_space_group_name_H-M "A M A 2"
_symmetry_group_IT_number 40
_symmetry_cell_setting 'orthorhombic'
loop_
_space_group_symop_operation_xyz
x,y,z
-x,-y,z
1/2-x,y,z
1/2+x,-y,z
x,1/2+y,1/2+z
-x,1/2-y,1/2+z
1/2-x,1/2+y,1/2+z
1/2+x,1/2-y,1/2+z
loop_
_atom_site_type_symbol
_atom_site_label
_atom_site_fract_x
_atom_site_fract_y
_atom_site_fract_z
Si Si1 0.072977 0.104333 0.799900
Si Si2 0.075254 0.869469 0.142433
Si Si3 0.925238 0.352483 0.020262
Si Si4 0.427272 0.057355 0.994757
Si Si5 0.425401 0.167689 0.311511
Si Si6 0.074939 0.266520 0.527701
Si Si7 0.426698 0.222304 0.839122
Si Si8 0.573875 0.055334 0.629984
O O1 0.250000 0.098085 0.784356
O O2 0.041131 0.085272 0.900070
O O3 0.037389 0.166520 0.793854
O O4 0.983844 0.071086 0.728075
O O5 0.250000 0.880919 0.145067
O O6 0.056100 0.810561 0.102179
O O7 0.005630 0.869040 0.240148
O O8 0.994728 0.908564 0.074676
O O9 0.750000 0.362333 0.036327
O O10 0.959625 0.293430 0.055483
O O11 0.019248 0.397649 0.066282
O O12 0.950194 0.349288 0.913920
O O13 0.250000 0.053697 0.004059
O O14 0.500000 0.000000 0.994242
O O15 0.250000 0.168137 0.295470
O O16 0.489993 0.226691 0.302296
O O17 0.250000 0.266248 0.500595
O O18 0.976953 0.281122 0.442227
O O19 0.250000 0.230256 0.833266
O O20 0.750000 0.050554 0.629118
O O21 0.500000 0.000000 0.603916
#
# Coordination Sequence:
#
# PCOD9363321 Si02
#       8
#     8   8   8   8   8   8   8   8
#     4  10  22  39  60  88 123 161 200 245 298 355
#     4  11  22  37  60  91 124 163 204 249 301 360
#     4   9  20  41  63  85 119 158 198 248 302 355
#     4  11  23  41  62  88 121 163 206 253 303 358
#     4  10  22  39  60  88 124 163 200 248 303 360
#     4   9  19  35  57  86 121 159 195 237 295 355
#     4  10  19  34  57  87 122 160 198 241 294 352
#     4  12  26  42  63  89 117 155 202 253 303 360
#
# _framework density 18.634053999999999
#
# number of rings (size 3 to 8) (size 9 to 14) (size 15 to 20)
#    0.000    1.750    1.250    3.750    1.750    6.000 
#    0.000    0.625    0.000    3.000    0.000    0.000 
#    0.000    0.000    0.000    0.000    0.000    0.000 
#
# Total GULP energy -178830.888577 kJ/mol
# GULP energy per Si atom -5588.465268 kJ/mol
# Density = 1.859164 g / cm^3
# Si number density = 18.634054 Si / 1000 Ang^3
#
#
#
# Elastic Constant Matrix: (Units=GPa)
#
#
# Indices 1 2 3 4 5 6 
#
# 1 82.0180 56.4009 42.8616 0.0000 0.0000 0.0000
# 2 56.4009 107.6883 37.0807 0.0000 0.0000 0.0000
# 3 42.8616 37.0807 55.8728 0.0000 0.0000 0.0000
# 4 0.0000 0.0000 0.0000 25.9557 0.0000 0.0000
# 5 0.0000 0.0000 0.0000 0.0000 31.3275 0.0000
# 6 0.0000 0.0000 0.0000 0.0000 0.0000 26.2062
#
#
#
# Elastic Compliance Matrix: (Units=1/GPa)
#
#
# Indices 1 2 3 4 5 6 
#
# 1 0.025169 -0.008469 -0.013687 0.000000 0.000000 0.000000
# 2 -0.008469 0.014886 -0.003383 0.000000 0.000000 0.000000
# 3 -0.013687 -0.003383 0.030643 0.000000 0.000000 0.000000
# 4 0.000000 0.000000 0.000000 0.038527 0.000000 0.000000
# 5 0.000000 0.000000 0.000000 0.000000 0.031921 0.000000
# 6 0.000000 0.000000 0.000000 0.000000 0.000000 0.038159
#
#
# Mechanical properties :
#
#
# Convention : Reuss Voigt Hill
#
# Bulk Modulus (GPa) = 50.96830 57.58506 54.27668
# Shear Modulus (GPa) = 21.10385 23.98029 22.54207
#
# Velocity S-wave (km/s) = 3.36898 3.59124 3.48188
# Velocity P-wave (km/s) = 6.52265 6.94019 6.73466
#
# Compressibility (1/GPa) = 0.01962004
#
# Stress axis : x y z
#
# Youngs Moduli (GPa) = 39.73110 67.17502 32.63418
#
# Poissons Ratio (x) = 0.56892 0.44668
# Poissons Ratio (y) = 0.33649 0.11039
# Poissons Ratio (z) = 0.54381 0.22723
#
# Static dielectric constant tensor:
#      x y z
#    x 1.617820 0.000000 0.000000 
#    y 0.000000 1.629290 0.000000 
#    z 0.000000 0.000000 1.643070 
# 
# From -- ./inp_files/15559.got.cif
#   From: 2010.05.17/outbox.cif.g08.bks.cpg/sg40_8_cif.got.tgz:15559.got - 2010.06.03 18:35:42.
