data_PCOD9363333
_publ_section_title
;
Structure prediction by ZEFSAII (Michael W. Deem and Ramdas Pophale) SiO2 
 PCOD9363333
Probable space group: A M A 2
;
_chemical_formula_sum "Si O2"
_cell_formula_units_Z 48
_cell_length_a 8.561857
_cell_length_b 23.406387
_cell_length_c 11.853258
_cell_angle_alpha 90.000000
_cell_angle_beta 90.000000
_cell_angle_gamma 90.000000
_cell_volume 2375.418250
_symmetry_space_group_name_H-M "A M A 2"
_symmetry_group_IT_number 40
_symmetry_cell_setting 'orthorhombic'
loop_
_space_group_symop_operation_xyz
x,y,z
-x,-y,z
1/2-x,y,z
1/2+x,-y,z
x,1/2+y,1/2+z
-x,1/2-y,1/2+z
1/2-x,1/2+y,1/2+z
1/2+x,1/2-y,1/2+z
loop_
_atom_site_type_symbol
_atom_site_label
_atom_site_fract_x
_atom_site_fract_y
_atom_site_fract_z
Si Si1 0.568949 0.343631 0.672650
Si Si2 0.929338 0.061360 0.027209
Si Si3 0.434930 0.354715 0.920277
Si Si4 0.430128 0.855000 0.812913
Si Si5 0.936757 0.238044 0.985549
Si Si6 0.439329 0.435919 0.115381
O O1 0.750000 0.329086 0.661507
O O2 0.531612 0.404858 0.617670
O O3 0.520476 0.346771 0.801999
O O4 0.472300 0.299000 0.596687
O O5 0.750000 0.057576 0.066355
O O6 0.929513 0.098840 0.913832
O O7 0.000000 0.000000 0.004135
O O8 0.250000 0.357196 0.900936
O O9 0.477774 0.298193 0.990710
O O10 0.480795 0.410175 0.993051
O O11 0.250000 0.841016 0.783130
O O12 0.494289 0.798309 0.875116
O O13 0.499159 0.889189 0.707016
O O14 0.750000 0.245208 0.975269
O O15 0.500000 0.500000 0.133739
O O16 0.250000 0.437314 0.124874
#
# Coordination Sequence:
#
# PCOD9363333 Si02
#       6
#     8   8   8   8   8   8
#     4  11  23  40  60  84 118 158 203 252 307 364
#     4  10  19  34  58  87 119 153 197 248 303 365
#     4  11  24  40  60  88 123 162 205 253 308 371
#     4   8  17  35  59  88 120 155 191 244 304 359
#     4  10  21  39  64  92 123 155 199 253 314 377
#     4  10  22  40  61  87 123 163 204 250 302 366
#
# _framework density 20.206968
#
# number of rings (size 3 to 8) (size 9 to 14) (size 15 to 20)
#    0.000    2.000    0.000    4.500    2.333    2.000 
#    0.000    5.833    0.000    0.000    0.000    0.000 
#    0.000    0.000    0.000    0.000    0.000    0.000 
#
# Total GULP energy -133977.082355 kJ/mol
# GULP energy per Si atom -5582.378431 kJ/mol
# Density = 2.016098 g / cm^3
# Si number density = 20.206968 Si / 1000 Ang^3
#
#
#
# Elastic Constant Matrix: (Units=GPa)
#
#
# Indices 1 2 3 4 5 6 
#
# 1 19.9829 -0.7765 3.3385 0.0000 0.0000 0.0000
# 2 -0.7765 58.2602 4.1685 0.0000 0.0000 0.0000
# 3 3.3385 4.1685 69.8806 0.0000 0.0000 0.0000
# 4 0.0000 0.0000 0.0000 13.8560 0.0000 0.0000
# 5 0.0000 0.0000 0.0000 0.0000 23.1456 0.0000
# 6 0.0000 0.0000 0.0000 0.0000 0.0000 28.1675
#
#
#
# Elastic Compliance Matrix: (Units=1/GPa)
#
#
# Indices 1 2 3 4 5 6 
#
# 1 0.050487 0.000849 -0.002463 0.000000 0.000000 0.000000
# 2 0.000849 0.017252 -0.001070 0.000000 0.000000 0.000000
# 3 -0.002463 -0.001070 0.014492 0.000000 0.000000 0.000000
# 4 0.000000 0.000000 0.000000 0.072171 0.000000 0.000000
# 5 0.000000 0.000000 0.000000 0.000000 0.043205 0.000000
# 6 0.000000 0.000000 0.000000 0.000000 0.000000 0.035502
#
#
# Mechanical properties :
#
#
# Convention : Reuss Voigt Hill
#
# Bulk Modulus (GPa) = 13.00988 17.95384 15.48186
# Shear Modulus (GPa) = 18.93246 22.46003 20.69625
#
# Velocity S-wave (km/s) = 3.06425 3.33753 3.20381
# Velocity P-wave (km/s) = 4.35566 4.87406 4.62213
#
# Compressibility (1/GPa) = 0.07686466
#
# Stress axis : x y z
#
# Youngs Moduli (GPa) = 19.80697 57.96351 69.00556
#
# Poissons Ratio (x) = -0.04922 0.16994
# Poissons Ratio (y) = -0.01682 0.07381
# Poissons Ratio (z) = 0.04878 0.06200
#
# Static dielectric constant tensor:
#      x y z
#    x 1.684390 0.000000 0.000000 
#    y 0.000000 1.721830 0.000000 
#    z 0.000000 0.000000 1.734670 
# 
# From -- ./inp_files/10257.got.cif
#   From: 2010.05.17/outbox.cif.g08.bks.cpg/sg40_6_cif.got.tgz:10257.got - 2010.06.03 18:35:42.
