data_PCOD9363647
_publ_section_title
;
Structure prediction by ZEFSAII (Michael W. Deem and Ramdas Pophale) SiO2 
 PCOD9363647
Probable space group: A M A 2
;
_chemical_formula_sum "Si O2"
_cell_formula_units_Z 64
_cell_length_a 9.924957
_cell_length_b 12.284210
_cell_length_c 27.159462
_cell_angle_alpha 90.000000
_cell_angle_beta 90.000000
_cell_angle_gamma 90.000000
_cell_volume 3311.288561
_symmetry_space_group_name_H-M "A M A 2"
_symmetry_group_IT_number 40
_symmetry_cell_setting 'orthorhombic'
loop_
_space_group_symop_operation_xyz
x,y,z
-x,-y,z
1/2-x,y,z
1/2+x,-y,z
x,1/2+y,1/2+z
-x,1/2-y,1/2+z
1/2-x,1/2+y,1/2+z
1/2+x,1/2-y,1/2+z
loop_
_atom_site_type_symbol
_atom_site_label
_atom_site_fract_x
_atom_site_fract_y
_atom_site_fract_z
Si Si1 0.100671 0.599919 0.448320
Si Si2 0.902480 0.779414 0.698775
Si Si3 0.596269 0.407007 0.977626
Si Si4 0.512241 0.273499 0.542195
Si Si5 0.407659 0.313859 0.893736
Si Si6 0.408130 0.897116 0.625433
Si Si7 0.894435 0.583109 0.622585
Si Si8 0.408952 0.893212 0.281873
O O1 0.250000 0.555682 0.441896
O O2 0.096226 0.673681 0.497862
O O3 0.071550 0.685565 0.404362
O O4 0.000000 0.500000 0.451249
O O5 0.750000 0.827456 0.705212
O O6 0.887584 0.687219 0.657022
O O7 0.941094 0.709931 0.746911
O O8 0.017470 0.855931 0.675618
O O9 0.500000 0.500000 0.999093
O O10 0.750000 0.440889 0.969481
O O11 0.516810 0.372810 0.928194
O O12 0.591650 0.305656 0.014610
O O13 0.582572 0.197920 0.583632
O O14 0.442262 0.372418 0.570355
O O15 0.250000 0.335290 0.907959
O O16 0.423991 0.353807 0.838155
O O17 0.250000 0.924191 0.631866
O O18 0.500000 0.000000 0.610214
O O19 0.750000 0.528571 0.618622
O O20 0.000000 0.500000 0.643934
O O21 0.250000 0.918966 0.273012
O O22 0.500000 0.000000 0.273017
#
# Coordination Sequence:
#
# PCOD9363647 Si02
#       8
#     8   8   8   8   8   8   8   8
#     4  10  21  37  56  79 109 145 185 229 276 327
#     4   9  20  38  57  80 112 146 182 225 275 333
#     4  11  22  35  53  77 107 143 182 225 275 331
#     4  10  22  36  54  77 106 142 185 228 270 325
#     4   9  20  38  57  80 112 147 185 230 280 335
#     4  11  23  39  60  84 112 148 188 231 280 334
#     4  10  20  33  50  74 104 137 173 216 265 319
#     4  10  20  36  60  87 115 148 185 232 287 338
#
# _framework density 19.327824
#
# number of rings (size 3 to 8) (size 9 to 14) (size 15 to 20)
#    0.000    2.000    0.000    3.000    0.000   12.000 
#    0.000    0.625    0.000    1.500    0.000    0.000 
#    0.000    0.000    0.000    0.000    0.000    0.000 
#
# Total GULP energy -178420.332925 kJ/mol
# GULP energy per Si atom -5575.635404 kJ/mol
# Density = 1.928383 g / cm^3
# Si number density = 19.327824 Si / 1000 Ang^3
#
#
#
# Elastic Constant Matrix: (Units=GPa)
#
#
# Indices 1 2 3 4 5 6 
#
# 1 144.0231 55.4772 25.6807 0.0000 0.0000 0.0000
# 2 55.4772 76.9643 14.0087 0.0000 0.0000 0.0000
# 3 25.6807 14.0087 72.7321 0.0000 0.0000 0.0000
# 4 0.0000 0.0000 0.0000 6.9971 0.0000 0.0000
# 5 0.0000 0.0000 0.0000 0.0000 -29.4171 0.0000
# 6 0.0000 0.0000 0.0000 0.0000 0.0000 26.0425
#
#
#
# Elastic Compliance Matrix: (Units=1/GPa)
#
#
# Indices 1 2 3 4 5 6 
#
# 1 0.009943 -0.006765 -0.002208 0.000000 0.000000 0.000000
# 2 -0.006765 0.018068 -0.001091 0.000000 0.000000 0.000000
# 3 -0.002208 -0.001091 0.014739 0.000000 0.000000 0.000000
# 4 0.000000 0.000000 0.000000 0.142916 0.000000 0.000000
# 5 0.000000 0.000000 0.000000 0.000000 -0.033994 0.000000
# 6 0.000000 0.000000 0.000000 0.000000 0.000000 0.038399
#
#
# Mechanical properties :
#
#
# Convention : Reuss Voigt Hill
#
# Bulk Modulus (GPa) = 44.20593 53.78363 48.99478
# Shear Modulus (GPa) = 22.96317 13.96136 18.46226
#
# Velocity S-wave (km/s) = 3.45061 2.69056 3.09401
# Velocity P-wave (km/s) = 6.22871 6.12696 6.17805
#
# Compressibility (1/GPa) = 0.02262140
#
# Stress axis : x y z
#
# Youngs Moduli (GPa) = 100.57420 55.34600 67.84817
#
# Poissons Ratio (x) = 0.37443 0.14979
# Poissons Ratio (y) = 0.68040 0.07405
# Poissons Ratio (z) = 0.22204 0.06040
#
# Static dielectric constant tensor:
#      x y z
#    x 1.689680 0.000000 0.000000 
#    y 0.000000 1.707170 0.000000 
#    z 0.000000 0.000000 1.687900 
# 
# From -- ./inp_files/26370.got.cif
#   From: 2010.05.17/outbox.cif.g08.bks.cpg/sg40_14_cif.got.tgz:26370.got - 2010.06.03 18:35:42.
