data_PCOD9363879
_publ_section_title
;
Structure prediction by ZEFSAII (Michael W. Deem and Ramdas Pophale) SiO2 
 PCOD9363879
Probable space group: A M A 2
;
_chemical_formula_sum "Si O2"
_cell_formula_units_Z 64
_cell_length_a 17.684797
_cell_length_b 12.308620
_cell_length_c 15.981750
_cell_angle_alpha 90.000000
_cell_angle_beta 90.000000
_cell_angle_gamma 90.000000
_cell_volume 3478.834560
_symmetry_space_group_name_H-M "A M A 2"
_symmetry_group_IT_number 40
_symmetry_cell_setting 'orthorhombic'
loop_
_space_group_symop_operation_xyz
x,y,z
-x,-y,z
1/2-x,y,z
1/2+x,-y,z
x,1/2+y,1/2+z
-x,1/2-y,1/2+z
1/2-x,1/2+y,1/2+z
1/2+x,1/2-y,1/2+z
loop_
_atom_site_type_symbol
_atom_site_label
_atom_site_fract_x
_atom_site_fract_y
_atom_site_fract_z
Si Si1 0.396514 0.211616 0.778870
Si Si2 0.341301 0.428313 0.029298
Si Si3 0.090217 0.479308 0.207964
Si Si4 0.581675 0.019805 0.000468
Si Si5 0.660629 0.195667 0.109777
Si Si6 0.659838 0.850832 0.451456
Si Si7 0.066152 0.813995 0.845203
Si Si8 0.662724 0.795886 0.954494
O O1 0.383179 0.281812 0.695846
O O2 0.481764 0.215811 0.815377
O O3 0.343749 0.236628 0.857322
O O4 0.379216 0.087940 0.751164
O O5 0.250000 0.427020 0.033384
O O6 0.374434 0.460964 0.118207
O O7 0.361312 0.523423 0.963763
O O8 0.367773 0.308298 0.004489
O O9 0.103458 0.375572 0.266842
O O10 0.000000 0.500000 0.201137
O O11 0.634889 0.086238 0.063117
O O12 0.500000 0.000000 0.040768
O O13 0.565807 0.095909 0.919387
O O14 0.617387 0.906035 0.972113
O O15 0.750000 0.194892 0.126984
O O16 0.646086 0.290383 0.040764
O O17 0.750000 0.841676 0.434964
O O18 0.612262 0.787064 0.382011
O O19 0.750000 0.814144 0.976793
#
# Coordination Sequence:
#
# PCOD9363879 Si02
#       8
#     8   8   8   8   8   8   8   8
#     4  11  20  38  60  88 121 153 200 253 303 354
#     4  10  22  39  57  86 121 157 198 241 296 362
#     4  10  20  35  58  86 116 148 196 250 300 350
#     4  11  20  39  62  86 123 159 197 254 303 355
#     4  10  21  36  61  93 120 154 202 252 299 359
#     4   9  19  37  59  85 120 159 200 247 301 359
#     4  10  20  36  59  92 120 149 202 257 306 358
#     4  11  23  38  60  86 120 162 201 244 302 364
#
# _framework density 18.396965999999999
#
# number of rings (size 3 to 8) (size 9 to 14) (size 15 to 20)
#    0.000    1.750    3.750    1.125    0.000    4.500 
#    0.000    2.500    0.000    3.000    0.000    0.000 
#    0.000    0.000    0.000    0.000    0.000    0.000 
#
# Total GULP energy -178585.479248 kJ/mol
# GULP energy per Si atom -5580.796226 kJ/mol
# Density = 1.835509 g / cm^3
# Si number density = 18.396966 Si / 1000 Ang^3
#
#
#
# Elastic Constant Matrix: (Units=GPa)
#
#
# Indices 1 2 3 4 5 6 
#
# 1 44.9607 42.1610 38.7805 0.0000 0.0000 0.0000
# 2 42.1610 90.1094 48.0259 0.0000 0.0000 0.0000
# 3 38.7805 48.0259 89.4746 0.0000 0.0000 0.0000
# 4 0.0000 0.0000 0.0000 31.0540 0.0000 0.0000
# 5 0.0000 0.0000 0.0000 0.0000 65.0890 0.0000
# 6 0.0000 0.0000 0.0000 0.0000 0.0000 21.0934
#
#
#
# Elastic Compliance Matrix: (Units=1/GPa)
#
#
# Indices 1 2 3 4 5 6 
#
# 1 0.047461 -0.015748 -0.012118 0.000000 0.000000 0.000000
# 2 -0.015748 0.020770 -0.004323 0.000000 0.000000 0.000000
# 3 -0.012118 -0.004323 0.018749 0.000000 0.000000 0.000000
# 4 0.000000 0.000000 0.000000 0.032202 0.000000 0.000000
# 5 0.000000 0.000000 0.000000 0.000000 0.015364 0.000000
# 6 0.000000 0.000000 0.000000 0.000000 0.000000 0.047408
#
#
# Mechanical properties :
#
#
# Convention : Reuss Voigt Hill
#
# Bulk Modulus (GPa) = 44.24298 53.60882 48.92590
# Shear Modulus (GPa) = 19.69546 29.81909 24.75728
#
# Velocity S-wave (km/s) = 3.27552 4.03037 3.67239
# Velocity P-wave (km/s) = 6.19731 7.13175 6.68089
#
# Compressibility (1/GPa) = 0.02260245
#
# Stress axis : x y z
#
# Youngs Moduli (GPa) = 21.06975 48.14690 53.33643
#
# Poissons Ratio (x) = 0.75821 0.64634
# Poissons Ratio (y) = 0.33180 0.23056
# Poissons Ratio (z) = 0.25533 0.20813
#
# Static dielectric constant tensor:
#      x y z
#    x 1.638590 0.000000 0.000000 
#    y 0.000000 1.643200 0.000000 
#    z 0.000000 0.000000 1.607050 
# 
# From -- ./inp_files/17814.got.cif
#   From: 2010.05.17/outbox.cif.g08.bks.cpg/sg40_9_cif.got.tgz:17814.got - 2010.06.03 18:35:42.
