data_PCOD9363571
_publ_section_title
;
Structure prediction by ZEFSAII (Michael W. Deem and Ramdas Pophale) SiO2 
 PCOD9363571
Probable space group: A M A 2
;
_chemical_formula_sum "Si O2"
_cell_formula_units_Z 48
_cell_length_a 13.729678
_cell_length_b 7.701214
_cell_length_c 18.579310
_cell_angle_alpha 90.000000
_cell_angle_beta 90.000000
_cell_angle_gamma 90.000000
_cell_volume 1964.486844
_symmetry_space_group_name_H-M "A M A 2"
_symmetry_group_IT_number 40
_symmetry_cell_setting 'orthorhombic'
loop_
_space_group_symop_operation_xyz
x,y,z
-x,-y,z
1/2-x,y,z
1/2+x,-y,z
x,1/2+y,1/2+z
-x,1/2-y,1/2+z
1/2-x,1/2+y,1/2+z
1/2+x,1/2-y,1/2+z
loop_
_atom_site_type_symbol
_atom_site_label
_atom_site_fract_x
_atom_site_fract_y
_atom_site_fract_z
Si Si1 0.868122 0.723458 0.366190
Si Si2 0.574832 0.162230 0.540895
Si Si3 0.368130 0.604176 0.284453
Si Si4 0.860269 0.097759 0.388308
Si Si5 0.475272 0.303083 0.659020
Si Si6 0.867323 0.557323 0.520336
O O1 0.750000 0.726446 0.363366
O O2 0.899218 0.590255 0.304916
O O3 0.906173 0.918269 0.361796
O O4 0.890076 0.652887 0.445830
O O5 0.569336 0.198924 0.627455
O O6 0.581991 0.369336 0.521354
O O7 0.500000 0.000000 0.535972
O O8 0.642301 0.099356 0.474795
O O9 0.250000 0.601803 0.276166
O O10 0.416916 0.694392 0.216779
O O11 0.396017 0.724221 0.353485
O O12 0.750000 0.089862 0.361710
O O13 0.500000 0.500000 0.683116
O O14 0.405784 0.332055 0.588395
O O15 0.750000 0.533533 0.525096
#
# Coordination Sequence:
#
# PCOD9363571 Si02
#       6
#     8   8   8   8   8   8
#     4   9  18  35  65  98 121 156 225 288 333 386
#     4  11  22  38  61  92 139 170 219 279 343 405
#     4  10  20  40  65  93 133 175 225 290 344 399
#     4  10  20  38  69 100 125 170 232 287 334 397
#     4  10  23  40  61  90 137 182 222 275 354 421
#     4  10  19  39  66  92 123 172 229 283 333 401
#
# _framework density 24.433859999999999
#
# number of rings (size 3 to 8) (size 9 to 14) (size 15 to 20)
#    0.000    2.000    1.667    2.000    0.000    0.667 
#    6.000    2.500    0.000    0.000    0.000    0.000 
#    0.000    0.000    0.000    0.000    0.000    0.000 
#
# Total GULP energy -133779.768858 kJ/mol
# GULP energy per Si atom -5574.157036 kJ/mol
# Density = 2.437825 g / cm^3
# Si number density = 24.433860 Si / 1000 Ang^3
#
#
#
# Elastic Constant Matrix: (Units=GPa)
#
#
# Indices 1 2 3 4 5 6 
#
# 1 85.8724 42.7662 39.6332 0.0000 0.0000 0.0000
# 2 42.7662 164.6137 57.8691 0.0000 0.0000 0.0000
# 3 39.6332 57.8691 124.3731 0.0000 0.0000 0.0000
# 4 0.0000 0.0000 0.0000 40.2860 0.0000 0.0000
# 5 0.0000 0.0000 0.0000 0.0000 36.6067 0.0000
# 6 0.0000 0.0000 0.0000 0.0000 0.0000 33.6848
#
#
#
# Elastic Compliance Matrix: (Units=1/GPa)
#
#
# Indices 1 2 3 4 5 6 
#
# 1 0.014504 -0.002562 -0.003430 0.000000 0.000000 0.000000
# 2 -0.002562 0.007716 -0.002773 0.000000 0.000000 0.000000
# 3 -0.003430 -0.002773 0.010424 0.000000 0.000000 0.000000
# 4 0.000000 0.000000 0.000000 0.024823 0.000000 0.000000
# 5 0.000000 0.000000 0.000000 0.000000 0.027317 0.000000
# 6 0.000000 0.000000 0.000000 0.000000 0.000000 0.029687
#
#
# Mechanical properties :
#
#
# Convention : Reuss Voigt Hill
#
# Bulk Modulus (GPa) = 66.17092 72.82179 69.49635
# Shear Modulus (GPa) = 36.48600 37.75488 37.12044
#
# Velocity S-wave (km/s) = 3.86846 3.93515 3.90195
# Velocity P-wave (km/s) = 6.86249 7.10743 6.98603
#
# Compressibility (1/GPa) = 0.01511238
#
# Stress axis : x y z
#
# Youngs Moduli (GPa) = 68.94515 129.60900 95.93573
#
# Poissons Ratio (x) = 0.33212 0.32903
# Poissons Ratio (y) = 0.17667 0.26606
# Poissons Ratio (z) = 0.23646 0.35945
#
# Static dielectric constant tensor:
#      x y z
#    x 2.039020 0.000000 0.000000 
#    y 0.000000 1.954150 0.000000 
#    z 0.000000 0.000000 1.925520 
# 
# From -- ./inp_files/17633.got.cif
#   From: 2010.05.17/outbox.cif.g08.bks.cpg/sg40_9_cif.got.tgz:17633.got - 2010.06.03 18:35:42.
