data_PCOD9363070
_publ_section_title
;
Structure prediction by ZEFSAII (Michael W. Deem and Ramdas Pophale) SiO2 
 PCOD9363070
Probable space group: A M A 2
;
_chemical_formula_sum "Si O2"
_cell_formula_units_Z 64
_cell_length_a 8.850620
_cell_length_b 28.611851
_cell_length_c 14.928347
_cell_angle_alpha 90.000000
_cell_angle_beta 90.000000
_cell_angle_gamma 90.000000
_cell_volume 3780.344433
_symmetry_space_group_name_H-M "A M A 2"
_symmetry_group_IT_number 40
_symmetry_cell_setting 'orthorhombic'
loop_
_space_group_symop_operation_xyz
x,y,z
-x,-y,z
1/2-x,y,z
1/2+x,-y,z
x,1/2+y,1/2+z
-x,1/2-y,1/2+z
1/2-x,1/2+y,1/2+z
1/2+x,1/2-y,1/2+z
loop_
_atom_site_type_symbol
_atom_site_label
_atom_site_fract_x
_atom_site_fract_y
_atom_site_fract_z
Si Si1 0.567930 0.949514 0.381180
Si Si2 0.569179 0.281171 0.870179
Si Si3 0.931971 0.449461 0.675120
Si Si4 0.570114 0.720884 0.677460
Si Si5 0.431838 0.636183 0.006539
Si Si6 0.430173 0.327554 0.382585
Si Si7 0.930628 0.176870 0.676998
Si Si8 0.569261 0.860764 0.058258
O O1 0.750000 0.952198 0.383377
O O2 0.524564 0.937935 0.278222
O O3 0.521363 0.909169 0.449787
O O4 0.500000 0.000000 0.402971
O O5 0.750000 0.284115 0.852416
O O6 0.483122 0.291558 0.778096
O O7 0.536494 0.227701 0.897206
O O8 0.531651 0.318213 0.946637
O O9 0.750000 0.452679 0.672499
O O10 0.979036 0.408258 0.608450
O O11 0.000000 0.500000 0.653091
O O12 0.750000 0.722057 0.670683
O O13 0.504515 0.772495 0.659401
O O14 0.503466 0.682928 0.610010
O O15 0.250000 0.635164 0.017656
O O16 0.510049 0.641790 0.102001
O O17 0.250000 0.333653 0.393634
O O18 0.469735 0.337207 0.279019
O O19 0.516534 0.357571 0.455871
O O20 0.750000 0.181790 0.672861
O O21 0.750000 0.857383 0.064261
#
# Coordination Sequence:
#
# PCOD9363070 Si02
#       8
#     8   8   8   8   8   8   8   8
#     4   9  18  33  52  75 104 134 162 198 246 298
#     4   9  18  33  50  71 103 136 166 206 253 296
#     4   9  19  35  54  77 104 132 161 197 246 299
#     4  11  21  32  49  74 104 137 172 207 245 295
#     4  10  19  32  53  77 102 133 168 208 253 300
#     4   9  19  34  50  71 100 134 169 207 251 295
#     4  10  21  36  52  71 100 135 170 211 254 295
#     4  11  21  33  52  76 102 133 169 208 251 300
#
# _framework density 16.929675
#
# number of rings (size 3 to 8) (size 9 to 14) (size 15 to 20)
#    0.000    2.250    0.000    4.125    0.000    7.500 
#    0.000    2.500    0.000    0.750    0.000    0.000 
#    0.000    0.000    0.000    0.000    0.000    0.000 
#
# Total GULP energy -178635.582992 kJ/mol
# GULP energy per Si atom -5582.361969 kJ/mol
# Density = 1.689114 g / cm^3
# Si number density = 16.929675 Si / 1000 Ang^3
#
#
#
# Elastic Constant Matrix: (Units=GPa)
#
#
# Indices 1 2 3 4 5 6 
#
# 1 40.0206 38.2949 50.5967 0.0000 0.0000 0.0000
# 2 38.2949 92.0646 94.1981 0.0000 0.0000 0.0000
# 3 50.5967 94.1981 133.9170 0.0000 0.0000 0.0000
# 4 0.0000 0.0000 0.0000 28.8973 0.0000 0.0000
# 5 0.0000 0.0000 0.0000 0.0000 30.4553 0.0000
# 6 0.0000 0.0000 0.0000 0.0000 0.0000 25.5444
#
#
#
# Elastic Compliance Matrix: (Units=1/GPa)
#
#
# Indices 1 2 3 4 5 6 
#
# 1 0.048495 -0.005083 -0.014747 0.000000 0.000000 0.000000
# 2 -0.005083 0.039285 -0.025713 0.000000 0.000000 0.000000
# 3 -0.014747 -0.025713 0.031125 0.000000 0.000000 0.000000
# 4 0.000000 0.000000 0.000000 0.034605 0.000000 0.000000
# 5 0.000000 0.000000 0.000000 0.000000 0.032835 0.000000
# 6 0.000000 0.000000 0.000000 0.000000 0.000000 0.039148
#
#
# Mechanical properties :
#
#
# Convention : Reuss Voigt Hill
#
# Bulk Modulus (GPa) = 35.94558 70.24238 53.09398
# Shear Modulus (GPa) = 15.34437 22.50689 18.92563
#
# Velocity S-wave (km/s) = 3.01385 3.65010 3.34712
# Velocity P-wave (km/s) = 5.77836 7.70357 6.80935
#
# Compressibility (1/GPa) = 0.02781983
#
# Stress axis : x y z
#
# Youngs Moduli (GPa) = 20.62063 25.45505 32.12801
#
# Poissons Ratio (x) = 0.12939 0.47379
# Poissons Ratio (y) = 0.10482 0.82610
# Poissons Ratio (z) = 0.30409 0.65452
#
# Static dielectric constant tensor:
#      x y z
#    x 1.567310 0.000000 0.000000 
#    y 0.000000 1.549320 0.000000 
#    z 0.000000 0.000000 1.577110 
# 
# From -- ./inp_files/15918.got.cif
#   From: 2010.05.17/outbox.cif.g08.bks.cpg/sg40_8_cif.got.tgz:15918.got - 2010.06.03 18:35:42.
