data_PCOD9363157
_publ_section_title
;
Structure prediction by ZEFSAII (Michael W. Deem and Ramdas Pophale) SiO2 
 PCOD9363157
Probable space group: A M A 2
;
_chemical_formula_sum "Si O2"
_cell_formula_units_Z 64
_cell_length_a 7.863517
_cell_length_b 29.488720
_cell_length_c 12.997383
_cell_angle_alpha 90.000000
_cell_angle_beta 90.000000
_cell_angle_gamma 90.000000
_cell_volume 3013.898820
_symmetry_space_group_name_H-M "A M A 2"
_symmetry_group_IT_number 40
_symmetry_cell_setting 'orthorhombic'
loop_
_space_group_symop_operation_xyz
x,y,z
-x,-y,z
1/2-x,y,z
1/2+x,-y,z
x,1/2+y,1/2+z
-x,1/2-y,1/2+z
1/2-x,1/2+y,1/2+z
1/2+x,1/2-y,1/2+z
loop_
_atom_site_type_symbol
_atom_site_label
_atom_site_fract_x
_atom_site_fract_y
_atom_site_fract_z
Si Si1 0.547956 0.947929 0.482860
Si Si2 0.442003 0.931645 0.913561
Si Si3 0.454939 0.881943 0.296326
Si Si4 0.450627 0.165806 0.973452
Si Si5 0.044402 0.793083 0.192388
Si Si6 0.954795 0.547416 0.629281
Si Si7 0.955124 0.304774 0.251435
Si Si8 0.547681 0.405114 0.193447
O O1 0.750000 0.947996 0.489358
O O2 0.500793 0.910680 0.396907
O O3 0.477863 0.931066 0.593757
O O4 0.500000 0.000000 0.459343
O O5 0.250000 0.948676 0.902509
O O6 0.444259 0.879401 0.950797
O O7 0.520764 0.931601 0.800674
O O8 0.528566 0.953333 0.013748
O O9 0.250000 0.881184 0.292457
O O10 0.513514 0.830258 0.277405
O O11 0.516887 0.911171 0.198135
O O12 0.250000 0.153799 0.971249
O O13 0.483438 0.196763 0.874031
O O14 0.496539 0.187941 0.080844
O O15 0.250000 0.791211 0.198933
O O16 0.978227 0.742007 0.205119
O O17 0.750000 0.551229 0.621420
O O18 0.000000 0.500000 0.681457
O O19 0.750000 0.305755 0.236286
O O20 0.019517 0.353388 0.208885
O O21 0.750000 0.400900 0.180114
#
# Coordination Sequence:
#
# PCOD9363157 Si02
#       8
#     8   8   8   8   8   8   8   8
#     4  11  24  41  61  84 116 157 202 249 299 354
#     4  10  19  35  57  81 108 143 186 229 281 342
#     4  10  21  38  57  81 114 149 192 240 289 346
#     4  10  19  33  53  79 112 147 185 231 284 341
#     4  10  19  35  58  82 113 153 193 238 290 344
#     4  10  21  35  52  79 110 139 178 226 278 336
#     4   8  17  34  56  81 111 151 189 230 288 345
#     4   9  20  39  59  83 116 151 191 239 293 346
#
# _framework density 21.234953000000001
#
# number of rings (size 3 to 8) (size 9 to 14) (size 15 to 20)
#    0.000    2.250    1.250    2.250    0.000    5.500 
#    0.000    5.625    0.000    0.000    0.000    0.000 
#    0.000    0.000    0.000    0.000    0.000    0.000 
#
# Total GULP energy -178459.825603 kJ/mol
# GULP energy per Si atom -5576.869550 kJ/mol
# Density = 2.118662 g / cm^3
# Si number density = 21.234953 Si / 1000 Ang^3
#
#
#
# Elastic Constant Matrix: (Units=GPa)
#
#
# Indices 1 2 3 4 5 6 
#
# 1 28.3784 10.2099 3.9195 0.0000 0.0000 0.0000
# 2 10.2099 51.4306 19.3210 0.0000 0.0000 0.0000
# 3 3.9195 19.3210 104.0351 0.0000 0.0000 0.0000
# 4 0.0000 0.0000 0.0000 21.1707 0.0000 0.0000
# 5 0.0000 0.0000 0.0000 0.0000 21.0868 0.0000
# 6 0.0000 0.0000 0.0000 0.0000 0.0000 18.8379
#
#
#
# Elastic Compliance Matrix: (Units=1/GPa)
#
#
# Indices 1 2 3 4 5 6 
#
# 1 0.037949 -0.007521 -0.000033 0.000000 0.000000 0.000000
# 2 -0.007521 0.022393 -0.003875 0.000000 0.000000 0.000000
# 3 -0.000033 -0.003875 0.010333 0.000000 0.000000 0.000000
# 4 0.000000 0.000000 0.000000 0.047235 0.000000 0.000000
# 5 0.000000 0.000000 0.000000 0.000000 0.047423 0.000000
# 6 0.000000 0.000000 0.000000 0.000000 0.000000 0.053084
#
#
# Mechanical properties :
#
#
# Convention : Reuss Voigt Hill
#
# Bulk Modulus (GPa) = 20.91368 27.86054 24.38711
# Shear Modulus (GPa) = 19.43907 22.24532 20.84219
#
# Velocity S-wave (km/s) = 3.02889 3.24015 3.13630
# Velocity P-wave (km/s) = 4.70131 5.21025 4.96231
#
# Compressibility (1/GPa) = 0.04781559
#
# Stress axis : x y z
#
# Youngs Moduli (GPa) = 26.35146 44.65760 96.77647
#
# Poissons Ratio (x) = 0.33587 0.00319
# Poissons Ratio (y) = 0.19819 0.37504
# Poissons Ratio (z) = 0.00087 0.17306
#
# Static dielectric constant tensor:
#      x y z
#    x 1.773000 0.000000 0.000000 
#    y 0.000000 1.813140 0.000000 
#    z 0.000000 0.000000 1.776340 
# 
# From -- ./inp_files/10649.got.cif
#   From: 2010.05.17/outbox.cif.g08.bks.cpg/sg40_6_cif.got.tgz:10649.got - 2010.06.03 18:35:42.
