data_PCOD9363717
_publ_section_title
;
Structure prediction by ZEFSAII (Michael W. Deem and Ramdas Pophale) SiO2 
 PCOD9363717
Probable space group: A M A 2
;
_chemical_formula_sum "Si O2"
_cell_formula_units_Z 56
_cell_length_a 8.792417
_cell_length_b 15.830516
_cell_length_c 19.838391
_cell_angle_alpha 90.000000
_cell_angle_beta 90.000000
_cell_angle_gamma 90.000000
_cell_volume 2761.275846
_symmetry_space_group_name_H-M "A M A 2"
_symmetry_group_IT_number 40
_symmetry_cell_setting 'orthorhombic'
loop_
_space_group_symop_operation_xyz
x,y,z
-x,-y,z
1/2-x,y,z
1/2+x,-y,z
x,1/2+y,1/2+z
-x,1/2-y,1/2+z
1/2-x,1/2+y,1/2+z
1/2+x,1/2-y,1/2+z
loop_
_atom_site_type_symbol
_atom_site_label
_atom_site_fract_x
_atom_site_fract_y
_atom_site_fract_z
Si Si1 0.573407 0.686468 0.301570
Si Si2 0.085057 0.614435 0.833321
Si Si3 0.423653 0.416473 0.958070
Si Si4 0.068395 0.247495 0.022509
Si Si5 0.423327 0.083792 0.178876
Si Si6 0.428521 0.236486 0.664058
Si Si7 0.566562 0.593981 0.440294
O O1 0.750000 0.665145 0.287436
O O2 0.570615 0.784699 0.323804
O O3 0.482197 0.686731 0.231072
O O4 0.521740 0.630744 0.365679
O O5 0.250000 0.597540 0.867092
O O6 0.090320 0.575687 0.759406
O O7 0.947232 0.582389 0.877854
O O8 0.500000 0.500000 0.986846
O O9 0.250000 0.416410 0.977946
O O10 0.489503 0.325597 0.977525
O O11 0.250000 0.237276 0.015979
O O12 0.025176 0.279479 0.096959
O O13 0.992740 0.160880 0.996261
O O14 0.250000 0.098879 0.153188
O O15 0.532195 0.164135 0.172297
O O16 0.500000 0.000000 0.149680
O O17 0.250000 0.223949 0.653250
O O18 0.500000 0.500000 0.449433
O O19 0.750000 0.591855 0.442829
#
# Coordination Sequence:
#
# PCOD9363717 Si02
#       7
#     8   8   8   8   8   8   8
#     4   9  19  38  62  88 121 161 202 253 308 365
#     4   9  17  32  55  82 115 151 187 232 288 346
#     4  11  23  36  57  86 117 153 193 242 298 359
#     4  11  24  43  63  89 125 165 210 262 318 380
#     4  10  20  34  52  80 116 153 193 240 294 357
#     4  11  23  38  61  87 116 160 207 257 317 379
#     4  11  23  41  67  98 131 170 217 269 325 384
#
# _framework density 20.280481999999999
#
# number of rings (size 3 to 8) (size 9 to 14) (size 15 to 20)
#    0.000    1.714    1.429    4.286    0.000    7.429 
#    0.000    3.571    0.000    0.000    0.000    0.000 
#    0.000    0.000    0.000    0.000    0.000    0.000 
#
# Total GULP energy -156143.566129 kJ/mol
# GULP energy per Si atom -5576.555933 kJ/mol
# Density = 2.023432 g / cm^3
# Si number density = 20.280482 Si / 1000 Ang^3
#
#
#
# Elastic Constant Matrix: (Units=GPa)
#
#
# Indices 1 2 3 4 5 6 
#
# 1 60.4294 30.5183 10.6509 0.0000 0.0000 0.0000
# 2 30.5183 77.5066 3.7043 0.0000 0.0000 0.0000
# 3 10.6509 3.7043 60.6232 0.0000 0.0000 0.0000
# 4 0.0000 0.0000 0.0000 9.6805 0.0000 0.0000
# 5 0.0000 0.0000 0.0000 0.0000 25.5667 0.0000
# 6 0.0000 0.0000 0.0000 0.0000 0.0000 25.2605
#
#
#
# Elastic Compliance Matrix: (Units=1/GPa)
#
#
# Indices 1 2 3 4 5 6 
#
# 1 0.021270 -0.008220 -0.003235 0.000000 0.000000 0.000000
# 2 -0.008220 0.016117 0.000459 0.000000 0.000000 0.000000
# 3 -0.003235 0.000459 0.017036 0.000000 0.000000 0.000000
# 4 0.000000 0.000000 0.000000 0.103301 0.000000 0.000000
# 5 0.000000 0.000000 0.000000 0.000000 0.039113 0.000000
# 6 0.000000 0.000000 0.000000 0.000000 0.000000 0.039588
#
#
# Mechanical properties :
#
#
# Convention : Reuss Voigt Hill
#
# Bulk Modulus (GPa) = 30.83449 32.03400 31.43425
# Shear Modulus (GPa) = 18.57178 22.34724 20.45951
#
# Velocity S-wave (km/s) = 3.02941 3.32310 3.17965
# Velocity P-wave (km/s) = 5.24152 5.52755 5.38643
#
# Compressibility (1/GPa) = 0.03243121
#
# Stress axis : x y z
#
# Youngs Moduli (GPa) = 47.01485 62.04642 58.70075
#
# Poissons Ratio (x) = 0.51005 0.18987
# Poissons Ratio (y) = 0.38648 -0.02697
# Poissons Ratio (z) = 0.15207 -0.02851
#
# Static dielectric constant tensor:
#      x y z
#    x 1.734460 0.000000 0.000000 
#    y 0.000000 1.763080 0.000000 
#    z 0.000000 0.000000 1.765900 
# 
# From -- ./inp_files/22185.got.cif
#   From: 2010.05.17/outbox.cif.g08.bks.cpg/sg40_12_cif.got.tgz:22185.got - 2010.06.03 18:35:42.
