data_PCOD9363172
_publ_section_title
;
Structure prediction by ZEFSAII (Michael W. Deem and Ramdas Pophale) SiO2 
 PCOD9363172
Probable space group: A M A 2
;
_chemical_formula_sum "Si O2"
_cell_formula_units_Z 40
_cell_length_a 8.892796
_cell_length_b 28.786108
_cell_length_c 9.641214
_cell_angle_alpha 90.000000
_cell_angle_beta 90.000000
_cell_angle_gamma 90.000000
_cell_volume 2468.044596
_symmetry_space_group_name_H-M "A M A 2"
_symmetry_group_IT_number 40
_symmetry_cell_setting 'orthorhombic'
loop_
_space_group_symop_operation_xyz
x,y,z
-x,-y,z
1/2-x,y,z
1/2+x,-y,z
x,1/2+y,1/2+z
-x,1/2-y,1/2+z
1/2-x,1/2+y,1/2+z
1/2+x,1/2-y,1/2+z
loop_
_atom_site_type_symbol
_atom_site_label
_atom_site_fract_x
_atom_site_fract_y
_atom_site_fract_z
Si Si1 0.570561 0.292806 0.574060
Si Si2 0.429379 0.633982 0.069178
Si Si3 0.570289 0.705414 0.272358
Si Si4 0.427121 0.950017 0.436559
Si Si5 0.927140 0.139915 0.284697
O O1 0.750000 0.295854 0.559064
O O2 0.495026 0.287434 0.424986
O O3 0.535217 0.249302 0.673947
O O4 0.506421 0.337718 0.653792
O O5 0.250000 0.635175 0.067653
O O6 0.496190 0.660820 0.199359
O O7 0.490682 0.581309 0.053477
O O8 0.495326 0.657406 0.927754
O O9 0.750000 0.700115 0.278034
O O10 0.250000 0.953717 0.466243
O O11 0.443272 0.915896 0.302780
O O12 0.500000 0.000000 0.419932
O O13 0.750000 0.151052 0.286503
#
# Coordination Sequence:
#
# PCOD9363172 Si02
#       5
#     8   8   8   8   8
#     4  11  23  36  54  78 106 144 186 225 272 327
#     4  10  19  33  54  79 108 140 180 224 268 321
#     4  11  23  37  53  76 109 145 182 226 274 326
#     4   9  18  32  55  84 111 142 180 226 274 322
#     4   9  19  34  53  78 109 140 177 222 271 320
#
# _framework density 16.207163999999999
#
# number of rings (size 3 to 8) (size 9 to 14) (size 15 to 20)
#    1.200    0.800    0.000    4.800    0.000    6.400 
#    0.000    0.000    0.000    1.200    0.000    5.600 
#    0.000    0.000    0.000    0.000    0.000    0.000 
#
# Total GULP energy -111414.997511 kJ/mol
# GULP energy per Si atom -5570.749876 kJ/mol
# Density = 1.617028 g / cm^3
# Si number density = 16.207164 Si / 1000 Ang^3
#
#
#
# Elastic Constant Matrix: (Units=GPa)
#
#
# Indices 1 2 3 4 5 6 
#
# 1 107.9424 64.6595 62.9955 0.0000 0.0000 0.0000
# 2 64.6595 103.3231 54.4305 0.0000 0.0000 0.0000
# 3 62.9955 54.4305 120.6313 0.0000 0.0000 0.0000
# 4 0.0000 0.0000 0.0000 20.8678 0.0000 0.0000
# 5 0.0000 0.0000 0.0000 0.0000 31.2673 0.0000
# 6 0.0000 0.0000 0.0000 0.0000 0.0000 -40.0235
#
#
#
# Elastic Compliance Matrix: (Units=1/GPa)
#
#
# Indices 1 2 3 4 5 6 
#
# 1 0.017131 -0.007881 -0.005390 0.000000 0.000000 0.000000
# 2 -0.007881 0.016322 -0.003249 0.000000 0.000000 0.000000
# 3 -0.005390 -0.003249 0.012570 0.000000 0.000000 0.000000
# 4 0.000000 0.000000 0.000000 0.047921 0.000000 0.000000
# 5 0.000000 0.000000 0.000000 0.000000 0.031982 0.000000
# 6 0.000000 0.000000 0.000000 0.000000 0.000000 -0.024985
#
#
# Mechanical properties :
#
#
# Convention : Reuss Voigt Hill
#
# Bulk Modulus (GPa) = 77.02331 77.34085 77.18208
# Shear Modulus (GPa) = 36.15116 12.40973 24.28044
#
# Velocity S-wave (km/s) = 4.72801 2.77012 3.87477
# Velocity P-wave (km/s) = 8.79959 7.61939 8.23068
#
# Compressibility (1/GPa) = 0.01298308
#
# Stress axis : x y z
#
# Youngs Moduli (GPa) = 58.37520 61.26744 79.55172
#
# Poissons Ratio (x) = 0.48284 0.42877
# Poissons Ratio (y) = 0.46005 0.25847
# Poissons Ratio (z) = 0.31463 0.19907
#
# Static dielectric constant tensor:
#      x y z
#    x 1.534460 0.000000 0.000000 
#    y 0.000000 1.552050 0.000000 
#    z 0.000000 0.000000 1.525840 
# 
# From -- ./inp_files/4368.got.cif
#   From: 2010.05.17/outbox.cif.g08.bks.cpg/sg40_3_cif.got.tgz:4368.got - 2010.06.03 18:35:42.
