data_PCOD9363219
_publ_section_title
;
Structure prediction by ZEFSAII (Michael W. Deem and Ramdas Pophale) SiO2 
 PCOD9363219
Probable space group: A M A 2
;
_chemical_formula_sum "Si O2"
_cell_formula_units_Z 56
_cell_length_a 8.689058
_cell_length_b 14.887049
_cell_length_c 22.016058
_cell_angle_alpha 90.000000
_cell_angle_beta 90.000000
_cell_angle_gamma 90.000000
_cell_volume 2847.874682
_symmetry_space_group_name_H-M "A M A 2"
_symmetry_group_IT_number 40
_symmetry_cell_setting 'orthorhombic'
loop_
_space_group_symop_operation_xyz
x,y,z
-x,-y,z
1/2-x,y,z
1/2+x,-y,z
x,1/2+y,1/2+z
-x,1/2-y,1/2+z
1/2-x,1/2+y,1/2+z
1/2+x,1/2-y,1/2+z
loop_
_atom_site_type_symbol
_atom_site_label
_atom_site_fract_x
_atom_site_fract_y
_atom_site_fract_z
Si Si1 0.565007 0.899822 0.894540
Si Si2 0.564997 0.903056 0.106935
Si Si3 0.434443 0.720195 0.278257
Si Si4 0.932902 0.905081 0.249266
Si Si5 0.433821 0.904097 0.531905
Si Si6 0.935709 0.404375 0.167860
Si Si7 0.433560 0.281261 0.503499
O O1 0.750000 0.902468 0.900529
O O2 0.525101 0.845628 0.833341
O O3 0.500000 0.000000 0.892208
O O4 0.493634 0.846222 0.950782
O O5 0.750000 0.902096 0.101385
O O6 0.522359 0.893791 0.177948
O O7 0.492896 0.825174 0.066282
O O8 0.500000 0.000000 0.086349
O O9 0.250000 0.729428 0.277330
O O10 0.506902 0.818048 0.283806
O O11 0.480825 0.672904 0.215016
O O12 0.750000 0.909088 0.251919
O O13 0.000000 0.000000 0.270521
O O14 0.250000 0.906610 0.531565
O O15 0.493890 0.891893 0.601157
O O16 0.496044 0.817915 0.496353
O O17 0.500000 0.000000 0.510694
O O18 0.750000 0.408092 0.163478
O O19 0.000000 0.500000 0.190759
O O20 0.250000 0.276476 0.504029
#
# Coordination Sequence:
#
# PCOD9363219 Si02
#       7
#     8   8   8   8   8   8   8
#     4  11  24  43  63  86 115 150 190 236 283 335
#     4  10  20  35  56  86 119 154 191 234 286 342
#     4  10  22  38  58  83 115 152 192 235 283 334
#     4  10  21  36  58  85 116 150 188 233 283 337
#     4  11  22  38  59  86 118 152 189 234 284 340
#     4  10  19  33  55  86 120 154 189 232 282 337
#     4  12  24  39  59  84 114 152 193 238 287 339
#
# _framework density 19.663785000000001
#
# number of rings (size 3 to 8) (size 9 to 14) (size 15 to 20)
#    0.000    1.429    0.000    6.857    0.000    6.286 
#    0.000    0.714    0.000    3.429    0.000    0.000 
#    0.000    0.000    0.000    0.000    0.000    0.000 
#
# Total GULP energy -156599.469542 kJ/mol
# GULP energy per Si atom -5592.838198 kJ/mol
# Density = 1.961903 g / cm^3
# Si number density = 19.663785 Si / 1000 Ang^3
#
#
#
# Elastic Constant Matrix: (Units=GPa)
#
#
# Indices 1 2 3 4 5 6 
#
# 1 96.8677 61.2090 27.7997 0.0000 0.0000 0.0000
# 2 61.2090 195.7393 46.9736 0.0000 0.0000 0.0000
# 3 27.7997 46.9736 32.9670 0.0000 0.0000 0.0000
# 4 0.0000 0.0000 0.0000 30.0415 0.0000 0.0000
# 5 0.0000 0.0000 0.0000 0.0000 27.4757 0.0000
# 6 0.0000 0.0000 0.0000 0.0000 0.0000 38.1820
#
#
#
# Elastic Compliance Matrix: (Units=1/GPa)
#
#
# Indices 1 2 3 4 5 6 
#
# 1 0.014326 -0.002402 -0.008658 0.000000 0.000000 0.000000
# 2 -0.002402 0.008166 -0.009610 0.000000 0.000000 0.000000
# 3 -0.008658 -0.009610 0.051327 0.000000 0.000000 0.000000
# 4 0.000000 0.000000 0.000000 0.033287 0.000000 0.000000
# 5 0.000000 0.000000 0.000000 0.000000 0.036396 0.000000
# 6 0.000000 0.000000 0.000000 0.000000 0.000000 0.026190
#
#
# Mechanical properties :
#
#
# Convention : Reuss Voigt Hill
#
# Bulk Modulus (GPa) = 30.78878 66.39318 48.59098
# Shear Modulus (GPa) = 22.53679 31.77930 27.15804
#
# Velocity S-wave (km/s) = 3.38909 4.02448 3.72037
# Velocity P-wave (km/s) = 5.56832 7.44532 6.57415
#
# Compressibility (1/GPa) = 0.03247936
#
# Stress axis : x y z
#
# Youngs Moduli (GPa) = 69.80390 122.45498 19.48277
#
# Poissons Ratio (x) = 0.29415 0.16868
# Poissons Ratio (y) = 0.16768 0.18723
# Poissons Ratio (z) = 0.60434 1.17682
#
# Static dielectric constant tensor:
#      x y z
#    x 1.651530 0.000000 0.000000 
#    y 0.000000 1.690760 0.000000 
#    z 0.000000 0.000000 1.688330 
# 
# From -- ./inp_files/22184.got.cif
#   From: 2010.05.17/outbox.cif.g08.bks.cpg/sg40_12_cif.got.tgz:22184.got - 2010.06.03 18:35:42.
