data_PCOD9363029
_publ_section_title
;
Structure prediction by ZEFSAII (Michael W. Deem and Ramdas Pophale) SiO2 
 PCOD9363029
Probable space group: A M A 2
;
_chemical_formula_sum "Si O2"
_cell_formula_units_Z 48
_cell_length_a 9.321849
_cell_length_b 13.169234
_cell_length_c 17.926384
_cell_angle_alpha 90.000000
_cell_angle_beta 90.000000
_cell_angle_gamma 90.000000
_cell_volume 2200.671776
_symmetry_space_group_name_H-M "A M A 2"
_symmetry_group_IT_number 40
_symmetry_cell_setting 'orthorhombic'
loop_
_space_group_symop_operation_xyz
x,y,z
-x,-y,z
1/2-x,y,z
1/2+x,-y,z
x,1/2+y,1/2+z
-x,1/2-y,1/2+z
1/2-x,1/2+y,1/2+z
1/2+x,1/2-y,1/2+z
loop_
_atom_site_type_symbol
_atom_site_label
_atom_site_fract_x
_atom_site_fract_y
_atom_site_fract_z
Si Si1 0.910821 0.906066 0.913670
Si Si2 0.913046 0.352250 0.801595
Si Si3 0.589243 0.837141 0.753550
Si Si4 0.580650 0.809571 0.590042
Si Si5 0.917961 0.900311 0.132113
Si Si6 0.421301 0.829593 0.444385
O O1 0.750000 0.916679 0.940954
O O2 0.907367 0.911618 0.823260
O O3 0.956051 0.791585 0.934332
O O4 0.000000 0.000000 0.941582
O O5 0.750000 0.351858 0.829195
O O6 0.918586 0.408186 0.722553
O O7 0.965892 0.241215 0.775265
O O8 0.017252 0.380859 0.869520
O O9 0.750000 0.786342 0.755012
O O10 0.569006 0.870258 0.668533
O O11 0.750000 0.795515 0.574086
O O12 0.503437 0.701060 0.607269
O O13 0.500586 0.859654 0.520250
O O14 0.750000 0.893136 0.110683
O O15 0.000000 0.000000 0.104586
O O16 0.250000 0.840741 0.448749
#
# Coordination Sequence:
#
# PCOD9363029 Si02
#       6
#     8   8   8   8   8   8
#     4   9  18  31  47  68  94 123 153 188 230 276
#     4   9  17  30  49  71  92 120 162 202 234 277
#     4   8  16  31  48  67  92 122 155 194 238 279
#     4  10  19  32  51  72  96 126 160 198 241 287
#     4  10  20  33  50  73 100 128 160 198 241 291
#     4  10  20  33  48  69  99 129 159 196 239 286
#
# _framework density 21.811523999999999
#
# number of rings (size 3 to 8) (size 9 to 14) (size 15 to 20)
#    0.000    2.667    0.000    3.000    0.000    6.667 
#    0.000    1.667    0.000    1.000    0.000    2.333 
#    0.000    0.000    0.000    0.000    0.000    0.000 
#
# Total GULP energy -133795.375302 kJ/mol
# GULP energy per Si atom -5574.807304 kJ/mol
# Density = 2.176188 g / cm^3
# Si number density = 21.811524 Si / 1000 Ang^3
#
#
#
# Elastic Constant Matrix: (Units=GPa)
#
#
# Indices 1 2 3 4 5 6 
#
# 1 112.3438 20.5671 59.2208 0.0000 0.0000 0.0000
# 2 20.5671 31.7643 -1.1956 0.0000 0.0000 0.0000
# 3 59.2208 -1.1956 195.1878 0.0000 0.0000 0.0000
# 4 0.0000 0.0000 0.0000 -5.2160 0.0000 0.0000
# 5 0.0000 0.0000 0.0000 0.0000 48.7379 0.0000
# 6 0.0000 0.0000 0.0000 0.0000 0.0000 14.4654
#
#
#
# Elastic Compliance Matrix: (Units=1/GPa)
#
#
# Indices 1 2 3 4 5 6 
#
# 1 0.012410 -0.008179 -0.003815 0.000000 0.000000 0.000000
# 2 -0.008179 0.036880 0.002707 0.000000 0.000000 0.000000
# 3 -0.003815 0.002707 0.006297 0.000000 0.000000 0.000000
# 4 0.000000 0.000000 0.000000 -0.191717 0.000000 0.000000
# 5 0.000000 0.000000 0.000000 0.000000 0.020518 0.000000
# 6 0.000000 0.000000 0.000000 0.000000 0.000000 0.069131
#
#
# Mechanical properties :
#
#
# Convention : Reuss Voigt Hill
#
# Bulk Modulus (GPa) = 27.01731 55.16450 41.09090
# Shear Modulus (GPa) = -321.11151 28.97768 -146.06692
#
# Velocity S-wave (km/s) = -12.14663 3.64888 -8.19226
# Velocity P-wave (km/s) = 13.57598 6.56497 8.40263
#
# Compressibility (1/GPa) = 0.03701331
#
# Stress axis : x y z
#
# Youngs Moduli (GPa) = 80.58184 27.11530 158.79511
#
# Poissons Ratio (x) = 0.22177 0.60585
# Poissons Ratio (y) = 0.65906 -0.42992
# Poissons Ratio (z) = 0.30744 -0.07341
#
# Static dielectric constant tensor:
#      x y z
#    x 1.762880 0.000000 0.000000 
#    y 0.000000 1.794380 0.000000 
#    z 0.000000 0.000000 1.861920 
# 
# From -- ./inp_files/15047.got.cif
#   From: 2010.05.17/outbox.cif.g08.bks.cpg/sg40_8_cif.got.tgz:15047.got - 2010.06.03 18:35:42.
