data_PCOD9363595
_publ_section_title
;
Structure prediction by ZEFSAII (Michael W. Deem and Ramdas Pophale) SiO2 
 PCOD9363595
Probable space group: A M A 2
;
_chemical_formula_sum "Si O2"
_cell_formula_units_Z 48
_cell_length_a 15.878058
_cell_length_b 7.581387
_cell_length_c 19.861465
_cell_angle_alpha 90.000000
_cell_angle_beta 90.000000
_cell_angle_gamma 90.000000
_cell_volume 2390.877525
_symmetry_space_group_name_H-M "A M A 2"
_symmetry_group_IT_number 40
_symmetry_cell_setting 'orthorhombic'
loop_
_space_group_symop_operation_xyz
x,y,z
-x,-y,z
1/2-x,y,z
1/2+x,-y,z
x,1/2+y,1/2+z
-x,1/2-y,1/2+z
1/2-x,1/2+y,1/2+z
1/2+x,1/2-y,1/2+z
loop_
_atom_site_type_symbol
_atom_site_label
_atom_site_fract_x
_atom_site_fract_y
_atom_site_fract_z
Si Si1 0.916079 0.615848 0.262470
Si Si2 0.010437 0.793959 0.379361
Si Si3 0.495482 0.783563 0.531607
Si Si4 0.153169 0.729345 0.122028
Si Si5 0.846831 0.701408 0.128922
Si Si6 0.657623 0.259717 0.274865
O O1 0.939463 0.710102 0.331573
O O2 0.888490 0.739653 0.201562
O O3 0.843704 0.472534 0.272132
O O4 0.000000 0.500000 0.243153
O O5 0.010246 0.720202 0.454685
O O6 0.094051 0.777516 0.334579
O O7 0.000000 0.000000 0.387221
O O8 0.579576 0.720695 0.570400
O O9 0.411186 0.734242 0.572234
O O10 0.500000 0.000000 0.532349
O O11 0.250000 0.781535 0.105806
O O12 0.153435 0.514012 0.124325
O O13 0.133188 0.792893 0.198355
O O14 0.750000 0.760602 0.123697
O O15 0.750000 0.188903 0.288354
#
# Coordination Sequence:
#
# PCOD9363595 Si02
#       6
#     8   8   8   8   8   8
#     4   9  16  30  51  71  91 122 165 205 240 279
#     4  10  20  31  46  72 105 136 156 184 243 304
#     4   9  16  27  42  66  99 125 151 192 241 289
#     4   8  14  27  49  71  87 113 160 211 246 270
#     4   9  15  25  46  72  92 115 156 207 244 271
#     4   9  17  32  54  74  92 121 166 211 242 277
#
# _framework density 20.076312000000001
#
# number of rings (size 3 to 8) (size 9 to 14) (size 15 to 20)
#    0.000    3.000    0.000    5.000    0.000    0.667 
#    0.000    5.833    0.000   12.000    0.000    0.000 
#    0.000    0.000    0.000    0.000    0.000    0.000 
#
# Total GULP energy -133720.455941 kJ/mol
# GULP energy per Si atom -5571.685664 kJ/mol
# Density = 2.003062 g / cm^3
# Si number density = 20.076312 Si / 1000 Ang^3
#
#
#
# Elastic Constant Matrix: (Units=GPa)
#
#
# Indices 1 2 3 4 5 6 
#
# 1 147.0186 4.9576 110.6592 0.0000 0.0000 0.0000
# 2 4.9576 27.6356 13.7326 0.0000 0.0000 0.0000
# 3 110.6592 13.7326 214.8874 0.0000 0.0000 0.0000
# 4 0.0000 0.0000 0.0000 18.6375 0.0000 0.0000
# 5 0.0000 0.0000 0.0000 0.0000 18.6840 0.0000
# 6 0.0000 0.0000 0.0000 0.0000 0.0000 2.5820
#
#
#
# Elastic Compliance Matrix: (Units=1/GPa)
#
#
# Indices 1 2 3 4 5 6 
#
# 1 0.011128 0.000879 -0.005787 0.000000 0.000000 0.000000
# 2 0.000879 0.037442 -0.002845 0.000000 0.000000 0.000000
# 3 -0.005787 -0.002845 0.007815 0.000000 0.000000 0.000000
# 4 0.000000 0.000000 0.000000 0.053655 0.000000 0.000000
# 5 0.000000 0.000000 0.000000 0.000000 0.053522 0.000000
# 6 0.000000 0.000000 0.000000 0.000000 0.000000 0.387302
#
#
# Mechanical properties :
#
#
# Convention : Reuss Voigt Hill
#
# Bulk Modulus (GPa) = 24.46254 72.02671 48.24462
# Shear Modulus (GPa) = 8.62076 25.32684 16.97380
#
# Velocity S-wave (km/s) = 2.07444 3.55565 2.91084
# Velocity P-wave (km/s) = 4.23662 7.26713 5.94812
#
# Compressibility (1/GPa) = 0.04087883
#
# Stress axis : x y z
#
# Youngs Moduli (GPa) = 89.86618 26.70832 127.95429
#
# Poissons Ratio (x) = -0.02348 0.74041
# Poissons Ratio (y) = -0.07901 0.36409
# Poissons Ratio (z) = 0.52001 0.07600
#
# Static dielectric constant tensor:
#      x y z
#    x 1.697410 0.000000 0.000000 
#    y 0.000000 1.784790 0.000000 
#    z 0.000000 0.000000 1.734070 
# 
# From -- ./inp_files/22985.got.cif
#   From: 2010.05.17/outbox.cif.g08.bks.cpg/sg40_12_cif.got.tgz:22985.got - 2010.06.03 18:35:42.
