data_PCOD9363839
_publ_section_title
;
Structure prediction by ZEFSAII (Michael W. Deem and Ramdas Pophale) SiO2 
 PCOD9363839
Probable space group: A M A 2
;
_chemical_formula_sum "Si O2"
_cell_formula_units_Z 64
_cell_length_a 15.538892
_cell_length_b 23.671840
_cell_length_c 9.321113
_cell_angle_alpha 90.000000
_cell_angle_beta 90.000000
_cell_angle_gamma 90.000000
_cell_volume 3428.623819
_symmetry_space_group_name_H-M "A M A 2"
_symmetry_group_IT_number 40
_symmetry_cell_setting 'orthorhombic'
loop_
_space_group_symop_operation_xyz
x,y,z
-x,-y,z
1/2-x,y,z
1/2+x,-y,z
x,1/2+y,1/2+z
-x,1/2-y,1/2+z
1/2-x,1/2+y,1/2+z
1/2+x,1/2-y,1/2+z
loop_
_atom_site_type_symbol
_atom_site_label
_atom_site_fract_x
_atom_site_fract_y
_atom_site_fract_z
Si Si1 0.013530 0.065961 0.932290
Si Si2 0.900051 0.669272 0.431366
Si Si3 0.343392 0.245001 0.635830
Si Si4 0.494600 0.566915 0.095975
Si Si5 0.576654 0.261283 0.433760
Si Si6 0.147204 0.846073 0.602874
Si Si7 0.850584 0.362958 0.933802
Si Si8 0.652061 0.364423 0.597955
O O1 0.931314 0.105760 0.961831
O O2 0.032285 0.075621 0.763032
O O3 0.088923 0.089688 0.030685
O O4 0.000000 0.000000 0.954691
O O5 0.841472 0.696228 0.552085
O O6 0.862437 0.670508 0.271198
O O7 0.983239 0.710286 0.446624
O O8 0.250000 0.234146 0.702950
O O9 0.409561 0.244809 0.764561
O O10 0.358964 0.195119 0.522236
O O11 0.500000 0.500000 0.070085
O O12 0.587110 0.598377 0.080078
O O13 0.421328 0.594882 0.997885
O O14 0.600263 0.202721 0.510368
O O15 0.638188 0.307585 0.507337
O O16 0.250000 0.851615 0.570260
O O17 0.750000 0.381483 0.949812
O O18 0.866856 0.353357 0.765312
O O19 0.750000 0.383405 0.586598
#
# Coordination Sequence:
#
# PCOD9363839 Si02
#       8
#     8   8   8   8   8   8   8   8
#     4   9  20  38  57  79 106 141 189 234 276 331
#     4  10  20  35  56  79 110 147 183 226 281 342
#     4  11  21  34  53  81 111 140 176 221 270 329
#     4  10  22  40  60  82 110 150 198 242 290 346
#     4  11  21  35  56  82 113 147 185 229 280 341
#     4  11  22  37  57  85 119 153 190 240 297 352
#     4  10  21  36  57  84 115 148 188 234 287 347
#     4  10  20  35  56  84 112 144 183 230 286 344
#
# _framework density 18.666383
#
# number of rings (size 3 to 8) (size 9 to 14) (size 15 to 20)
#    0.000    1.750    0.000    6.000    0.000    6.500 
#    0.000    5.625    0.000    1.500    0.000    0.000 
#    0.000    0.000    0.000    0.000    0.000    0.000 
#
# Total GULP energy -178557.959998 kJ/mol
# GULP energy per Si atom -5579.936250 kJ/mol
# Density = 1.862390 g / cm^3
# Si number density = 18.666383 Si / 1000 Ang^3
#
#
#
# Elastic Constant Matrix: (Units=GPa)
#
#
# Indices 1 2 3 4 5 6 
#
# 1 82.7130 42.3181 36.6199 0.0000 0.0000 0.0000
# 2 42.3181 103.0106 46.8724 0.0000 0.0000 0.0000
# 3 36.6199 46.8724 84.1678 0.0000 0.0000 0.0000
# 4 0.0000 0.0000 0.0000 26.2912 0.0000 0.0000
# 5 0.0000 0.0000 0.0000 0.0000 29.8067 0.0000
# 6 0.0000 0.0000 0.0000 0.0000 0.0000 14.2963
#
#
#
# Elastic Compliance Matrix: (Units=1/GPa)
#
#
# Indices 1 2 3 4 5 6 
#
# 1 0.016521 -0.004710 -0.004565 0.000000 0.000000 0.000000
# 2 -0.004710 0.014345 -0.005940 0.000000 0.000000 0.000000
# 3 -0.004565 -0.005940 0.017175 0.000000 0.000000 0.000000
# 4 0.000000 0.000000 0.000000 0.038036 0.000000 0.000000
# 5 0.000000 0.000000 0.000000 0.000000 0.033550 0.000000
# 6 0.000000 0.000000 0.000000 0.000000 0.000000 0.069948
#
#
# Mechanical properties :
#
#
# Convention : Reuss Voigt Hill
#
# Bulk Modulus (GPa) = 56.77926 57.94580 57.36253
# Shear Modulus (GPa) = 22.13628 23.68424 22.91026
#
# Velocity S-wave (km/s) = 3.44741 3.56591 3.50716
# Velocity P-wave (km/s) = 6.80663 6.93286 6.87003
#
# Compressibility (1/GPa) = 0.01761206
#
# Stress axis : x y z
#
# Youngs Moduli (GPa) = 60.53006 69.70960 58.22435
#
# Poissons Ratio (x) = 0.32831 0.26580
# Poissons Ratio (y) = 0.28508 0.34583
# Poissons Ratio (z) = 0.27632 0.41405
#
# Static dielectric constant tensor:
#      x y z
#    x 1.696580 0.000000 0.000000 
#    y 0.000000 1.626110 0.000000 
#    z 0.000000 0.000000 1.626040 
# 
# From -- ./inp_files/6891.got.cif
#   From: 2010.05.17/outbox.cif.g08.bks.cpg/sg40_4_cif.got.tgz:6891.got - 2010.06.03 18:35:42.
