data_PCOD9363556
_publ_section_title
;
Structure prediction by ZEFSAII (Michael W. Deem and Ramdas Pophale) SiO2 
 PCOD9363556
Probable space group: A M A 2
;
_chemical_formula_sum "Si O2"
_cell_formula_units_Z 64
_cell_length_a 14.506638
_cell_length_b 12.366486
_cell_length_c 15.642881
_cell_angle_alpha 90.000000
_cell_angle_beta 90.000000
_cell_angle_gamma 90.000000
_cell_volume 2806.272403
_symmetry_space_group_name_H-M "A M A 2"
_symmetry_group_IT_number 40
_symmetry_cell_setting 'orthorhombic'
loop_
_space_group_symop_operation_xyz
x,y,z
-x,-y,z
1/2-x,y,z
1/2+x,-y,z
x,1/2+y,1/2+z
-x,1/2-y,1/2+z
1/2-x,1/2+y,1/2+z
1/2+x,1/2-y,1/2+z
loop_
_atom_site_type_symbol
_atom_site_label
_atom_site_fract_x
_atom_site_fract_y
_atom_site_fract_z
Si Si1 0.136329 0.647575 0.547950
Si Si2 0.362764 0.184205 0.578553
Si Si3 0.363367 0.557687 0.906385
Si Si4 0.594939 0.368688 0.269797
Si Si5 0.356443 0.907658 0.012425
Si Si6 0.883089 0.101982 0.816624
Si Si7 0.140663 0.810617 0.402668
Si Si8 0.646938 0.822187 0.237963
O O1 0.250000 0.652544 0.545896
O O2 0.105542 0.528470 0.518719
O O3 0.103764 0.738180 0.481226
O O4 0.104236 0.662627 0.645126
O O5 0.250000 0.183341 0.582233
O O6 0.390030 0.114206 0.495540
O O7 0.399354 0.140870 0.668189
O O8 0.395070 0.307929 0.565611
O O9 0.250000 0.561742 0.905573
O O10 0.394569 0.433147 0.900701
O O11 0.395819 0.622913 0.822076
O O12 0.645574 0.479299 0.297150
O O13 0.491722 0.386000 0.302407
O O14 0.628926 0.260938 0.317325
O O15 0.250000 0.917837 0.039720
O O16 0.358610 0.872781 0.913863
O O17 0.845305 0.195188 0.756240
O O18 0.250000 0.821702 0.416401
O O19 0.750000 0.869767 0.231108
#
# Coordination Sequence:
#
# PCOD9363556 Si02
#       8
#     8   8   8   8   8   8   8   8
#     4   9  19  33  57  92 116 142 191 243 297 348
#     4  10  21  38  62  90 118 156 202 248 296 353
#     4   9  19  35  59  91 120 147 190 245 298 347
#     4  11  25  40  56  87 121 160 202 245 300 351
#     4  10  19  38  67  91 114 152 202 253 300 351
#     4  11  23  42  58  82 121 158 204 246 290 356
#     4  10  20  37  59  86 120 153 191 244 298 351
#     4  10  20  37  62  88 116 152 194 246 297 352
#
# _framework density 22.806055000000001
#
# number of rings (size 3 to 8) (size 9 to 14) (size 15 to 20)
#    0.000    2.000    2.500    0.750    3.500    1.500 
#    2.250    0.625    0.000    0.000    0.000    0.000 
#    0.000    0.000    0.000    0.000    0.000    0.000 
#
# Total GULP energy -178811.363667 kJ/mol
# GULP energy per Si atom -5587.855115 kJ/mol
# Density = 2.275415 g / cm^3
# Si number density = 22.806055 Si / 1000 Ang^3
#
#
#
# Elastic Constant Matrix: (Units=GPa)
#
#
# Indices 1 2 3 4 5 6 
#
# 1 56.4404 7.9473 -4.8119 0.0000 0.0000 0.0000
# 2 7.9473 135.3275 30.1636 0.0000 0.0000 0.0000
# 3 -4.8119 30.1636 110.8821 0.0000 0.0000 0.0000
# 4 0.0000 0.0000 0.0000 25.5847 0.0000 0.0000
# 5 0.0000 0.0000 0.0000 0.0000 -32.9836 0.0000
# 6 0.0000 0.0000 0.0000 0.0000 0.0000 10.2219
#
#
#
# Elastic Compliance Matrix: (Units=1/GPa)
#
#
# Indices 1 2 3 4 5 6 
#
# 1 0.017999 -0.001311 0.001138 0.000000 0.000000 0.000000
# 2 -0.001311 0.007962 -0.002223 0.000000 0.000000 0.000000
# 3 0.001138 -0.002223 0.009673 0.000000 0.000000 0.000000
# 4 0.000000 0.000000 0.000000 0.039086 0.000000 0.000000
# 5 0.000000 0.000000 0.000000 0.000000 -0.030318 0.000000
# 6 0.000000 0.000000 0.000000 0.000000 0.000000 0.097829
#
#
# Mechanical properties :
#
#
# Convention : Reuss Voigt Hill
#
# Bulk Modulus (GPa) = 32.42291 41.02754 36.72523
# Shear Modulus (GPa) = 31.78588 18.52135 25.15362
#
# Velocity S-wave (km/s) = 3.73734 2.85287 3.32465
# Velocity P-wave (km/s) = 5.73335 5.37407 5.55662
#
# Compressibility (1/GPa) = 0.03084239
#
# Stress axis : x y z
#
# Youngs Moduli (GPa) = 55.55757 125.59828 103.38450
#
# Poissons Ratio (x) = 0.16461 -0.11761
# Poissons Ratio (y) = 0.07281 0.22980
# Poissons Ratio (z) = -0.06320 0.27918
#
# Static dielectric constant tensor:
#      x y z
#    x 2.324210 0.000000 0.000000 
#    y 0.000000 1.840530 0.000000 
#    z 0.000000 0.000000 1.776080 
# 
# From -- ./inp_files/17846.got.cif
#   From: 2010.05.17/outbox.cif.g08.bks.cpg/sg40_9_cif.got.tgz:17846.got - 2010.06.03 18:35:42.
