data_PCOD9363500
_publ_section_title
;
Structure prediction by ZEFSAII (Michael W. Deem and Ramdas Pophale) SiO2 
 PCOD9363500
Probable space group: A M A 2
;
_chemical_formula_sum "Si O2"
_cell_formula_units_Z 48
_cell_length_a 18.975219
_cell_length_b 12.747251
_cell_length_c 7.776518
_cell_angle_alpha 90.000000
_cell_angle_beta 90.000000
_cell_angle_gamma 90.000000
_cell_volume 1880.998789
_symmetry_space_group_name_H-M "A M A 2"
_symmetry_group_IT_number 40
_symmetry_cell_setting 'orthorhombic'
loop_
_space_group_symop_operation_xyz
x,y,z
-x,-y,z
1/2-x,y,z
1/2+x,-y,z
x,1/2+y,1/2+z
-x,1/2-y,1/2+z
1/2-x,1/2+y,1/2+z
1/2+x,1/2-y,1/2+z
loop_
_atom_site_type_symbol
_atom_site_label
_atom_site_fract_x
_atom_site_fract_y
_atom_site_fract_z
Si Si1 0.169867 0.927997 0.095790
Si Si2 0.556939 0.077018 0.354539
Si Si3 0.175278 0.762583 0.788940
Si Si4 0.965187 0.141042 0.713120
Si Si5 0.598173 0.422338 0.364520
Si Si6 0.673793 0.435812 0.033751
O O1 0.250000 0.938465 0.166941
O O2 0.108125 0.874899 0.210628
O O3 0.177556 0.857314 0.926764
O O4 0.137634 0.041436 0.037441
O O5 0.513331 0.128245 0.512755
O O6 0.500000 0.000000 0.266900
O O7 0.616580 0.015338 0.462276
O O8 0.250000 0.765866 0.688371
O O9 0.175295 0.658155 0.900188
O O10 0.099076 0.777274 0.704176
O O11 0.032767 0.157149 0.836918
O O12 0.933619 0.032885 0.791622
O O13 0.654980 0.392543 0.221274
O O14 0.750000 0.487314 0.046881
#
# Coordination Sequence:
#
# PCOD9363500 Si02
#       6
#     8   8   8   8   8   8
#     4  10  21  35  56  84 110 147 190 235 290 344
#     4  11  21  36  55  84 115 144 191 241 282 342
#     4   9  20  36  56  82 112 149 189 229 287 346
#     4   9  17  35  55  79 111 145 191 231 282 336
#     4   9  17  34  57  81 106 145 193 232 277 343
#     4  10  19  37  59  80 112 148 187 237 282 340
#
# _framework density 25.518356000000001
#
# number of rings (size 3 to 8) (size 9 to 14) (size 15 to 20)
#    0.000    2.333    3.333    1.000    4.667    4.667 
#    3.000    1.667    0.000    4.000    0.000    0.000 
#    0.000    0.000    0.000    0.000    0.000    0.000 
#
# Total GULP energy -133763.335569 kJ/mol
# GULP energy per Si atom -5573.472315 kJ/mol
# Density = 2.546028 g / cm^3
# Si number density = 25.518356 Si / 1000 Ang^3
#
#
#
# Elastic Constant Matrix: (Units=GPa)
#
#
# Indices 1 2 3 4 5 6 
#
# 1 93.2481 -8.7566 19.3388 0.0000 0.0000 0.0000
# 2 -8.7566 29.1881 1.7719 0.0000 0.0000 0.0000
# 3 19.3388 1.7719 41.1229 0.0000 0.0000 0.0000
# 4 0.0000 0.0000 0.0000 20.5425 0.0000 0.0000
# 5 0.0000 0.0000 0.0000 0.0000 32.8039 0.0000
# 6 0.0000 0.0000 0.0000 0.0000 0.0000 2.4200
#
#
#
# Elastic Compliance Matrix: (Units=1/GPa)
#
#
# Indices 1 2 3 4 5 6 
#
# 1 0.012347 0.004067 -0.005981 0.000000 0.000000 0.000000
# 2 0.004067 0.035690 -0.003450 0.000000 0.000000 0.000000
# 3 -0.005981 -0.003450 0.027279 0.000000 0.000000 0.000000
# 4 0.000000 0.000000 0.000000 0.048680 0.000000 0.000000
# 5 0.000000 0.000000 0.000000 0.000000 0.030484 0.000000
# 6 0.000000 0.000000 0.000000 0.000000 0.000000 0.413227
#
#
# Mechanical properties :
#
#
# Convention : Reuss Voigt Hill
#
# Bulk Modulus (GPa) = 15.48323 20.91861 18.20092
# Shear Modulus (GPa) = 8.33382 21.23361 14.78372
#
# Velocity S-wave (km/s) = 1.80912 2.88773 2.40955
# Velocity P-wave (km/s) = 3.23180 4.39703 3.85866
#
# Compressibility (1/GPa) = 0.06458599
#
# Stress axis : x y z
#
# Youngs Moduli (GPa) = 80.99460 28.01896 36.65839
#
# Poissons Ratio (x) = -0.11396 0.21927
# Poissons Ratio (y) = -0.32942 0.12649
# Poissons Ratio (z) = 0.48446 0.09668
#
# Static dielectric constant tensor:
#      x y z
#    x 2.143020 0.000000 0.000000 
#    y 0.000000 2.109370 0.000000 
#    z 0.000000 0.000000 2.109710 
# 
# From -- ./inp_files/7572.got.cif
#   From: 2010.05.17/outbox.cif.g08.bks.cpg/sg40_4_cif.got.tgz:7572.got - 2010.06.03 18:35:42.
