data_PCOD9363747
_publ_section_title
;
Structure prediction by ZEFSAII (Michael W. Deem and Ramdas Pophale) SiO2 
 PCOD9363747
Probable space group: A M A 2
;
_chemical_formula_sum "Si O2"
_cell_formula_units_Z 56
_cell_length_a 20.361285
_cell_length_b 16.265321
_cell_length_c 9.307994
_cell_angle_alpha 90.000000
_cell_angle_beta 90.000000
_cell_angle_gamma 90.000000
_cell_volume 3082.647855
_symmetry_space_group_name_H-M "A M A 2"
_symmetry_group_IT_number 40
_symmetry_cell_setting 'orthorhombic'
loop_
_space_group_symop_operation_xyz
x,y,z
-x,-y,z
1/2-x,y,z
1/2+x,-y,z
x,1/2+y,1/2+z
-x,1/2-y,1/2+z
1/2-x,1/2+y,1/2+z
1/2+x,1/2-y,1/2+z
loop_
_atom_site_type_symbol
_atom_site_label
_atom_site_fract_x
_atom_site_fract_y
_atom_site_fract_z
Si Si1 0.175737 0.327932 0.496910
Si Si2 0.070539 0.192233 0.432306
Si Si3 0.981075 0.796390 0.117453
Si Si4 0.434513 0.549351 0.467914
Si Si5 0.922821 0.496982 0.008182
Si Si6 0.671513 0.525087 0.273787
Si Si7 0.404293 0.921062 0.208854
O O1 0.250000 0.300656 0.495290
O O2 0.128606 0.250625 0.485854
O O3 0.164160 0.389474 0.362180
O O4 0.160545 0.381947 0.639142
O O5 0.008709 0.217669 0.533509
O O6 0.058104 0.215451 0.265226
O O7 0.086531 0.096971 0.454946
O O8 0.041157 0.853888 0.169320
O O9 0.947114 0.855722 0.000588
O O10 0.500000 0.500000 0.411405
O O11 0.370535 0.538018 0.371020
O O12 0.420441 0.502920 0.617981
O O13 0.869896 0.522267 0.127559
O O14 0.000000 0.500000 0.052763
O O15 0.910276 0.556187 0.873189
O O16 0.750000 0.509116 0.259468
#
# Coordination Sequence:
#
# PCOD9363747 Si02
#       7
#     8   8   8   8   8   8   8
#     4   9  21  41  59  78 110 158 200 231 287 362
#     4  11  23  34  59  88 120 149 189 245 296 347
#     4  10  20  34  54  88 118 147 187 238 302 345
#     4   9  16  35  60  81 110 150 195 237 286 347
#     4  12  22  36  59  93 121 145 192 251 296 343
#     4  10  23  38  57  83 116 156 197 236 290 353
#     4   9  17  36  59  81 110 147 190 238 284 350
#
# _framework density 18.166201999999998
#
# number of rings (size 3 to 8) (size 9 to 14) (size 15 to 20)
#    0.000    2.000    2.857    1.714    4.000    1.143 
#    0.000    0.714    0.000    0.000    0.000    0.000 
#    0.000    0.000    0.000    0.000    0.000    0.000 
#
# Total GULP energy -156036.521738 kJ/mol
# GULP energy per Si atom -5572.732919 kJ/mol
# Density = 1.812485 g / cm^3
# Si number density = 18.166202 Si / 1000 Ang^3
#
#
#
# Elastic Constant Matrix: (Units=GPa)
#
#
# Indices 1 2 3 4 5 6 
#
# 1 106.6077 21.0608 39.7915 0.0000 0.0000 0.0000
# 2 21.0608 49.9407 0.9080 0.0000 0.0000 0.0000
# 3 39.7915 0.9080 79.0747 0.0000 0.0000 0.0000
# 4 0.0000 0.0000 0.0000 9.4931 0.0000 0.0000
# 5 0.0000 0.0000 0.0000 0.0000 13.7417 0.0000
# 6 0.0000 0.0000 0.0000 0.0000 0.0000 18.3949
#
#
#
# Elastic Compliance Matrix: (Units=1/GPa)
#
#
# Indices 1 2 3 4 5 6 
#
# 1 0.012807 -0.005285 -0.006384 0.000000 0.000000 0.000000
# 2 -0.005285 0.022209 0.002404 0.000000 0.000000 0.000000
# 3 -0.006384 0.002404 0.015831 0.000000 0.000000 0.000000
# 4 0.000000 0.000000 0.000000 0.105340 0.000000 0.000000
# 5 0.000000 0.000000 0.000000 0.000000 0.072771 0.000000
# 6 0.000000 0.000000 0.000000 0.000000 0.000000 0.054363
#
#
# Mechanical properties :
#
#
# Convention : Reuss Voigt Hill
#
# Bulk Modulus (GPa) = 30.94247 39.90484 35.42366
# Shear Modulus (GPa) = 15.99374 19.91679 17.95527
#
# Velocity S-wave (km/s) = 2.97039 3.31473 3.14728
# Velocity P-wave (km/s) = 5.36976 6.05509 5.72269
#
# Compressibility (1/GPa) = 0.03231804
#
# Stress axis : x y z
#
# Youngs Moduli (GPa) = 78.08179 45.02734 63.16642
#
# Poissons Ratio (x) = 0.23796 0.40326
# Poissons Ratio (y) = 0.41265 -0.15188
# Poissons Ratio (z) = 0.49848 -0.10826
#
# Static dielectric constant tensor:
#      x y z
#    x 1.644830 0.000000 0.000000 
#    y 0.000000 1.624110 0.000000 
#    z 0.000000 0.000000 1.663300 
# 
# From -- ./inp_files/8292.got.cif
#   From: 2010.05.17/outbox.cif.g08.bks.cpg/sg40_5_cif.got.tgz:8292.got - 2010.06.03 18:35:42.
