data_PCOD9363281
_publ_section_title
;
Structure prediction by ZEFSAII (Michael W. Deem and Ramdas Pophale) SiO2 
 PCOD9363281
Probable space group: A M A 2
;
_chemical_formula_sum "Si O2"
_cell_formula_units_Z 56
_cell_length_a 8.592947
_cell_length_b 15.959426
_cell_length_c 19.893471
_cell_angle_alpha 90.000000
_cell_angle_beta 90.000000
_cell_angle_gamma 90.000000
_cell_volume 2728.160808
_symmetry_space_group_name_H-M "A M A 2"
_symmetry_group_IT_number 40
_symmetry_cell_setting 'orthorhombic'
loop_
_space_group_symop_operation_xyz
x,y,z
-x,-y,z
1/2-x,y,z
1/2+x,-y,z
x,1/2+y,1/2+z
-x,1/2-y,1/2+z
1/2-x,1/2+y,1/2+z
1/2+x,1/2-y,1/2+z
loop_
_atom_site_type_symbol
_atom_site_label
_atom_site_fract_x
_atom_site_fract_y
_atom_site_fract_z
Si Si1 0.569356 0.421608 0.507480
Si Si2 0.565785 0.136266 0.138979
Si Si3 0.568895 0.740144 0.447089
Si Si4 0.570490 0.272473 0.306405
Si Si5 0.425948 0.923367 0.276955
Si Si6 0.564934 0.683722 0.161292
Si Si7 0.436624 0.092678 0.530505
O O1 0.500000 0.500000 0.466079
O O2 0.750000 0.433728 0.521356
O O3 0.462989 0.416500 0.573468
O O4 0.542141 0.330250 0.477412
O O5 0.750000 0.153275 0.149321
O O6 0.498618 0.089214 0.203775
O O7 0.478885 0.224454 0.132977
O O8 0.750000 0.726949 0.466563
O O9 0.547113 0.720223 0.368265
O O10 0.525674 0.832659 0.476302
O O11 0.750000 0.299481 0.319678
O O12 0.574608 0.171051 0.301966
O O13 0.513082 0.313216 0.236042
O O14 0.250000 0.950236 0.267153
O O15 0.500000 0.000000 0.316908
O O16 0.750000 0.673692 0.167948
O O17 0.500608 0.620570 0.104287
O O18 0.250000 0.088690 0.534071
O O19 0.500000 0.000000 0.513209
#
# Coordination Sequence:
#
# PCOD9363281 Si02
#       7
#     8   8   8   8   8   8   8
#     4  12  24  38  60  89 122 161 202 250 310 376
#     4  10  19  34  55  84 121 157 196 246 302 360
#     4  11  24  43  65  92 128 168 214 270 327 391
#     4  10  22  40  61  85 121 167 212 263 326 389
#     4   9  19  32  50  78 114 153 194 243 296 359
#     4  11  21  37  63  93 124 163 213 262 320 383
#     4  11  24  42  67  97 134 175 223 279 334 393
#
# _framework density 20.526648999999999
#
# number of rings (size 3 to 8) (size 9 to 14) (size 15 to 20)
#    0.000    1.429    1.429    5.571    0.000    6.857 
#    0.000    3.571    0.000    0.000    0.000    0.000 
#    0.000    0.000    0.000    0.000    0.000    0.000 
#
# Total GULP energy -155999.274779 kJ/mol
# GULP energy per Si atom -5571.402671 kJ/mol
# Density = 2.047993 g / cm^3
# Si number density = 20.526649 Si / 1000 Ang^3
#
#
#
# Elastic Constant Matrix: (Units=GPa)
#
#
# Indices 1 2 3 4 5 6 
#
# 1 99.5137 27.0381 10.9883 0.0000 0.0000 0.0000
# 2 27.0381 82.4516 5.3052 0.0000 0.0000 0.0000
# 3 10.9883 5.3052 61.0455 0.0000 0.0000 0.0000
# 4 0.0000 0.0000 0.0000 2.2276 0.0000 0.0000
# 5 0.0000 0.0000 0.0000 0.0000 64.3014 0.0000
# 6 0.0000 0.0000 0.0000 0.0000 0.0000 34.4540
#
#
#
# Elastic Compliance Matrix: (Units=1/GPa)
#
#
# Indices 1 2 3 4 5 6 
#
# 1 0.011206 -0.003565 -0.001707 0.000000 0.000000 0.000000
# 2 -0.003565 0.013331 -0.000517 0.000000 0.000000 0.000000
# 3 -0.001707 -0.000517 0.016733 0.000000 0.000000 0.000000
# 4 0.000000 0.000000 0.000000 0.448913 0.000000 0.000000
# 5 0.000000 0.000000 0.000000 0.000000 0.015552 0.000000
# 6 0.000000 0.000000 0.000000 0.000000 0.000000 0.029024
#
#
# Mechanical properties :
#
#
# Convention : Reuss Voigt Hill
#
# Bulk Modulus (GPa) = 33.67905 36.63045 35.15475
# Shear Modulus (GPa) = 8.98902 33.50854 21.24878
#
# Velocity S-wave (km/s) = 2.09492 4.04473 3.22091
# Velocity P-wave (km/s) = 4.72173 6.30057 5.56740
#
# Compressibility (1/GPa) = 0.02969205
#
# Stress axis : x y z
#
# Youngs Moduli (GPa) = 89.23814 75.01538 59.76050
#
# Poissons Ratio (x) = 0.26742 0.10203
# Poissons Ratio (y) = 0.31812 0.03088
# Poissons Ratio (z) = 0.15236 0.03877
#
# Static dielectric constant tensor:
#      x y z
#    x 1.676970 0.000000 0.000000 
#    y 0.000000 1.833360 0.000000 
#    z 0.000000 0.000000 1.785650 
# 
# From -- ./inp_files/22150.got.cif
#   From: 2010.05.17/outbox.cif.g08.bks.cpg/sg40_12_cif.got.tgz:22150.got - 2010.06.03 18:35:42.
