data_PCOD9363225
_publ_section_title
;
Structure prediction by ZEFSAII (Michael W. Deem and Ramdas Pophale) SiO2 
 PCOD9363225
Probable space group: A M A 2
;
_chemical_formula_sum "Si O2"
_cell_formula_units_Z 64
_cell_length_a 9.073212
_cell_length_b 17.778871
_cell_length_c 20.941987
_cell_angle_alpha 90.000000
_cell_angle_beta 90.000000
_cell_angle_gamma 90.000000
_cell_volume 3378.182618
_symmetry_space_group_name_H-M "A M A 2"
_symmetry_group_IT_number 40
_symmetry_cell_setting 'orthorhombic'
loop_
_space_group_symop_operation_xyz
x,y,z
-x,-y,z
1/2-x,y,z
1/2+x,-y,z
x,1/2+y,1/2+z
-x,1/2-y,1/2+z
1/2-x,1/2+y,1/2+z
1/2+x,1/2-y,1/2+z
loop_
_atom_site_type_symbol
_atom_site_label
_atom_site_fract_x
_atom_site_fract_y
_atom_site_fract_z
Si Si1 0.575286 0.302419 0.181210
Si Si2 0.079947 0.618548 0.559586
Si Si3 0.071370 0.632432 0.420533
Si Si4 0.919370 0.198206 0.551805
Si Si5 0.075929 0.876778 0.189523
Si Si6 0.073938 0.204071 0.422289
Si Si7 0.426590 0.575268 0.283932
Si Si8 0.926065 0.424056 0.819882
O O1 0.750000 0.311751 0.169894
O O2 0.487994 0.327536 0.118454
O O3 0.551244 0.213663 0.192273
O O4 0.532583 0.352300 0.241898
O O5 0.250000 0.595222 0.568822
O O6 0.026194 0.596892 0.488645
O O7 0.077634 0.710175 0.555635
O O8 0.984133 0.596693 0.620690
O O9 0.250000 0.639637 0.422802
O O10 0.029030 0.587452 0.357447
O O11 0.002789 0.715271 0.413036
O O12 0.750000 0.175415 0.544494
O O13 0.013584 0.175248 0.490368
O O14 0.250000 0.891509 0.194989
O O15 0.989568 0.910767 0.249119
O O16 0.250000 0.213398 0.425103
O O17 0.037734 0.146399 0.365554
O O18 0.500000 0.500000 0.258252
O O19 0.250000 0.568303 0.282111
O O20 0.750000 0.431816 0.817420
O O21 0.000000 0.500000 0.845490
#
# Coordination Sequence:
#
# PCOD9363225 Si02
#       8
#     8   8   8   8   8   8   8   8
#     4   9  18  33  54  79 107 138 173 215 260 308
#     4   8  15  29  50  77 107 134 164 209 258 304
#     4   9  18  34  56  80 106 138 175 215 260 309
#     4   9  17  30  52  80 107 135 169 212 259 307
#     4  10  19  33  56  81 104 134 171 212 259 310
#     4  10  20  34  55  82 107 132 168 215 262 309
#     4  10  21  36  52  74 106 142 179 218 260 306
#     4  11  24  39  54  75 105 139 174 214 259 309
#
# _framework density 18.945097000000001
#
# number of rings (size 3 to 8) (size 9 to 14) (size 15 to 20)
#    0.000    2.500    0.000    3.000    0.000    7.500 
#    0.000    1.250    0.000    1.500    0.000    0.000 
#    0.000    0.000    0.000    0.000    0.000    0.000 
#
# Total GULP energy -178570.315088 kJ/mol
# GULP energy per Si atom -5580.322346 kJ/mol
# Density = 1.890198 g / cm^3
# Si number density = 18.945097 Si / 1000 Ang^3
#
#
#
# Elastic Constant Matrix: (Units=GPa)
#
#
# Indices 1 2 3 4 5 6 
#
# 1 33.4693 22.2059 26.4244 0.0000 0.0000 0.0000
# 2 22.2059 47.6683 21.2207 0.0000 0.0000 0.0000
# 3 26.4244 21.2207 97.3518 0.0000 0.0000 0.0000
# 4 0.0000 0.0000 0.0000 -12.4767 0.0000 0.0000
# 5 0.0000 0.0000 0.0000 0.0000 26.9473 0.0000
# 6 0.0000 0.0000 0.0000 0.0000 0.0000 20.7956
#
#
#
# Elastic Compliance Matrix: (Units=1/GPa)
#
#
# Indices 1 2 3 4 5 6 
#
# 1 0.049967 -0.019092 -0.009401 0.000000 0.000000 0.000000
# 2 -0.019092 0.030527 -0.001472 0.000000 0.000000 0.000000
# 3 -0.009401 -0.001472 0.013145 0.000000 0.000000 0.000000
# 4 0.000000 0.000000 0.000000 -0.080149 0.000000 0.000000
# 5 0.000000 0.000000 0.000000 0.000000 0.037110 0.000000
# 6 0.000000 0.000000 0.000000 0.000000 0.000000 0.048087
#
#
# Mechanical properties :
#
#
# Convention : Reuss Voigt Hill
#
# Bulk Modulus (GPa) = 29.66549 35.35460 32.51005
# Shear Modulus (GPa) = 29.43722 14.29579 21.86651
#
# Velocity S-wave (km/s) = 3.94613 2.74996 3.40104
# Velocity P-wave (km/s) = 6.03781 5.36518 5.71141
#
# Compressibility (1/GPa) = 0.03370920
#
# Stress axis : x y z
#
# Youngs Moduli (GPa) = 20.01314 32.75741 76.07629
#
# Poissons Ratio (x) = 0.62540 0.71520
# Poissons Ratio (y) = 0.38209 0.11200
# Poissons Ratio (z) = 0.18815 0.04823
#
# Static dielectric constant tensor:
#      x y z
#    x 1.629270 0.000000 0.000000 
#    y 0.000000 1.648380 0.000000 
#    z 0.000000 0.000000 1.666110 
# 
# From -- ./inp_files/22401.got.cif
#   From: 2010.05.17/outbox.cif.g08.bks.cpg/sg40_12_cif.got.tgz:22401.got - 2010.06.03 18:35:42.
