data_PCOD9363577
_publ_section_title
;
Structure prediction by ZEFSAII (Michael W. Deem and Ramdas Pophale) SiO2 
 PCOD9363577
Probable space group: A M A 2
;
_chemical_formula_sum "Si O2"
_cell_formula_units_Z 48
_cell_length_a 14.582845
_cell_length_b 5.292056
_cell_length_c 28.866634
_cell_angle_alpha 90.000000
_cell_angle_beta 90.000000
_cell_angle_gamma 90.000000
_cell_volume 2227.731454
_symmetry_space_group_name_H-M "A M A 2"
_symmetry_group_IT_number 40
_symmetry_cell_setting 'orthorhombic'
loop_
_space_group_symop_operation_xyz
x,y,z
-x,-y,z
1/2-x,y,z
1/2+x,-y,z
x,1/2+y,1/2+z
-x,1/2-y,1/2+z
1/2-x,1/2+y,1/2+z
1/2+x,1/2-y,1/2+z
loop_
_atom_site_type_symbol
_atom_site_label
_atom_site_fract_x
_atom_site_fract_y
_atom_site_fract_z
Si Si1 0.750000 0.700235 0.407010
Si Si2 0.596805 0.393064 0.837291
Si Si3 0.097357 0.260076 0.586885
Si Si4 0.853475 0.410335 0.285551
Si Si5 0.887825 0.742522 0.046972
Si Si6 0.250000 0.807153 0.465987
Si Si7 0.057673 0.754983 0.193308
O O1 0.661230 0.768697 0.376021
O O2 0.750000 0.416411 0.427435
O O3 0.750000 0.910335 0.446690
O O4 0.500000 0.500000 0.855232
O O5 0.637155 0.651421 0.815159
O O6 0.586892 0.157190 0.800951
O O7 0.147732 0.492376 0.564551
O O8 0.089835 0.311627 0.641274
O O9 0.997551 0.250090 0.559903
O O10 0.143143 0.994812 0.576946
O O11 0.750000 0.505098 0.290280
O O12 0.872095 0.319127 0.233386
O O13 0.843431 0.715355 0.996474
O O14 0.000000 0.500000 0.187456
O O15 0.000000 0.000000 0.208948
#
# Coordination Sequence:
#
# PCOD9363577 Si02
#       7
#     4   8   8   8   8   4   8
#     4  12  26  50  72 103 144 165 240 308 358 436
#     4  12  25  49  76  99 139 193 229 287 383 433
#     4  10  19  40  63  90 132 183 219 275 320 412
#     4  12  24  43  68 105 146 187 231 299 348 421
#     4  10  20  40  63  88 130 170 223 267 361 384
#     4  12  26  44  70 103 130 175 220 308 360 428
#     4  12  21  38  63  99 135 182 242 274 324 405
#
# _framework density 21.546582999999998
#
# number of rings (size 3 to 8) (size 9 to 14) (size 15 to 20)
#    0.000    0.667    5.000    5.000    0.000    0.000 
#   12.000    0.000    0.000    0.000    0.000    0.000 
#    0.000    0.000    0.000    0.000    0.000    0.000 
#
# Total GULP energy -133796.051152 kJ/mol
# GULP energy per Si atom -5574.835465 kJ/mol
# Density = 2.149754 g / cm^3
# Si number density = 21.546583 Si / 1000 Ang^3
#
#
#
# Elastic Constant Matrix: (Units=GPa)
#
#
# Indices 1 2 3 4 5 6 
#
# 1 80.5722 -10.6453 16.8217 0.0000 0.0000 0.0000
# 2 -10.6453 123.1522 -11.0735 0.0000 0.0000 0.0000
# 3 16.8217 -11.0735 66.1720 0.0000 0.0000 0.0000
# 4 0.0000 0.0000 0.0000 50.8096 0.0000 0.0000
# 5 0.0000 0.0000 0.0000 0.0000 76.1522 0.0000
# 6 0.0000 0.0000 0.0000 0.0000 0.0000 12.4418
#
#
#
# Elastic Compliance Matrix: (Units=1/GPa)
#
#
# Indices 1 2 3 4 5 6 
#
# 1 0.013194 0.000852 -0.003212 0.000000 0.000000 0.000000
# 2 0.000852 0.008299 0.001172 0.000000 0.000000 0.000000
# 3 -0.003212 0.001172 0.016125 0.000000 0.000000 0.000000
# 4 0.000000 0.000000 0.000000 0.019681 0.000000 0.000000
# 5 0.000000 0.000000 0.000000 0.000000 0.013132 0.000000
# 6 0.000000 0.000000 0.000000 0.000000 0.000000 0.080374
#
#
# Mechanical properties :
#
#
# Convention : Reuss Voigt Hill
#
# Bulk Modulus (GPa) = 28.37451 28.90024 28.63738
# Shear Modulus (GPa) = 30.31628 46.20030 38.25829
#
# Velocity S-wave (km/s) = 3.75508 4.63558 4.21837
# Velocity P-wave (km/s) = 5.65671 6.48795 6.08654
#
# Compressibility (1/GPa) = 0.03524289
#
# Stress axis : x y z
#
# Youngs Moduli (GPa) = 75.79042 120.49549 62.01656
#
# Poissons Ratio (x) = -0.10263 0.19917
# Poissons Ratio (y) = -0.06455 -0.07270
# Poissons Ratio (z) = 0.24341 -0.14125
#
# Static dielectric constant tensor:
#      x y z
#    x 1.934570 0.000000 0.000000 
#    y 0.000000 1.691270 0.000000 
#    z 0.000000 0.000000 1.838020 
# 
# From -- ./inp_files/25732.got.cif
#   From: 2010.05.17/outbox.cif.g08.bks.cpg/sg40_13_cif.got.tgz:25732.got - 2010.06.03 18:35:42.
