data_PCOD9363350
_publ_section_title
;
Structure prediction by ZEFSAII (Michael W. Deem and Ramdas Pophale) SiO2 
 PCOD9363350
Probable space group: A M A 2
;
_chemical_formula_sum "Si O2"
_cell_formula_units_Z 40
_cell_length_a 9.867346
_cell_length_b 7.046180
_cell_length_c 23.624391
_cell_angle_alpha 90.000000
_cell_angle_beta 90.000000
_cell_angle_gamma 90.000000
_cell_volume 1642.535302
_symmetry_space_group_name_H-M "A M A 2"
_symmetry_group_IT_number 40
_symmetry_cell_setting 'orthorhombic'
loop_
_space_group_symop_operation_xyz
x,y,z
-x,-y,z
1/2-x,y,z
1/2+x,-y,z
x,1/2+y,1/2+z
-x,1/2-y,1/2+z
1/2-x,1/2+y,1/2+z
1/2+x,1/2-y,1/2+z
loop_
_atom_site_type_symbol
_atom_site_label
_atom_site_fract_x
_atom_site_fract_y
_atom_site_fract_z
Si Si1 0.250000 0.719202 0.086221
Si Si2 0.021810 0.224167 0.804587
Si Si3 0.250000 0.645019 0.622505
Si Si4 0.970638 0.275173 0.539448
Si Si5 0.750000 0.353573 0.218316
Si Si6 0.750000 0.047579 0.465771
Si Si7 0.500000 0.000000 0.400105
Si Si8 0.750000 0.797542 0.249628
O O1 0.385040 0.671445 0.051427
O O2 0.250000 0.653119 0.150771
O O3 0.250000 0.944148 0.091794
O O4 0.121491 0.233370 0.750773
O O5 0.063974 0.332763 0.860902
O O6 0.883384 0.324829 0.785710
O O7 0.000000 0.000000 0.815737
O O8 0.114147 0.741983 0.598967
O O9 0.250000 0.605524 0.688742
O O10 0.870183 0.188470 0.493368
O O11 0.000000 0.500000 0.528936
O O12 0.750000 0.575211 0.233305
O O13 0.628789 0.925732 0.434195
#
# Coordination Sequence:
#
# PCOD9363350 Si02
#       8
#     4   8   4   8   4   4   4   4
#     4  10  19  34  65 102 135 182 237 276 364 444
#     4  10  23  41  64  97 141 175 230 291 359 431
#     4   9  18  33  60  97 139 181 230 278 351 441
#     4   9  20  42  66  98 139 184 235 303 362 439
#     4  10  21  37  60 100 139 183 218 277 358 439
#     4  11  26  47  68  98 139 180 257 314 373 425
#     4  12  26  46  72 102 130 192 250 310 364 432
#     4  10  20  37  59  95 140 184 214 279 350 429
#
# _framework density 24.352595999999998
#
# number of rings (size 3 to 8) (size 9 to 14) (size 15 to 20)
#    0.000    2.000    0.000    3.000    2.800    1.600 
#    7.200    2.000    0.000    0.000    0.000    0.000 
#    0.000    0.000    0.000    0.000    0.000    0.000 
#
# Total GULP energy -111396.828427 kJ/mol
# GULP energy per Si atom -5569.841421 kJ/mol
# Density = 2.429717 g / cm^3
# Si number density = 24.352596 Si / 1000 Ang^3
#
#
#
# Elastic Constant Matrix: (Units=GPa)
#
#
# Indices 1 2 3 4 5 6 
#
# 1 180.8375 9.8127 28.3445 0.0000 0.0000 0.0000
# 2 9.8127 89.9252 21.8237 0.0000 0.0000 0.0000
# 3 28.3445 21.8237 99.5085 0.0000 0.0000 0.0000
# 4 0.0000 0.0000 0.0000 39.5298 0.0000 0.0000
# 5 0.0000 0.0000 0.0000 0.0000 32.0495 0.0000
# 6 0.0000 0.0000 0.0000 0.0000 0.0000 -337.7339
#
#
#
# Elastic Compliance Matrix: (Units=1/GPa)
#
#
# Indices 1 2 3 4 5 6 
#
# 1 0.005793 -0.000245 -0.001597 0.000000 0.000000 0.000000
# 2 -0.000245 0.011756 -0.002509 0.000000 0.000000 0.000000
# 3 -0.001597 -0.002509 0.011054 0.000000 0.000000 0.000000
# 4 0.000000 0.000000 0.000000 0.025297 0.000000 0.000000
# 5 0.000000 0.000000 0.000000 0.000000 0.031202 0.000000
# 6 0.000000 0.000000 0.000000 0.000000 0.000000 -0.002961
#
#
# Mechanical properties :
#
#
# Convention : Reuss Voigt Hill
#
# Bulk Modulus (GPa) = 50.24128 54.47033 52.35581
# Shear Modulus (GPa) = 51.29471 -32.54490 9.37490
#
# Velocity S-wave (km/s) = 4.59446 -3.65965 1.96418
# Velocity P-wave (km/s) = 6.98720 2.13507 5.16621
#
# Compressibility (1/GPa) = 0.01990395
#
# Stress axis : x y z
#
# Youngs Moduli (GPa) = 172.61179 85.06407 90.46237
#
# Poissons Ratio (x) = 0.02082 0.14443
# Poissons Ratio (y) = 0.04224 0.22693
# Poissons Ratio (z) = 0.27558 0.21339
#
# Static dielectric constant tensor:
#      x y z
#    x 2.014080 0.000000 0.000000 
#    y 0.000000 1.976210 0.000000 
#    z 0.000000 0.000000 2.041450 
# 
# From -- ./inp_files/23904.got.cif
#   From: 2010.05.17/outbox.cif.g08.bks.cpg/sg40_12_cif.got.tgz:23904.got - 2010.06.03 18:35:42.
