data_PCOD9363881
_publ_section_title
;
Structure prediction by ZEFSAII (Michael W. Deem and Ramdas Pophale) SiO2 
 PCOD9363881
Probable space group: A M A 2
;
_chemical_formula_sum "Si O2"
_cell_formula_units_Z 48
_cell_length_a 14.765715
_cell_length_b 9.985861
_cell_length_c 12.154785
_cell_angle_alpha 90.000000
_cell_angle_beta 90.000000
_cell_angle_gamma 90.000000
_cell_volume 1792.203328
_symmetry_space_group_name_H-M "A M A 2"
_symmetry_group_IT_number 40
_symmetry_cell_setting 'orthorhombic'
loop_
_space_group_symop_operation_xyz
x,y,z
-x,-y,z
1/2-x,y,z
1/2+x,-y,z
x,1/2+y,1/2+z
-x,1/2-y,1/2+z
1/2-x,1/2+y,1/2+z
1/2+x,1/2-y,1/2+z
loop_
_atom_site_type_symbol
_atom_site_label
_atom_site_fract_x
_atom_site_fract_y
_atom_site_fract_z
Si Si1 0.644053 0.758457 0.821300
Si Si2 0.639970 0.925520 0.503096
Si Si3 0.647449 0.157097 0.933040
Si Si4 0.143901 0.448788 0.212016
Si Si5 0.415636 0.098236 0.025087
Si Si6 0.641781 0.475658 0.749559
O O1 0.750000 0.732122 0.850054
O O2 0.641052 0.897763 0.755939
O O3 0.593055 0.784122 0.936826
O O4 0.615946 0.633143 0.746265
O O5 0.750000 0.935593 0.517389
O O6 0.610349 0.770314 0.514428
O O7 0.603931 0.032925 0.590699
O O8 0.617889 0.946609 0.375733
O O9 0.750000 0.203458 0.909494
O O10 0.602657 0.135810 0.812813
O O11 0.657430 0.012947 0.988161
O O12 0.250000 0.408105 0.203472
O O13 0.500000 0.000000 0.006108
O O14 0.401845 0.115288 0.154668
O O15 0.750000 0.462465 0.737085
#
# Coordination Sequence:
#
# PCOD9363881 Si02
#       6
#     8   8   8   8   8   8
#     4   9  18  35  61  85 109 145 195 247 287 340
#     4   9  17  29  51  83 110 136 177 232 290 338
#     4   9  17  32  55  79 106 143 188 237 282 333
#     4   8  14  26  47  75 103 131 173 228 277 323
#     4  11  22  37  55  83 116 155 196 236 291 356
#     4  10  20  35  58  86 116 150 192 243 293 344
#
# _framework density 26.782674
#
# number of rings (size 3 to 8) (size 9 to 14) (size 15 to 20)
#    0.000    2.667    0.000    3.500    0.000    4.000 
#    3.000    5.000    0.000    1.000    0.000    0.000 
#    0.000    0.000    0.000    0.000    0.000    0.000 
#
# Total GULP energy -133945.595082 kJ/mol
# GULP energy per Si atom -5581.066462 kJ/mol
# Density = 2.672172 g / cm^3
# Si number density = 26.782674 Si / 1000 Ang^3
#
#
#
# Elastic Constant Matrix: (Units=GPa)
#
#
# Indices 1 2 3 4 5 6 
#
# 1 61.3899 -14.7381 4.9497 0.0000 0.0000 0.0000
# 2 -14.7381 35.4723 5.3925 0.0000 0.0000 0.0000
# 3 4.9497 5.3925 176.7557 0.0000 0.0000 0.0000
# 4 0.0000 0.0000 0.0000 36.4841 0.0000 0.0000
# 5 0.0000 0.0000 0.0000 0.0000 3.5979 0.0000
# 6 0.0000 0.0000 0.0000 0.0000 0.0000 0.6488
#
#
#
# Elastic Compliance Matrix: (Units=1/GPa)
#
#
# Indices 1 2 3 4 5 6 
#
# 1 0.018191 0.007671 -0.000743 0.000000 0.000000 0.000000
# 2 0.007671 0.031557 -0.001178 0.000000 0.000000 0.000000
# 3 -0.000743 -0.001178 0.005714 0.000000 0.000000 0.000000
# 4 0.000000 0.000000 0.000000 0.027409 0.000000 0.000000
# 5 0.000000 0.000000 0.000000 0.000000 0.277939 0.000000
# 6 0.000000 0.000000 0.000000 0.000000 0.000000 1.541253
#
#
# Mechanical properties :
#
#
# Convention : Reuss Voigt Hill
#
# Bulk Modulus (GPa) = 14.93378 29.42512 22.17945
# Shear Modulus (GPa) = 2.61385 26.68042 14.64714
#
# Velocity S-wave (km/s) = 0.98897 3.15966 2.34110
# Velocity P-wave (km/s) = 2.62528 4.93171 3.95056
#
# Compressibility (1/GPa) = 0.06696227
#
# Stress axis : x y z
#
# Youngs Moduli (GPa) = 54.97264 31.68854 175.00049
#
# Poissons Ratio (x) = -0.24308 0.13010
# Poissons Ratio (y) = -0.42169 0.20607
# Poissons Ratio (z) = 0.04087 0.03732
#
# Static dielectric constant tensor:
#      x y z
#    x 2.563760 0.000000 0.000000 
#    y 0.000000 2.222030 0.000000 
#    z 0.000000 0.000000 2.142590 
# 
# From -- ./inp_files/12876.got.cif
#   From: 2010.05.17/outbox.cif.g08.bks.cpg/sg40_7_cif.got.tgz:12876.got - 2010.06.03 18:35:42.
