data_PCOD9363801
_publ_section_title
;
Structure prediction by ZEFSAII (Michael W. Deem and Ramdas Pophale) SiO2 
 PCOD9363801
Probable space group: A M A 2
;
_chemical_formula_sum "Si O2"
_cell_formula_units_Z 64
_cell_length_a 32.454179
_cell_length_b 17.195737
_cell_length_c 5.892337
_cell_angle_alpha 90.000000
_cell_angle_beta 90.000000
_cell_angle_gamma 90.000000
_cell_volume 3288.357290
_symmetry_space_group_name_H-M "A M A 2"
_symmetry_group_IT_number 40
_symmetry_cell_setting 'orthorhombic'
loop_
_space_group_symop_operation_xyz
x,y,z
-x,-y,z
1/2-x,y,z
1/2+x,-y,z
x,1/2+y,1/2+z
-x,1/2-y,1/2+z
1/2-x,1/2+y,1/2+z
1/2+x,1/2-y,1/2+z
loop_
_atom_site_type_symbol
_atom_site_label
_atom_site_fract_x
_atom_site_fract_y
_atom_site_fract_z
Si Si1 0.358253 0.464737 0.731270
Si Si2 0.498818 0.794104 0.579481
Si Si3 0.796883 0.141666 0.958970
Si Si4 0.845485 0.396149 0.401448
Si Si5 0.088738 0.687733 0.093130
Si Si6 0.204914 0.000209 0.609039
Si Si7 0.852934 0.256197 0.715354
Si Si8 0.587868 0.160471 0.412016
O O1 0.327525 0.398129 0.636720
O O2 0.362976 0.532212 0.548063
O O3 0.399572 0.421483 0.805555
O O4 0.332812 0.500476 0.937767
O O5 0.503020 0.744475 0.336793
O O6 0.541844 0.840566 0.580058
O O7 0.455653 0.837647 0.540600
O O8 0.750000 0.151609 0.040758
O O9 0.818343 0.220332 0.876354
O O10 0.795550 0.079944 0.751079
O O11 0.881087 0.367240 0.233303
O O12 0.805234 0.430007 0.279881
O O13 0.835012 0.321370 0.551545
O O14 0.086688 0.771514 0.221648
O O15 0.110292 0.703073 0.854116
O O16 0.250000 0.008293 0.500870
O O17 0.875185 0.186854 0.578600
#
# Coordination Sequence:
#
# PCOD9363801 Si02
#       8
#     8   8   8   8   8   8   8   8
#     4  11  20  39  61  89 121 161 210 252 314 379
#     4  10  20  36  63 103 130 163 212 273 319 388
#     4  10  21  35  59  92 119 153 204 263 313 365
#     4  10  24  37  60  87 122 167 200 251 321 382
#     4  10  20  38  60  93 126 158 206 255 322 374
#     4  10  21  39  59  83 119 163 209 254 308 380
#     4  11  19  38  60  88 121 154 201 261 312 372
#     4  10  20  34  64  96 117 161 209 259 312 377
#
# _framework density 19.462606000000001
#
# number of rings (size 3 to 8) (size 9 to 14) (size 15 to 20)
#    0.000    1.750    3.750    1.125    0.000    1.000 
#    0.000    1.875    0.000    4.500    0.000    0.000 
#    0.000    0.000    0.000    0.000    0.000    0.000 
#
# Total GULP energy -178429.050320 kJ/mol
# GULP energy per Si atom -5575.907822 kJ/mol
# Density = 1.941831 g / cm^3
# Si number density = 19.462606 Si / 1000 Ang^3
#
#
#
# Elastic Constant Matrix: (Units=GPa)
#
#
# Indices 1 2 3 4 5 6 
#
# 1 53.2858 21.7221 -9.4366 0.0000 0.0000 0.0000
# 2 21.7221 51.4227 2.3464 0.0000 0.0000 0.0000
# 3 -9.4366 2.3464 43.7627 0.0000 0.0000 0.0000
# 4 0.0000 0.0000 0.0000 14.9849 0.0000 0.0000
# 5 0.0000 0.0000 0.0000 0.0000 -6.9532 0.0000
# 6 0.0000 0.0000 0.0000 0.0000 0.0000 -26.4890
#
#
#
# Elastic Compliance Matrix: (Units=1/GPa)
#
#
# Indices 1 2 3 4 5 6 
#
# 1 0.024027 -0.010412 0.005739 0.000000 0.000000 0.000000
# 2 -0.010412 0.024006 -0.003532 0.000000 0.000000 0.000000
# 3 0.005739 -0.003532 0.024277 0.000000 0.000000 0.000000
# 4 0.000000 0.000000 0.000000 0.066734 0.000000 0.000000
# 5 0.000000 0.000000 0.000000 0.000000 -0.143819 0.000000
# 6 0.000000 0.000000 0.000000 0.000000 0.000000 -0.037752
#
#
# Mechanical properties :
#
#
# Convention : Reuss Voigt Hill
#
# Bulk Modulus (GPa) = 17.88850 19.74834 18.81842
# Shear Modulus (GPa) = -668.19449 5.23117 -331.48166
#
# Velocity S-wave (km/s) = -18.54906 1.64123 -13.06472
# Velocity P-wave (km/s) = 21.20249 3.70950 14.76119
#
# Compressibility (1/GPa) = 0.05590184
#
# Stress axis : x y z
#
# Youngs Moduli (GPa) = 41.61913 41.65641 41.19046
#
# Poissons Ratio (x) = 0.43371 -0.23640
# Poissons Ratio (y) = 0.43332 0.14549
# Poissons Ratio (z) = -0.23886 0.14714
#
# Static dielectric constant tensor:
#      x y z
#    x 1.663710 0.000000 0.000000 
#    y 0.000000 1.654920 0.000000 
#    z 0.000000 0.000000 1.742660 
# 
# From -- ./inp_files/3492.got.cif
#   From: 2010.05.17/outbox.cif.g08.bks.cpg/sg40_2_cif.got.tgz:3492.got - 2010.06.03 18:35:42.
