data_PCOD9363132
_publ_section_title
;
Structure prediction by ZEFSAII (Michael W. Deem and Ramdas Pophale) SiO2 
 PCOD9363132
Probable space group: A M A 2
;
_chemical_formula_sum "Si O2"
_cell_formula_units_Z 48
_cell_length_a 23.976645
_cell_length_b 10.579331
_cell_length_c 8.772291
_cell_angle_alpha 90.000000
_cell_angle_beta 90.000000
_cell_angle_gamma 90.000000
_cell_volume 2225.151823
_symmetry_space_group_name_H-M "A M A 2"
_symmetry_group_IT_number 40
_symmetry_cell_setting 'orthorhombic'
loop_
_space_group_symop_operation_xyz
x,y,z
-x,-y,z
1/2-x,y,z
1/2+x,-y,z
x,1/2+y,1/2+z
-x,1/2-y,1/2+z
1/2-x,1/2+y,1/2+z
1/2+x,1/2-y,1/2+z
loop_
_atom_site_type_symbol
_atom_site_label
_atom_site_fract_x
_atom_site_fract_y
_atom_site_fract_z
Si Si1 0.812214 0.822117 0.493530
Si Si2 0.387346 0.912051 0.012377
Si Si3 0.868459 0.342624 0.309384
Si Si4 0.035283 0.394773 0.008890
Si Si5 0.348995 0.428164 0.859595
Si Si6 0.480889 0.798346 0.192179
O O1 0.750000 0.766983 0.494928
O O2 0.856794 0.713607 0.446915
O O3 0.830939 0.865563 0.661923
O O4 0.812677 0.951484 0.398980
O O5 0.359799 0.933421 0.178719
O O6 0.451164 0.882353 0.061488
O O7 0.378513 0.033742 0.908625
O O8 0.838482 0.221299 0.389999
O O9 0.928726 0.289876 0.249510
O O10 0.094456 0.445133 0.957612
O O11 0.003370 0.364563 0.849860
O O12 0.000000 0.500000 0.093744
O O13 0.032054 0.273268 0.115432
#
# Coordination Sequence:
#
# PCOD9363132 Si02
#       6
#     8   8   8   8   8   8
#     4  10  21  38  59  83 109 138 179 231 283 333
#     4   9  20  39  57  78 110 146 184 227 272 323
#     4   9  20  39  57  80 113 146 182 226 274 324
#     4  10  19  33  51  78 112 145 184 221 263 316
#     4   9  21  37  55  82 113 146 182 227 273 321
#     4   9  21  34  52  81 110 147 186 224 264 313
#
# _framework density 21.571562
#
# number of rings (size 3 to 8) (size 9 to 14) (size 15 to 20)
#    0.000    3.333    0.000    2.000    0.000   12.667 
#    0.000    0.000    0.000    0.000    0.000    0.000 
#    0.000    0.000    0.000    0.000    0.000    0.000 
#
# Total GULP energy -133691.265412 kJ/mol
# GULP energy per Si atom -5570.469392 kJ/mol
# Density = 2.152246 g / cm^3
# Si number density = 21.571562 Si / 1000 Ang^3
#
#
#
# Elastic Constant Matrix: (Units=GPa)
#
#
# Indices 1 2 3 4 5 6 
#
# 1 30.7447 19.1999 7.8694 0.0000 0.0000 0.0000
# 2 19.1999 124.6590 35.3955 0.0000 0.0000 0.0000
# 3 7.8694 35.3955 18.9380 0.0000 0.0000 0.0000
# 4 0.0000 0.0000 0.0000 43.3429 0.0000 0.0000
# 5 0.0000 0.0000 0.0000 0.0000 7.6136 0.0000
# 6 0.0000 0.0000 0.0000 0.0000 0.0000 16.1326
#
#
#
# Elastic Compliance Matrix: (Units=1/GPa)
#
#
# Indices 1 2 3 4 5 6 
#
# 1 0.036860 -0.002830 -0.010027 0.000000 0.000000 0.000000
# 2 -0.002830 0.017310 -0.031177 0.000000 0.000000 0.000000
# 3 -0.010027 -0.031177 0.115241 0.000000 0.000000 0.000000
# 4 0.000000 0.000000 0.000000 0.023072 0.000000 0.000000
# 5 0.000000 0.000000 0.000000 0.000000 0.131343 0.000000
# 6 0.000000 0.000000 0.000000 0.000000 0.000000 0.061986
#
#
# Mechanical properties :
#
#
# Convention : Reuss Voigt Hill
#
# Bulk Modulus (GPa) = 12.29366 33.25235 22.77300
# Shear Modulus (GPa) = 9.98014 20.87629 15.42822
#
# Velocity S-wave (km/s) = 2.15327 3.11427 2.67724
# Velocity P-wave (km/s) = 3.44869 5.32728 4.48740
#
# Compressibility (1/GPa) = 0.08134276
#
# Stress axis : x y z
#
# Youngs Moduli (GPa) = 27.12982 57.76965 8.67745
#
# Poissons Ratio (x) = 0.16349 0.08701
# Poissons Ratio (y) = 0.07678 0.27054
# Poissons Ratio (z) = 0.27203 1.80109
#
# Static dielectric constant tensor:
#      x y z
#    x 1.818910 0.000000 0.000000 
#    y 0.000000 1.888750 0.000000 
#    z 0.000000 0.000000 1.781900 
# 
# From -- ./inp_files/9071.got.cif
#   From: 2010.05.17/outbox.cif.g08.bks.cpg/sg40_5_cif.got.tgz:9071.got - 2010.06.03 18:35:42.
