data_PCOD9363136
_publ_section_title
;
Structure prediction by ZEFSAII (Michael W. Deem and Ramdas Pophale) SiO2 
 PCOD9363136
Probable space group: A M A 2
;
_chemical_formula_sum "Si O2"
_cell_formula_units_Z 64
_cell_length_a 8.874541
_cell_length_b 23.783377
_cell_length_c 19.429528
_cell_angle_alpha 90.000000
_cell_angle_beta 90.000000
_cell_angle_gamma 90.000000
_cell_volume 4100.923527
_symmetry_space_group_name_H-M "A M A 2"
_symmetry_group_IT_number 40
_symmetry_cell_setting 'orthorhombic'
loop_
_space_group_symop_operation_xyz
x,y,z
-x,-y,z
1/2-x,y,z
1/2+x,-y,z
x,1/2+y,1/2+z
-x,1/2-y,1/2+z
1/2-x,1/2+y,1/2+z
1/2+x,1/2-y,1/2+z
loop_
_atom_site_type_symbol
_atom_site_label
_atom_site_fract_x
_atom_site_fract_y
_atom_site_fract_z
Si Si1 0.430033 0.723773 0.884870
Si Si2 0.569319 0.060907 0.880830
Si Si3 0.930274 0.660135 0.009121
Si Si4 0.929425 0.772004 0.097356
Si Si5 0.569627 0.665213 0.473837
Si Si6 0.930816 0.438368 0.096524
Si Si7 0.069076 0.115056 0.744741
Si Si8 0.930392 0.752561 0.741792
O O1 0.250000 0.717633 0.882689
O O2 0.464814 0.784416 0.920006
O O3 0.498659 0.724283 0.809029
O O4 0.501932 0.677985 0.935736
O O5 0.750000 0.057525 0.878955
O O6 0.525922 0.106657 0.938718
O O7 0.511006 0.084348 0.807842
O O8 0.500000 0.000000 0.893734
O O9 0.750000 0.655222 0.004988
O O10 0.966227 0.712193 0.060679
O O11 0.002724 0.604499 0.040652
O O12 0.750000 0.775409 0.104821
O O13 0.007860 0.773058 0.171124
O O14 0.988203 0.819032 0.044541
O O15 0.750000 0.665675 0.484676
O O16 0.750000 0.440261 0.091244
O O17 0.969642 0.413694 0.172127
O O18 0.000000 0.500000 0.089153
O O19 0.250000 0.111105 0.753884
O O20 0.028172 0.180993 0.742867
O O21 0.750000 0.748754 0.743934
#
# Coordination Sequence:
#
# PCOD9363136 Si02
#       8
#     8   8   8   8   8   8   8   8
#     4  10  19  33  52  74 101 132 168 210 255 305
#     4  11  22  35  51  72 100 137 176 214 253 297
#     4  10  20  34  51  74 100 132 170 212 257 304
#     4  10  20  32  51  75 100 130 167 209 255 304
#     4   9  19  34  50  70  98 132 168 209 255 298
#     4  11  22  36  51  72 100 138 178 216 256 299
#     4  10  21  34  49  71 101 138 177 212 247 293
#     4  11  20  32  51  76 105 136 169 207 253 305
#
# _framework density 15.60624
#
# number of rings (size 3 to 8) (size 9 to 14) (size 15 to 20)
#    0.000    1.750    2.500    2.625    0.000    5.000 
#    0.000    0.000    0.000    0.000    0.000    0.875 
#    0.000    2.000    0.000    0.000    0.000    0.000 
#
# Total GULP energy -178703.012211 kJ/mol
# GULP energy per Si atom -5584.469132 kJ/mol
# Density = 1.557072 g / cm^3
# Si number density = 15.606240 Si / 1000 Ang^3
#
#
#
# Elastic Constant Matrix: (Units=GPa)
#
#
# Indices 1 2 3 4 5 6 
#
# 1 50.4325 46.0402 63.6990 0.0000 0.0000 0.0000
# 2 46.0402 107.4466 78.0881 0.0000 0.0000 0.0000
# 3 63.6990 78.0881 150.7388 0.0000 0.0000 0.0000
# 4 0.0000 0.0000 0.0000 19.0681 0.0000 0.0000
# 5 0.0000 0.0000 0.0000 0.0000 30.0067 0.0000
# 6 0.0000 0.0000 0.0000 0.0000 0.0000 14.0713
#
#
#
# Elastic Compliance Matrix: (Units=1/GPa)
#
#
# Indices 1 2 3 4 5 6 
#
# 1 0.047674 -0.009281 -0.015338 0.000000 0.000000 0.000000
# 2 -0.009281 0.016733 -0.004747 0.000000 0.000000 0.000000
# 3 -0.015338 -0.004747 0.015575 0.000000 0.000000 0.000000
# 4 0.000000 0.000000 0.000000 0.052444 0.000000 0.000000
# 5 0.000000 0.000000 0.000000 0.000000 0.033326 0.000000
# 6 0.000000 0.000000 0.000000 0.000000 0.000000 0.071067
#
#
# Mechanical properties :
#
#
# Convention : Reuss Voigt Hill
#
# Bulk Modulus (GPa) = 47.05744 76.03028 61.54386
# Shear Modulus (GPa) = 16.52166 20.68191 18.60179
#
# Velocity S-wave (km/s) = 3.25723 3.64432 3.45620
# Velocity P-wave (km/s) = 6.66067 8.15670 7.44635
#
# Compressibility (1/GPa) = 0.02125063
#
# Stress axis : x y z
#
# Youngs Moduli (GPa) = 20.97579 59.76082 64.20731
#
# Poissons Ratio (x) = 0.55462 0.98483
# Poissons Ratio (y) = 0.19467 0.30477
# Poissons Ratio (z) = 0.32173 0.28366
#
# Static dielectric constant tensor:
#      x y z
#    x 1.512770 0.000000 0.000000 
#    y 0.000000 1.500220 0.000000 
#    z 0.000000 0.000000 1.498660 
# 
# From -- ./inp_files/15573.got.cif
#   From: 2010.05.17/outbox.cif.g08.bks.cpg/sg40_8_cif.got.tgz:15573.got - 2010.06.03 18:35:42.
