data_PCOD9363673
_publ_section_title
;
Structure prediction by ZEFSAII (Michael W. Deem and Ramdas Pophale) SiO2 
 PCOD9363673
Probable space group: A M A 2
;
_chemical_formula_sum "Si O2"
_cell_formula_units_Z 56
_cell_length_a 14.866162
_cell_length_b 12.692946
_cell_length_c 16.718648
_cell_angle_alpha 90.000000
_cell_angle_beta 90.000000
_cell_angle_gamma 90.000000
_cell_volume 3154.731830
_symmetry_space_group_name_H-M "A M A 2"
_symmetry_group_IT_number 40
_symmetry_cell_setting 'orthorhombic'
loop_
_space_group_symop_operation_xyz
x,y,z
-x,-y,z
1/2-x,y,z
1/2+x,-y,z
x,1/2+y,1/2+z
-x,1/2-y,1/2+z
1/2-x,1/2+y,1/2+z
1/2+x,1/2-y,1/2+z
loop_
_atom_site_type_symbol
_atom_site_label
_atom_site_fract_x
_atom_site_fract_y
_atom_site_fract_z
Si Si1 0.017392 0.236067 0.411900
Si Si2 0.993774 0.375545 0.079635
Si Si3 0.984125 0.877513 0.250802
Si Si4 0.646099 0.277785 0.626665
Si Si5 0.407122 0.434367 0.499359
Si Si6 0.654445 0.854731 0.942648
Si Si7 0.143760 0.792644 0.147597
O O1 0.004390 0.155391 0.485557
O O2 0.046661 0.179109 0.331931
O O3 0.077143 0.331384 0.445570
O O4 0.923784 0.296450 0.396687
O O5 0.906201 0.312945 0.113671
O O6 0.000000 0.500000 0.090496
O O7 0.081404 0.323622 0.121425
O O8 0.907984 0.857041 0.183797
O O9 0.078374 0.828934 0.219225
O O10 0.000000 0.000000 0.264272
O O11 0.750000 0.260653 0.650176
O O12 0.646740 0.321228 0.535993
O O13 0.500000 0.500000 0.516574
O O14 0.352785 0.519838 0.448936
O O15 0.367426 0.385927 0.580707
O O16 0.750000 0.821033 0.910543
O O17 0.250000 0.778456 0.163722
#
# Coordination Sequence:
#
# PCOD9363673 Si02
#       7
#     8   8   8   8   8   8   8
#     4   9  19  32  48  73 105 135 165 201 247 302
#     4   9  18  35  56  75  99 134 173 210 248 295
#     4  11  21  34  52  75 106 137 163 201 256 310
#     4   9  19  35  55  78 100 128 172 217 253 294
#     4   9  16  31  53  75  98 130 171 213 253 289
#     4   9  16  30  54  76  95 126 170 215 252 288
#     4  10  20  33  53  80 104 128 167 215 255 296
#
# _framework density 17.751113
#
# number of rings (size 3 to 8) (size 9 to 14) (size 15 to 20)
#    0.000    2.571    0.000    4.714    0.000    2.857 
#    0.000   12.143    0.000    5.143    0.000    0.000 
#    0.000    0.000    0.000    0.000    0.000    0.000 
#
# Total GULP energy -155926.272877 kJ/mol
# GULP energy per Si atom -5568.795460 kJ/mol
# Density = 1.771071 g / cm^3
# Si number density = 17.751113 Si / 1000 Ang^3
#
#
#
# Elastic Constant Matrix: (Units=GPa)
#
#
# Indices 1 2 3 4 5 6 
#
# 1 101.0099 16.9058 4.7397 0.0000 0.0000 0.0000
# 2 16.9058 113.5801 13.0821 0.0000 0.0000 0.0000
# 3 4.7397 13.0821 34.9658 0.0000 0.0000 0.0000
# 4 0.0000 0.0000 0.0000 13.9176 0.0000 0.0000
# 5 0.0000 0.0000 0.0000 0.0000 -7.7596 0.0000
# 6 0.0000 0.0000 0.0000 0.0000 0.0000 4.9391
#
#
#
# Elastic Compliance Matrix: (Units=1/GPa)
#
#
# Indices 1 2 3 4 5 6 
#
# 1 0.010177 -0.001417 -0.000849 0.000000 0.000000 0.000000
# 2 -0.001417 0.009398 -0.003324 0.000000 0.000000 0.000000
# 3 -0.000849 -0.003324 0.029958 0.000000 0.000000 0.000000
# 4 0.000000 0.000000 0.000000 0.071852 0.000000 0.000000
# 5 0.000000 0.000000 0.000000 0.000000 -0.128873 0.000000
# 6 0.000000 0.000000 0.000000 0.000000 0.000000 0.202465
#
#
# Mechanical properties :
#
#
# Convention : Reuss Voigt Hill
#
# Bulk Modulus (GPa) = 26.07398 35.44566 30.75982
# Shear Modulus (GPa) = 22.83707 16.54130 19.68919
#
# Velocity S-wave (km/s) = 3.59069 3.05593 3.33405
# Velocity P-wave (km/s) = 5.64901 5.69764 5.67338
#
# Compressibility (1/GPa) = 0.03835241
#
# Stress axis : x y z
#
# Youngs Moduli (GPa) = 98.26052 106.40408 33.37985
#
# Poissons Ratio (x) = 0.15077 0.02835
# Poissons Ratio (y) = 0.13923 0.11096
# Poissons Ratio (z) = 0.08346 0.35370
#
# Static dielectric constant tensor:
#      x y z
#    x 1.644700 0.000000 0.000000 
#    y 0.000000 1.602080 0.000000 
#    z 0.000000 0.000000 1.597390 
# 
# From -- ./inp_files/17087.got.cif
#   From: 2010.05.17/outbox.cif.g08.bks.cpg/sg40_9_cif.got.tgz:17087.got - 2010.06.03 18:35:42.
