data_PCOD9363513
_publ_section_title
;
Structure prediction by ZEFSAII (Michael W. Deem and Ramdas Pophale) SiO2 
 PCOD9363513
Probable space group: A M A 2
;
_chemical_formula_sum "Si O2"
_cell_formula_units_Z 64
_cell_length_a 17.619537
_cell_length_b 7.731193
_cell_length_c 22.343866
_cell_angle_alpha 90.000000
_cell_angle_beta 90.000000
_cell_angle_gamma 90.000000
_cell_volume 3043.682345
_symmetry_space_group_name_H-M "A M A 2"
_symmetry_group_IT_number 40
_symmetry_cell_setting 'orthorhombic'
loop_
_space_group_symop_operation_xyz
x,y,z
-x,-y,z
1/2-x,y,z
1/2+x,-y,z
x,1/2+y,1/2+z
-x,1/2-y,1/2+z
1/2-x,1/2+y,1/2+z
1/2+x,1/2-y,1/2+z
loop_
_atom_site_type_symbol
_atom_site_label
_atom_site_fract_x
_atom_site_fract_y
_atom_site_fract_z
Si Si1 0.602871 0.340191 0.336070
Si Si2 0.338530 0.239014 0.703328
Si Si3 0.913909 0.930289 0.229524
Si Si4 0.077915 0.103664 0.469312
Si Si5 0.924144 0.581240 0.162081
Si Si6 0.423749 0.259609 0.344932
Si Si7 0.474153 0.185571 0.052226
Si Si8 0.338476 0.259270 0.966590
O O1 0.635056 0.282187 0.272327
O O2 0.515377 0.277834 0.340744
O O3 0.605843 0.548270 0.332873
O O4 0.644813 0.275711 0.396197
O O5 0.250000 0.232536 0.700287
O O6 0.367616 0.431499 0.691100
O O7 0.370125 0.083557 0.662831
O O8 0.900354 0.741452 0.202214
O O9 0.897679 0.890329 0.299355
O O10 0.000000 0.000000 0.226168
O O11 0.099587 0.210938 0.411456
O O12 0.047760 0.229591 0.520807
O O13 0.141105 0.959680 0.481350
O O14 0.000000 0.000000 0.453523
O O15 0.946165 0.673036 0.100096
O O16 0.000000 0.500000 0.190294
O O17 0.500000 0.000000 0.077127
O O18 0.404674 0.161777 0.004850
O O19 0.250000 0.220609 0.980037
#
# Coordination Sequence:
#
# PCOD9363513 Si02
#       8
#     8   8   8   8   8   8   8   8
#     4  11  20  37  64  97 135 176 225 278 342 416
#     4  12  27  44  65 100 143 181 218 283 357 414
#     4  12  22  40  69 103 128 172 234 276 336 407
#     4  10  19  37  61  96 129 171 223 278 336 401
#     4  12  24  45  72 100 130 175 236 288 330 404
#     4  11  19  34  66  98 130 172 230 285 332 398
#     4  11  24  44  72 101 129 175 240 292 334 405
#     4  11  23  40  63  96 137 178 219 277 351 417
#
# _framework density 21.027161
#
# number of rings (size 3 to 8) (size 9 to 14) (size 15 to 20)
#    0.000    0.750    6.250    3.750    0.000    1.000 
#    0.000    3.125    0.000    0.000    0.000    0.000 
#    0.000    0.000    0.000    0.000    0.000    0.000 
#
# Total GULP energy -178702.503297 kJ/mol
# GULP energy per Si atom -5584.453228 kJ/mol
# Density = 2.097930 g / cm^3
# Si number density = 21.027161 Si / 1000 Ang^3
#
#
#
# Elastic Constant Matrix: (Units=GPa)
#
#
# Indices 1 2 3 4 5 6 
#
# 1 69.4644 22.3625 4.5284 0.0000 0.0000 0.0000
# 2 22.3625 137.5811 35.4272 0.0000 0.0000 0.0000
# 3 4.5284 35.4272 82.4936 0.0000 0.0000 0.0000
# 4 0.0000 0.0000 0.0000 22.5852 0.0000 0.0000
# 5 0.0000 0.0000 0.0000 0.0000 6.4562 0.0000
# 6 0.0000 0.0000 0.0000 0.0000 0.0000 10.7444
#
#
#
# Elastic Compliance Matrix: (Units=1/GPa)
#
#
# Indices 1 2 3 4 5 6 
#
# 1 0.015195 -0.002535 0.000255 0.000000 0.000000 0.000000
# 2 -0.002535 0.008595 -0.003552 0.000000 0.000000 0.000000
# 3 0.000255 -0.003552 0.013634 0.000000 0.000000 0.000000
# 4 0.000000 0.000000 0.000000 0.044277 0.000000 0.000000
# 5 0.000000 0.000000 0.000000 0.000000 0.154890 0.000000
# 6 0.000000 0.000000 0.000000 0.000000 0.000000 0.093072
#
#
# Mechanical properties :
#
#
# Convention : Reuss Voigt Hill
#
# Bulk Modulus (GPa) = 38.82182 46.01947 42.42065
# Shear Modulus (GPa) = 14.28917 23.10522 18.69719
#
# Velocity S-wave (km/s) = 2.60966 3.31845 2.98517
# Velocity P-wave (km/s) = 5.25197 6.05112 5.66566
#
# Compressibility (1/GPa) = 0.02575871
#
# Stress axis : x y z
#
# Youngs Moduli (GPa) = 65.80897 116.34373 73.34807
#
# Poissons Ratio (x) = 0.29499 -0.01868
# Poissons Ratio (y) = 0.16686 0.26054
# Poissons Ratio (z) = -0.01676 0.41326
#
# Static dielectric constant tensor:
#      x y z
#    x 1.730320 0.000000 0.000000 
#    y 0.000000 2.008260 0.000000 
#    z 0.000000 0.000000 1.815180 
# 
# From -- ./inp_files/24941.got.cif
#   From: 2010.05.17/outbox.cif.g08.bks.cpg/sg40_13_cif.got.tgz:24941.got - 2010.06.03 18:35:42.
