data_PCOD9363420
_publ_section_title
;
Structure prediction by ZEFSAII (Michael W. Deem and Ramdas Pophale) SiO2 
 PCOD9363420
Probable space group: A M A 2
;
_chemical_formula_sum "Si O2"
_cell_formula_units_Z 64
_cell_length_a 16.386444
_cell_length_b 12.061254
_cell_length_c 16.633080
_cell_angle_alpha 90.000000
_cell_angle_beta 90.000000
_cell_angle_gamma 90.000000
_cell_volume 3287.379616
_symmetry_space_group_name_H-M "A M A 2"
_symmetry_group_IT_number 40
_symmetry_cell_setting 'orthorhombic'
loop_
_space_group_symop_operation_xyz
x,y,z
-x,-y,z
1/2-x,y,z
1/2+x,-y,z
x,1/2+y,1/2+z
-x,1/2-y,1/2+z
1/2-x,1/2+y,1/2+z
1/2+x,1/2-y,1/2+z
loop_
_atom_site_type_symbol
_atom_site_label
_atom_site_fract_x
_atom_site_fract_y
_atom_site_fract_z
Si Si1 0.651911 0.635712 0.405080
Si Si2 0.917878 0.426623 0.134300
Si Si3 0.405467 0.978620 0.061390
Si Si4 0.655189 0.386934 0.962379
Si Si5 0.348321 0.801295 0.194063
Si Si6 0.095859 0.988063 0.310634
Si Si7 0.846400 0.348766 0.670170
Si Si8 0.345058 0.382500 0.225852
O O1 0.750000 0.617008 0.410790
O O2 0.609183 0.560821 0.471572
O O3 0.638070 0.765209 0.425463
O O4 0.620448 0.609832 0.315664
O O5 0.902081 0.308633 0.177883
O O6 0.852701 0.508574 0.174077
O O7 0.000000 0.500000 0.145772
O O8 0.899989 0.408052 0.040219
O O9 0.367425 0.884183 0.119377
O O10 0.500000 0.000000 0.079458
O O11 0.363752 0.093723 0.085690
O O12 0.750000 0.387676 0.987903
O O13 0.641335 0.475752 0.891734
O O14 0.250000 0.779888 0.196128
O O15 0.376413 0.870557 0.272828
O O16 0.115693 0.076743 0.240534
O O17 0.000000 0.000000 0.326298
O O18 0.750000 0.353228 0.682935
O O19 0.878585 0.224428 0.678989
O O20 0.250000 0.359037 0.239255
#
# Coordination Sequence:
#
# PCOD9363420 Si02
#       8
#     8   8   8   8   8   8   8   8
#     4  10  20  38  64  89 119 165 215 252 301 384
#     4  12  27  40  63  92 131 168 211 266 328 384
#     4  11  22  35  62  93 128 155 207 266 318 366
#     4  11  21  41  66  92 124 169 219 258 309 388
#     4  11  22  41  66  93 126 174 221 260 320 397
#     4  11  22  36  64  98 133 156 209 273 321 368
#     4  10  19  35  61  90 121 160 206 255 309 373
#     4  10  22  40  62  88 122 164 212 255 311 386
#
# _framework density 19.468392999999999
#
# number of rings (size 3 to 8) (size 9 to 14) (size 15 to 20)
#    0.000    1.250    2.500    6.000    3.500    0.500 
#    0.000    1.250    0.000    3.000    0.000    0.000 
#    0.000    0.000    0.000    0.000    0.000    0.000 
#
# Total GULP energy -178592.814257 kJ/mol
# GULP energy per Si atom -5581.025446 kJ/mol
# Density = 1.942408 g / cm^3
# Si number density = 19.468393 Si / 1000 Ang^3
#
#
#
# Elastic Constant Matrix: (Units=GPa)
#
#
# Indices 1 2 3 4 5 6 
#
# 1 57.0159 -8.9920 -15.8800 0.0000 0.0000 0.0000
# 2 -8.9920 84.6574 35.2382 0.0000 0.0000 0.0000
# 3 -15.8800 35.2382 49.1054 0.0000 0.0000 0.0000
# 4 0.0000 0.0000 0.0000 36.9497 0.0000 0.0000
# 5 0.0000 0.0000 0.0000 0.0000 39.2641 0.0000
# 6 0.0000 0.0000 0.0000 0.0000 0.0000 22.9912
#
#
#
# Elastic Compliance Matrix: (Units=1/GPa)
#
#
# Indices 1 2 3 4 5 6 
#
# 1 0.019311 -0.000782 0.006806 0.000000 0.000000 0.000000
# 2 -0.000782 0.016875 -0.012362 0.000000 0.000000 0.000000
# 3 0.006806 -0.012362 0.031437 0.000000 0.000000 0.000000
# 4 0.000000 0.000000 0.000000 0.027064 0.000000 0.000000
# 5 0.000000 0.000000 0.000000 0.000000 0.025469 0.000000
# 6 0.000000 0.000000 0.000000 0.000000 0.000000 0.043495
#
#
# Mechanical properties :
#
#
# Convention : Reuss Voigt Hill
#
# Bulk Modulus (GPa) = 18.19951 23.50126 20.85039
# Shear Modulus (GPa) = 25.68813 31.86849 28.77831
#
# Velocity S-wave (km/s) = 3.63640 4.05029 3.84892
# Velocity P-wave (km/s) = 5.19613 5.82845 5.52135
#
# Compressibility (1/GPa) = 0.05494653
#
# Stress axis : x y z
#
# Youngs Moduli (GPa) = 51.78323 59.25893 31.80997
#
# Poissons Ratio (x) = 0.04633 -0.21650
# Poissons Ratio (y) = 0.04048 0.39325
# Poissons Ratio (z) = -0.35244 0.73259
#
# Static dielectric constant tensor:
#      x y z
#    x 1.587050 0.000000 0.000000 
#    y 0.000000 1.690460 0.000000 
#    z 0.000000 0.000000 1.665200 
# 
# From -- ./inp_files/20770.got.cif
#   From: 2010.05.17/outbox.cif.g08.bks.cpg/sg40_11_cif.got.tgz:20770.got - 2010.06.03 18:35:42.
