data_PCOD9363987
_publ_section_title
;
Structure prediction by ZEFSAII (Michael W. Deem and Ramdas Pophale) SiO2 
 PCOD9363987
Probable space group: A M A 2
;
_chemical_formula_sum "Si O2"
_cell_formula_units_Z 60
_cell_length_a 9.781011
_cell_length_b 12.488215
_cell_length_c 22.880882
_cell_angle_alpha 90.000000
_cell_angle_beta 90.000000
_cell_angle_gamma 90.000000
_cell_volume 2794.839520
_symmetry_space_group_name_H-M "A M A 2"
_symmetry_group_IT_number 40
_symmetry_cell_setting 'orthorhombic'
loop_
_space_group_symop_operation_xyz
x,y,z
-x,-y,z
1/2-x,y,z
1/2+x,-y,z
x,1/2+y,1/2+z
-x,1/2-y,1/2+z
1/2-x,1/2+y,1/2+z
1/2+x,1/2-y,1/2+z
loop_
_atom_site_type_symbol
_atom_site_label
_atom_site_fract_x
_atom_site_fract_y
_atom_site_fract_z
Si Si1 0.101609 0.777285 0.528720
Si Si2 0.906439 0.603150 0.562502
Si Si3 0.913738 0.202817 0.756255
Si Si4 0.999159 0.154644 0.884760
Si Si5 0.089329 0.393046 0.702669
Si Si6 0.750000 0.507316 0.413078
Si Si7 0.909698 0.103882 0.415007
Si Si8 0.397398 0.916030 0.638105
O O1 0.250000 0.724750 0.515703
O O2 0.089945 0.876869 0.485201
O O3 0.106883 0.816225 0.595153
O O4 0.975927 0.697792 0.526520
O O5 0.750000 0.580178 0.546507
O O6 0.911004 0.628820 0.632363
O O7 0.000000 0.500000 0.553526
O O8 0.750000 0.229815 0.758899
O O9 0.931955 0.121686 0.702566
O O10 0.961196 0.149288 0.815990
O O11 0.009845 0.302486 0.738950
O O12 0.029667 0.281457 0.894483
O O13 0.869951 0.100790 0.915821
O O14 0.130413 0.084996 0.901689
O O15 0.250000 0.403728 0.719262
O O16 0.000000 0.500000 0.710796
O O17 0.750000 0.092402 0.396788
O O18 0.000000 0.000000 0.399131
O O19 0.250000 0.968668 0.639753
O O20 0.500000 0.000000 0.613107
#
# Coordination Sequence:
#
# PCOD9363987 Si02
#       8
#     8   8   8   8   8   4   8   8
#     4  10  21  42  63  92 130 172 217 271 329 393
#     4  10  20  36  58  89 125 170 219 271 331 394
#     4  11  23  38  62  94 131 170 218 267 331 400
#     4  11  24  46  69 102 133 180 226 288 351 408
#     4  10  21  36  58  86 125 173 220 274 328 388
#     4  10  24  46  74  94 138 172 226 286 354 414
#     4  11  26  47  73 101 137 179 233 288 347 412
#     4  10  22  36  58  88 124 164 204 250 311 383
#
# _framework density 21.468136999999999
#
# number of rings (size 3 to 8) (size 9 to 14) (size 15 to 20)
#    0.000    1.600    2.667    1.200    3.733    3.200 
#    2.400    0.000    0.000    0.000    0.000    0.000 
#    0.000    0.000    0.000    0.000    0.000    0.000 
#
# Total GULP energy -167018.949605 kJ/mol
# GULP energy per Si atom -5567.298320 kJ/mol
# Density = 2.141927 g / cm^3
# Si number density = 21.468137 Si / 1000 Ang^3
#
#
#
# Elastic Constant Matrix: (Units=GPa)
#
#
# Indices 1 2 3 4 5 6 
#
# 1 195.3430 84.5645 19.5017 0.0000 0.0000 0.0000
# 2 84.5645 106.5803 9.7968 0.0000 0.0000 0.0000
# 3 19.5017 9.7968 63.8990 0.0000 0.0000 0.0000
# 4 0.0000 0.0000 0.0000 19.4862 0.0000 0.0000
# 5 0.0000 0.0000 0.0000 0.0000 13.1644 0.0000
# 6 0.0000 0.0000 0.0000 0.0000 0.0000 58.9359
#
#
#
# Elastic Compliance Matrix: (Units=1/GPa)
#
#
# Indices 1 2 3 4 5 6 
#
# 1 0.007933 -0.006158 -0.001477 0.000000 0.000000 0.000000
# 2 -0.006158 0.014297 -0.000313 0.000000 0.000000 0.000000
# 3 -0.001477 -0.000313 0.016148 0.000000 0.000000 0.000000
# 4 0.000000 0.000000 0.000000 0.051318 0.000000 0.000000
# 5 0.000000 0.000000 0.000000 0.000000 0.075962 0.000000
# 6 0.000000 0.000000 0.000000 0.000000 0.000000 0.016968
#
#
# Mechanical properties :
#
#
# Convention : Reuss Voigt Hill
#
# Bulk Modulus (GPa) = 44.47778 65.94980 55.21379
# Shear Modulus (GPa) = 24.26994 35.11459 29.69227
#
# Velocity S-wave (km/s) = 3.36595 4.04872 3.72302
# Velocity P-wave (km/s) = 5.98909 7.25553 6.65251
#
# Compressibility (1/GPa) = 0.02248313
#
# Stress axis : x y z
#
# Youngs Moduli (GPa) = 126.06312 69.94251 61.92582
#
# Poissons Ratio (x) = 0.43072 0.09145
# Poissons Ratio (y) = 0.77632 0.01936
# Poissons Ratio (z) = 0.18617 0.02186
#
# Static dielectric constant tensor:
#      x y z
#    x 1.755000 0.000000 0.000000 
#    y 0.000000 1.761680 0.000000 
#    z 0.000000 0.000000 1.853480 
# 
# From -- ./inp_files/25399.got.cif
#   From: 2010.05.17/outbox.cif.g08.bks.cpg/sg40_13_cif.got.tgz:25399.got - 2010.06.03 18:35:42.
