data_PCOD9363248
_publ_section_title
;
Structure prediction by ZEFSAII (Michael W. Deem and Ramdas Pophale) SiO2 
 PCOD9363248
Probable space group: A M A 2
;
_chemical_formula_sum "Si O2"
_cell_formula_units_Z 40
_cell_length_a 14.923347
_cell_length_b 16.424219
_cell_length_c 9.537101
_cell_angle_alpha 90.000000
_cell_angle_beta 90.000000
_cell_angle_gamma 90.000000
_cell_volume 2337.584649
_symmetry_space_group_name_H-M "A M A 2"
_symmetry_group_IT_number 40
_symmetry_cell_setting 'orthorhombic'
loop_
_space_group_symop_operation_xyz
x,y,z
-x,-y,z
1/2-x,y,z
1/2+x,-y,z
x,1/2+y,1/2+z
-x,1/2-y,1/2+z
1/2-x,1/2+y,1/2+z
1/2+x,1/2-y,1/2+z
loop_
_atom_site_type_symbol
_atom_site_label
_atom_site_fract_x
_atom_site_fract_y
_atom_site_fract_z
Si Si1 0.849639 0.525358 0.405760
Si Si2 0.569518 0.929074 0.164680
Si Si3 0.649840 0.364779 0.234672
Si Si4 0.853645 0.323249 0.912476
Si Si5 0.514376 0.170269 0.922267
O O1 0.750000 0.561362 0.412662
O O2 0.869277 0.475154 0.548938
O O3 0.853414 0.457921 0.285231
O O4 0.925383 0.592054 0.382389
O O5 0.619599 0.888642 0.294445
O O6 0.500000 0.000000 0.209057
O O7 0.521430 0.856328 0.076334
O O8 0.750000 0.333336 0.271270
O O9 0.570838 0.321278 0.320209
O O10 0.639337 0.358954 0.068958
O O11 0.750000 0.297921 0.890277
O O12 0.922096 0.247854 0.912124
#
# Coordination Sequence:
#
# PCOD9363248 Si02
#       5
#     8   8   8   8   8
#     4   9  17  33  54  74  97 132 171 202 237 294
#     4   9  19  33  51  72 100 135 168 199 241 293
#     4   9  19  33  50  71 100 134 167 202 246 295
#     4  11  21  33  51  78 105 128 159 208 257 291
#     4  10  19  34  53  75  99 131 168 205 244 293
#
# _framework density 17.11168
#
# number of rings (size 3 to 8) (size 9 to 14) (size 15 to 20)
#    0.000    2.400    0.000    4.200    0.000    2.400 
#    0.000    0.000    0.000    1.200    0.000   11.200 
#    0.000    0.000    0.000    0.000    0.000    0.000 
#
# Total GULP energy -111453.260285 kJ/mol
# GULP energy per Si atom -5572.663014 kJ/mol
# Density = 1.707273 g / cm^3
# Si number density = 17.111680 Si / 1000 Ang^3
#
#
#
# Elastic Constant Matrix: (Units=GPa)
#
#
# Indices 1 2 3 4 5 6 
#
# 1 142.3179 46.8522 73.7248 0.0000 0.0000 0.0000
# 2 46.8522 58.1004 53.0118 0.0000 0.0000 0.0000
# 3 73.7248 53.0118 94.1043 0.0000 0.0000 0.0000
# 4 0.0000 0.0000 0.0000 13.0699 0.0000 0.0000
# 5 0.0000 0.0000 0.0000 0.0000 27.0402 0.0000
# 6 0.0000 0.0000 0.0000 0.0000 0.0000 20.9064
#
#
#
# Elastic Compliance Matrix: (Units=1/GPa)
#
#
# Indices 1 2 3 4 5 6 
#
# 1 0.011968 -0.002255 -0.008106 0.000000 0.000000 0.000000
# 2 -0.002255 0.035839 -0.018422 0.000000 0.000000 0.000000
# 3 -0.008106 -0.018422 0.027355 0.000000 0.000000 0.000000
# 4 0.000000 0.000000 0.000000 0.076512 0.000000 0.000000
# 5 0.000000 0.000000 0.000000 0.000000 0.036982 0.000000
# 6 0.000000 0.000000 0.000000 0.000000 0.000000 0.047832
#
#
# Mechanical properties :
#
#
# Convention : Reuss Voigt Hill
#
# Bulk Modulus (GPa) = 56.83398 71.30002 64.06700
# Shear Modulus (GPa) = 16.67113 20.26556 18.46835
#
# Velocity S-wave (km/s) = 3.12469 3.44512 3.28881
# Velocity P-wave (km/s) = 6.80470 7.58835 7.20718
#
# Compressibility (1/GPa) = 0.01759511
#
# Stress axis : x y z
#
# Youngs Moduli (GPa) = 83.55663 27.90244 36.55670
#
# Poissons Ratio (x) = 0.06292 0.29632
# Poissons Ratio (y) = 0.18843 0.67347
# Poissons Ratio (z) = 0.67729 0.51403
#
# Static dielectric constant tensor:
#      x y z
#    x 1.615530 0.000000 0.000000 
#    y 0.000000 1.551510 0.000000 
#    z 0.000000 0.000000 1.557390 
# 
# From -- ./inp_files/6125.got.cif
#   From: 2010.05.17/outbox.cif.g08.bks.cpg/sg40_4_cif.got.tgz:6125.got - 2010.06.03 18:35:42.
