data_PCOD9363496
_publ_section_title
;
Structure prediction by ZEFSAII (Michael W. Deem and Ramdas Pophale) SiO2 
 PCOD9363496
Probable space group: A M A 2
;
_chemical_formula_sum "Si O2"
_cell_formula_units_Z 40
_cell_length_a 13.836941
_cell_length_b 17.584917
_cell_length_c 7.448652
_cell_angle_alpha 90.000000
_cell_angle_beta 90.000000
_cell_angle_gamma 90.000000
_cell_volume 1812.416872
_symmetry_space_group_name_H-M "A M A 2"
_symmetry_group_IT_number 40
_symmetry_cell_setting 'orthorhombic'
loop_
_space_group_symop_operation_xyz
x,y,z
-x,-y,z
1/2-x,y,z
1/2+x,-y,z
x,1/2+y,1/2+z
-x,1/2-y,1/2+z
1/2-x,1/2+y,1/2+z
1/2+x,1/2-y,1/2+z
loop_
_atom_site_type_symbol
_atom_site_label
_atom_site_fract_x
_atom_site_fract_y
_atom_site_fract_z
Si Si1 0.359060 0.215222 0.574580
Si Si2 0.862589 0.319649 0.644870
Si Si3 0.559575 0.156686 0.620114
Si Si4 0.530553 0.578561 0.458725
Si Si5 0.861008 0.618339 0.762376
O O1 0.250000 0.193222 0.622494
O O2 0.371333 0.197983 0.360530
O O3 0.446437 0.168687 0.657526
O O4 0.373140 0.300924 0.653489
O O5 0.750000 0.338846 0.609358
O O6 0.889659 0.236212 0.570126
O O7 0.941605 0.376098 0.556159
O O8 0.577709 0.109738 0.442125
O O9 0.591866 0.123925 0.809142
O O10 0.500000 0.500000 0.369167
O O11 0.602658 0.557816 0.619802
O O12 0.750000 0.611651 0.810606
#
# Coordination Sequence:
#
# PCOD9363496 Si02
#       5
#     8   8   8   8   8
#     4  10  19  36  68 101 128 166 223 282 331 393
#     4  11  21  40  70 100 130 175 229 282 340 403
#     4  12  21  41  69 100 130 178 232 282 333 404
#     4  12  27  44  67  98 144 182 220 280 350 414
#     4  11  23  41  67  97 132 175 226 280 338 402
#
# _framework density 22.069977000000002
#
# number of rings (size 3 to 8) (size 9 to 14) (size 15 to 20)
#    0.000    0.800    6.000    1.800    0.000    4.800 
#    0.000    0.000    0.000    0.000    0.000    0.000 
#    0.000    0.000    0.000    0.000    0.000    0.000 
#
# Total GULP energy -111498.536207 kJ/mol
# GULP energy per Si atom -5574.926810 kJ/mol
# Density = 2.201974 g / cm^3
# Si number density = 22.069977 Si / 1000 Ang^3
#
#
#
# Elastic Constant Matrix: (Units=GPa)
#
#
# Indices 1 2 3 4 5 6 
#
# 1 83.8865 -3.0613 10.3762 0.0000 0.0000 0.0000
# 2 -3.0613 41.7761 5.6499 0.0000 0.0000 0.0000
# 3 10.3762 5.6499 104.3570 0.0000 0.0000 0.0000
# 4 0.0000 0.0000 0.0000 3.0360 0.0000 0.0000
# 5 0.0000 0.0000 0.0000 0.0000 23.5636 0.0000
# 6 0.0000 0.0000 0.0000 0.0000 0.0000 7.2368
#
#
#
# Elastic Compliance Matrix: (Units=1/GPa)
#
#
# Indices 1 2 3 4 5 6 
#
# 1 0.012116 0.001058 -0.001262 0.000000 0.000000 0.000000
# 2 0.001058 0.024206 -0.001416 0.000000 0.000000 0.000000
# 3 -0.001262 -0.001416 0.009785 0.000000 0.000000 0.000000
# 4 0.000000 0.000000 0.000000 0.329383 0.000000 0.000000
# 5 0.000000 0.000000 0.000000 0.000000 0.042438 0.000000
# 6 0.000000 0.000000 0.000000 0.000000 0.000000 0.138182
#
#
# Mechanical properties :
#
#
# Convention : Reuss Voigt Hill
#
# Bulk Modulus (GPa) = 23.32747 28.43879 25.88313
# Shear Modulus (GPa) = 8.71631 21.23759 14.97695
#
# Velocity S-wave (km/s) = 1.98946 3.10544 2.60784
# Velocity P-wave (km/s) = 3.98372 5.07661 4.56301
#
# Compressibility (1/GPa) = 0.04286792
#
# Stress axis : x y z
#
# Youngs Moduli (GPa) = 82.53826 41.31174 102.20124
#
# Poissons Ratio (x) = -0.04373 0.12897
# Poissons Ratio (y) = -0.08737 0.14469
# Poissons Ratio (z) = 0.10416 0.05849
#
# Static dielectric constant tensor:
#      x y z
#    x 1.804940 0.000000 0.000000 
#    y 0.000000 1.871690 0.000000 
#    z 0.000000 0.000000 1.856310 
# 
# From -- ./inp_files/6293.got.cif
#   From: 2010.05.17/outbox.cif.g08.bks.cpg/sg40_4_cif.got.tgz:6293.got - 2010.06.03 18:35:42.
