data_PCOD9363598
_publ_section_title
;
Structure prediction by ZEFSAII (Michael W. Deem and Ramdas Pophale) SiO2 
 PCOD9363598
Probable space group: A M A 2
;
_chemical_formula_sum "Si O2"
_cell_formula_units_Z 64
_cell_length_a 13.575539
_cell_length_b 10.703008
_cell_length_c 19.002119
_cell_angle_alpha 90.000000
_cell_angle_beta 90.000000
_cell_angle_gamma 90.000000
_cell_volume 2760.990837
_symmetry_space_group_name_H-M "A M A 2"
_symmetry_group_IT_number 40
_symmetry_cell_setting 'orthorhombic'
loop_
_space_group_symop_operation_xyz
x,y,z
-x,-y,z
1/2-x,y,z
1/2+x,-y,z
x,1/2+y,1/2+z
-x,1/2-y,1/2+z
1/2-x,1/2+y,1/2+z
1/2+x,1/2-y,1/2+z
loop_
_atom_site_type_symbol
_atom_site_label
_atom_site_fract_x
_atom_site_fract_y
_atom_site_fract_z
Si Si1 0.057560 0.673596 0.774530
Si Si2 0.630526 0.647630 0.493820
Si Si3 0.637373 0.071215 0.339765
Si Si4 0.363593 0.404214 0.100674
Si Si5 0.865632 0.904371 0.719774
Si Si6 0.869019 0.067583 0.842171
Si Si7 0.866845 0.929606 0.471118
Si Si8 0.013847 0.794968 0.127332
O O1 0.127865 0.566409 0.805536
O O2 0.094354 0.806559 0.802923
O O3 0.946940 0.651847 0.803837
O O4 0.049596 0.646484 0.690977
O O5 0.750000 0.645547 0.505027
O O6 0.606677 0.564702 0.425318
O O7 0.575948 0.629871 0.568950
O O8 0.599952 0.787509 0.467941
O O9 0.750000 0.117282 0.335758
O O10 0.603172 0.040165 0.418937
O O11 0.250000 0.366483 0.093320
O O12 0.378664 0.465750 0.176748
O O13 0.435829 0.291585 0.087051
O O14 0.382509 0.518200 0.048357
O O15 0.750000 0.874781 0.720426
O O16 0.898196 0.944142 0.797968
O O17 0.917735 0.798082 0.674106
O O18 0.750000 0.073609 0.838549
O O19 0.750000 0.921223 0.457700
#
# Coordination Sequence:
#
# PCOD9363598 Si02
#       8
#     8   8   8   8   8   8   8   8
#     4  11  23  34  57  86 112 150 197 242 300 350
#     4  10  20  34  56  86 118 153 195 243 297 359
#     4  10  22  40  58  81 115 150 192 249 300 354
#     4  10  20  31  48  82 122 154 185 231 302 362
#     4  10  20  35  55  82 122 158 187 237 300 359
#     4  10  20  36  57  85 121 161 198 233 292 374
#     4   9  17  31  53  81 110 142 179 227 295 353
#     4  12  23  34  57  89 121 155 200 251 300 356
#
# _framework density 23.180084000000001
#
# number of rings (size 3 to 8) (size 9 to 14) (size 15 to 20)
#    0.000    1.750    3.750    1.125    1.750    1.500 
#    0.000    0.000    0.000    3.000    0.000    0.000 
#    0.000    0.000    0.000    0.000    0.000    0.000 
#
# Total GULP energy -178694.335954 kJ/mol
# GULP energy per Si atom -5584.197999 kJ/mol
# Density = 2.312732 g / cm^3
# Si number density = 23.180084 Si / 1000 Ang^3
#
#
#
# Elastic Constant Matrix: (Units=GPa)
#
#
# Indices 1 2 3 4 5 6 
#
# 1 96.5083 12.3455 18.2506 0.0000 0.0000 0.0000
# 2 12.3455 28.9092 17.8600 0.0000 0.0000 0.0000
# 3 18.2506 17.8600 149.5187 0.0000 0.0000 0.0000
# 4 0.0000 0.0000 0.0000 87.0852 0.0000 0.0000
# 5 0.0000 0.0000 0.0000 0.0000 20.0659 0.0000
# 6 0.0000 0.0000 0.0000 0.0000 0.0000 24.0750
#
#
#
# Elastic Compliance Matrix: (Units=1/GPa)
#
#
# Indices 1 2 3 4 5 6 
#
# 1 0.011059 -0.004199 -0.000848 0.000000 0.000000 0.000000
# 2 -0.004199 0.038941 -0.004139 0.000000 0.000000 0.000000
# 3 -0.000848 -0.004139 0.007286 0.000000 0.000000 0.000000
# 4 0.000000 0.000000 0.000000 0.011483 0.000000 0.000000
# 5 0.000000 0.000000 0.000000 0.000000 0.049836 0.000000
# 6 0.000000 0.000000 0.000000 0.000000 0.000000 0.041537
#
#
# Mechanical properties :
#
#
# Convention : Reuss Voigt Hill
#
# Bulk Modulus (GPa) = 25.69745 41.31650 33.50697
# Shear Modulus (GPa) = 26.11160 41.34389 33.72774
#
# Velocity S-wave (km/s) = 3.35993 4.22784 3.81863
# Velocity P-wave (km/s) = 5.11490 6.45722 5.82486
#
# Compressibility (1/GPa) = 0.03891437
#
# Stress axis : x y z
#
# Youngs Moduli (GPa) = 90.42130 25.67981 137.24787
#
# Poissons Ratio (x) = 0.10782 0.11644
# Poissons Ratio (y) = 0.37965 0.56807
# Poissons Ratio (z) = 0.07671 0.10629
#
# Static dielectric constant tensor:
#      x y z
#    x 1.925560 0.000000 0.000000 
#    y 0.000000 1.770040 0.000000 
#    z 0.000000 0.000000 1.932170 
# 
# From -- ./inp_files/20781.got.cif
#   From: 2010.05.17/outbox.cif.g08.bks.cpg/sg40_11_cif.got.tgz:20781.got - 2010.06.03 18:35:42.
