data_PCOD9363728
_publ_section_title
;
Structure prediction by ZEFSAII (Michael W. Deem and Ramdas Pophale) SiO2 
 PCOD9363728
Probable space group: A M A 2
;
_chemical_formula_sum "Si O2"
_cell_formula_units_Z 64
_cell_length_a 7.607611
_cell_length_b 25.958961
_cell_length_c 15.448667
_cell_angle_alpha 90.000000
_cell_angle_beta 90.000000
_cell_angle_gamma 90.000000
_cell_volume 3050.890465
_symmetry_space_group_name_H-M "A M A 2"
_symmetry_group_IT_number 40
_symmetry_cell_setting 'orthorhombic'
loop_
_space_group_symop_operation_xyz
x,y,z
-x,-y,z
1/2-x,y,z
1/2+x,-y,z
x,1/2+y,1/2+z
-x,1/2-y,1/2+z
1/2-x,1/2+y,1/2+z
1/2+x,1/2-y,1/2+z
loop_
_atom_site_type_symbol
_atom_site_label
_atom_site_fract_x
_atom_site_fract_y
_atom_site_fract_z
Si Si1 0.542045 0.939862 0.281360
Si Si2 0.960776 0.941902 0.923514
Si Si3 0.466080 0.106386 0.100085
Si Si4 0.963574 0.665449 0.113427
Si Si5 0.046117 0.719216 0.618672
Si Si6 0.958425 0.137338 0.431971
Si Si7 0.956635 0.847322 0.811162
Si Si8 0.964894 0.732020 0.818025
O O1 0.750000 0.934170 0.277130
O O2 0.471006 0.914115 0.193057
O O3 0.485117 0.909704 0.367044
O O4 0.500000 0.000000 0.284076
O O5 0.750000 0.937966 0.924629
O O6 0.030033 0.896615 0.861252
O O7 0.021790 0.929825 0.021225
O O8 0.000000 0.000000 0.896570
O O9 0.250000 0.107368 0.102048
O O10 0.526275 0.165232 0.084437
O O11 0.750000 0.666412 0.119230
O O12 0.026407 0.724406 0.097068
O O13 0.025386 0.648011 0.207616
O O14 0.022293 0.632734 0.030455
O O15 0.250000 0.720678 0.591485
O O16 0.031785 0.716475 0.722930
O O17 0.750000 0.144897 0.439645
O O18 0.025772 0.189248 0.385727
O O19 0.750000 0.845200 0.831985
O O20 0.025673 0.790444 0.835767
O O21 0.750000 0.731833 0.814600
#
# Coordination Sequence:
#
# PCOD9363728 Si02
#       8
#     8   8   8   8   8   8   8   8
#     4  11  22  37  56  79 108 146 183 224 268 316
#     4  10  21  37  56  78 105 140 182 225 267 317
#     4   9  18  32  53  80 109 141 176 213 262 319
#     4   9  19  33  54  80 110 143 176 219 267 319
#     4   9  16  30  51  77 108 141 176 209 254 316
#     4  10  20  34  53  81 111 143 180 220 269 322
#     4   9  19  35  55  78 106 141 180 223 273 319
#     4   9  17  30  50  77 108 138 172 215 262 315
#
# _framework density 20.977481999999998
#
# number of rings (size 3 to 8) (size 9 to 14) (size 15 to 20)
#    0.000    2.500    1.250    0.750    1.750    1.000 
#    0.000    1.875    0.000    1.500    0.000    0.000 
#    0.000    0.000    0.000    0.000    0.000    0.000 
#
# Total GULP energy -178568.710072 kJ/mol
# GULP energy per Si atom -5580.272190 kJ/mol
# Density = 2.092974 g / cm^3
# Si number density = 20.977482 Si / 1000 Ang^3
#
#
#
# Elastic Constant Matrix: (Units=GPa)
#
#
# Indices 1 2 3 4 5 6 
#
# 1 38.4784 -10.3474 -13.9435 0.0000 0.0000 0.0000
# 2 -10.3474 114.2431 43.0062 0.0000 0.0000 0.0000
# 3 -13.9435 43.0062 57.2632 0.0000 0.0000 0.0000
# 4 0.0000 0.0000 0.0000 32.2133 0.0000 0.0000
# 5 0.0000 0.0000 0.0000 0.0000 12.7320 0.0000
# 6 0.0000 0.0000 0.0000 0.0000 0.0000 8.6882
#
#
#
# Elastic Compliance Matrix: (Units=1/GPa)
#
#
# Indices 1 2 3 4 5 6 
#
# 1 0.028504 -0.000043 0.006973 0.000000 0.000000 0.000000
# 2 -0.000043 0.012203 -0.009176 0.000000 0.000000 0.000000
# 3 0.006973 -0.009176 0.026052 0.000000 0.000000 0.000000
# 4 0.000000 0.000000 0.000000 0.031043 0.000000 0.000000
# 5 0.000000 0.000000 0.000000 0.000000 0.078542 0.000000
# 6 0.000000 0.000000 0.000000 0.000000 0.000000 0.115099
#
#
# Mechanical properties :
#
#
# Convention : Reuss Voigt Hill
#
# Bulk Modulus (GPa) = 16.05958 27.49057 21.77508
# Shear Modulus (GPa) = 15.78824 23.47799 19.63312
#
# Velocity S-wave (km/s) = 2.74638 3.34907 3.06259
# Velocity P-wave (km/s) = 4.21059 5.29984 4.78630
#
# Compressibility (1/GPa) = 0.06226813
#
# Stress axis : x y z
#
# Youngs Moduli (GPa) = 35.08295 81.94386 38.38418
#
# Poissons Ratio (x) = 0.00355 -0.26766
# Poissons Ratio (y) = 0.00152 0.35220
# Poissons Ratio (z) = -0.24464 0.75189
#
# Static dielectric constant tensor:
#      x y z
#    x 1.822110 0.000000 0.000000 
#    y 0.000000 1.736220 0.000000 
#    z 0.000000 0.000000 1.759390 
# 
# From -- ./inp_files/15576.got.cif
#   From: 2010.05.17/outbox.cif.g08.bks.cpg/sg40_8_cif.got.tgz:15576.got - 2010.06.03 18:35:42.
