data_PCOD9363312
_publ_section_title
;
Structure prediction by ZEFSAII (Michael W. Deem and Ramdas Pophale) SiO2 
 PCOD9363312
Probable space group: A M A 2
;
_chemical_formula_sum "Si O2"
_cell_formula_units_Z 64
_cell_length_a 15.857721
_cell_length_b 15.984954
_cell_length_c 12.689386
_cell_angle_alpha 90.000000
_cell_angle_beta 90.000000
_cell_angle_gamma 90.000000
_cell_volume 3216.568258
_symmetry_space_group_name_H-M "A M A 2"
_symmetry_group_IT_number 40
_symmetry_cell_setting 'orthorhombic'
loop_
_space_group_symop_operation_xyz
x,y,z
-x,-y,z
1/2-x,y,z
1/2+x,-y,z
x,1/2+y,1/2+z
-x,1/2-y,1/2+z
1/2-x,1/2+y,1/2+z
1/2+x,1/2-y,1/2+z
loop_
_atom_site_type_symbol
_atom_site_label
_atom_site_fract_x
_atom_site_fract_y
_atom_site_fract_z
Si Si1 0.347436 0.546708 0.976790
Si Si2 0.346790 0.721924 0.573985
Si Si3 0.090300 0.190095 0.620754
Si Si4 0.147415 0.667173 0.795474
Si Si5 0.910963 0.102123 0.608752
Si Si6 0.648986 0.028846 0.826269
Si Si7 0.148485 0.314520 0.456381
Si Si8 0.648676 0.333745 0.350393
O O1 0.250000 0.521508 0.963008
O O2 0.379588 0.590182 0.869393
O O3 0.349741 0.620646 0.064847
O O4 0.397975 0.467594 0.019725
O O5 0.250000 0.692148 0.566490
O O6 0.384830 0.675971 0.676374
O O7 0.347219 0.820574 0.597275
O O8 0.384688 0.705172 0.459153
O O9 0.103422 0.275437 0.557188
O O10 0.108970 0.200485 0.743372
O O11 0.999887 0.148254 0.604843
O O12 0.250000 0.663175 0.791599
O O13 0.127828 0.752035 0.859348
O O14 0.897066 0.056293 0.719708
O O15 0.750000 0.037912 0.807616
O O16 0.626086 0.092727 0.919322
O O17 0.632261 0.932982 0.852294
O O18 0.250000 0.310460 0.473040
O O19 0.750000 0.320764 0.342691
#
# Coordination Sequence:
#
# PCOD9363312 Si02
#       8
#     8   8   8   8   8   8   8   8
#     4  10  19  34  57  84 109 141 187 236 274 322
#     4  10  20  37  57  81 111 149 189 229 282 339
#     4  11  22  34  52  85 118 148 180 226 298 335
#     4   8  15  30  54  80 104 135 181 228 272 319
#     4  12  22  33  55  86 114 146 185 234 281 335
#     4  10  19  34  59  85 106 143 195 235 268 328
#     4   9  17  33  58  82 105 141 190 234 267 323
#     4  10  21  37  58  83 116 149 184 235 288 338
#
# _framework density 19.896981
#
# number of rings (size 3 to 8) (size 9 to 14) (size 15 to 20)
#    0.000    2.000    2.500    3.375    0.000    1.000 
#    0.000    1.250    0.000    4.500    9.750    0.000 
#    0.000    0.000    0.000    0.000    0.000    0.000 
#
# Total GULP energy -178651.574601 kJ/mol
# GULP energy per Si atom -5582.861706 kJ/mol
# Density = 1.985170 g / cm^3
# Si number density = 19.896981 Si / 1000 Ang^3
#
#
#
# Elastic Constant Matrix: (Units=GPa)
#
#
# Indices 1 2 3 4 5 6 
#
# 1 28.2226 0.3907 9.4519 0.0000 0.0000 0.0000
# 2 0.3907 38.7081 32.4130 0.0000 0.0000 0.0000
# 3 9.4519 32.4130 145.6508 0.0000 0.0000 0.0000
# 4 0.0000 0.0000 0.0000 30.6336 0.0000 0.0000
# 5 0.0000 0.0000 0.0000 0.0000 -1.8490 0.0000
# 6 0.0000 0.0000 0.0000 0.0000 0.0000 3.1472
#
#
#
# Elastic Compliance Matrix: (Units=1/GPa)
#
#
# Indices 1 2 3 4 5 6 
#
# 1 0.036342 0.001976 -0.002798 0.000000 0.000000 0.000000
# 2 0.001976 0.031859 -0.007218 0.000000 0.000000 0.000000
# 3 -0.002798 -0.007218 0.008654 0.000000 0.000000 0.000000
# 4 0.000000 0.000000 0.000000 0.032644 0.000000 0.000000
# 5 0.000000 0.000000 0.000000 0.000000 -0.540829 0.000000
# 6 0.000000 0.000000 0.000000 0.000000 0.000000 0.317744
#
#
# Mechanical properties :
#
#
# Convention : Reuss Voigt Hill
#
# Bulk Modulus (GPa) = 16.45422 33.01029 24.73225
# Shear Modulus (GPa) = -64.72617 17.74142 -23.49237
#
# Velocity S-wave (km/s) = -5.70975 2.98931 -3.43986
# Velocity P-wave (km/s) = 5.93133 5.34240 1.82201
#
# Compressibility (1/GPa) = 0.06077469
#
# Stress axis : x y z
#
# Youngs Moduli (GPa) = 27.51608 31.38875 115.55864
#
# Poissons Ratio (x) = -0.06203 0.32336
# Poissons Ratio (y) = -0.05438 0.83410
# Poissons Ratio (z) = 0.07700 0.22656
#
# Static dielectric constant tensor:
#      x y z
#    x 1.764450 0.000000 0.000000 
#    y 0.000000 1.678220 0.000000 
#    z 0.000000 0.000000 1.709420 
# 
# From -- ./inp_files/13100.got.cif
#   From: 2010.05.17/outbox.cif.g08.bks.cpg/sg40_7_cif.got.tgz:13100.got - 2010.06.03 18:35:42.
