data_PCOD9363019
_publ_section_title
;
Structure prediction by ZEFSAII (Michael W. Deem and Ramdas Pophale) SiO2 
 PCOD9363019
Probable space group: A M A 2
;
_chemical_formula_sum "Si O2"
_cell_formula_units_Z 64
_cell_length_a 9.008476
_cell_length_b 14.727426
_cell_length_c 28.403816
_cell_angle_alpha 90.000000
_cell_angle_beta 90.000000
_cell_angle_gamma 90.000000
_cell_volume 3768.381523
_symmetry_space_group_name_H-M "A M A 2"
_symmetry_group_IT_number 40
_symmetry_cell_setting 'orthorhombic'
loop_
_space_group_symop_operation_xyz
x,y,z
-x,-y,z
1/2-x,y,z
1/2+x,-y,z
x,1/2+y,1/2+z
-x,1/2-y,1/2+z
1/2-x,1/2+y,1/2+z
1/2+x,1/2-y,1/2+z
loop_
_atom_site_type_symbol
_atom_site_label
_atom_site_fract_x
_atom_site_fract_y
_atom_site_fract_z
Si Si1 0.928485 0.217390 0.878010
Si Si2 0.926025 0.909882 0.686311
Si Si3 0.576954 0.151691 0.777835
Si Si4 0.574081 0.902990 0.067453
Si Si5 0.574636 0.211134 0.146974
Si Si6 0.078234 0.330761 0.749223
Si Si7 0.927845 0.901674 0.957755
Si Si8 0.923186 0.592605 0.848311
O O1 0.750000 0.224433 0.881190
O O2 0.962171 0.151980 0.832968
O O3 0.999568 0.172234 0.923710
O O4 0.997583 0.316416 0.867303
O O5 0.750000 0.917849 0.684510
O O6 0.967743 0.814311 0.661577
O O7 0.978983 0.902162 0.740533
O O8 0.000000 0.000000 0.665511
O O9 0.750000 0.129555 0.771811
O O10 0.541783 0.255402 0.763202
O O11 0.750000 0.911801 0.072355
O O12 0.513298 0.828831 0.103457
O O13 0.500000 0.000000 0.077983
O O14 0.541590 0.880907 0.012764
O O15 0.750000 0.211013 0.136315
O O16 0.553530 0.150009 0.194301
O O17 0.250000 0.293362 0.751469
O O18 0.070156 0.402860 0.790974
O O19 0.750000 0.905686 0.951098
O O20 0.000000 0.000000 0.947806
O O21 0.750000 0.594721 0.861356
O O22 0.000000 0.500000 0.864353
#
# Coordination Sequence:
#
# PCOD9363019 Si02
#       8
#     8   8   8   8   8   8   8   8
#     4  10  20  34  53  77 103 134 172 212 256 304
#     4  10  20  33  50  73 103 139 175 209 247 293
#     4   9  17  29  46  69  97 129 166 205 244 288
#     4  10  21  36  55  78 102 129 163 205 254 307
#     4   9  18  33  52  75 103 134 169 209 253 299
#     4   8  16  30  46  67  97 132 168 205 244 286
#     4  10  21  37  56  78 102 129 163 206 257 310
#     4  10  19  32  50  73 105 142 177 213 251 295
#
# _framework density 16.983418
#
# number of rings (size 3 to 8) (size 9 to 14) (size 15 to 20)
#    0.000    2.500    0.000    3.000    0.000    7.000 
#    0.000    1.250    0.000    0.750    0.000    1.750 
#    0.000    0.000    0.000    0.000    0.000    0.000 
#
# Total GULP energy -178288.717054 kJ/mol
# GULP energy per Si atom -5571.522408 kJ/mol
# Density = 1.694476 g / cm^3
# Si number density = 16.983418 Si / 1000 Ang^3
#
#
#
# Elastic Constant Matrix: (Units=GPa)
#
#
# Indices 1 2 3 4 5 6 
#
# 1 71.4182 55.4037 57.3195 0.0000 0.0000 0.0000
# 2 55.4037 99.7103 66.6481 0.0000 0.0000 0.0000
# 3 57.3195 66.6481 96.3083 0.0000 0.0000 0.0000
# 4 0.0000 0.0000 0.0000 20.7432 0.0000 0.0000
# 5 0.0000 0.0000 0.0000 0.0000 25.4793 0.0000
# 6 0.0000 0.0000 0.0000 0.0000 0.0000 29.4486
#
#
#
# Elastic Compliance Matrix: (Units=1/GPa)
#
#
# Indices 1 2 3 4 5 6 
#
# 1 0.030598 -0.008986 -0.011993 0.000000 0.000000 0.000000
# 2 -0.008986 0.021300 -0.009392 0.000000 0.000000 0.000000
# 3 -0.011993 -0.009392 0.024020 0.000000 0.000000 0.000000
# 4 0.000000 0.000000 0.000000 0.048209 0.000000 0.000000
# 5 0.000000 0.000000 0.000000 0.000000 0.039247 0.000000
# 6 0.000000 0.000000 0.000000 0.000000 0.000000 0.033958
#
#
# Mechanical properties :
#
#
# Convention : Reuss Voigt Hill
#
# Bulk Modulus (GPa) = 65.88653 69.57548 67.73100
# Shear Modulus (GPa) = 19.00194 21.00526 20.00360
#
# Velocity S-wave (km/s) = 3.34855 3.52065 3.43568
# Velocity P-wave (km/s) = 7.33684 7.58830 7.46363
#
# Compressibility (1/GPa) = 0.01517761
#
# Stress axis : x y z
#
# Youngs Moduli (GPa) = 32.68210 46.94912 41.63118
#
# Poissons Ratio (x) = 0.42186 0.49926
# Poissons Ratio (y) = 0.29367 0.39100
# Poissons Ratio (z) = 0.39194 0.44095
#
# Static dielectric constant tensor:
#      x y z
#    x 1.570090 0.000000 0.000000 
#    y 0.000000 1.579370 0.000000 
#    z 0.000000 0.000000 1.578560 
# 
# From -- ./inp_files/24270.got.cif
#   From: 2010.05.17/outbox.cif.g08.bks.cpg/sg40_13_cif.got.tgz:24270.got - 2010.06.03 18:35:42.
