data_PCOD9363702
_publ_section_title
;
Structure prediction by ZEFSAII (Michael W. Deem and Ramdas Pophale) SiO2 
 PCOD9363702
Probable space group: A M A 2
;
_chemical_formula_sum "Si O2"
_cell_formula_units_Z 48
_cell_length_a 8.520754
_cell_length_b 7.666242
_cell_length_c 34.005950
_cell_angle_alpha 90.000000
_cell_angle_beta 90.000000
_cell_angle_gamma 90.000000
_cell_volume 2221.342181
_symmetry_space_group_name_H-M "A M A 2"
_symmetry_group_IT_number 40
_symmetry_cell_setting 'orthorhombic'
loop_
_space_group_symop_operation_xyz
x,y,z
-x,-y,z
1/2-x,y,z
1/2+x,-y,z
x,1/2+y,1/2+z
-x,1/2-y,1/2+z
1/2-x,1/2+y,1/2+z
1/2+x,1/2-y,1/2+z
loop_
_atom_site_type_symbol
_atom_site_label
_atom_site_fract_x
_atom_site_fract_y
_atom_site_fract_z
Si Si1 0.438246 0.200517 0.792840
Si Si2 0.939652 0.800072 0.708103
Si Si3 0.061931 0.804906 0.958476
Si Si4 0.935926 0.194607 0.543066
Si Si5 0.938009 0.700443 0.373914
Si Si6 0.438356 0.700800 0.123342
O O1 0.250000 0.197833 0.794666
O O2 0.489196 0.277145 0.750396
O O3 0.500669 0.281613 0.833350
O O4 0.500000 0.000000 0.792335
O O5 0.750000 0.803512 0.708058
O O6 0.988669 0.722302 0.665828
O O7 0.000000 0.000000 0.708254
O O8 0.250000 0.797244 0.961201
O O9 0.014792 0.719963 0.916418
O O10 0.993459 0.748081 0.000065
O O11 0.000000 0.000000 0.954563
O O12 0.750000 0.201006 0.543953
O O13 0.998644 0.284248 0.582988
O O14 0.000000 0.000000 0.546491
O O15 0.750000 0.695303 0.372599
O O16 0.000000 0.500000 0.373702
O O17 0.500000 0.500000 0.124738
O O18 0.250000 0.697657 0.121110
#
# Coordination Sequence:
#
# PCOD9363702 Si02
#       6
#     8   8   8   8   8   8
#     4   9  14  20  31  49  75 106 140 174 211 257
#     4   8  14  21  31  49  74 106 140 174 212 257
#     4  10  20  34  50  69  93 122 156 193 233 276
#     4  11  21  33  49  69  93 122 156 193 234 277
#     4   9  16  25  38  56  80 110 143 178 218 263
#     4   9  15  25  39  56  81 112 146 182 222 266
#
# _framework density 21.608559
#
# number of rings (size 3 to 8) (size 9 to 14) (size 15 to 20)
#    0.000    2.667    0.000    5.500    0.000    3.333 
#    0.000    0.000    0.000    0.000    0.000    0.000 
#    0.000    1.333    0.000    7.000    0.000   15.333 
#
# Total GULP energy -133604.609329 kJ/mol
# GULP energy per Si atom -5566.858722 kJ/mol
# Density = 2.155938 g / cm^3
# Si number density = 21.608559 Si / 1000 Ang^3
#
#
#
# Elastic Constant Matrix: (Units=GPa)
#
#
# Indices 1 2 3 4 5 6 
#
# 1 80.2785 -3.0073 72.8358 0.0000 0.0000 0.0000
# 2 -3.0073 30.2110 22.1894 0.0000 0.0000 0.0000
# 3 72.8358 22.1894 331.0323 0.0000 0.0000 0.0000
# 4 0.0000 0.0000 0.0000 6.8367 0.0000 0.0000
# 5 0.0000 0.0000 0.0000 0.0000 46.5525 0.0000
# 6 0.0000 0.0000 0.0000 0.0000 0.0000 4.8386
#
#
#
# Elastic Compliance Matrix: (Units=1/GPa)
#
#
# Indices 1 2 3 4 5 6 
#
# 1 0.016107 0.004424 -0.003840 0.000000 0.000000 0.000000
# 2 0.004424 0.036030 -0.003389 0.000000 0.000000 0.000000
# 3 -0.003840 -0.003389 0.004093 0.000000 0.000000 0.000000
# 4 0.000000 0.000000 0.000000 0.146270 0.000000 0.000000
# 5 0.000000 0.000000 0.000000 0.000000 0.021481 0.000000
# 6 0.000000 0.000000 0.000000 0.000000 0.000000 0.206673
#
#
# Mechanical properties :
#
#
# Convention : Reuss Voigt Hill
#
# Bulk Modulus (GPa) = 19.75516 69.50638 44.63077
# Shear Modulus (GPa) = 11.03421 34.94581 22.99001
#
# Velocity S-wave (km/s) = 2.26219 4.02583 3.26533
# Velocity P-wave (km/s) = 3.99818 7.33796 5.90894
#
# Compressibility (1/GPa) = 0.05061968
#
# Stress axis : x y z
#
# Youngs Moduli (GPa) = 62.08565 27.75488 244.32019
#
# Poissons Ratio (x) = -0.12279 0.93830
# Poissons Ratio (y) = -0.27467 0.82788
# Poissons Ratio (z) = 0.23844 0.09405
#
# Static dielectric constant tensor:
#      x y z
#    x 1.720740 0.000000 0.000000 
#    y 0.000000 1.383910 0.000000 
#    z 0.000000 0.000000 1.976900 
# 
# From -- ./inp_files/26259.got.cif
#   From: 2010.05.17/outbox.cif.g08.bks.cpg/sg40_14_cif.got.tgz:26259.got - 2010.06.03 18:35:42.
