data_PCOD9363227
_publ_section_title
;
Structure prediction by ZEFSAII (Michael W. Deem and Ramdas Pophale) SiO2 
 PCOD9363227
Probable space group: A M A 2
;
_chemical_formula_sum "Si O2"
_cell_formula_units_Z 64
_cell_length_a 8.954846
_cell_length_b 20.895506
_cell_length_c 19.940060
_cell_angle_alpha 90.000000
_cell_angle_beta 90.000000
_cell_angle_gamma 90.000000
_cell_volume 3731.105031
_symmetry_space_group_name_H-M "A M A 2"
_symmetry_group_IT_number 40
_symmetry_cell_setting 'orthorhombic'
loop_
_space_group_symop_operation_xyz
x,y,z
-x,-y,z
1/2-x,y,z
1/2+x,-y,z
x,1/2+y,1/2+z
-x,1/2-y,1/2+z
1/2-x,1/2+y,1/2+z
1/2+x,1/2-y,1/2+z
loop_
_atom_site_type_symbol
_atom_site_label
_atom_site_fract_x
_atom_site_fract_y
_atom_site_fract_z
Si Si1 0.927547 0.884410 0.202310
Si Si2 0.570571 0.932735 0.055610
Si Si3 0.073914 0.386828 0.841985
Si Si4 0.428624 0.066103 0.477493
Si Si5 0.426864 0.233181 0.842593
Si Si6 0.428828 0.814149 0.977764
Si Si7 0.072598 0.767752 0.701756
Si Si8 0.570924 0.811201 0.566540
O O1 0.750000 0.891928 0.213413
O O2 0.969613 0.919276 0.133601
O O3 0.956826 0.808460 0.192169
O O4 0.013874 0.905954 0.268749
O O5 0.750000 0.933733 0.050788
O O6 0.505225 0.875136 0.011689
O O7 0.500000 0.000000 0.034993
O O8 0.250000 0.399507 0.847176
O O9 0.049195 0.310059 0.848304
O O10 0.988053 0.419781 0.902784
O O11 0.250000 0.061605 0.476206
O O12 0.471136 0.125704 0.524872
O O13 0.500000 0.000000 0.501420
O O14 0.250000 0.221631 0.845719
O O15 0.492482 0.213340 0.770742
O O16 0.509703 0.199032 0.903624
O O17 0.250000 0.821521 0.976906
O O18 0.465254 0.751300 0.022100
O O19 0.250000 0.775986 0.707669
O O20 0.009481 0.804297 0.637525
O O21 0.750000 0.811909 0.576556
#
# Coordination Sequence:
#
# PCOD9363227 Si02
#       8
#     8   8   8   8   8   8   8   8
#     4   9  19  34  52  76 111 150 187 228 272 325
#     4  11  23  39  56  81 113 151 191 233 282 335
#     4  10  20  33  53  80 111 149 189 228 273 328
#     4  11  23  39  56  79 112 150 189 232 279 332
#     4  10  20  34  55  84 116 147 184 230 279 333
#     4  11  21  36  59  85 112 147 188 234 283 334
#     4  10  19  33  56  84 113 145 184 230 279 331
#     4  10  21  36  57  83 112 145 184 231 282 332
#
# _framework density 17.153095
#
# number of rings (size 3 to 8) (size 9 to 14) (size 15 to 20)
#    0.000    1.750    2.500    2.250    0.000    4.500 
#    0.000    1.250    0.000    0.750    0.000    3.500 
#    0.000    0.000    0.000    0.000    0.000    0.000 
#
# Total GULP energy -178773.384002 kJ/mol
# GULP energy per Si atom -5586.668250 kJ/mol
# Density = 1.711405 g / cm^3
# Si number density = 17.153095 Si / 1000 Ang^3
#
#
#
# Elastic Constant Matrix: (Units=GPa)
#
#
# Indices 1 2 3 4 5 6 
#
# 1 59.3147 57.1152 55.9390 0.0000 0.0000 0.0000
# 2 57.1152 105.7356 59.5667 0.0000 0.0000 0.0000
# 3 55.9390 59.5667 120.3393 0.0000 0.0000 0.0000
# 4 0.0000 0.0000 0.0000 19.2374 0.0000 0.0000
# 5 0.0000 0.0000 0.0000 0.0000 35.2429 0.0000
# 6 0.0000 0.0000 0.0000 0.0000 0.0000 24.4610
#
#
#
# Elastic Compliance Matrix: (Units=1/GPa)
#
#
# Indices 1 2 3 4 5 6 
#
# 1 0.045546 -0.017577 -0.012471 0.000000 0.000000 0.000000
# 2 -0.017577 0.019898 -0.001679 0.000000 0.000000 0.000000
# 3 -0.012471 -0.001679 0.014938 0.000000 0.000000 0.000000
# 4 0.000000 0.000000 0.000000 0.051982 0.000000 0.000000
# 5 0.000000 0.000000 0.000000 0.000000 0.028374 0.000000
# 6 0.000000 0.000000 0.000000 0.000000 0.000000 0.040881
#
#
# Mechanical properties :
#
#
# Convention : Reuss Voigt Hill
#
# Bulk Modulus (GPa) = 59.07410 70.07015 64.57212
# Shear Modulus (GPa) = 18.46957 23.30617 20.88787
#
# Velocity S-wave (km/s) = 3.28495 3.69007 3.49339
# Velocity P-wave (km/s) = 6.99299 7.68727 7.34833
#
# Compressibility (1/GPa) = 0.01692789
#
# Stress axis : x y z
#
# Youngs Moduli (GPa) = 21.95599 50.25734 66.94304
#
# Poissons Ratio (x) = 0.88335 0.83488
# Poissons Ratio (y) = 0.38591 0.11238
# Poissons Ratio (z) = 0.27382 0.08437
#
# Static dielectric constant tensor:
#      x y z
#    x 1.565010 0.000000 0.000000 
#    y 0.000000 1.575340 0.000000 
#    z 0.000000 0.000000 1.555680 
# 
# From -- ./inp_files/19580.got.cif
#   From: 2010.05.17/outbox.cif.g08.bks.cpg/sg40_10_cif.got.tgz:19580.got - 2010.06.03 18:35:42.
