data_PCOD9363986
_publ_section_title
;
Structure prediction by ZEFSAII (Michael W. Deem and Ramdas Pophale) SiO2 
 PCOD9363986
Probable space group: A M A 2
;
_chemical_formula_sum "Si O2"
_cell_formula_units_Z 36
_cell_length_a 23.239582
_cell_length_b 10.281076
_cell_length_c 4.797634
_cell_angle_alpha 90.000000
_cell_angle_beta 90.000000
_cell_angle_gamma 90.000000
_cell_volume 1146.288659
_symmetry_space_group_name_H-M "A M A 2"
_symmetry_group_IT_number 40
_symmetry_cell_setting 'orthorhombic'
loop_
_space_group_symop_operation_xyz
x,y,z
-x,-y,z
1/2-x,y,z
1/2+x,-y,z
x,1/2+y,1/2+z
-x,1/2-y,1/2+z
1/2-x,1/2+y,1/2+z
1/2+x,1/2-y,1/2+z
loop_
_atom_site_type_symbol
_atom_site_label
_atom_site_fract_x
_atom_site_fract_y
_atom_site_fract_z
Si Si1 0.250000 0.027169 0.418301
Si Si2 0.750000 0.719060 0.189498
Si Si3 0.500000 0.000000 0.135793
Si Si4 0.021966 0.764561 0.607387
Si Si5 0.641248 0.284745 0.317356
Si Si6 0.863494 0.037629 0.047372
O O1 0.250000 0.183120 0.448960
O O2 0.250000 0.937034 0.693282
O O3 0.192056 0.995643 0.240238
O O4 0.696011 0.753833 0.000240
O O5 0.496334 0.861681 0.876313
O O6 0.427339 0.992515 0.154692
O O7 0.087337 0.760470 0.506838
O O8 0.992898 0.852326 0.351650
O O9 0.638754 0.194248 0.046743
O O10 0.639004 0.439849 0.284548
#
# Coordination Sequence:
#
# PCOD9363986 Si02
#       6
#     4   4   4   8   8   8
#     4   8  14  24  46  81 117 165 220 278 356 426
#     4   8  14  26  50  83 117 169 218 286 346 438
#     4  10  20  36  58  88 126 168 222 284 356 428
#     4  11  23  40  62  90 129 169 225 281 357 431
#     4   9  17  32  56  86 128 170 230 284 365 433
#     4   9  16  30  53  85 125 171 224 290 356 440
#
# _framework density 31.405702000000002
#
# number of rings (size 3 to 8) (size 9 to 14) (size 15 to 20)
#    0.000    2.667    2.222    0.000    0.000    0.889 
#    0.000    0.000    0.000    2.667    0.000    0.000 
#    0.000    0.000    0.000    0.000    0.000    0.667 
#
# Total GULP energy -100521.348875 kJ/mol
# GULP energy per Si atom -5584.519382 kJ/mol
# Density = 3.133422 g / cm^3
# Si number density = 31.405702 Si / 1000 Ang^3
#
#
#
# Elastic Constant Matrix: (Units=GPa)
#
#
# Indices 1 2 3 4 5 6 
#
# 1 290.0535 53.7014 56.4837 0.0000 0.0000 0.0000
# 2 53.7014 326.8326 83.0068 0.0000 0.0000 0.0000
# 3 56.4837 83.0068 257.3682 0.0000 0.0000 0.0000
# 4 0.0000 0.0000 0.0000 56.4111 0.0000 0.0000
# 5 0.0000 0.0000 0.0000 0.0000 36.1807 0.0000
# 6 0.0000 0.0000 0.0000 0.0000 0.0000 61.8410
#
#
#
# Elastic Compliance Matrix: (Units=1/GPa)
#
#
# Indices 1 2 3 4 5 6 
#
# 1 0.003657 -0.000432 -0.000663 0.000000 0.000000 0.000000
# 2 -0.000432 0.003384 -0.000996 0.000000 0.000000 0.000000
# 3 -0.000663 -0.000996 0.004352 0.000000 0.000000 0.000000
# 4 0.000000 0.000000 0.000000 0.017727 0.000000 0.000000
# 5 0.000000 0.000000 0.000000 0.000000 0.027639 0.000000
# 6 0.000000 0.000000 0.000000 0.000000 0.000000 0.016171
#
#
# Mechanical properties :
#
#
# Convention : Reuss Voigt Hill
#
# Bulk Modulus (GPa) = 138.71398 140.07090 139.39244
# Shear Modulus (GPa) = 62.88003 76.29071 69.58537
#
# Velocity S-wave (km/s) = 4.47943 4.93404 4.71222
# Velocity P-wave (km/s) = 8.42722 8.78390 8.60741
#
# Compressibility (1/GPa) = 0.00720908
#
# Stress axis : x y z
#
# Youngs Moduli (GPa) = 273.46098 295.52623 229.75932
#
# Poissons Ratio (x) = 0.12780 0.15235
# Poissons Ratio (y) = 0.11826 0.22894
# Poissons Ratio (z) = 0.18133 0.29447
#
# Static dielectric constant tensor:
#      x y z
#    x 2.315500 0.000000 0.000000 
#    y 0.000000 2.837880 0.000000 
#    z 0.000000 0.000000 2.351600 
# 
# From -- ./inp_files/2608.got.cif
#   From: 2010.05.17/outbox.cif.g08.bks.cpg/sg40_2_cif.got.tgz:2608.got - 2010.06.03 18:35:42.
