data_PCOD9363354
_publ_section_title
;
Structure prediction by ZEFSAII (Michael W. Deem and Ramdas Pophale) SiO2 
 PCOD9363354
Probable space group: A M A 2
;
_chemical_formula_sum "Si O2"
_cell_formula_units_Z 64
_cell_length_a 22.415326
_cell_length_b 28.016288
_cell_length_c 6.000645
_cell_angle_alpha 90.000000
_cell_angle_beta 90.000000
_cell_angle_gamma 90.000000
_cell_volume 3768.370429
_symmetry_space_group_name_H-M "A M A 2"
_symmetry_group_IT_number 40
_symmetry_cell_setting 'orthorhombic'
loop_
_space_group_symop_operation_xyz
x,y,z
-x,-y,z
1/2-x,y,z
1/2+x,-y,z
x,1/2+y,1/2+z
-x,1/2-y,1/2+z
1/2-x,1/2+y,1/2+z
1/2+x,1/2-y,1/2+z
loop_
_atom_site_type_symbol
_atom_site_label
_atom_site_fract_x
_atom_site_fract_y
_atom_site_fract_z
Si Si1 0.532604 0.250799 0.278700
Si Si2 0.181271 0.007679 0.223480
Si Si3 0.901166 0.520230 0.337405
Si Si4 0.963929 0.355856 0.239245
Si Si5 0.084148 0.056878 0.478184
Si Si6 0.078266 0.348332 0.932017
Si Si7 0.680100 0.084897 0.529548
Si Si8 0.007244 0.420011 0.620381
O O1 0.497019 0.254504 0.524663
O O2 0.561916 0.302989 0.261544
O O3 0.571549 0.203431 0.319644
O O4 0.250000 0.018306 0.184951
O O5 0.176989 0.954265 0.329486
O O6 0.149957 0.044616 0.391121
O O7 0.142249 0.007852 0.002585
O O8 0.953384 0.546763 0.465514
O O9 0.927561 0.483291 0.161536
O O10 0.858996 0.559176 0.219178
O O11 0.969816 0.383207 0.471120
O O12 0.927629 0.390802 0.076759
O O13 0.031561 0.349655 0.140153
O O14 0.037367 0.051659 0.278549
O O15 0.144839 0.366149 0.982594
O O16 0.051427 0.388754 0.770716
O O17 0.750000 0.090971 0.584190
#
# Coordination Sequence:
#
# PCOD9363354 Si02
#       8
#     8   8   8   8   8   8   8   8
#     4  10  20  35  59  85 115 153 191 236 295 362
#     4  10  21  37  54  74 108 152 197 233 277 344
#     4  11  21  36  53  78 113 153 191 230 291 345
#     4  10  20  35  54  81 114 148 183 236 293 354
#     4  10  24  35  51  82 111 149 187 236 287 339
#     4  10  19  35  54  81 113 146 186 237 293 351
#     4  10  20  35  54  80 112 149 193 237 283 346
#     4  11  20  35  52  77 120 143 186 230 294 352
#
# _framework density 16.983467999999998
#
# number of rings (size 3 to 8) (size 9 to 14) (size 15 to 20)
#    0.000    1.750    3.750    1.125    0.000    3.500 
#    0.000    0.000    0.000    0.750    0.000    0.000 
#    0.000    0.000    0.000    0.000    0.000    0.000 
#
# Total GULP energy -178365.150146 kJ/mol
# GULP energy per Si atom -5573.910942 kJ/mol
# Density = 1.694481 g / cm^3
# Si number density = 16.983468 Si / 1000 Ang^3
#
#
#
# Elastic Constant Matrix: (Units=GPa)
#
#
# Indices 1 2 3 4 5 6 
#
# 1 78.7696 55.6299 20.7641 0.0000 0.0000 0.0000
# 2 55.6299 100.6309 21.9075 0.0000 0.0000 0.0000
# 3 20.7641 21.9075 67.8281 0.0000 0.0000 0.0000
# 4 0.0000 0.0000 0.0000 28.9114 0.0000 0.0000
# 5 0.0000 0.0000 0.0000 0.0000 14.5303 0.0000
# 6 0.0000 0.0000 0.0000 0.0000 0.0000 16.3020
#
#
#
# Elastic Compliance Matrix: (Units=1/GPa)
#
#
# Indices 1 2 3 4 5 6 
#
# 1 0.021354 -0.011167 -0.002930 0.000000 0.000000 0.000000
# 2 -0.011167 0.016528 -0.001920 0.000000 0.000000 0.000000
# 3 -0.002930 -0.001920 0.016260 0.000000 0.000000 0.000000
# 4 0.000000 0.000000 0.000000 0.034588 0.000000 0.000000
# 5 0.000000 0.000000 0.000000 0.000000 0.068822 0.000000
# 6 0.000000 0.000000 0.000000 0.000000 0.000000 0.061342
#
#
# Mechanical properties :
#
#
# Convention : Reuss Voigt Hill
#
# Bulk Modulus (GPa) = 45.23137 49.31462 47.27299
# Shear Modulus (GPa) = 19.35742 21.87723 20.61732
#
# Velocity S-wave (km/s) = 3.37973 3.59297 3.48798
# Velocity P-wave (km/s) = 6.47460 6.80533 6.64202
#
# Compressibility (1/GPa) = 0.02210855
#
# Stress axis : x y z
#
# Youngs Moduli (GPa) = 46.82933 60.50176 61.49934
#
# Poissons Ratio (x) = 0.67561 0.18022
# Poissons Ratio (y) = 0.52294 0.11808
# Poissons Ratio (z) = 0.13723 0.11616
#
# Static dielectric constant tensor:
#      x y z
#    x 1.556600 0.000000 0.000000 
#    y 0.000000 1.577930 0.000000 
#    z 0.000000 0.000000 1.651010 
# 
# From -- ./inp_files/2463.got.cif
#   From: 2010.05.17/outbox.cif.g08.bks.cpg/sg40_2_cif.got.tgz:2463.got - 2010.06.03 18:35:42.
