data_PCOD9363025
_publ_section_title
;
Structure prediction by ZEFSAII (Michael W. Deem and Ramdas Pophale) SiO2 
 PCOD9363025
Probable space group: A M A 2
;
_chemical_formula_sum "Si O2"
_cell_formula_units_Z 64
_cell_length_a 8.639529
_cell_length_b 16.725386
_cell_length_c 22.981181
_cell_angle_alpha 90.000000
_cell_angle_beta 90.000000
_cell_angle_gamma 90.000000
_cell_volume 3320.768185
_symmetry_space_group_name_H-M "A M A 2"
_symmetry_group_IT_number 40
_symmetry_cell_setting 'orthorhombic'
loop_
_space_group_symop_operation_xyz
x,y,z
-x,-y,z
1/2-x,y,z
1/2+x,-y,z
x,1/2+y,1/2+z
-x,1/2-y,1/2+z
1/2-x,1/2+y,1/2+z
1/2+x,1/2-y,1/2+z
loop_
_atom_site_type_symbol
_atom_site_label
_atom_site_fract_x
_atom_site_fract_y
_atom_site_fract_z
Si Si1 0.933407 0.419362 0.072180
Si Si2 0.928176 0.612263 0.947600
Si Si3 0.064496 0.586666 0.818796
Si Si4 0.936563 0.917181 0.896053
Si Si5 0.436515 0.086666 0.761300
Si Si6 0.935677 0.746101 0.608773
Si Si7 0.562434 0.228184 0.236032
Si Si8 0.571919 0.794245 0.988240
O O1 0.750000 0.420687 0.077127
O O2 0.993324 0.337908 0.101475
O O3 0.000000 0.500000 0.098615
O O4 0.980330 0.417641 0.004226
O O5 0.750000 0.582768 0.948069
O O6 0.003905 0.595354 0.885400
O O7 0.926007 0.706688 0.960055
O O8 0.250000 0.584760 0.818268
O O9 0.000000 0.500000 0.797540
O O10 0.006793 0.663676 0.781257
O O11 0.750000 0.914996 0.895533
O O12 0.984569 0.909530 0.829216
O O13 0.996867 0.849797 0.938685
O O14 0.000000 0.000000 0.918853
O O15 0.250000 0.082226 0.755497
O O16 0.480091 0.176748 0.740519
O O17 0.500000 0.000000 0.739369
O O18 0.750000 0.750150 0.610203
O O19 0.983813 0.707416 0.669607
O O20 0.986430 0.704375 0.549503
O O21 0.750000 0.224812 0.242870
O O22 0.750000 0.817060 0.999518
#
# Coordination Sequence:
#
# PCOD9363025 Si02
#       8
#     8   8   8   8   8   8   8   8
#     4  10  19  32  50  78 112 144 177 216 263 319
#     4  10  19  34  56  81 109 142 176 218 272 330
#     4  12  25  40  59  84 111 143 184 233 284 339
#     4   9  17  30  48  74 103 132 165 206 257 313
#     4   9  18  33  55  82 114 146 179 219 266 322
#     4   9  20  36  54  75 102 137 179 222 265 312
#     4  10  21  40  60  79 109 150 189 230 278 327
#     4   9  18  33  54  77 104 138 176 216 264 318
#
# _framework density 19.272648
#
# number of rings (size 3 to 8) (size 9 to 14) (size 15 to 20)
#    0.000    2.250    0.000    3.000    0.000    5.000 
#    0.000    3.125    0.000    1.500    0.000    0.000 
#    0.000    0.000    0.000    0.000    0.000    0.000 
#
# Total GULP energy -178343.432488 kJ/mol
# GULP energy per Si atom -5573.232265 kJ/mol
# Density = 1.922878 g / cm^3
# Si number density = 19.272648 Si / 1000 Ang^3
#
#
#
# Elastic Constant Matrix: (Units=GPa)
#
#
# Indices 1 2 3 4 5 6 
#
# 1 43.2730 12.0059 21.4875 0.0000 0.0000 0.0000
# 2 12.0059 67.5465 38.3076 0.0000 0.0000 0.0000
# 3 21.4875 38.3076 100.9142 0.0000 0.0000 0.0000
# 4 0.0000 0.0000 0.0000 -1.1251 0.0000 0.0000
# 5 0.0000 0.0000 0.0000 0.0000 10.5784 0.0000
# 6 0.0000 0.0000 0.0000 0.0000 0.0000 24.3134
#
#
#
# Elastic Compliance Matrix: (Units=1/GPa)
#
#
# Indices 1 2 3 4 5 6 
#
# 1 0.026029 -0.001890 -0.004825 0.000000 0.000000 0.000000
# 2 -0.001890 0.019004 -0.006811 0.000000 0.000000 0.000000
# 3 -0.004825 -0.006811 0.013522 0.000000 0.000000 0.000000
# 4 0.000000 0.000000 0.000000 -0.888836 0.000000 0.000000
# 5 0.000000 0.000000 0.000000 0.000000 0.094532 0.000000
# 6 0.000000 0.000000 0.000000 0.000000 0.000000 0.041130
#
#
# Mechanical properties :
#
#
# Convention : Reuss Voigt Hill
#
# Bulk Modulus (GPa) = 31.74365 39.48174 35.61270
# Shear Modulus (GPa) = -7.60959 16.08219 4.23630
#
# Velocity S-wave (km/s) = -1.98921 2.89183 1.48420
# Velocity P-wave (km/s) = 3.35121 5.62855 4.63202
#
# Compressibility (1/GPa) = 0.03150237
#
# Stress axis : x y z
#
# Youngs Moduli (GPa) = 38.41822 52.62183 73.95149
#
# Poissons Ratio (x) = 0.09947 0.35680
# Poissons Ratio (y) = 0.07262 0.50371
# Poissons Ratio (z) = 0.18536 0.35843
#
# Static dielectric constant tensor:
#      x y z
#    x 1.670620 0.000000 0.000000 
#    y 0.000000 1.714990 0.000000 
#    z 0.000000 0.000000 1.675770 
# 
# From -- ./inp_files/22359.got.cif
#   From: 2010.05.17/outbox.cif.g08.bks.cpg/sg40_12_cif.got.tgz:22359.got - 2010.06.03 18:35:42.
