data_PCOD9363844
_publ_section_title
;
Structure prediction by ZEFSAII (Michael W. Deem and Ramdas Pophale) SiO2 
 PCOD9363844
Probable space group: A M A 2
;
_chemical_formula_sum "Si O2"
_cell_formula_units_Z 48
_cell_length_a 8.476989
_cell_length_b 18.979732
_cell_length_c 15.379314
_cell_angle_alpha 90.000000
_cell_angle_beta 90.000000
_cell_angle_gamma 90.000000
_cell_volume 2474.392892
_symmetry_space_group_name_H-M "A M A 2"
_symmetry_group_IT_number 40
_symmetry_cell_setting 'orthorhombic'
loop_
_space_group_symop_operation_xyz
x,y,z
-x,-y,z
1/2-x,y,z
1/2+x,-y,z
x,1/2+y,1/2+z
-x,1/2-y,1/2+z
1/2-x,1/2+y,1/2+z
1/2+x,1/2-y,1/2+z
loop_
_atom_site_type_symbol
_atom_site_label
_atom_site_fract_x
_atom_site_fract_y
_atom_site_fract_z
Si Si1 0.437965 0.923946 0.428000
Si Si2 0.059023 0.300345 0.056620
Si Si3 0.061509 0.356519 0.564928
Si Si4 0.940650 0.076330 0.887257
Si Si5 0.438606 0.642501 0.756831
Si Si6 0.058644 0.303246 0.255958
O O1 0.250000 0.924743 0.432241
O O2 0.494544 0.860021 0.489569
O O3 0.490720 0.907477 0.329887
O O4 0.500000 0.000000 0.456006
O O5 0.250000 0.293971 0.052102
O O6 0.017448 0.320016 0.156099
O O7 0.986501 0.223516 0.040651
O O8 0.250000 0.360163 0.572743
O O9 0.008865 0.405823 0.485674
O O10 0.987305 0.374215 0.658153
O O11 0.750000 0.076841 0.885576
O O12 0.997701 0.138395 0.823432
O O13 0.000000 0.000000 0.860175
O O14 0.250000 0.640734 0.762881
O O15 0.494034 0.723224 0.774555
O O16 0.250000 0.302140 0.260539
#
# Coordination Sequence:
#
# PCOD9363844 Si02
#       6
#     8   8   8   8   8   8
#     4  11  23  37  54  80 113 147 184 226 275 332
#     4   9  19  36  58  82 109 142 181 224 269 321
#     4  10  20  35  56  82 110 141 182 227 270 322
#     4  10  21  35  52  76 108 143 176 213 260 315
#     4  10  20  37  60  81 105 140 181 228 280 328
#     4   8  16  34  57  79 104 137 175 216 265 316
#
# _framework density 19.398696999999999
#
# number of rings (size 3 to 8) (size 9 to 14) (size 15 to 20)
#    0.000    2.333    0.000    3.500    0.000    5.333 
#    0.000    5.833    0.000    0.000    0.000    0.000 
#    0.000    0.000    0.000    0.000    0.000    0.000 
#
# Total GULP energy -134001.135774 kJ/mol
# GULP energy per Si atom -5583.380657 kJ/mol
# Density = 1.935454 g / cm^3
# Si number density = 19.398697 Si / 1000 Ang^3
#
#
#
# Elastic Constant Matrix: (Units=GPa)
#
#
# Indices 1 2 3 4 5 6 
#
# 1 20.6298 0.4728 1.8236 0.0000 0.0000 0.0000
# 2 0.4728 20.0079 10.2634 0.0000 0.0000 0.0000
# 3 1.8236 10.2634 35.2326 0.0000 0.0000 0.0000
# 4 0.0000 0.0000 0.0000 2.4384 0.0000 0.0000
# 5 0.0000 0.0000 0.0000 0.0000 18.0421 0.0000
# 6 0.0000 0.0000 0.0000 0.0000 0.0000 30.7751
#
#
#
# Elastic Compliance Matrix: (Units=1/GPa)
#
#
# Indices 1 2 3 4 5 6 
#
# 1 0.048697 0.000167 -0.002569 0.000000 0.000000 0.000000
# 2 0.000167 0.058761 -0.017126 0.000000 0.000000 0.000000
# 3 -0.002569 -0.017126 0.033505 0.000000 0.000000 0.000000
# 4 0.000000 0.000000 0.000000 0.410100 0.000000 0.000000
# 5 0.000000 0.000000 0.000000 0.000000 0.055426 0.000000
# 6 0.000000 0.000000 0.000000 0.000000 0.000000 0.032494
#
#
# Mechanical properties :
#
#
# Convention : Reuss Voigt Hill
#
# Bulk Modulus (GPa) = 9.81291 11.22111 10.51701
# Shear Modulus (GPa) = 7.02240 14.47182 10.74711
#
# Velocity S-wave (km/s) = 1.90470 2.73430 2.35630
# Velocity P-wave (km/s) = 3.14749 3.97059 3.58276
#
# Compressibility (1/GPa) = 0.10190661
#
# Stress axis : x y z
#
# Youngs Moduli (GPa) = 20.53517 17.01803 29.84666
#
# Poissons Ratio (x) = -0.00284 0.07668
# Poissons Ratio (y) = -0.00343 0.51115
# Poissons Ratio (z) = 0.05276 0.29145
#
# Static dielectric constant tensor:
#      x y z
#    x 1.659670 0.000000 0.000000 
#    y 0.000000 1.659540 0.000000 
#    z 0.000000 0.000000 1.673740 
# 
# From -- ./inp_files/15038.got.cif
#   From: 2010.05.17/outbox.cif.g08.bks.cpg/sg40_8_cif.got.tgz:15038.got - 2010.06.03 18:35:42.
