data_PCOD9363226
_publ_section_title
;
Structure prediction by ZEFSAII (Michael W. Deem and Ramdas Pophale) SiO2 
 PCOD9363226
Probable space group: A M A 2
;
_chemical_formula_sum "Si O2"
_cell_formula_units_Z 56
_cell_length_a 21.330241
_cell_length_b 11.375119
_cell_length_c 10.840931
_cell_angle_alpha 90.000000
_cell_angle_beta 90.000000
_cell_angle_gamma 90.000000
_cell_volume 2630.378774
_symmetry_space_group_name_H-M "A M A 2"
_symmetry_group_IT_number 40
_symmetry_cell_setting 'orthorhombic'
loop_
_space_group_symop_operation_xyz
x,y,z
-x,-y,z
1/2-x,y,z
1/2+x,-y,z
x,1/2+y,1/2+z
-x,1/2-y,1/2+z
1/2-x,1/2+y,1/2+z
1/2+x,1/2-y,1/2+z
loop_
_atom_site_type_symbol
_atom_site_label
_atom_site_fract_x
_atom_site_fract_y
_atom_site_fract_z
Si Si1 0.020433 0.120954 0.422280
Si Si2 0.615631 0.729516 0.901375
Si Si3 0.447048 0.162615 0.675700
Si Si4 0.322514 0.474556 0.743924
Si Si5 0.562029 0.577684 0.568400
Si Si6 0.821562 0.266715 0.655519
Si Si7 0.575714 0.659644 0.300290
O O1 0.059054 0.092470 0.547334
O O2 0.061299 0.205715 0.339495
O O3 0.954528 0.189240 0.441149
O O4 0.000000 0.000000 0.360463
O O5 0.603363 0.818539 0.785149
O O6 0.652882 0.612908 0.852906
O O7 0.648720 0.786712 0.019594
O O8 0.454982 0.294397 0.621995
O O9 0.512786 0.123556 0.731757
O O10 0.250000 0.439977 0.716440
O O11 0.375598 0.455513 0.640972
O O12 0.321111 0.617230 0.743381
O O13 0.500000 0.500000 0.579238
O O14 0.580024 0.588231 0.425472
O O15 0.750000 0.230660 0.639152
O O16 0.863422 0.165365 0.717200
#
# Coordination Sequence:
#
# PCOD9363226 Si02
#       7
#     8   8   8   8   8   8   8
#     4  10  19  33  56  83 115 146 184 241 299 357
#     4  10  20  37  57  82 116 152 194 249 292 360
#     4   9  19  34  53  82 113 141 186 237 293 349
#     4  10  22  38  59  84 112 154 205 243 295 359
#     4  10  21  35  60  83 112 155 185 247 297 355
#     4  11  22  38  59  80 114 158 200 245 292 362
#     4  10  20  35  53  84 113 146 188 236 300 352
#
# _framework density 21.289711
#
# number of rings (size 3 to 8) (size 9 to 14) (size 15 to 20)
#    0.000    2.000    1.429    2.143    4.000    5.143 
#    0.000    0.000    0.000    0.000    0.000    6.000 
#    0.000    0.000    0.000    0.000    0.000    0.000 
#
# Total GULP energy -156138.454824 kJ/mol
# GULP energy per Si atom -5576.373387 kJ/mol
# Density = 2.124125 g / cm^3
# Si number density = 21.289711 Si / 1000 Ang^3
#
#
#
# Elastic Constant Matrix: (Units=GPa)
#
#
# Indices 1 2 3 4 5 6 
#
# 1 149.1660 20.5061 36.6472 0.0000 0.0000 0.0000
# 2 20.5061 53.2424 15.0403 0.0000 0.0000 0.0000
# 3 36.6472 15.0403 80.1228 0.0000 0.0000 0.0000
# 4 0.0000 0.0000 0.0000 20.1540 0.0000 0.0000
# 5 0.0000 0.0000 0.0000 0.0000 12.3289 0.0000
# 6 0.0000 0.0000 0.0000 0.0000 0.0000 9.5238
#
#
#
# Elastic Compliance Matrix: (Units=1/GPa)
#
#
# Indices 1 2 3 4 5 6 
#
# 1 0.007769 -0.002100 -0.003159 0.000000 0.000000 0.000000
# 2 -0.002100 0.020401 -0.002869 0.000000 0.000000 0.000000
# 3 -0.003159 -0.002869 0.014464 0.000000 0.000000 0.000000
# 4 0.000000 0.000000 0.000000 0.049618 0.000000 0.000000
# 5 0.000000 0.000000 0.000000 0.000000 0.081110 0.000000
# 6 0.000000 0.000000 0.000000 0.000000 0.000000 0.105000
#
#
# Mechanical properties :
#
#
# Convention : Reuss Voigt Hill
#
# Bulk Modulus (GPa) = 37.91014 47.43535 42.67274
# Shear Modulus (GPa) = 16.47925 22.42384 19.45154
#
# Velocity S-wave (km/s) = 2.78519 3.24893 3.02596
# Velocity P-wave (km/s) = 5.30928 6.03352 5.68295
#
# Compressibility (1/GPa) = 0.02637817
#
# Stress axis : x y z
#
# Youngs Moduli (GPa) = 128.72105 49.01663 69.13515
#
# Poissons Ratio (x) = 0.10292 0.21841
# Poissons Ratio (y) = 0.27027 0.19837
# Poissons Ratio (z) = 0.40665 0.14064
#
# Static dielectric constant tensor:
#      x y z
#    x 1.727240 0.000000 0.000000 
#    y 0.000000 1.895250 0.000000 
#    z 0.000000 0.000000 1.827490 
# 
# From -- ./inp_files/13590.got.cif
#   From: 2010.05.17/outbox.cif.g08.bks.cpg/sg40_7_cif.got.tgz:13590.got - 2010.06.03 18:35:42.
