data_PCOD9363205
_publ_section_title
;
Structure prediction by ZEFSAII (Michael W. Deem and Ramdas Pophale) SiO2 
 PCOD9363205
Probable space group: A M A 2
;
_chemical_formula_sum "Si O2"
_cell_formula_units_Z 48
_cell_length_a 7.638211
_cell_length_b 27.697646
_cell_length_c 10.011584
_cell_angle_alpha 90.000000
_cell_angle_beta 90.000000
_cell_angle_gamma 90.000000
_cell_volume 2118.055360
_symmetry_space_group_name_H-M "A M A 2"
_symmetry_group_IT_number 40
_symmetry_cell_setting 'orthorhombic'
loop_
_space_group_symop_operation_xyz
x,y,z
-x,-y,z
1/2-x,y,z
1/2+x,-y,z
x,1/2+y,1/2+z
-x,1/2-y,1/2+z
1/2-x,1/2+y,1/2+z
1/2+x,1/2-y,1/2+z
loop_
_atom_site_type_symbol
_atom_site_label
_atom_site_fract_x
_atom_site_fract_y
_atom_site_fract_z
Si Si1 0.544957 0.081297 0.017550
Si Si2 0.460873 0.444713 0.807504
Si Si3 0.541810 0.308302 0.466748
Si Si4 0.040607 0.948831 0.742556
Si Si5 0.463994 0.871612 0.532825
Si Si6 0.538562 0.726019 0.164860
O O1 0.750000 0.068547 0.024779
O O2 0.469122 0.066171 0.159371
O O3 0.533921 0.138114 0.983821
O O4 0.465398 0.054095 0.890914
O O5 0.500000 0.500000 0.846632
O O6 0.250000 0.440798 0.807855
O O7 0.523928 0.401905 0.904759
O O8 0.750000 0.312970 0.479491
O O9 0.509248 0.285143 0.319307
O O10 0.478005 0.274487 0.589379
O O11 0.250000 0.944162 0.748878
O O12 0.977645 0.904263 0.656865
O O13 0.000000 0.000000 0.678473
O O14 0.250000 0.870447 0.528518
O O15 0.520875 0.817772 0.567914
O O16 0.750000 0.726615 0.163361
#
# Coordination Sequence:
#
# PCOD9363205 Si02
#       6
#     8   8   8   8   8   8
#     4  10  21  38  59  81 116 161 193 232 294 356
#     4  10  21  36  58  85 115 156 198 238 291 348
#     4  11  24  39  63  94 118 151 198 248 296 346
#     4  10  19  33  55  80 108 148 190 233 287 341
#     4   9  18  36  58  80 111 152 192 227 283 356
#     4  10  22  42  63  86 121 157 193 240 296 362
#
# _framework density 22.662296000000001
#
# number of rings (size 3 to 8) (size 9 to 14) (size 15 to 20)
#    0.000    2.000    1.667    1.500    2.333    2.667 
#    0.000    0.833    0.000    0.000    0.000    0.000 
#    0.000    0.000    0.000    0.000    0.000    0.000 
#
# Total GULP energy -134006.681136 kJ/mol
# GULP energy per Si atom -5583.611714 kJ/mol
# Density = 2.261072 g / cm^3
# Si number density = 22.662296 Si / 1000 Ang^3
#
#
#
# Elastic Constant Matrix: (Units=GPa)
#
#
# Indices 1 2 3 4 5 6 
#
# 1 47.5622 -19.3570 -1.4472 0.0000 0.0000 0.0000
# 2 -19.3570 72.4158 -4.9422 0.0000 0.0000 0.0000
# 3 -1.4472 -4.9422 89.7470 0.0000 0.0000 0.0000
# 4 0.0000 0.0000 0.0000 45.4898 0.0000 0.0000
# 5 0.0000 0.0000 0.0000 0.0000 39.4435 0.0000
# 6 0.0000 0.0000 0.0000 0.0000 0.0000 18.7098
#
#
#
# Elastic Compliance Matrix: (Units=1/GPa)
#
#
# Indices 1 2 3 4 5 6 
#
# 1 0.023639 0.006369 0.000732 0.000000 0.000000 0.000000
# 2 0.006369 0.015577 0.000960 0.000000 0.000000 0.000000
# 3 0.000732 0.000960 0.011207 0.000000 0.000000 0.000000
# 4 0.000000 0.000000 0.000000 0.021983 0.000000 0.000000
# 5 0.000000 0.000000 0.000000 0.000000 0.025353 0.000000
# 6 0.000000 0.000000 0.000000 0.000000 0.000000 0.053448
#
#
# Mechanical properties :
#
#
# Convention : Reuss Voigt Hill
#
# Bulk Modulus (GPa) = 15.02718 17.58137 16.30427
# Shear Modulus (GPa) = 31.79310 36.42670 34.10990
#
# Velocity S-wave (km/s) = 3.74960 4.01355 3.88382
# Velocity P-wave (km/s) = 5.03898 5.40860 5.22706
#
# Compressibility (1/GPa) = 0.06654609
#
# Stress axis : x y z
#
# Youngs Moduli (GPa) = 42.30232 64.19682 89.22895
#
# Poissons Ratio (x) = -0.40886 -0.06531
# Poissons Ratio (y) = -0.26942 -0.08570
# Poissons Ratio (z) = -0.03096 -0.06166
#
# Static dielectric constant tensor:
#      x y z
#    x 1.794780 0.000000 0.000000 
#    y 0.000000 1.729820 0.000000 
#    z 0.000000 0.000000 1.867670 
# 
# From -- ./inp_files/4585.got.cif
#   From: 2010.05.17/outbox.cif.g08.bks.cpg/sg40_3_cif.got.tgz:4585.got - 2010.06.03 18:35:42.
