data_PCOD9363326
_publ_section_title
;
Structure prediction by ZEFSAII (Michael W. Deem and Ramdas Pophale) SiO2 
 PCOD9363326
Probable space group: A M A 2
;
_chemical_formula_sum "Si O2"
_cell_formula_units_Z 52
_cell_length_a 7.621426
_cell_length_b 26.935915
_cell_length_c 12.286592
_cell_angle_alpha 90.000000
_cell_angle_beta 90.000000
_cell_angle_gamma 90.000000
_cell_volume 2522.315490
_symmetry_space_group_name_H-M "A M A 2"
_symmetry_group_IT_number 40
_symmetry_cell_setting 'orthorhombic'
loop_
_space_group_symop_operation_xyz
x,y,z
-x,-y,z
1/2-x,y,z
1/2+x,-y,z
x,1/2+y,1/2+z
-x,1/2-y,1/2+z
1/2-x,1/2+y,1/2+z
1/2+x,1/2-y,1/2+z
loop_
_atom_site_type_symbol
_atom_site_label
_atom_site_fract_x
_atom_site_fract_y
_atom_site_fract_z
Si Si1 0.959516 0.056023 0.861940
Si Si2 0.952528 0.343060 0.471517
Si Si3 0.540594 0.055382 0.612562
Si Si4 0.546599 0.158149 0.529900
Si Si5 0.538194 0.790583 0.753392
Si Si6 0.049616 0.824146 0.215057
Si Si7 0.250000 0.665224 0.868144
O O1 0.750000 0.062470 0.860404
O O2 0.027044 0.060201 0.736797
O O3 0.036827 0.099730 0.934202
O O4 0.000000 0.000000 0.898360
O O5 0.750000 0.328138 0.485906
O O6 0.024387 0.311800 0.368941
O O7 0.041501 0.334477 0.586711
O O8 0.750000 0.060495 0.618520
O O9 0.480925 0.100821 0.538332
O O10 0.500000 0.000000 0.573690
O O11 0.750000 0.161621 0.495912
O O12 0.535896 0.178646 0.652475
O O13 0.406520 0.184029 0.452975
O O14 0.750000 0.795462 0.750819
O O15 0.494090 0.733207 0.735271
O O16 0.250000 0.831133 0.250693
O O17 0.905953 0.853548 0.283431
#
# Coordination Sequence:
#
# PCOD9363326 Si02
#       7
#     8   8   8   8   8   8   4
#     4  10  19  34  57  94 131 166 201 257 324 389
#     4  11  22  40  65  95 132 167 215 267 324 391
#     4   9  19  33  56  94 131 160 201 254 319 384
#     4  11  23  39  65  96 129 171 212 260 319 387
#     4  10  23  40  64  97 131 168 213 258 327 386
#     4  11  26  45  65  93 125 173 221 272 321 381
#     4  12  26  46  62  90 124 174 224 268 320 368
#
# _framework density 20.615977999999998
#
# number of rings (size 3 to 8) (size 9 to 14) (size 15 to 20)
#    0.000    1.538    3.077    1.385    4.308    1.231 
#    0.000    0.000    0.000    0.923    4.000    0.000 
#    0.000    0.000    0.000    0.000    0.000    0.000 
#
# Total GULP energy -144769.991819 kJ/mol
# GULP energy per Si atom -5568.076608 kJ/mol
# Density = 2.056905 g / cm^3
# Si number density = 20.615978 Si / 1000 Ang^3
#
#
#
# Elastic Constant Matrix: (Units=GPa)
#
#
# Indices 1 2 3 4 5 6 
#
# 1 95.2311 3.1211 18.5773 0.0000 0.0000 0.0000
# 2 3.1211 69.5697 11.3529 0.0000 0.0000 0.0000
# 3 18.5773 11.3529 97.2119 0.0000 0.0000 0.0000
# 4 0.0000 0.0000 0.0000 -2.8333 0.0000 0.0000
# 5 0.0000 0.0000 0.0000 0.0000 38.3047 0.0000
# 6 0.0000 0.0000 0.0000 0.0000 0.0000 5.9533
#
#
#
# Elastic Compliance Matrix: (Units=1/GPa)
#
#
# Indices 1 2 3 4 5 6 
#
# 1 0.010909 -0.000152 -0.002067 0.000000 0.000000 0.000000
# 2 -0.000152 0.014655 -0.001682 0.000000 0.000000 0.000000
# 3 -0.002067 -0.001682 0.010878 0.000000 0.000000 0.000000
# 4 0.000000 0.000000 0.000000 -0.352947 0.000000 0.000000
# 5 0.000000 0.000000 0.000000 0.000000 0.026106 0.000000
# 6 0.000000 0.000000 0.000000 0.000000 0.000000 0.167974
#
#
# Mechanical properties :
#
#
# Convention : Reuss Voigt Hill
#
# Bulk Modulus (GPa) = 34.91664 36.45726 35.68695
# Shear Modulus (GPa) = -47.58558 23.54904 -12.01827
#
# Velocity S-wave (km/s) = -4.80957 3.38342 -2.41707
# Velocity P-wave (km/s) = 3.72414 5.74332 3.09164
#
# Compressibility (1/GPa) = 0.02863964
#
# Stress axis : x y z
#
# Youngs Moduli (GPa) = 91.66768 68.23401 91.92619
#
# Poissons Ratio (x) = 0.01038 0.19001
# Poissons Ratio (y) = 0.01394 0.15466
# Poissons Ratio (z) = 0.18947 0.11480
#
# Static dielectric constant tensor:
#      x y z
#    x 1.763260 0.000000 0.000000 
#    y 0.000000 1.777650 0.000000 
#    z 0.000000 0.000000 1.761210 
# 
# From -- ./inp_files/10371.got.cif
#   From: 2010.05.17/outbox.cif.g08.bks.cpg/sg40_6_cif.got.tgz:10371.got - 2010.06.03 18:35:42.
