data_PCOD9363487
_publ_section_title
;
Structure prediction by ZEFSAII (Michael W. Deem and Ramdas Pophale) SiO2 
 PCOD9363487
Probable space group: A M A 2
;
_chemical_formula_sum "Si O2"
_cell_formula_units_Z 64
_cell_length_a 8.827492
_cell_length_b 24.153309
_cell_length_c 15.729900
_cell_angle_alpha 90.000000
_cell_angle_beta 90.000000
_cell_angle_gamma 90.000000
_cell_volume 3353.821402
_symmetry_space_group_name_H-M "A M A 2"
_symmetry_group_IT_number 40
_symmetry_cell_setting 'orthorhombic'
loop_
_space_group_symop_operation_xyz
x,y,z
-x,-y,z
1/2-x,y,z
1/2+x,-y,z
x,1/2+y,1/2+z
-x,1/2-y,1/2+z
1/2-x,1/2+y,1/2+z
1/2+x,1/2-y,1/2+z
loop_
_atom_site_type_symbol
_atom_site_label
_atom_site_fract_x
_atom_site_fract_y
_atom_site_fract_z
Si Si1 0.067675 0.372731 0.418960
Si Si2 0.068758 0.875446 0.726354
Si Si3 0.931232 0.939170 0.075854
Si Si4 0.569695 0.747523 0.160681
Si Si5 0.930485 0.439021 0.067941
Si Si6 0.069837 0.748659 0.974655
Si Si7 0.070487 0.365180 0.918093
Si Si8 0.931275 0.365306 0.739736
O O1 0.250000 0.377793 0.425975
O O2 0.024091 0.388527 0.323017
O O3 0.030631 0.308242 0.435428
O O4 0.991719 0.409379 0.491328
O O5 0.250000 0.884520 0.717592
O O6 0.042070 0.810337 0.707900
O O7 0.983770 0.910843 0.655716
O O8 0.750000 0.942305 0.072146
O O9 0.972045 0.902143 0.158007
O O10 0.000000 0.000000 0.083298
O O11 0.750000 0.750042 0.140057
O O12 0.534536 0.801390 0.216617
O O13 0.476718 0.749288 0.073533
O O14 0.750000 0.441502 0.064408
O O15 0.000000 0.500000 0.061704
O O16 0.992305 0.401567 0.990997
O O17 0.250000 0.740064 0.965278
O O18 0.983464 0.697904 0.931718
O O19 0.250000 0.369161 0.927270
O O20 0.016954 0.382814 0.824596
O O21 0.750000 0.369537 0.753589
#
# Coordination Sequence:
#
# PCOD9363487 Si02
#       8
#     8   8   8   8   8   8   8   8
#     4  10  22  40  64  93 127 165 207 256 307 364
#     4  10  21  39  64  93 126 164 202 251 310 368
#     4  11  24  42  65  90 122 164 209 260 311 365
#     4  10  19  36  63  92 128 165 201 249 311 371
#     4  12  26  45  67  91 121 161 208 262 313 371
#     4  11  21  36  62  95 129 165 204 252 311 370
#     4  12  25  41  64  94 128 167 207 254 308 372
#     4  10  22  41  64  92 126 166 208 257 311 366
#
# _framework density 19.082709000000001
#
# number of rings (size 3 to 8) (size 9 to 14) (size 15 to 20)
#    0.000    1.250    2.500    3.750    0.000    5.500 
#    0.000    2.500    0.000    0.000    0.000    0.000 
#    0.000    0.000    0.000    0.000    0.000    0.000 
#
# Total GULP energy -178977.397085 kJ/mol
# GULP energy per Si atom -5593.043659 kJ/mol
# Density = 1.903928 g / cm^3
# Si number density = 19.082709 Si / 1000 Ang^3
#
#
#
# Elastic Constant Matrix: (Units=GPa)
#
#
# Indices 1 2 3 4 5 6 
#
# 1 73.3335 41.4453 53.5810 0.0000 0.0000 0.0000
# 2 41.4453 94.1290 32.9402 0.0000 0.0000 0.0000
# 3 53.5810 32.9402 128.9045 0.0000 0.0000 0.0000
# 4 0.0000 0.0000 0.0000 -6.2565 0.0000 0.0000
# 5 0.0000 0.0000 0.0000 0.0000 31.9916 0.0000
# 6 0.0000 0.0000 0.0000 0.0000 0.0000 15.9048
#
#
#
# Elastic Compliance Matrix: (Units=1/GPa)
#
#
# Indices 1 2 3 4 5 6 
#
# 1 0.023767 -0.007696 -0.007913 0.000000 0.000000 0.000000
# 2 -0.007696 0.014159 -0.000419 0.000000 0.000000 0.000000
# 3 -0.007913 -0.000419 0.011154 0.000000 0.000000 0.000000
# 4 0.000000 0.000000 0.000000 -0.159833 0.000000 0.000000
# 5 0.000000 0.000000 0.000000 0.000000 0.031258 0.000000
# 6 0.000000 0.000000 0.000000 0.000000 0.000000 0.062874
#
#
# Mechanical properties :
#
#
# Convention : Reuss Voigt Hill
#
# Bulk Modulus (GPa) = 58.73876 61.36668 60.05272
# Shear Modulus (GPa) = 236.86734 19.55469 128.21101
#
# Velocity S-wave (km/s) = 11.15330 3.20462 8.20566
# Velocity P-wave (km/s) = 14.02532 6.77649 11.01432
#
# Compressibility (1/GPa) = 0.01702453
#
# Stress axis : x y z
#
# Youngs Moduli (GPa) = 42.07529 70.62698 89.65568
#
# Poissons Ratio (x) = 0.54352 0.70940
# Poissons Ratio (y) = 0.32380 0.03759
# Poissons Ratio (z) = 0.33292 0.02962
#
# Static dielectric constant tensor:
#      x y z
#    x 1.639570 0.000000 0.000000 
#    y 0.000000 1.641750 0.000000 
#    z 0.000000 0.000000 1.646670 
# 
# From -- ./inp_files/15682.got.cif
#   From: 2010.05.17/outbox.cif.g08.bks.cpg/sg40_8_cif.got.tgz:15682.got - 2010.06.03 18:35:42.
