data_PCOD9363991
_publ_section_title
;
Structure prediction by ZEFSAII (Michael W. Deem and Ramdas Pophale) SiO2 
 PCOD9363991
Probable space group: A M A 2
;
_chemical_formula_sum "Si O2"
_cell_formula_units_Z 64
_cell_length_a 17.481567
_cell_length_b 9.477110
_cell_length_c 20.871274
_cell_angle_alpha 90.000000
_cell_angle_beta 90.000000
_cell_angle_gamma 90.000000
_cell_volume 3457.842756
_symmetry_space_group_name_H-M "A M A 2"
_symmetry_group_IT_number 40
_symmetry_cell_setting 'orthorhombic'
loop_
_space_group_symop_operation_xyz
x,y,z
-x,-y,z
1/2-x,y,z
1/2+x,-y,z
x,1/2+y,1/2+z
-x,1/2-y,1/2+z
1/2-x,1/2+y,1/2+z
1/2+x,1/2-y,1/2+z
loop_
_atom_site_type_symbol
_atom_site_label
_atom_site_fract_x
_atom_site_fract_y
_atom_site_fract_z
Si Si1 0.656968 0.005339 0.036650
Si Si2 0.409277 0.998010 0.654512
Si Si3 0.341972 0.170466 0.535433
Si Si4 0.657716 0.815862 0.917671
Si Si5 0.158633 0.670882 0.270591
Si Si6 0.409155 0.995249 0.419028
Si Si7 0.342503 0.184901 0.157352
Si Si8 0.841674 0.499990 0.780487
O O1 0.750000 0.007698 0.037423
O O2 0.631660 0.167044 0.040138
O O3 0.633160 0.911966 0.097431
O O4 0.633938 0.928144 0.971058
O O5 0.378915 0.838437 0.654218
O O6 0.500000 0.000000 0.647564
O O7 0.371930 0.082699 0.595783
O O8 0.384673 0.075082 0.720027
O O9 0.250000 0.167964 0.535608
O O10 0.371874 0.098478 0.470768
O O11 0.750000 0.798506 0.920654
O O12 0.639633 0.860480 0.844837
O O13 0.620957 0.663745 0.930690
O O14 0.250000 0.651280 0.261790
O O15 0.141995 0.837527 0.261285
O O16 0.383394 0.032785 0.346888
O O17 0.500000 0.000000 0.424661
O O18 0.250000 0.198574 0.154902
O O19 0.361971 0.104544 0.223132
O O20 0.750000 0.492598 0.791533
#
# Coordination Sequence:
#
# PCOD9363991 Si02
#       8
#     8   8   8   8   8   8   8   8
#     4   9  19  36  61  87 106 135 186 242 284 322
#     4  12  25  38  54  82 117 151 187 229 285 344
#     4  11  22  39  61  82 108 145 190 237 281 331
#     4   9  18  36  60  83 110 147 189 232 281 334
#     4   9  18  36  60  82 108 146 188 230 277 333
#     4  11  22  36  56  86 120 151 184 225 281 341
#     4  10  20  36  59  84 110 144 189 238 283 331
#     4   9  19  37  61  86 111 147 195 237 276 328
#
# _framework density 18.508648999999998
#
# number of rings (size 3 to 8) (size 9 to 14) (size 15 to 20)
#    0.000    2.000    0.000    4.875    0.000    6.000 
#    0.000    6.250    0.000    0.000    0.000    0.000 
#    0.000    0.000    0.000    0.000    0.000    0.000 
#
# Total GULP energy -178773.206554 kJ/mol
# GULP energy per Si atom -5586.662705 kJ/mol
# Density = 1.846652 g / cm^3
# Si number density = 18.508649 Si / 1000 Ang^3
#
#
#
# Elastic Constant Matrix: (Units=GPa)
#
#
# Indices 1 2 3 4 5 6 
#
# 1 61.2188 61.8759 61.4288 0.0000 0.0000 0.0000
# 2 61.8759 166.6313 127.5944 0.0000 0.0000 0.0000
# 3 61.4288 127.5944 149.1160 0.0000 0.0000 0.0000
# 4 0.0000 0.0000 0.0000 38.9697 0.0000 0.0000
# 5 0.0000 0.0000 0.0000 0.0000 -9.9989 0.0000
# 6 0.0000 0.0000 0.0000 0.0000 0.0000 -25.6823
#
#
#
# Elastic Compliance Matrix: (Units=1/GPa)
#
#
# Indices 1 2 3 4 5 6 
#
# 1 0.029067 -0.004712 -0.007943 0.000000 0.000000 0.000000
# 2 -0.004712 0.018169 -0.013606 0.000000 0.000000 0.000000
# 3 -0.007943 -0.013606 0.021621 0.000000 0.000000 0.000000
# 4 0.000000 0.000000 0.000000 0.025661 0.000000 0.000000
# 5 0.000000 0.000000 0.000000 0.000000 -0.100011 0.000000
# 6 0.000000 0.000000 0.000000 0.000000 0.000000 -0.038937
#
#
# Mechanical properties :
#
#
# Convention : Reuss Voigt Hill
#
# Bulk Modulus (GPa) = 61.21374 97.64047 79.42711
# Shear Modulus (GPa) = 369.39517 9.06216 189.22867
#
# Velocity S-wave (km/s) = 14.14260 2.21513 10.12225
# Velocity P-wave (km/s) = 17.31557 7.70785 13.40223
#
# Compressibility (1/GPa) = 0.01633620
#
# Stress axis : x y z
#
# Youngs Moduli (GPa) = 34.40336 55.03733 46.25240
#
# Poissons Ratio (x) = 0.25932 0.36736
# Poissons Ratio (y) = 0.16210 0.62932
# Poissons Ratio (z) = 0.27325 0.74884
#
# Static dielectric constant tensor:
#      x y z
#    x 1.611130 0.000000 0.000000 
#    y 0.000000 1.610870 0.000000 
#    z 0.000000 0.000000 1.624570 
# 
# From -- ./inp_files/23357.got.cif
#   From: 2010.05.17/outbox.cif.g08.bks.cpg/sg40_12_cif.got.tgz:23357.got - 2010.06.03 18:35:42.
