data_PCOD9363758
_publ_section_title
;
Structure prediction by ZEFSAII (Michael W. Deem and Ramdas Pophale) SiO2 
 PCOD9363758
Probable space group: A M A 2
;
_chemical_formula_sum "Si O2"
_cell_formula_units_Z 64
_cell_length_a 8.075445
_cell_length_b 25.875891
_cell_length_c 15.511828
_cell_angle_alpha 90.000000
_cell_angle_beta 90.000000
_cell_angle_gamma 90.000000
_cell_volume 3241.341257
_symmetry_space_group_name_H-M "A M A 2"
_symmetry_group_IT_number 40
_symmetry_cell_setting 'orthorhombic'
loop_
_space_group_symop_operation_xyz
x,y,z
-x,-y,z
1/2-x,y,z
1/2+x,-y,z
x,1/2+y,1/2+z
-x,1/2-y,1/2+z
1/2-x,1/2+y,1/2+z
1/2+x,1/2-y,1/2+z
loop_
_atom_site_type_symbol
_atom_site_label
_atom_site_fract_x
_atom_site_fract_y
_atom_site_fract_z
Si Si1 0.952707 0.350034 0.710260
Si Si2 0.049945 0.557965 0.587584
Si Si3 0.945298 0.059104 0.730126
Si Si4 0.550758 0.333163 0.905726
Si Si5 0.449376 0.281855 0.384585
Si Si6 0.945103 0.894224 0.910708
Si Si7 0.549295 0.735760 0.183964
Si Si8 0.949930 0.135987 0.584717
O O1 0.750000 0.349806 0.709576
O O2 0.008760 0.398887 0.655283
O O3 0.004403 0.350671 0.810567
O O4 0.007253 0.294691 0.671356
O O5 0.250000 0.560619 0.586001
O O6 0.988766 0.573699 0.492143
O O7 0.000000 0.500000 0.609654
O O8 0.750000 0.058711 0.719304
O O9 0.014362 0.091853 0.649366
O O10 0.981607 0.087813 0.819916
O O11 0.000000 0.000000 0.733440
O O12 0.750000 0.331403 0.903140
O O13 0.493242 0.273706 0.919824
O O14 0.497318 0.368062 0.985229
O O15 0.250000 0.284909 0.392084
O O16 0.524000 0.333360 0.424616
O O17 0.489544 0.280307 0.282379
O O18 0.750000 0.903376 0.904993
O O19 0.750000 0.736599 0.178413
O O20 0.487689 0.691359 0.120648
O O21 0.750000 0.136635 0.589816
#
# Coordination Sequence:
#
# PCOD9363758 Si02
#       8
#     8   8   8   8   8   8   8   8
#     4   8  16  34  57  77 103 142 185 220 268 331
#     4  10  22  38  56  79 105 140 185 227 270 322
#     4  11  23  40  59  80 110 151 190 228 279 336
#     4   9  19  34  56  82 112 147 183 227 275 328
#     4   9  17  33  53  78 113 150 182 215 269 331
#     4  11  22  34  54  85 114 145 185 229 274 328
#     4   8  14  29  53  77 103 141 178 212 261 324
#     4  10  20  34  56  82 111 147 184 225 276 330
#
# _framework density 19.744913
#
# number of rings (size 3 to 8) (size 9 to 14) (size 15 to 20)
#    0.000    2.500    1.250    2.625    1.750    3.500 
#    0.000    1.250    0.000    3.750    0.000    0.000 
#    0.000    0.000    0.000    0.000    0.000    0.000 
#
# Total GULP energy -178568.022516 kJ/mol
# GULP energy per Si atom -5580.250704 kJ/mol
# Density = 1.969997 g / cm^3
# Si number density = 19.744913 Si / 1000 Ang^3
#
#
#
# Elastic Constant Matrix: (Units=GPa)
#
#
# Indices 1 2 3 4 5 6 
#
# 1 9.1532 5.7677 4.7634 0.0000 0.0000 0.0000
# 2 5.7677 118.5434 50.8897 0.0000 0.0000 0.0000
# 3 4.7634 50.8897 79.8121 0.0000 0.0000 0.0000
# 4 0.0000 0.0000 0.0000 31.2918 0.0000 0.0000
# 5 0.0000 0.0000 0.0000 0.0000 9.1111 0.0000
# 6 0.0000 0.0000 0.0000 0.0000 0.0000 35.6067
#
#
#
# Elastic Compliance Matrix: (Units=1/GPa)
#
#
# Indices 1 2 3 4 5 6 
#
# 1 0.113866 -0.003611 -0.004493 0.000000 0.000000 0.000000
# 2 -0.003611 0.011730 -0.007263 0.000000 0.000000 0.000000
# 3 -0.004493 -0.007263 0.017429 0.000000 0.000000 0.000000
# 4 0.000000 0.000000 0.000000 0.031957 0.000000 0.000000
# 5 0.000000 0.000000 0.000000 0.000000 0.109756 0.000000
# 6 0.000000 0.000000 0.000000 0.000000 0.000000 0.028085
#
#
# Mechanical properties :
#
#
# Convention : Reuss Voigt Hill
#
# Bulk Modulus (GPa) = 8.90563 36.70556 22.80559
# Shear Modulus (GPa) = 13.12380 24.94112 19.03246
#
# Velocity S-wave (km/s) = 2.58091 3.55796 3.10807
# Velocity P-wave (km/s) = 3.66082 5.95895 4.94523
#
# Compressibility (1/GPa) = 0.11228854
#
# Stress axis : x y z
#
# Youngs Moduli (GPa) = 8.78227 85.25461 57.37588
#
# Poissons Ratio (x) = 0.30787 0.25780
# Poissons Ratio (y) = 0.03171 0.41675
# Poissons Ratio (z) = 0.03946 0.61924
#
# Static dielectric constant tensor:
#      x y z
#    x 1.702790 0.000000 0.000000 
#    y 0.000000 1.719390 0.000000 
#    z 0.000000 0.000000 1.702520 
# 
# From -- ./inp_files/15609.got.cif
#   From: 2010.05.17/outbox.cif.g08.bks.cpg/sg40_8_cif.got.tgz:15609.got - 2010.06.03 18:35:42.
