data_PCOD9363429
_publ_section_title
;
Structure prediction by ZEFSAII (Michael W. Deem and Ramdas Pophale) SiO2 
 PCOD9363429
Probable space group: A M A 2
;
_chemical_formula_sum "Si O2"
_cell_formula_units_Z 60
_cell_length_a 19.199457
_cell_length_b 22.416865
_cell_length_c 5.846441
_cell_angle_alpha 90.000000
_cell_angle_beta 90.000000
_cell_angle_gamma 90.000000
_cell_volume 2516.259305
_symmetry_space_group_name_H-M "A M A 2"
_symmetry_group_IT_number 40
_symmetry_cell_setting 'orthorhombic'
loop_
_space_group_symop_operation_xyz
x,y,z
-x,-y,z
1/2-x,y,z
1/2+x,-y,z
x,1/2+y,1/2+z
-x,1/2-y,1/2+z
1/2-x,1/2+y,1/2+z
1/2+x,1/2-y,1/2+z
loop_
_atom_site_type_symbol
_atom_site_label
_atom_site_fract_x
_atom_site_fract_y
_atom_site_fract_z
Si Si1 0.891192 0.870972 0.433390
Si Si2 0.750000 0.023776 0.055919
Si Si3 0.978685 0.422140 0.553987
Si Si4 0.511749 0.804732 0.775027
Si Si5 0.645372 0.743341 0.306211
Si Si6 0.384772 0.931077 0.326314
Si Si7 0.864623 0.708406 0.816374
Si Si8 0.872241 0.976322 0.725722
O O1 0.919401 0.915657 0.244000
O O2 0.958441 0.841661 0.558981
O O3 0.849938 0.814573 0.336661
O O4 0.849878 0.914594 0.600803
O O5 0.688656 0.052777 0.216434
O O6 0.811327 0.995907 0.891570
O O7 0.990032 0.353901 0.473282
O O8 0.950392 0.554702 0.663707
O O9 0.943384 0.456428 0.347126
O O10 0.435631 0.776532 0.776774
O O11 0.569855 0.753921 0.806539
O O12 0.667061 0.715687 0.556038
O O13 0.674321 0.725559 0.055146
O O14 0.385669 0.859866 0.354842
O O15 0.388952 0.968820 0.557918
#
# Coordination Sequence:
#
# PCOD9363429 Si02
#       8
#     8   4   8   8   8   8   8   8
#     4  10  22  38  69 109 155 194 250 315 401 473
#     4  12  30  54  74  98 152 224 288 328 402 478
#     4  11  22  44  76 113 154 188 252 337 400 481
#     4  10  19  35  63 113 151 196 226 307 394 477
#     4  11  20  36  64 111 153 195 236 308 395 480
#     4  12  27  49  76 113 154 211 263 338 400 495
#     4  11  22  37  70 107 157 194 246 304 399 478
#     4  11  28  49  75 109 152 207 270 333 401 476
#
# _framework density 23.844918
#
# number of rings (size 3 to 8) (size 9 to 14) (size 15 to 20)
#    0.000    1.067    2.667    4.400    1.867    5.333 
#    0.000    0.000    0.000    8.000    0.000    0.000 
#    0.000    0.000    0.000    0.000    0.000    0.000 
#
# Total GULP energy -167215.457883 kJ/mol
# GULP energy per Si atom -5573.848596 kJ/mol
# Density = 2.379065 g / cm^3
# Si number density = 23.844918 Si / 1000 Ang^3
#
#
#
# Elastic Constant Matrix: (Units=GPa)
#
#
# Indices 1 2 3 4 5 6 
#
# 1 132.8583 48.2092 41.7836 0.0000 0.0000 0.0000
# 2 48.2092 150.1806 74.4859 0.0000 0.0000 0.0000
# 3 41.7836 74.4859 139.7094 0.0000 0.0000 0.0000
# 4 0.0000 0.0000 0.0000 33.2178 0.0000 0.0000
# 5 0.0000 0.0000 0.0000 0.0000 49.6713 0.0000
# 6 0.0000 0.0000 0.0000 0.0000 0.0000 51.4225
#
#
#
# Elastic Compliance Matrix: (Units=1/GPa)
#
#
# Indices 1 2 3 4 5 6 
#
# 1 0.008751 -0.002054 -0.001522 0.000000 0.000000 0.000000
# 2 -0.002054 0.009535 -0.004469 0.000000 0.000000 0.000000
# 3 -0.001522 -0.004469 0.009996 0.000000 0.000000 0.000000
# 4 0.000000 0.000000 0.000000 0.030104 0.000000 0.000000
# 5 0.000000 0.000000 0.000000 0.000000 0.020132 0.000000
# 6 0.000000 0.000000 0.000000 0.000000 0.000000 0.019447
#
#
# Mechanical properties :
#
#
# Convention : Reuss Voigt Hill
#
# Bulk Modulus (GPa) = 82.03022 83.52284 82.77653
# Shear Modulus (GPa) = 42.33044 44.08030 43.20537
#
# Velocity S-wave (km/s) = 4.21793 4.30423 4.26130
# Velocity P-wave (km/s) = 7.62873 7.73340 7.68124
#
# Compressibility (1/GPa) = 0.01219063
#
# Stress axis : x y z
#
# Youngs Moduli (GPa) = 114.27431 104.88132 100.04482
#
# Poissons Ratio (x) = 0.21545 0.15226
# Poissons Ratio (y) = 0.23475 0.44710
# Poissons Ratio (z) = 0.17392 0.46871
#
# Static dielectric constant tensor:
#      x y z
#    x 1.869530 0.000000 0.000000 
#    y 0.000000 1.932590 0.000000 
#    z 0.000000 0.000000 2.038210 
# 
# From -- ./inp_files/2818.got.cif
#   From: 2010.05.17/outbox.cif.g08.bks.cpg/sg40_2_cif.got.tgz:2818.got - 2010.06.03 18:35:42.
