data_PCOD9363099
_publ_section_title
;
Structure prediction by ZEFSAII (Michael W. Deem and Ramdas Pophale) SiO2 
 PCOD9363099
Probable space group: A M A 2
;
_chemical_formula_sum "Si O2"
_cell_formula_units_Z 64
_cell_length_a 8.852600
_cell_length_b 20.087581
_cell_length_c 20.926862
_cell_angle_alpha 90.000000
_cell_angle_beta 90.000000
_cell_angle_gamma 90.000000
_cell_volume 3721.367776
_symmetry_space_group_name_H-M "A M A 2"
_symmetry_group_IT_number 40
_symmetry_cell_setting 'orthorhombic'
loop_
_space_group_symop_operation_xyz
x,y,z
-x,-y,z
1/2-x,y,z
1/2+x,-y,z
x,1/2+y,1/2+z
-x,1/2-y,1/2+z
1/2-x,1/2+y,1/2+z
1/2+x,1/2-y,1/2+z
loop_
_atom_site_type_symbol
_atom_site_label
_atom_site_fract_x
_atom_site_fract_y
_atom_site_fract_z
Si Si1 0.070547 0.206883 0.913320
Si Si2 0.930712 0.788589 0.297769
Si Si3 0.569058 0.570499 0.366640
Si Si4 0.931096 0.430943 0.744702
Si Si5 0.430848 0.931067 0.102913
Si Si6 0.069773 0.288374 0.546653
Si Si7 0.067868 0.788457 0.665959
Si Si8 0.069227 0.430432 0.215700
O O1 0.250000 0.202146 0.913299
O O2 0.014996 0.254143 0.856074
O O3 0.999035 0.134029 0.901655
O O4 0.010056 0.231970 0.981275
O O5 0.750000 0.781309 0.307704
O O6 0.965882 0.866256 0.286905
O O7 0.966895 0.751200 0.231304
O O8 0.500000 0.500000 0.387706
O O9 0.750000 0.569701 0.373555
O O10 0.531607 0.578304 0.290955
O O11 0.750000 0.436270 0.738752
O O12 0.000000 0.500000 0.769658
O O13 0.000380 0.421286 0.673861
O O14 0.250000 0.937385 0.107794
O O15 0.466753 0.865769 0.062086
O O16 0.500000 0.000000 0.077430
O O17 0.250000 0.282822 0.540500
O O18 0.011923 0.245526 0.606302
O O19 0.250000 0.785578 0.657585
O O20 0.021509 0.864934 0.677440
O O21 0.250000 0.434617 0.212185
O O22 0.000000 0.500000 0.193674
#
# Coordination Sequence:
#
# PCOD9363099 Si02
#       8
#     8   8   8   8   8   8   8   8
#     4  12  25  38  56  81 111 151 192 235 281 335
#     4  10  20  37  59  82 112 149 184 229 282 331
#     4  10  19  35  55  80 114 151 189 229 275 330
#     4  10  19  32  55  83 113 146 179 224 278 328
#     4  10  20  33  52  78 109 146 185 225 268 321
#     4  11  24  39  55  79 112 149 188 235 281 331
#     4  10  19  36  59  83 111 146 185 227 279 332
#     4   9  18  32  54  82 112 144 178 224 274 324
#
# _framework density 17.197977999999999
#
# number of rings (size 3 to 8) (size 9 to 14) (size 15 to 20)
#    0.000    1.750    2.500    3.375    0.000    4.500 
#    0.000    1.250    0.000    0.750    0.000    5.250 
#    0.000    0.000    0.000    0.000    0.000    0.000 
#
# Total GULP energy -178730.424187 kJ/mol
# GULP energy per Si atom -5585.325756 kJ/mol
# Density = 1.715883 g / cm^3
# Si number density = 17.197978 Si / 1000 Ang^3
#
#
#
# Elastic Constant Matrix: (Units=GPa)
#
#
# Indices 1 2 3 4 5 6 
#
# 1 61.2133 45.6755 46.2837 0.0000 0.0000 0.0000
# 2 45.6755 118.4628 54.6190 0.0000 0.0000 0.0000
# 3 46.2837 54.6190 95.8740 0.0000 0.0000 0.0000
# 4 0.0000 0.0000 0.0000 17.3650 0.0000 0.0000
# 5 0.0000 0.0000 0.0000 0.0000 16.4785 0.0000
# 6 0.0000 0.0000 0.0000 0.0000 0.0000 28.2338
#
#
#
# Elastic Compliance Matrix: (Units=1/GPa)
#
#
# Indices 1 2 3 4 5 6 
#
# 1 0.028900 -0.006388 -0.010312 0.000000 0.000000 0.000000
# 2 -0.006388 0.012861 -0.004243 0.000000 0.000000 0.000000
# 3 -0.010312 -0.004243 0.017826 0.000000 0.000000 0.000000
# 4 0.000000 0.000000 0.000000 0.057587 0.000000 0.000000
# 5 0.000000 0.000000 0.000000 0.000000 0.060685 0.000000
# 6 0.000000 0.000000 0.000000 0.000000 0.000000 0.035418
#
#
# Mechanical properties :
#
#
# Convention : Reuss Voigt Hill
#
# Bulk Modulus (GPa) = 56.49725 63.18962 59.84344
# Shear Modulus (GPa) = 19.15235 21.01360 20.08297
#
# Velocity S-wave (km/s) = 3.34074 3.49931 3.42095
# Velocity P-wave (km/s) = 6.91398 7.29034 7.10466
#
# Compressibility (1/GPa) = 0.01769998
#
# Stress axis : x y z
#
# Youngs Moduli (GPa) = 34.60165 77.75571 56.09865
#
# Poissons Ratio (x) = 0.49674 0.57851
# Poissons Ratio (y) = 0.22105 0.23801
# Poissons Ratio (z) = 0.35682 0.32989
#
# Static dielectric constant tensor:
#      x y z
#    x 1.572120 0.000000 0.000000 
#    y 0.000000 1.588080 0.000000 
#    z 0.000000 0.000000 1.565150 
# 
# From -- ./inp_files/19652.got.cif
#   From: 2010.05.17/outbox.cif.g08.bks.cpg/sg40_10_cif.got.tgz:19652.got - 2010.06.03 18:35:42.
