data_PCOD9363183
_publ_section_title
;
Structure prediction by ZEFSAII (Michael W. Deem and Ramdas Pophale) SiO2 
 PCOD9363183
Probable space group: A M A 2
;
_chemical_formula_sum "Si O2"
_cell_formula_units_Z 64
_cell_length_a 9.129799
_cell_length_b 16.560970
_cell_length_c 22.272822
_cell_angle_alpha 90.000000
_cell_angle_beta 90.000000
_cell_angle_gamma 90.000000
_cell_volume 3367.613432
_symmetry_space_group_name_H-M "A M A 2"
_symmetry_group_IT_number 40
_symmetry_cell_setting 'orthorhombic'
loop_
_space_group_symop_operation_xyz
x,y,z
-x,-y,z
1/2-x,y,z
1/2+x,-y,z
x,1/2+y,1/2+z
-x,1/2-y,1/2+z
1/2-x,1/2+y,1/2+z
1/2+x,1/2-y,1/2+z
loop_
_atom_site_type_symbol
_atom_site_label
_atom_site_fract_x
_atom_site_fract_y
_atom_site_fract_z
Si Si1 0.080821 0.583599 0.811930
Si Si2 0.423029 0.423990 0.001439
Si Si3 0.084380 0.795357 0.087933
Si Si4 0.575846 0.258536 0.465424
Si Si5 0.426979 0.416852 0.253669
Si Si6 0.417734 0.080452 0.167298
Si Si7 0.926843 0.232847 0.842284
Si Si8 0.082279 0.110341 0.626130
O O1 0.250000 0.577435 0.832014
O O2 0.078142 0.585171 0.739305
O O3 0.025564 0.673828 0.829129
O O4 0.000000 0.500000 0.829539
O O5 0.500000 0.500000 0.970663
O O6 0.250000 0.436720 0.005781
O O7 0.494609 0.417857 0.067422
O O8 0.449682 0.338495 0.969606
O O9 0.250000 0.824439 0.078353
O O10 0.091408 0.705638 0.114555
O O11 0.000157 0.846753 0.136741
O O12 0.997813 0.793687 0.025268
O O13 0.750000 0.272015 0.465523
O O14 0.500531 0.289972 0.405245
O O15 0.500000 0.500000 0.278124
O O16 0.250000 0.424662 0.251118
O O17 0.461701 0.335874 0.292499
O O18 0.495371 0.406677 0.187145
O O19 0.250000 0.079076 0.148262
O O20 0.500000 0.000000 0.148358
O O21 0.750000 0.234471 0.847124
O O22 0.250000 0.078339 0.628584
#
# Coordination Sequence:
#
# PCOD9363183 Si02
#       8
#     8   8   8   8   8   8   8   8
#     4   9  19  35  56  84 116 149 183 222 272 330
#     4  10  20  34  53  79 111 144 177 217 268 326
#     4  10  20  35  56  81 109 142 180 223 274 329
#     4  10  22  38  56  78 104 139 184 230 273 322
#     4  11  23  39  59  83 112 147 187 232 282 334
#     4  10  19  33  54  81 113 144 178 222 272 328
#     4  10  22  40  59  79 109 149 189 231 279 329
#     4  10  20  34  55  83 113 144 178 221 273 330
#
# _framework density 19.004556999999998
#
# number of rings (size 3 to 8) (size 9 to 14) (size 15 to 20)
#    0.000    2.000    0.000    3.375    0.000    6.500 
#    0.000    3.125    0.000    1.500    0.000    0.000 
#    0.000    0.000    0.000    0.000    0.000    0.000 
#
# Total GULP energy -178571.445895 kJ/mol
# GULP energy per Si atom -5580.357684 kJ/mol
# Density = 1.896130 g / cm^3
# Si number density = 19.004557 Si / 1000 Ang^3
#
#
#
# Elastic Constant Matrix: (Units=GPa)
#
#
# Indices 1 2 3 4 5 6 
#
# 1 78.7821 33.1487 38.7825 0.0000 0.0000 0.0000
# 2 33.1487 73.8027 31.6563 0.0000 0.0000 0.0000
# 3 38.7825 31.6563 74.2550 0.0000 0.0000 0.0000
# 4 0.0000 0.0000 0.0000 -1.6892 0.0000 0.0000
# 5 0.0000 0.0000 0.0000 0.0000 31.4677 0.0000
# 6 0.0000 0.0000 0.0000 0.0000 0.0000 32.6996
#
#
#
# Elastic Compliance Matrix: (Units=1/GPa)
#
#
# Indices 1 2 3 4 5 6 
#
# 1 0.018536 -0.005107 -0.007504 0.000000 0.000000 0.000000
# 2 -0.005107 0.017989 -0.005002 0.000000 0.000000 0.000000
# 3 -0.007504 -0.005002 0.019519 0.000000 0.000000 0.000000
# 4 0.000000 0.000000 0.000000 -0.592004 0.000000 0.000000
# 5 0.000000 0.000000 0.000000 0.000000 0.031779 0.000000
# 6 0.000000 0.000000 0.000000 0.000000 0.000000 0.030581
#
#
# Mechanical properties :
#
#
# Convention : Reuss Voigt Hill
#
# Bulk Modulus (GPa) = 48.03443 48.22386 48.12915
# Shear Modulus (GPa) = -11.58922 20.71246 4.56162
#
# Velocity S-wave (km/s) = -2.47212 3.30490 1.55096
# Velocity P-wave (km/s) = 4.14507 6.32401 5.34671
#
# Compressibility (1/GPa) = 0.02081840
#
# Stress axis : x y z
#
# Youngs Moduli (GPa) = 53.94897 55.59027 51.23299
#
# Poissons Ratio (x) = 0.28389 0.38445
# Poissons Ratio (y) = 0.27551 0.25625
# Poissons Ratio (z) = 0.40483 0.27805
#
# Static dielectric constant tensor:
#      x y z
#    x 1.633530 0.000000 0.000000 
#    y 0.000000 1.721600 0.000000 
#    z 0.000000 0.000000 1.629170 
# 
# From -- ./inp_files/22388.got.cif
#   From: 2010.05.17/outbox.cif.g08.bks.cpg/sg40_12_cif.got.tgz:22388.got - 2010.06.03 18:35:42.
