data_PCOD9363671
_publ_section_title
;
Structure prediction by ZEFSAII (Michael W. Deem and Ramdas Pophale) SiO2 
 PCOD9363671
Probable space group: A M A 2
;
_chemical_formula_sum "Si O2"
_cell_formula_units_Z 64
_cell_length_a 8.720068
_cell_length_b 20.047649
_cell_length_c 21.119142
_cell_angle_alpha 90.000000
_cell_angle_beta 90.000000
_cell_angle_gamma 90.000000
_cell_volume 3691.982144
_symmetry_space_group_name_H-M "A M A 2"
_symmetry_group_IT_number 40
_symmetry_cell_setting 'orthorhombic'
loop_
_space_group_symop_operation_xyz
x,y,z
-x,-y,z
1/2-x,y,z
1/2+x,-y,z
x,1/2+y,1/2+z
-x,1/2-y,1/2+z
1/2-x,1/2+y,1/2+z
1/2+x,1/2-y,1/2+z
loop_
_atom_site_type_symbol
_atom_site_label
_atom_site_fract_x
_atom_site_fract_y
_atom_site_fract_z
Si Si1 0.433649 0.292479 0.474430
Si Si2 0.566427 0.207820 0.589626
Si Si3 0.067165 0.570628 0.284970
Si Si4 0.066800 0.430000 0.663860
Si Si5 0.565873 0.707309 0.332776
Si Si6 0.433663 0.070720 0.021674
Si Si7 0.435087 0.203944 0.213523
Si Si8 0.566459 0.928886 0.635990
O O1 0.250000 0.296601 0.480938
O O2 0.499343 0.244875 0.528654
O O3 0.471631 0.268887 0.403446
O O4 0.503968 0.365959 0.484025
O O5 0.750000 0.205728 0.585476
O O6 0.526217 0.250824 0.652332
O O7 0.501031 0.133913 0.599041
O O8 0.250000 0.568396 0.289278
O O9 0.023869 0.578559 0.210538
O O10 0.000000 0.500000 0.307148
O O11 0.003996 0.634554 0.321046
O O12 0.250000 0.433614 0.657984
O O13 0.000000 0.500000 0.688518
O O14 0.993535 0.421033 0.593888
O O15 0.015052 0.367054 0.704889
O O16 0.750000 0.701076 0.328245
O O17 0.517171 0.756991 0.276803
O O18 0.250000 0.069248 0.021445
O O19 0.500000 0.000000 0.998497
O O20 0.250000 0.195194 0.214152
O O21 0.750000 0.929397 0.631651
O O22 0.500000 0.000000 0.614708
#
# Coordination Sequence:
#
# PCOD9363671 Si02
#       8
#     8   8   8   8   8   8   8   8
#     4  11  23  38  56  80 111 148 188 228 276 329
#     4  11  21  35  59  84 112 146 183 230 279 328
#     4  10  20  33  53  79 111 148 186 227 269 324
#     4  11  21  34  56  84 114 144 181 227 276 328
#     4  10  22  39  57  78 110 149 186 229 274 325
#     4  11  21  35  54  78 110 148 187 228 272 324
#     4  10  20  36  58  83 111 144 185 227 276 326
#     4  10  20  34  55  84 115 145 184 230 278 328
#
# _framework density 17.334862000000001
#
# number of rings (size 3 to 8) (size 9 to 14) (size 15 to 20)
#    0.000    1.500    2.500    4.500    0.000    3.500 
#    0.000    0.000    0.000    0.750    0.000    3.500 
#    0.000    0.000    0.000    0.000    0.000    0.000 
#
# Total GULP energy -178801.212407 kJ/mol
# GULP energy per Si atom -5587.537888 kJ/mol
# Density = 1.729541 g / cm^3
# Si number density = 17.334862 Si / 1000 Ang^3
#
#
#
# Elastic Constant Matrix: (Units=GPa)
#
#
# Indices 1 2 3 4 5 6 
#
# 1 69.4863 51.7439 49.1031 0.0000 0.0000 0.0000
# 2 51.7439 135.1795 69.1326 0.0000 0.0000 0.0000
# 3 49.1031 69.1326 109.6700 0.0000 0.0000 0.0000
# 4 0.0000 0.0000 0.0000 22.3258 0.0000 0.0000
# 5 0.0000 0.0000 0.0000 0.0000 20.9867 0.0000
# 6 0.0000 0.0000 0.0000 0.0000 0.0000 34.3418
#
#
#
# Elastic Compliance Matrix: (Units=1/GPa)
#
#
# Indices 1 2 3 4 5 6 
#
# 1 0.023374 -0.005305 -0.007121 0.000000 0.000000 0.000000
# 2 -0.005305 0.012121 -0.005265 0.000000 0.000000 0.000000
# 3 -0.007121 -0.005265 0.015626 0.000000 0.000000 0.000000
# 4 0.000000 0.000000 0.000000 0.044791 0.000000 0.000000
# 5 0.000000 0.000000 0.000000 0.000000 0.047649 0.000000
# 6 0.000000 0.000000 0.000000 0.000000 0.000000 0.029119
#
#
# Mechanical properties :
#
#
# Convention : Reuss Voigt Hill
#
# Bulk Modulus (GPa) = 63.54290 72.69945 68.12118
# Shear Modulus (GPa) = 23.44002 25.15459 24.29731
#
# Velocity S-wave (km/s) = 3.68120 3.81346 3.74792
# Velocity P-wave (km/s) = 7.40298 7.83705 7.62310
#
# Compressibility (1/GPa) = 0.01573740
#
# Stress axis : x y z
#
# Youngs Moduli (GPa) = 42.78216 82.50052 63.99667
#
# Poissons Ratio (x) = 0.43769 0.45573
# Poissons Ratio (y) = 0.22697 0.33697
# Poissons Ratio (z) = 0.30466 0.43440
#
# Static dielectric constant tensor:
#      x y z
#    x 1.576950 0.000000 0.000000 
#    y 0.000000 1.572480 0.000000 
#    z 0.000000 0.000000 1.591150 
# 
# From -- ./inp_files/19638.got.cif
#   From: 2010.05.17/outbox.cif.g08.bks.cpg/sg40_10_cif.got.tgz:19638.got - 2010.06.03 18:35:42.
