data_PCOD9363458
_publ_section_title
;
Structure prediction by ZEFSAII (Michael W. Deem and Ramdas Pophale) SiO2 
 PCOD9363458
Probable space group: A M A 2
;
_chemical_formula_sum "Si O2"
_cell_formula_units_Z 48
_cell_length_a 15.456141
_cell_length_b 10.910291
_cell_length_c 12.929357
_cell_angle_alpha 90.000000
_cell_angle_beta 90.000000
_cell_angle_gamma 90.000000
_cell_volume 2180.290349
_symmetry_space_group_name_H-M "A M A 2"
_symmetry_group_IT_number 40
_symmetry_cell_setting 'orthorhombic'
loop_
_space_group_symop_operation_xyz
x,y,z
-x,-y,z
1/2-x,y,z
1/2+x,-y,z
x,1/2+y,1/2+z
-x,1/2-y,1/2+z
1/2-x,1/2+y,1/2+z
1/2+x,1/2-y,1/2+z
loop_
_atom_site_type_symbol
_atom_site_label
_atom_site_fract_x
_atom_site_fract_y
_atom_site_fract_z
Si Si1 0.750000 0.086947 0.030070
Si Si2 0.750000 0.586946 0.851570
Si Si3 0.074551 0.313645 0.304380
Si Si4 0.250000 0.693310 0.513911
Si Si5 0.437604 0.390704 0.535039
Si Si6 0.937604 0.109296 0.346600
Si Si7 0.250000 0.693310 0.867728
Si Si8 0.925449 0.686354 0.077260
O O1 0.656868 0.095605 0.081942
O O2 0.750000 0.948958 0.982248
O O3 0.750000 0.208519 0.959696
O O4 0.843132 0.595605 0.799697
O O5 0.750000 0.448958 0.899392
O O6 0.750000 0.708519 0.921943
O O7 0.076047 0.393406 0.409334
O O8 0.160230 0.226976 0.310240
O O9 0.075220 0.374008 0.190820
O O10 0.988152 0.232326 0.316856
O O11 0.160230 0.726977 0.571400
O O12 0.500000 0.500000 0.564832
O O13 0.488152 0.267674 0.564783
O O14 0.923953 0.106594 0.472305
O O15 0.000000 0.000000 0.316807
#
# Coordination Sequence:
#
# PCOD9363458 Si02
#       8
#     4   4   8   4   8   8   4   8
#     4  10  20  36  58  86 115 151 195 235 287 349
#     4  10  20  36  58  86 115 151 195 235 287 349
#     4  10  21  36  57  87 116 149 197 238 284 346
#     4  10  19  36  60  86 116 157 188 239 287 343
#     4  10  20  37  59  80 114 157 188 240 293 337
#     4  10  20  37  59  80 114 157 188 240 293 337
#     4  10  19  36  60  86 116 157 188 239 287 343
#     4  10  21  36  57  87 116 149 197 238 284 346
#
# _framework density 22.015415999999998
#
# number of rings (size 3 to 8) (size 9 to 14) (size 15 to 20)
#    0.000    2.000    3.333    0.500    0.000    1.333 
#    0.000    0.833    0.000    0.000    0.000    0.000 
#    0.000    0.000    0.000    0.000    0.000    0.000 
#
# Total GULP energy -133731.454048 kJ/mol
# GULP energy per Si atom -5572.143919 kJ/mol
# Density = 2.196531 g / cm^3
# Si number density = 22.015416 Si / 1000 Ang^3
#
#
#
# Elastic Constant Matrix: (Units=GPa)
#
#
# Indices 1 2 3 4 5 6 
#
# 1 222.9119 27.3726 17.5808 0.0000 0.0000 0.0000
# 2 27.3726 72.9659 22.6409 0.0000 0.0000 0.0000
# 3 17.5808 22.6409 156.3788 0.0000 0.0000 0.0000
# 4 0.0000 0.0000 0.0000 -9.0211 0.0000 0.0000
# 5 0.0000 0.0000 0.0000 0.0000 -37.1720 0.0000
# 6 0.0000 0.0000 0.0000 0.0000 0.0000 40.0239
#
#
#
# Elastic Compliance Matrix: (Units=1/GPa)
#
#
# Indices 1 2 3 4 5 6 
#
# 1 0.004715 -0.001680 -0.000287 0.000000 0.000000 0.000000
# 2 -0.001680 0.014948 -0.001975 0.000000 0.000000 0.000000
# 3 -0.000287 -0.001975 0.006713 0.000000 0.000000 0.000000
# 4 0.000000 0.000000 0.000000 -0.110852 0.000000 0.000000
# 5 0.000000 0.000000 0.000000 0.000000 -0.026902 0.000000
# 6 0.000000 0.000000 0.000000 0.000000 0.000000 0.024985
#
#
# Mechanical properties :
#
#
# Convention : Reuss Voigt Hill
#
# Bulk Modulus (GPa) = 54.07734 65.27170 59.67452
# Shear Modulus (GPa) = -69.11396 24.41031 -22.35183
#
# Velocity S-wave (km/s) = -5.60906 3.33345 -3.18980
# Velocity P-wave (km/s) = 4.16318 6.67296 3.68757
#
# Compressibility (1/GPa) = 0.01849203
#
# Stress axis : x y z
#
# Youngs Moduli (GPa) = 212.09036 66.89800 148.96514
#
# Poissons Ratio (x) = 0.11237 0.04273
# Poissons Ratio (y) = 0.35626 0.29426
# Poissons Ratio (z) = 0.06084 0.13215
#
# Static dielectric constant tensor:
#      x y z
#    x 1.831950 0.000000 0.000000 
#    y 0.000000 1.747710 0.000000 
#    z 0.000000 0.000000 1.849890 
# 
# From -- ./inp_files/12971.got.cif
#   From: 2010.05.17/outbox.cif.g08.bks.cpg/sg40_7_cif.got.tgz:12971.got - 2010.06.03 18:35:42.
