data_PCOD9363054
_publ_section_title
;
Structure prediction by ZEFSAII (Michael W. Deem and Ramdas Pophale) SiO2 
 PCOD9363054
Probable space group: A M A 2
;
_chemical_formula_sum "Si O2"
_cell_formula_units_Z 64
_cell_length_a 8.996451
_cell_length_b 26.610062
_cell_length_c 14.511933
_cell_angle_alpha 90.000000
_cell_angle_beta 90.000000
_cell_angle_gamma 90.000000
_cell_volume 3474.100438
_symmetry_space_group_name_H-M "A M A 2"
_symmetry_group_IT_number 40
_symmetry_cell_setting 'orthorhombic'
loop_
_space_group_symop_operation_xyz
x,y,z
-x,-y,z
1/2-x,y,z
1/2+x,-y,z
x,1/2+y,1/2+z
-x,1/2-y,1/2+z
1/2-x,1/2+y,1/2+z
1/2+x,1/2-y,1/2+z
loop_
_atom_site_type_symbol
_atom_site_label
_atom_site_fract_x
_atom_site_fract_y
_atom_site_fract_z
Si Si1 0.429475 0.447734 0.604910
Si Si2 0.926308 0.221232 0.849163
Si Si3 0.574600 0.410054 0.786534
Si Si4 0.076570 0.052742 0.498208
Si Si5 0.069892 0.837031 0.030297
Si Si6 0.585664 0.143776 0.564150
Si Si7 0.428274 0.739150 0.149651
Si Si8 0.583093 0.181159 0.362099
O O1 0.500000 0.500000 0.567764
O O2 0.250000 0.451223 0.603814
O O3 0.490307 0.441506 0.709044
O O4 0.473961 0.394226 0.556638
O O5 0.750000 0.216610 0.833822
O O6 0.012009 0.228069 0.752677
O O7 0.971099 0.274947 0.890847
O O8 0.973068 0.180300 0.926147
O O9 0.750000 0.405870 0.765472
O O10 0.561042 0.432653 0.889446
O O11 0.495157 0.355612 0.789950
O O12 0.250000 0.050208 0.516224
O O13 0.004647 0.092608 0.568118
O O14 0.000000 0.000000 0.511201
O O15 0.250000 0.836445 0.032644
O O16 0.023039 0.792100 0.101309
O O17 0.750000 0.141888 0.607164
O O18 0.496557 0.191959 0.596709
O O19 0.603795 0.150421 0.455012
O O20 0.250000 0.737986 0.146710
O O21 0.750000 0.197168 0.331956
#
# Coordination Sequence:
#
# PCOD9363054 Si02
#       8
#     8   8   8   8   8   8   8   8
#     4  11  22  38  57  80 111 151 195 244 297 351
#     4  11  21  36  57  82 111 149 192 235 285 347
#     4  10  20  33  52  80 112 151 193 235 284 344
#     4  10  20  33  51  76 109 149 192 236 287 344
#     4   9  21  39  59  81 115 155 191 234 293 354
#     4  10  20  34  53  78 110 147 185 228 278 338
#     4  11  21  37  59  86 116 150 189 237 295 353
#     4  10  19  32  51  79 113 148 183 227 280 335
#
# _framework density 18.422035000000001
#
# number of rings (size 3 to 8) (size 9 to 14) (size 15 to 20)
#    0.000    1.750    1.250    3.750    0.000    4.500 
#    0.000    4.375    0.000    0.750    0.000    3.500 
#    0.000    0.000    0.000    0.000    0.000    0.000 
#
# Total GULP energy -178229.678024 kJ/mol
# GULP energy per Si atom -5569.677438 kJ/mol
# Density = 1.838011 g / cm^3
# Si number density = 18.422035 Si / 1000 Ang^3
#
#
#
# Elastic Constant Matrix: (Units=GPa)
#
#
# Indices 1 2 3 4 5 6 
#
# 1 84.0413 54.7271 34.6592 0.0000 0.0000 0.0000
# 2 54.7271 130.9767 41.7385 0.0000 0.0000 0.0000
# 3 34.6592 41.7385 64.0593 0.0000 0.0000 0.0000
# 4 0.0000 0.0000 0.0000 29.6093 0.0000 0.0000
# 5 0.0000 0.0000 0.0000 0.0000 19.9054 0.0000
# 6 0.0000 0.0000 0.0000 0.0000 0.0000 30.4847
#
#
#
# Elastic Compliance Matrix: (Units=1/GPa)
#
#
# Indices 1 2 3 4 5 6 
#
# 1 0.018072 -0.005598 -0.006131 0.000000 0.000000 0.000000
# 2 -0.005598 0.011369 -0.004379 0.000000 0.000000 0.000000
# 3 -0.006131 -0.004379 0.021781 0.000000 0.000000 0.000000
# 4 0.000000 0.000000 0.000000 0.033773 0.000000 0.000000
# 5 0.000000 0.000000 0.000000 0.000000 0.050238 0.000000
# 6 0.000000 0.000000 0.000000 0.000000 0.000000 0.032803
#
#
# Mechanical properties :
#
#
# Convention : Reuss Voigt Hill
#
# Bulk Modulus (GPa) = 52.61137 60.14745 56.37941
# Shear Modulus (GPa) = 24.20270 25.86336 25.03303
#
# Velocity S-wave (km/s) = 3.62856 3.75098 3.69028
# Velocity P-wave (km/s) = 6.79531 7.17498 6.98772
#
# Compressibility (1/GPa) = 0.01900730
#
# Stress axis : x y z
#
# Youngs Moduli (GPa) = 55.33272 87.95538 45.91158
#
# Poissons Ratio (x) = 0.49234 0.28148
# Poissons Ratio (y) = 0.30973 0.20106
# Poissons Ratio (z) = 0.33924 0.38518
#
# Static dielectric constant tensor:
#      x y z
#    x 1.652600 0.000000 0.000000 
#    y 0.000000 1.682400 0.000000 
#    z 0.000000 0.000000 1.750490 
# 
# From -- ./inp_files/15586.got.cif
#   From: 2010.05.17/outbox.cif.g08.bks.cpg/sg40_8_cif.got.tgz:15586.got - 2010.06.03 18:35:42.
