data_PCOD9363337
_publ_section_title
;
Structure prediction by ZEFSAII (Michael W. Deem and Ramdas Pophale) SiO2 
 PCOD9363337
Probable space group: A M A 2
;
_chemical_formula_sum "Si O2"
_cell_formula_units_Z 64
_cell_length_a 16.170347
_cell_length_b 16.060595
_cell_length_c 12.786924
_cell_angle_alpha 90.000000
_cell_angle_beta 90.000000
_cell_angle_gamma 90.000000
_cell_volume 3320.833138
_symmetry_space_group_name_H-M "A M A 2"
_symmetry_group_IT_number 40
_symmetry_cell_setting 'orthorhombic'
loop_
_space_group_symop_operation_xyz
x,y,z
-x,-y,z
1/2-x,y,z
1/2+x,-y,z
x,1/2+y,1/2+z
-x,1/2-y,1/2+z
1/2-x,1/2+y,1/2+z
1/2+x,1/2-y,1/2+z
loop_
_atom_site_type_symbol
_atom_site_label
_atom_site_fract_x
_atom_site_fract_y
_atom_site_fract_z
Si Si1 0.153341 0.224190 0.887060
Si Si2 0.398686 0.000947 0.081269
Si Si3 0.906934 0.352301 0.737026
Si Si4 0.150893 0.488571 0.133995
Si Si5 0.588724 0.954912 0.855737
Si Si6 0.398519 0.380955 0.760394
Si Si7 0.348417 0.032239 0.408910
Si Si8 0.650675 0.199539 0.613982
O O1 0.250000 0.197228 0.889251
O O2 0.094548 0.144774 0.870075
O O3 0.143855 0.297130 0.801159
O O4 0.131805 0.265431 0.998690
O O5 0.375996 0.083715 0.146648
O O6 0.500000 0.000000 0.079819
O O7 0.369947 0.922696 0.150946
O O8 0.370274 0.007767 0.961792
O O9 0.868440 0.385149 0.844358
O O10 0.884037 0.260851 0.701168
O O11 0.004872 0.362266 0.747354
O O12 0.250000 0.485839 0.127657
O O13 0.129046 0.526886 0.244602
O O14 0.119298 0.393966 0.127132
O O15 0.122115 0.534562 0.028533
O O16 0.500000 0.000000 0.851430
O O17 0.387419 0.454205 0.846370
O O18 0.250000 0.017913 0.406783
O O19 0.750000 0.198719 0.622428
#
# Coordination Sequence:
#
# PCOD9363337 Si02
#       8
#     8   8   8   8   8   8   8   8
#     4  11  22  40  62  87 116 156 204 243 285 354
#     4   8  17  35  55  84 117 149 183 243 297 344
#     4  10  19  34  59  88 119 147 196 247 299 347
#     4  10  22  40  57  79 119 158 196 246 294 354
#     4  11  23  39  60  87 120 158 198 239 304 362
#     4  10  20  35  61  89 120 149 192 255 298 337
#     4  10  19  36  59  86 118 155 199 247 295 351
#     4  10  20  37  60  85 115 157 202 239 286 355
#
# _framework density 19.272272000000001
#
# number of rings (size 3 to 8) (size 9 to 14) (size 15 to 20)
#    0.000    2.000    2.500    2.250    1.750    1.000 
#    0.000    3.125    0.000    1.500    0.000    0.000 
#    0.000    0.000    0.000    0.000    0.000    0.000 
#
# Total GULP energy -178523.812500 kJ/mol
# GULP energy per Si atom -5578.869141 kJ/mol
# Density = 1.922841 g / cm^3
# Si number density = 19.272272 Si / 1000 Ang^3
#
#
#
# Elastic Constant Matrix: (Units=GPa)
#
#
# Indices 1 2 3 4 5 6 
#
# 1 13.0358 -1.5129 9.1264 0.0000 0.0000 0.0000
# 2 -1.5129 44.7549 43.8323 0.0000 0.0000 0.0000
# 3 9.1264 43.8323 160.5603 0.0000 0.0000 0.0000
# 4 0.0000 0.0000 0.0000 19.5531 0.0000 0.0000
# 5 0.0000 0.0000 0.0000 0.0000 16.3773 0.0000
# 6 0.0000 0.0000 0.0000 0.0000 0.0000 23.0455
#
#
#
# Elastic Compliance Matrix: (Units=1/GPa)
#
#
# Indices 1 2 3 4 5 6 
#
# 1 0.083139 0.010154 -0.007498 0.000000 0.000000 0.000000
# 2 0.010154 0.031738 -0.009242 0.000000 0.000000 0.000000
# 3 -0.007498 -0.009242 0.009177 0.000000 0.000000 0.000000
# 4 0.000000 0.000000 0.000000 0.051143 0.000000 0.000000
# 5 0.000000 0.000000 0.000000 0.000000 0.061060 0.000000
# 6 0.000000 0.000000 0.000000 0.000000 0.000000 0.043392
#
#
# Mechanical properties :
#
#
# Convention : Reuss Voigt Hill
#
# Bulk Modulus (GPa) = 9.01848 35.69361 22.35605
# Shear Modulus (GPa) = 15.16152 22.92220 19.04186
#
# Velocity S-wave (km/s) = 2.80786 3.45249 3.14673
# Velocity P-wave (km/s) = 3.89895 5.86974 4.98275
#
# Compressibility (1/GPa) = 0.11088338
#
# Stress axis : x y z
#
# Youngs Moduli (GPa) = 12.02804 31.50774 108.96499
#
# Poissons Ratio (x) = -0.31991 0.81697
# Poissons Ratio (y) = -0.12213 1.00700
# Poissons Ratio (z) = 0.09018 0.29118
#
# Static dielectric constant tensor:
#      x y z
#    x 1.678780 0.000000 0.000000 
#    y 0.000000 1.663950 0.000000 
#    z 0.000000 0.000000 1.688800 
# 
# From -- ./inp_files/13234.got.cif
#   From: 2010.05.17/outbox.cif.g08.bks.cpg/sg40_7_cif.got.tgz:13234.got - 2010.06.03 18:35:42.
