data_PCOD9363440
_publ_section_title
;
Structure prediction by ZEFSAII (Michael W. Deem and Ramdas Pophale) SiO2 
 PCOD9363440
Probable space group: A M A 2
;
_chemical_formula_sum "Si O2"
_cell_formula_units_Z 64
_cell_length_a 8.500678
_cell_length_b 29.191477
_cell_length_c 12.816498
_cell_angle_alpha 90.000000
_cell_angle_beta 90.000000
_cell_angle_gamma 90.000000
_cell_volume 3180.379968
_symmetry_space_group_name_H-M "A M A 2"
_symmetry_group_IT_number 40
_symmetry_cell_setting 'orthorhombic'
loop_
_space_group_symop_operation_xyz
x,y,z
-x,-y,z
1/2-x,y,z
1/2+x,-y,z
x,1/2+y,1/2+z
-x,1/2-y,1/2+z
1/2-x,1/2+y,1/2+z
1/2+x,1/2-y,1/2+z
loop_
_atom_site_type_symbol
_atom_site_label
_atom_site_fract_x
_atom_site_fract_y
_atom_site_fract_z
Si Si1 0.434393 0.453530 0.119370
Si Si2 0.439685 0.207469 0.570304
Si Si3 0.932949 0.664899 0.281951
Si Si4 0.930765 0.930858 0.835850
Si Si5 0.065360 0.306932 0.511363
Si Si6 0.440551 0.910245 0.054762
Si Si7 0.439747 0.448899 0.779554
Si Si8 0.559414 0.622121 0.960493
O O1 0.500000 0.500000 0.071116
O O2 0.250000 0.454033 0.105476
O O3 0.475191 0.452864 0.240905
O O4 0.493255 0.408457 0.060204
O O5 0.250000 0.207434 0.577357
O O6 0.514853 0.188845 0.676797
O O7 0.499359 0.259369 0.554114
O O8 0.489143 0.172361 0.478371
O O9 0.250000 0.851277 0.772898
O O10 0.045331 0.622595 0.308286
O O11 0.941759 0.695353 0.385779
O O12 0.750000 0.944712 0.830938
O O13 0.997070 0.936090 0.952127
O O14 0.250000 0.307923 0.540473
O O15 0.004045 0.356862 0.547451
O O16 0.250000 0.909847 0.048689
O O17 0.488364 0.933679 0.162863
O O18 0.500000 0.500000 0.803531
O O19 0.250000 0.450461 0.782581
O O20 0.487003 0.408938 0.861140
O O21 0.750000 0.626232 0.960248
#
# Coordination Sequence:
#
# PCOD9363440 Si02
#       8
#     8   8   8   8   8   8   8   8
#     4  11  22  36  56  82 115 150 189 235 292 349
#     4  11  21  34  57  88 117 151 199 250 299 353
#     4  10  19  36  57  77 111 154 190 235 296 354
#     4  11  21  35  57  85 113 145 191 240 293 350
#     4   8  18  35  55  81 113 153 196 241 294 354
#     4   9  19  39  62  82 116 160 199 241 300 360
#     4  10  22  40  63  88 116 159 206 249 301 360
#     4  10  22  39  58  83 117 158 198 239 297 363
#
# _framework density 20.123380999999998
#
# number of rings (size 3 to 8) (size 9 to 14) (size 15 to 20)
#    0.000    2.000    1.250    3.375    0.000    3.000 
#    0.000    8.750    0.000    0.000    0.000    0.000 
#    0.000    0.000    0.000    0.000    0.000    0.000 
#
# Total GULP energy -178531.477731 kJ/mol
# GULP energy per Si atom -5579.108679 kJ/mol
# Density = 2.007758 g / cm^3
# Si number density = 20.123381 Si / 1000 Ang^3
#
#
#
# Elastic Constant Matrix: (Units=GPa)
#
#
# Indices 1 2 3 4 5 6 
#
# 1 26.3772 -0.8363 4.3948 0.0000 0.0000 0.0000
# 2 -0.8363 58.7225 6.0773 0.0000 0.0000 0.0000
# 3 4.3948 6.0773 77.3480 0.0000 0.0000 0.0000
# 4 0.0000 0.0000 0.0000 -35.6347 0.0000 0.0000
# 5 0.0000 0.0000 0.0000 0.0000 10.1197 0.0000
# 6 0.0000 0.0000 0.0000 0.0000 0.0000 21.1168
#
#
#
# Elastic Compliance Matrix: (Units=1/GPa)
#
#
# Indices 1 2 3 4 5 6 
#
# 1 0.038309 0.000777 -0.002238 0.000000 0.000000 0.000000
# 2 0.000777 0.017185 -0.001394 0.000000 0.000000 0.000000
# 3 -0.002238 -0.001394 0.013165 0.000000 0.000000 0.000000
# 4 0.000000 0.000000 0.000000 -0.028063 0.000000 0.000000
# 5 0.000000 0.000000 0.000000 0.000000 0.098817 0.000000
# 6 0.000000 0.000000 0.000000 0.000000 0.000000 0.047356
#
#
# Mechanical properties :
#
#
# Convention : Reuss Voigt Hill
#
# Bulk Modulus (GPa) = 15.88587 20.19104 18.03845
# Shear Modulus (GPa) = 23.42336 9.30782 16.36559
#
# Velocity S-wave (km/s) = 3.41543 2.15300 2.85487
# Velocity P-wave (km/s) = 4.84406 4.02939 4.45538
#
# Compressibility (1/GPa) = 0.06294904
#
# Stress axis : x y z
#
# Youngs Moduli (GPa) = 26.10353 58.19160 75.95737
#
# Poissons Ratio (x) = -0.04522 0.16997
# Poissons Ratio (y) = -0.02029 0.10591
# Poissons Ratio (z) = 0.05841 0.08114
#
# Static dielectric constant tensor:
#      x y z
#    x 1.702080 0.000000 0.000000 
#    y 0.000000 1.818600 0.000000 
#    z 0.000000 0.000000 1.717590 
# 
# From -- ./inp_files/10574.got.cif
#   From: 2010.05.17/outbox.cif.g08.bks.cpg/sg40_6_cif.got.tgz:10574.got - 2010.06.03 18:35:42.
