data_PCOD9363681
_publ_section_title
;
Structure prediction by ZEFSAII (Michael W. Deem and Ramdas Pophale) SiO2 
 PCOD9363681
Probable space group: A M A 2
;
_chemical_formula_sum "Si O2"
_cell_formula_units_Z 48
_cell_length_a 25.839241
_cell_length_b 14.270700
_cell_length_c 6.345948
_cell_angle_alpha 90.000000
_cell_angle_beta 90.000000
_cell_angle_gamma 90.000000
_cell_volume 2340.030608
_symmetry_space_group_name_H-M "A M A 2"
_symmetry_group_IT_number 40
_symmetry_cell_setting 'orthorhombic'
loop_
_space_group_symop_operation_xyz
x,y,z
-x,-y,z
1/2-x,y,z
1/2+x,-y,z
x,1/2+y,1/2+z
-x,1/2-y,1/2+z
1/2-x,1/2+y,1/2+z
1/2+x,1/2-y,1/2+z
loop_
_atom_site_type_symbol
_atom_site_label
_atom_site_fract_x
_atom_site_fract_y
_atom_site_fract_z
Si Si1 0.947908 0.545265 0.413880
Si Si2 0.806379 0.187474 0.094132
Si Si3 0.090961 0.257225 0.329982
Si Si4 0.653715 0.988783 0.180975
Si Si5 0.648262 0.808102 0.942003
Si Si6 0.095760 0.576565 0.065954
O O1 0.946429 0.657049 0.385165
O O2 0.900277 0.515526 0.563344
O O3 0.938752 0.499550 0.183288
O O4 0.000000 0.500000 0.500310
O O5 0.750000 0.212639 0.007504
O O6 0.814798 0.237342 0.319873
O O7 0.810537 0.076453 0.131924
O O8 0.854047 0.218558 0.945285
O O9 0.071663 0.156891 0.416392
O O10 0.106443 0.245536 0.086411
O O11 0.639183 0.973834 0.424341
O O12 0.672330 0.889317 0.088643
O O13 0.620349 0.864846 0.756292
#
# Coordination Sequence:
#
# PCOD9363681 Si02
#       6
#     8   8   8   8   8   8
#     4  10  20  35  54  83 109 145 189 224 280 341
#     4  10  20  33  54  81 105 141 186 223 275 335
#     4   9  19  37  55  76 111 146 175 235 279 325
#     4   9  19  36  55  76 113 143 177 233 281 327
#     4   9  18  35  56  73 103 143 181 220 278 327
#     4   9  18  36  55  77 105 146 181 225 279 331
#
# _framework density 20.512551999999999
#
# number of rings (size 3 to 8) (size 9 to 14) (size 15 to 20)
#    0.000    2.667    0.000    1.000    0.000    2.000 
#    9.000    6.667    0.000    0.000    0.000    0.000 
#    0.000    0.000    0.000    0.000    0.000    0.000 
#
# Total GULP energy -133774.746203 kJ/mol
# GULP energy per Si atom -5573.947758 kJ/mol
# Density = 2.046586 g / cm^3
# Si number density = 20.512552 Si / 1000 Ang^3
#
#
#
# Elastic Constant Matrix: (Units=GPa)
#
#
# Indices 1 2 3 4 5 6 
#
# 1 18.0235 -20.0311 5.4407 0.0000 0.0000 0.0000
# 2 -20.0311 46.6137 -6.5796 0.0000 0.0000 0.0000
# 3 5.4407 -6.5796 73.1680 0.0000 0.0000 0.0000
# 4 0.0000 0.0000 0.0000 20.2004 0.0000 0.0000
# 5 0.0000 0.0000 0.0000 0.0000 -20.3967 0.0000
# 6 0.0000 0.0000 0.0000 0.0000 0.0000 -7.7931
#
#
#
# Elastic Compliance Matrix: (Units=1/GPa)
#
#
# Indices 1 2 3 4 5 6 
#
# 1 0.107283 0.045554 -0.003881 0.000000 0.000000 0.000000
# 2 0.045554 0.041072 0.000306 0.000000 0.000000 0.000000
# 3 -0.003881 0.000306 0.013983 0.000000 0.000000 0.000000
# 4 0.000000 0.000000 0.000000 0.049504 0.000000 0.000000
# 5 0.000000 0.000000 0.000000 0.000000 -0.049028 0.000000
# 6 0.000000 0.000000 0.000000 0.000000 0.000000 -0.128319
#
#
# Mechanical properties :
#
#
# Convention : Reuss Voigt Hill
#
# Bulk Modulus (GPa) = 4.06013 10.60724 7.33369
# Shear Modulus (GPa) = 153.20496 9.00048 81.10272
#
# Velocity S-wave (km/s) = 8.65162 2.09698 6.29475
# Velocity P-wave (km/s) = 10.08882 3.32346 7.51098
#
# Compressibility (1/GPa) = 0.24629734
#
# Stress axis : x y z
#
# Youngs Moduli (GPa) = 9.32113 24.34748 71.51396
#
# Poissons Ratio (x) = -1.10914 0.27754
# Poissons Ratio (y) = -0.42462 -0.02188
# Poissons Ratio (z) = 0.03618 -0.00745
#
# Static dielectric constant tensor:
#      x y z
#    x 1.753680 0.000000 0.000000 
#    y 0.000000 1.754770 0.000000 
#    z 0.000000 0.000000 1.748430 
# 
# From -- ./inp_files/3074.got.cif
#   From: 2010.05.17/outbox.cif.g08.bks.cpg/sg40_2_cif.got.tgz:3074.got - 2010.06.03 18:35:42.
