data_PCOD9363398
_publ_section_title
;
Structure prediction by ZEFSAII (Michael W. Deem and Ramdas Pophale) SiO2 
 PCOD9363398
Probable space group: A M A 2
;
_chemical_formula_sum "Si O2"
_cell_formula_units_Z 64
_cell_length_a 8.471570
_cell_length_b 28.801173
_cell_length_c 12.796195
_cell_angle_alpha 90.000000
_cell_angle_beta 90.000000
_cell_angle_gamma 90.000000
_cell_volume 3122.158374
_symmetry_space_group_name_H-M "A M A 2"
_symmetry_group_IT_number 40
_symmetry_cell_setting 'orthorhombic'
loop_
_space_group_symop_operation_xyz
x,y,z
-x,-y,z
1/2-x,y,z
1/2+x,-y,z
x,1/2+y,1/2+z
-x,1/2-y,1/2+z
1/2-x,1/2+y,1/2+z
1/2+x,1/2-y,1/2+z
loop_
_atom_site_type_symbol
_atom_site_label
_atom_site_fract_x
_atom_site_fract_y
_atom_site_fract_z
Si Si1 0.056647 0.290923 0.336220
Si Si2 0.558396 0.914493 0.319048
Si Si3 0.428864 0.933746 0.098241
Si Si4 0.435003 0.690485 0.781640
Si Si5 0.563229 0.620158 0.220814
Si Si6 0.569670 0.676800 0.564791
Si Si7 0.433613 0.048712 0.880344
Si Si8 0.438207 0.050825 0.546575
O O1 0.250000 0.290493 0.331295
O O2 0.997704 0.238265 0.326800
O O3 0.004653 0.327785 0.247753
O O4 0.013756 0.310195 0.449915
O O5 0.750000 0.914867 0.312243
O O6 0.491549 0.939433 0.215748
O O7 0.503335 0.860245 0.315813
O O8 0.508841 0.937271 0.428190
O O9 0.250000 0.951792 0.087151
O O10 0.424943 0.878456 0.078493
O O11 0.538190 0.951092 0.004665
O O12 0.250000 0.689602 0.807238
O O13 0.460638 0.694488 0.657608
O O14 0.750000 0.622171 0.203681
O O15 0.528069 0.589808 0.324445
O O16 0.489357 0.591547 0.125458
O O17 0.750000 0.694183 0.578466
O O18 0.250000 0.053592 0.855875
O O19 0.500000 0.000000 0.839572
O O20 0.250000 0.049119 0.546522
O O21 0.500000 0.000000 0.577479
#
# Coordination Sequence:
#
# PCOD9363398 Si02
#       8
#     8   8   8   8   8   8   8   8
#     4   9  18  34  57  82 114 154 194 237 298 356
#     4   9  20  38  59  84 119 157 200 247 298 354
#     4  10  19  35  59  85 113 148 191 237 291 350
#     4   9  18  34  56  84 114 153 196 243 295 350
#     4  11  22  40  61  84 116 155 198 246 297 359
#     4   9  17  33  54  77 110 150 187 233 289 345
#     4  12  24  38  58  85 116 149 187 235 292 352
#     4  11  24  42  62  87 118 160 206 254 307 364
#
# _framework density 20.498640999999999
#
# number of rings (size 3 to 8) (size 9 to 14) (size 15 to 20)
#    0.000    2.000    1.250    2.625    0.000    3.000 
#    0.000    4.375    0.000    0.000    0.000    0.000 
#    0.000    0.000    0.000    0.000    0.000    0.000 
#
# Total GULP energy -178602.575684 kJ/mol
# GULP energy per Si atom -5581.330490 kJ/mol
# Density = 2.045198 g / cm^3
# Si number density = 20.498641 Si / 1000 Ang^3
#
#
#
# Elastic Constant Matrix: (Units=GPa)
#
#
# Indices 1 2 3 4 5 6 
#
# 1 23.0230 1.5471 0.0147 0.0000 0.0000 0.0000
# 2 1.5471 61.3238 7.8701 0.0000 0.0000 0.0000
# 3 0.0147 7.8701 87.4104 0.0000 0.0000 0.0000
# 4 0.0000 0.0000 0.0000 51.2172 0.0000 0.0000
# 5 0.0000 0.0000 0.0000 0.0000 29.7986 0.0000
# 6 0.0000 0.0000 0.0000 0.0000 0.0000 14.5577
#
#
#
# Elastic Compliance Matrix: (Units=1/GPa)
#
#
# Indices 1 2 3 4 5 6 
#
# 1 0.043509 -0.001110 0.000093 0.000000 0.000000 0.000000
# 2 -0.001110 0.016526 -0.001488 0.000000 0.000000 0.000000
# 3 0.000093 -0.001488 0.011574 0.000000 0.000000 0.000000
# 4 0.000000 0.000000 0.000000 0.019525 0.000000 0.000000
# 5 0.000000 0.000000 0.000000 0.000000 0.033559 0.000000
# 6 0.000000 0.000000 0.000000 0.000000 0.000000 0.068692
#
#
# Mechanical properties :
#
#
# Convention : Reuss Voigt Hill
#
# Bulk Modulus (GPa) = 15.01499 21.18008 18.09753
# Shear Modulus (GPa) = 22.66602 29.93637 26.30120
#
# Velocity S-wave (km/s) = 3.32886 3.82567 3.58588
# Velocity P-wave (km/s) = 4.70275 5.46528 5.09829
#
# Compressibility (1/GPa) = 0.06660011
#
# Stress axis : x y z
#
# Youngs Moduli (GPa) = 22.98354 60.51140 86.39891
#
# Poissons Ratio (x) = 0.06714 -0.00800
# Poissons Ratio (y) = 0.02550 0.12854
# Poissons Ratio (z) = -0.00213 0.09002
#
# Static dielectric constant tensor:
#      x y z
#    x 1.708630 0.000000 0.000000 
#    y 0.000000 1.741530 0.000000 
#    z 0.000000 0.000000 1.716710 
# 
# From -- ./inp_files/10572.got.cif
#   From: 2010.05.17/outbox.cif.g08.bks.cpg/sg40_6_cif.got.tgz:10572.got - 2010.06.03 18:35:42.
