data_PCOD9363781
_publ_section_title
;
Structure prediction by ZEFSAII (Michael W. Deem and Ramdas Pophale) SiO2 
 PCOD9363781
Probable space group: A M A 2
;
_chemical_formula_sum "Si O2"
_cell_formula_units_Z 56
_cell_length_a 17.238365
_cell_length_b 5.243364
_cell_length_c 27.833868
_cell_angle_alpha 90.000000
_cell_angle_beta 90.000000
_cell_angle_gamma 90.000000
_cell_volume 2515.820452
_symmetry_space_group_name_H-M "A M A 2"
_symmetry_group_IT_number 40
_symmetry_cell_setting 'orthorhombic'
loop_
_space_group_symop_operation_xyz
x,y,z
-x,-y,z
1/2-x,y,z
1/2+x,-y,z
x,1/2+y,1/2+z
-x,1/2-y,1/2+z
1/2-x,1/2+y,1/2+z
1/2+x,1/2-y,1/2+z
loop_
_atom_site_type_symbol
_atom_site_label
_atom_site_fract_x
_atom_site_fract_y
_atom_site_fract_z
Si Si1 0.048822 0.743297 0.709870
Si Si2 0.843006 0.078073 0.351856
Si Si3 0.509222 0.745297 0.608628
Si Si4 0.334723 0.121275 0.592466
Si Si5 0.906990 0.569699 0.303610
Si Si6 0.051773 0.247427 0.940660
Si Si7 0.162848 0.121419 0.027929
O O1 0.110812 0.813498 0.750166
O O2 0.000000 0.500000 0.727875
O O3 0.051369 0.702552 0.652072
O O4 0.000000 0.000000 0.709978
O O5 0.750000 0.051644 0.357138
O O6 0.862686 0.305925 0.314060
O O7 0.886640 0.178557 0.399386
O O8 0.880943 0.804571 0.337598
O O9 0.500000 0.500000 0.577022
O O10 0.595914 0.797642 0.627569
O O11 0.500000 0.000000 0.579205
O O12 0.250000 0.138430 0.615043
O O13 0.340409 0.340229 0.551575
O O14 0.342534 0.842340 0.568816
O O15 0.000000 0.500000 0.308034
O O16 0.000000 0.500000 0.948612
O O17 0.100149 0.171110 0.987634
O O18 0.000000 0.000000 0.927006
O O19 0.250000 0.149037 0.007418
#
# Coordination Sequence:
#
# PCOD9363781 Si02
#       7
#     8   8   8   8   8   8   8
#     4   9  18  33  57  85 112 146 189 243 301 351
#     4  12  25  41  62  91 125 164 205 253 312 371
#     4  10  20  34  57  86 114 149 196 244 296 353
#     4  10  21  37  59  85 118 158 198 242 299 358
#     4  11  21  39  66  90 119 158 206 253 303 366
#     4  12  25  40  61  89 121 157 203 255 301 355
#     4  10  22  40  58  82 120 162 197 242 302 358
#
# _framework density 22.259138
#
# number of rings (size 3 to 8) (size 9 to 14) (size 15 to 20)
#    0.000    1.429    0.000    6.857    0.000    3.429 
#    0.000    4.286    0.000   32.571    0.000    0.000 
#    0.000    0.000    0.000    0.000    0.000    0.000 
#
# Total GULP energy -155949.088113 kJ/mol
# GULP energy per Si atom -5569.610290 kJ/mol
# Density = 2.220848 g / cm^3
# Si number density = 22.259138 Si / 1000 Ang^3
#
#
#
# Elastic Constant Matrix: (Units=GPa)
#
#
# Indices 1 2 3 4 5 6 
#
# 1 119.6493 38.8327 39.0946 0.0000 0.0000 0.0000
# 2 38.8327 181.6725 18.7524 0.0000 0.0000 0.0000
# 3 39.0946 18.7524 79.9305 0.0000 0.0000 0.0000
# 4 0.0000 0.0000 0.0000 62.1396 0.0000 0.0000
# 5 0.0000 0.0000 0.0000 0.0000 22.5507 0.0000
# 6 0.0000 0.0000 0.0000 0.0000 0.0000 31.4080
#
#
#
# Elastic Compliance Matrix: (Units=1/GPa)
#
#
# Indices 1 2 3 4 5 6 
#
# 1 0.010464 -0.001751 -0.004707 0.000000 0.000000 0.000000
# 2 -0.001751 0.005934 -0.000536 0.000000 0.000000 0.000000
# 3 -0.004707 -0.000536 0.014939 0.000000 0.000000 0.000000
# 4 0.000000 0.000000 0.000000 0.016093 0.000000 0.000000
# 5 0.000000 0.000000 0.000000 0.000000 0.044345 0.000000
# 6 0.000000 0.000000 0.000000 0.000000 0.000000 0.031839
#
#
# Mechanical properties :
#
#
# Convention : Reuss Voigt Hill
#
# Bulk Modulus (GPa) = 57.63984 63.84573 60.74278
# Shear Modulus (GPa) = 34.87131 42.19114 38.53122
#
# Velocity S-wave (km/s) = 3.96233 4.35840 4.16508
# Velocity P-wave (km/s) = 6.84723 7.35342 7.10483
#
# Compressibility (1/GPa) = 0.01734911
#
# Stress axis : x y z
#
# Youngs Moduli (GPa) = 95.56505 168.52157 66.93910
#
# Poissons Ratio (x) = 0.29505 0.31510
# Poissons Ratio (y) = 0.16732 0.03587
# Poissons Ratio (z) = 0.44985 0.09030
#
# Static dielectric constant tensor:
#      x y z
#    x 1.876920 0.000000 0.000000 
#    y 0.000000 1.925380 0.000000 
#    z 0.000000 0.000000 1.895690 
# 
# From -- ./inp_files/26604.got.cif
#   From: 2010.05.17/outbox.cif.g08.bks.cpg/sg40_14_cif.got.tgz:26604.got - 2010.06.03 18:35:42.
