data_PCOD9363130
_publ_section_title
;
Structure prediction by ZEFSAII (Michael W. Deem and Ramdas Pophale) SiO2 
 PCOD9363130
Probable space group: A M A 2
;
_chemical_formula_sum "Si O2"
_cell_formula_units_Z 64
_cell_length_a 12.016264
_cell_length_b 18.490151
_cell_length_c 12.632122
_cell_angle_alpha 90.000000
_cell_angle_beta 90.000000
_cell_angle_gamma 90.000000
_cell_volume 2806.636899
_symmetry_space_group_name_H-M "A M A 2"
_symmetry_group_IT_number 40
_symmetry_cell_setting 'orthorhombic'
loop_
_space_group_symop_operation_xyz
x,y,z
-x,-y,z
1/2-x,y,z
1/2+x,-y,z
x,1/2+y,1/2+z
-x,1/2-y,1/2+z
1/2-x,1/2+y,1/2+z
1/2+x,1/2-y,1/2+z
loop_
_atom_site_type_symbol
_atom_site_label
_atom_site_fract_x
_atom_site_fract_y
_atom_site_fract_z
Si Si1 0.868794 0.306123 0.796770
Si Si2 0.376551 0.024456 0.614359
Si Si3 0.374146 0.444810 0.575309
Si Si4 0.625854 0.055190 0.835185
Si Si5 0.631206 0.806123 0.613725
Si Si6 0.876551 0.475544 0.796135
Si Si7 0.454306 0.686973 0.570180
Si Si8 0.454306 0.186973 0.840315
O O1 0.750000 0.277814 0.833231
O O2 0.876565 0.390715 0.820673
O O3 0.875304 0.304324 0.669393
O O4 0.968105 0.257931 0.839025
O O5 0.250000 0.998102 0.580565
O O6 0.376566 0.109285 0.589822
O O7 0.500000 0.000000 0.575540
O O8 0.379340 0.002366 0.739749
O O9 0.250000 0.412704 0.581642
O O10 0.384953 0.474995 0.455247
O O11 0.379339 0.502366 0.670745
O O12 0.463360 0.381168 0.588837
O O13 0.750000 0.087296 0.828852
O O14 0.536640 0.118832 0.821658
O O15 0.750000 0.777815 0.577264
O O16 0.531895 0.757931 0.571471
O O17 0.624696 0.804324 0.741102
O O18 0.750000 0.501899 0.829929
O O19 0.000000 0.500000 0.834954
O O20 0.401407 0.678237 0.455248
#
# Coordination Sequence:
#
# PCOD9363130 Si02
#       8
#     8   8   8   8   8   8   8   8
#     4  10  21  35  53  81 113 147 186 231 285 336
#     4  10  19  33  51  77 111 146 183 225 277 337
#     4   9  17  29  49  76 104 136 176 223 276 335
#     4   9  17  29  49  76 104 136 176 223 276 335
#     4  10  21  35  53  81 113 147 186 231 285 336
#     4  10  19  33  51  77 111 146 183 225 277 337
#     4  10  20  35  55  79 110 144 186 230 280 338
#     4  10  20  35  55  79 110 144 186 230 280 338
#
# _framework density 22.803091999999999
#
# number of rings (size 3 to 8) (size 9 to 14) (size 15 to 20)
#    0.000    2.250    2.500    0.750    0.000    3.500 
#    0.000    2.500    0.000    0.750    0.000    0.000 
#    0.000    0.000    0.000    0.000    0.000    0.000 
#
# Total GULP energy -178435.863946 kJ/mol
# GULP energy per Si atom -5576.120748 kJ/mol
# Density = 2.275119 g / cm^3
# Si number density = 22.803092 Si / 1000 Ang^3
#
#
#
# Elastic Constant Matrix: (Units=GPa)
#
#
# Indices 1 2 3 4 5 6 
#
# 1 164.3181 22.5422 13.6525 0.0000 0.0000 0.0000
# 2 22.5422 72.7282 8.7211 0.0000 0.0000 0.0000
# 3 13.6525 8.7211 129.0584 0.0000 0.0000 0.0000
# 4 0.0000 0.0000 0.0000 0.6424 0.0000 0.0000
# 5 0.0000 0.0000 0.0000 0.0000 19.2344 0.0000
# 6 0.0000 0.0000 0.0000 0.0000 0.0000 9.3759
#
#
#
# Elastic Compliance Matrix: (Units=1/GPa)
#
#
# Indices 1 2 3 4 5 6 
#
# 1 0.006394 -0.001916 -0.000547 0.000000 0.000000 0.000000
# 2 -0.001916 0.014436 -0.000773 0.000000 0.000000 0.000000
# 3 -0.000547 -0.000773 0.007859 0.000000 0.000000 0.000000
# 4 0.000000 0.000000 0.000000 1.556657 0.000000 0.000000
# 5 0.000000 0.000000 0.000000 0.000000 0.051990 0.000000
# 6 0.000000 0.000000 0.000000 0.000000 0.000000 0.106656
#
#
# Mechanical properties :
#
#
# Convention : Reuss Voigt Hill
#
# Bulk Modulus (GPa) = 45.01053 50.65958 47.83506
# Shear Modulus (GPa) = 2.84435 27.26313 15.05374
#
# Velocity S-wave (km/s) = 1.11806 3.46148 2.57215
# Velocity P-wave (km/s) = 4.63124 6.18386 5.46299
#
# Compressibility (1/GPa) = 0.02221702
#
# Stress axis : x y z
#
# Youngs Moduli (GPa) = 156.39454 69.26916 127.25058
#
# Poissons Ratio (x) = 0.13274 0.06959
# Poissons Ratio (y) = 0.29969 0.09834
# Poissons Ratio (z) = 0.08553 0.05353
#
# Static dielectric constant tensor:
#      x y z
#    x 1.881080 0.000000 0.000000 
#    y 0.000000 1.795970 0.000000 
#    z 0.000000 0.000000 1.881210 
# 
# From -- ./inp_files/16508.got.cif
#   From: 2010.05.17/outbox.cif.g08.bks.cpg/sg40_9_cif.got.tgz:16508.got - 2010.06.03 18:35:42.
