data_PCOD9363308
_publ_section_title
;
Structure prediction by ZEFSAII (Michael W. Deem and Ramdas Pophale) SiO2 
 PCOD9363308
Probable space group: A M A 2
;
_chemical_formula_sum "Si O2"
_cell_formula_units_Z 28
_cell_length_a 9.035161
_cell_length_b 9.319233
_cell_length_c 15.547409
_cell_angle_alpha 90.000000
_cell_angle_beta 90.000000
_cell_angle_gamma 90.000000
_cell_volume 1309.103818
_symmetry_space_group_name_H-M "A M A 2"
_symmetry_group_IT_number 40
_symmetry_cell_setting 'orthorhombic'
loop_
_space_group_symop_operation_xyz
x,y,z
-x,-y,z
1/2-x,y,z
1/2+x,-y,z
x,1/2+y,1/2+z
-x,1/2-y,1/2+z
1/2-x,1/2+y,1/2+z
1/2+x,1/2-y,1/2+z
loop_
_atom_site_type_symbol
_atom_site_label
_atom_site_fract_x
_atom_site_fract_y
_atom_site_fract_z
Si Si1 0.915484 0.784550 0.511350
Si Si2 0.573486 0.154149 0.335294
Si Si3 0.000000 0.500000 0.583810
Si Si4 0.416437 0.774730 0.677578
O O1 0.750000 0.839977 0.494789
O O2 0.910592 0.612591 0.526555
O O3 0.023917 0.812087 0.432420
O O4 0.984710 0.840454 0.600919
O O5 0.750000 0.149954 0.325876
O O6 0.501789 0.265587 0.267622
O O7 0.500000 0.000000 0.317452
O O8 0.908892 0.391003 0.643328
O O9 0.250000 0.831548 0.684491
#
# Coordination Sequence:
#
# PCOD9363308 Si02
#       4
#     8   8   4   8
#     4  10  20  34  56  82 112 142 179 224 272 320
#     4  12  23  35  55  81 111 145 185 225 273 323
#     4   8  20  32  60  80 108 134 182 216 276 308
#     4  10  19  34  57  83 109 139 181 225 270 318
#
# _framework density 21.388677999999999
#
# number of rings (size 3 to 8) (size 9 to 14) (size 15 to 20)
#    1.714    0.000    1.429    5.143    0.000    0.000 
#    0.000    0.000    3.143    0.000    0.000    0.000 
#    0.000    0.000    0.000    0.000    0.000    0.000 
#
# Total GULP energy -77973.777889 kJ/mol
# GULP energy per Si atom -5569.555564 kJ/mol
# Density = 2.134000 g / cm^3
# Si number density = 21.388678 Si / 1000 Ang^3
#
#
#
# Elastic Constant Matrix: (Units=GPa)
#
#
# Indices 1 2 3 4 5 6 
#
# 1 176.7102 -5.9661 38.2164 0.0000 0.0000 0.0000
# 2 -5.9661 40.3831 -5.9887 0.0000 0.0000 0.0000
# 3 38.2164 -5.9887 125.2361 0.0000 0.0000 0.0000
# 4 0.0000 0.0000 0.0000 18.0844 0.0000 0.0000
# 5 0.0000 0.0000 0.0000 0.0000 15.5308 0.0000
# 6 0.0000 0.0000 0.0000 0.0000 0.0000 13.8669
#
#
#
# Elastic Compliance Matrix: (Units=1/GPa)
#
#
# Indices 1 2 3 4 5 6 
#
# 1 0.006075 0.000627 -0.001824 0.000000 0.000000 0.000000
# 2 0.000627 0.025004 0.001004 0.000000 0.000000 0.000000
# 3 -0.001824 0.001004 0.008589 0.000000 0.000000 0.000000
# 4 0.000000 0.000000 0.000000 0.055296 0.000000 0.000000
# 5 0.000000 0.000000 0.000000 0.000000 0.064388 0.000000
# 6 0.000000 0.000000 0.000000 0.000000 0.000000 0.072114
#
#
# Mechanical properties :
#
#
# Convention : Reuss Voigt Hill
#
# Bulk Modulus (GPa) = 25.45582 43.87250 34.66416
# Shear Modulus (GPa) = 20.41263 30.56761 25.49012
#
# Velocity S-wave (km/s) = 3.09263 3.78451 3.45593
# Velocity P-wave (km/s) = 4.96789 6.29708 5.67156
#
# Compressibility (1/GPa) = 0.03928374
#
# Stress axis : x y z
#
# Youngs Moduli (GPa) = 164.62108 39.99296 116.42182
#
# Poissons Ratio (x) = -0.02508 0.21232
# Poissons Ratio (y) = -0.10322 -0.11693
# Poissons Ratio (z) = 0.30022 -0.04017
#
# Static dielectric constant tensor:
#      x y z
#    x 1.762980 0.000000 0.000000 
#    y 0.000000 1.843630 0.000000 
#    z 0.000000 0.000000 1.777200 
# 
# From -- ./inp_files/14648.got.cif
#   From: 2010.05.17/outbox.cif.g08.bks.cpg/sg40_8_cif.got.tgz:14648.got - 2010.06.03 18:35:42.
