data_PCOD9363663
_publ_section_title
;
Structure prediction by ZEFSAII (Michael W. Deem and Ramdas Pophale) SiO2 
 PCOD9363663
Probable space group: A M A 2
;
_chemical_formula_sum "Si O2"
_cell_formula_units_Z 64
_cell_length_a 8.701100
_cell_length_b 21.182990
_cell_length_c 20.144136
_cell_angle_alpha 90.000000
_cell_angle_beta 90.000000
_cell_angle_gamma 90.000000
_cell_volume 3712.872758
_symmetry_space_group_name_H-M "A M A 2"
_symmetry_group_IT_number 40
_symmetry_cell_setting 'orthorhombic'
loop_
_space_group_symop_operation_xyz
x,y,z
-x,-y,z
1/2-x,y,z
1/2+x,-y,z
x,1/2+y,1/2+z
-x,1/2-y,1/2+z
1/2-x,1/2+y,1/2+z
1/2+x,1/2-y,1/2+z
loop_
_atom_site_type_symbol
_atom_site_label
_atom_site_fract_x
_atom_site_fract_y
_atom_site_fract_z
Si Si1 0.935775 0.239762 0.627200
Si Si2 0.065913 0.933357 0.847891
Si Si3 0.433545 0.685958 0.845100
Si Si4 0.566872 0.384366 0.483395
Si Si5 0.934013 0.119246 0.125142
Si Si6 0.933900 0.067245 0.267113
Si Si7 0.433526 0.265782 0.978729
Si Si8 0.563310 0.188355 0.766041
O O1 0.750000 0.248425 0.628465
O O2 0.975092 0.214904 0.553915
O O3 0.980861 0.196572 0.689246
O O4 0.010280 0.308636 0.635114
O O5 0.250000 0.934957 0.846465
O O6 0.010249 0.874707 0.802867
O O7 0.011036 0.920485 0.922932
O O8 0.000000 0.000000 0.824839
O O9 0.250000 0.681904 0.839183
O O10 0.506545 0.624384 0.812309
O O11 0.481178 0.697133 0.921043
O O12 0.486320 0.748766 0.805294
O O13 0.750000 0.392144 0.480727
O O14 0.506611 0.403470 0.555965
O O15 0.531968 0.309382 0.474615
O O16 0.750000 0.117806 0.119597
O O17 0.981868 0.081351 0.190788
O O18 0.750000 0.066065 0.269140
O O19 0.000000 0.000000 0.288227
O O20 0.250000 0.272999 0.970164
O O21 0.750000 0.187516 0.768420
#
# Coordination Sequence:
#
# PCOD9363663 Si02
#       8
#     8   8   8   8   8   8   8   8
#     4   9  17  33  55  80 107 140 180 223 273 323
#     4  11  22  37  54  78 110 146 185 227 273 325
#     4  11  20  34  58  82 108 143 181 226 271 322
#     4  10  20  34  53  77 108 148 186 223 264 317
#     4  10  20  33  51  78 110 143 179 223 267 318
#     4  11  24  39  55  79 110 145 183 225 272 325
#     4   9  18  31  52  81 111 138 175 224 271 321
#     4   9  18  33  56  81 106 140 182 226 273 321
#
# _framework density 17.237327000000001
#
# number of rings (size 3 to 8) (size 9 to 14) (size 15 to 20)
#    0.000    2.000    2.500    2.625    0.000    4.000 
#    0.000    2.500    0.000    0.750    0.000    1.750 
#    0.000    0.000    0.000    0.000    0.000    0.000 
#
# Total GULP energy -178628.240795 kJ/mol
# GULP energy per Si atom -5582.132525 kJ/mol
# Density = 1.719809 g / cm^3
# Si number density = 17.237327 Si / 1000 Ang^3
#
#
#
# Elastic Constant Matrix: (Units=GPa)
#
#
# Indices 1 2 3 4 5 6 
#
# 1 36.1760 33.1226 27.2291 0.0000 0.0000 0.0000
# 2 33.1226 116.2834 65.3569 0.0000 0.0000 0.0000
# 3 27.2291 65.3569 112.3702 0.0000 0.0000 0.0000
# 4 0.0000 0.0000 0.0000 21.0513 0.0000 0.0000
# 5 0.0000 0.0000 0.0000 0.0000 24.2303 0.0000
# 6 0.0000 0.0000 0.0000 0.0000 0.0000 24.0150
#
#
#
# Elastic Compliance Matrix: (Units=1/GPa)
#
#
# Indices 1 2 3 4 5 6 
#
# 1 0.038819 -0.008573 -0.004420 0.000000 0.000000 0.000000
# 2 -0.008573 0.014670 -0.006455 0.000000 0.000000 0.000000
# 3 -0.004420 -0.006455 0.013724 0.000000 0.000000 0.000000
# 4 0.000000 0.000000 0.000000 0.047503 0.000000 0.000000
# 5 0.000000 0.000000 0.000000 0.000000 0.041271 0.000000
# 6 0.000000 0.000000 0.000000 0.000000 0.000000 0.041641
#
#
# Mechanical properties :
#
#
# Convention : Reuss Voigt Hill
#
# Bulk Modulus (GPa) = 35.31434 57.36076 46.33755
# Shear Modulus (GPa) = 20.32832 23.13405 21.73119
#
# Velocity S-wave (km/s) = 3.43785 3.66743 3.55449
# Velocity P-wave (km/s) = 6.02412 7.16119 6.61713
#
# Compressibility (1/GPa) = 0.02831711
#
# Stress axis : x y z
#
# Youngs Moduli (GPa) = 25.76055 68.16861 72.86256
#
# Poissons Ratio (x) = 0.58441 0.32207
# Poissons Ratio (y) = 0.22084 0.47031
# Poissons Ratio (z) = 0.11387 0.44001
#
# Static dielectric constant tensor:
#      x y z
#    x 1.576500 0.000000 0.000000 
#    y 0.000000 1.568430 0.000000 
#    z 0.000000 0.000000 1.591770 
# 
# From -- ./inp_files/22526.got.cif
#   From: 2010.05.17/outbox.cif.g08.bks.cpg/sg40_12_cif.got.tgz:22526.got - 2010.06.03 18:35:42.
