data_PCOD9363545
_publ_section_title
;
Structure prediction by ZEFSAII (Michael W. Deem and Ramdas Pophale) SiO2 
 PCOD9363545
Probable space group: A M A 2
;
_chemical_formula_sum "Si O2"
_cell_formula_units_Z 64
_cell_length_a 23.992067
_cell_length_b 26.547765
_cell_length_c 5.193949
_cell_angle_alpha 90.000000
_cell_angle_beta 90.000000
_cell_angle_gamma 90.000000
_cell_volume 3308.211836
_symmetry_space_group_name_H-M "A M A 2"
_symmetry_group_IT_number 40
_symmetry_cell_setting 'orthorhombic'
loop_
_space_group_symop_operation_xyz
x,y,z
-x,-y,z
1/2-x,y,z
1/2+x,-y,z
x,1/2+y,1/2+z
-x,1/2-y,1/2+z
1/2-x,1/2+y,1/2+z
1/2+x,1/2-y,1/2+z
loop_
_atom_site_type_symbol
_atom_site_label
_atom_site_fract_x
_atom_site_fract_y
_atom_site_fract_z
Si Si1 0.686844 0.576236 0.445500
Si Si2 0.912755 0.861543 0.429490
Si Si3 0.910620 0.644094 0.304033
Si Si4 0.309399 0.021384 0.610488
Si Si5 0.372821 0.588088 0.446247
Si Si6 0.960848 0.251521 0.875956
Si Si7 0.899319 0.004204 0.228470
Si Si8 0.966159 0.596927 0.804140
O O1 0.750000 0.585914 0.536266
O O2 0.651927 0.624850 0.359467
O O3 0.690709 0.535423 0.216520
O O4 0.646811 0.545568 0.639140
O O5 0.895082 0.878049 0.713978
O O6 0.926526 0.802577 0.415304
O O7 0.970472 0.890011 0.362985
O O8 0.870917 0.878216 0.201994
O O9 0.922034 0.703122 0.329791
O O10 0.948963 0.617456 0.522838
O O11 0.930056 0.624710 0.024909
O O12 0.250000 0.030286 0.477167
O O13 0.317105 0.060512 0.844858
O O14 0.365318 0.025485 0.445756
O O15 0.410070 0.537997 0.512564
O O16 0.001075 0.257099 0.628333
O O17 0.950498 0.038096 0.313529
#
# Coordination Sequence:
#
# PCOD9363545 Si02
#       8
#     8   8   8   8   8   8   8   8
#     4   9  19  33  59  90 120 152 189 246 311 363
#     4  12  23  40  58  84 123 164 201 246 295 356
#     4  11  20  38  58  91 120 150 192 256 294 362
#     4  10  19  38  63  85 116 156 203 249 293 355
#     4  11  24  40  55  86 122 155 204 239 295 356
#     4  12  22  39  65  88 113 159 212 251 301 355
#     4  10  20  38  56  89 121 157 201 238 293 370
#     4  11  22  36  60  84 124 159 192 236 301 359
#
# _framework density 19.345800000000001
#
# number of rings (size 3 to 8) (size 9 to 14) (size 15 to 20)
#    0.000    1.250    5.000    1.875    0.000    1.000 
#    2.250    0.000    0.000    1.500    0.000    0.000 
#    0.000    0.000    0.000    0.000    0.000    0.000 
#
# Total GULP energy -178544.764335 kJ/mol
# GULP energy per Si atom -5579.523885 kJ/mol
# Density = 1.930177 g / cm^3
# Si number density = 19.345800 Si / 1000 Ang^3
#
#
#
# Elastic Constant Matrix: (Units=GPa)
#
#
# Indices 1 2 3 4 5 6 
#
# 1 44.9731 40.7387 1.7536 0.0000 0.0000 0.0000
# 2 40.7387 141.3908 38.2888 0.0000 0.0000 0.0000
# 3 1.7536 38.2888 76.5337 0.0000 0.0000 0.0000
# 4 0.0000 0.0000 0.0000 29.9019 0.0000 0.0000
# 5 0.0000 0.0000 0.0000 0.0000 24.2604 0.0000
# 6 0.0000 0.0000 0.0000 0.0000 0.0000 -6.6957
#
#
#
# Elastic Compliance Matrix: (Units=1/GPa)
#
#
# Indices 1 2 3 4 5 6 
#
# 1 0.031315 -0.010212 0.004391 0.000000 0.000000 0.000000
# 2 -0.010212 0.011511 -0.005525 0.000000 0.000000 0.000000
# 3 0.004391 -0.005525 0.015730 0.000000 0.000000 0.000000
# 4 0.000000 0.000000 0.000000 0.033443 0.000000 0.000000
# 5 0.000000 0.000000 0.000000 0.000000 0.041219 0.000000
# 6 0.000000 0.000000 0.000000 0.000000 0.000000 -0.149350
#
#
# Mechanical properties :
#
#
# Convention : Reuss Voigt Hill
#
# Bulk Modulus (GPa) = 27.88270 47.16220 37.52245
# Shear Modulus (GPa) = 270.08900 21.63444 145.86172
#
# Velocity S-wave (km/s) = 11.82854 3.34773 8.69257
# Velocity P-wave (km/s) = 14.17732 6.27491 10.96291
#
# Compressibility (1/GPa) = 0.03586453
#
# Stress axis : x y z
#
# Youngs Moduli (GPa) = 31.93400 86.87319 63.57475
#
# Poissons Ratio (x) = 0.88713 -0.27918
# Poissons Ratio (y) = 0.32610 0.35124
# Poissons Ratio (z) = -0.14023 0.47996
#
# Static dielectric constant tensor:
#      x y z
#    x 1.476530 0.000000 0.000000 
#    y 0.000000 1.676690 0.000000 
#    z 0.000000 0.000000 1.752920 
# 
# From -- ./inp_files/2905.got.cif
#   From: 2010.05.17/outbox.cif.g08.bks.cpg/sg40_2_cif.got.tgz:2905.got - 2010.06.03 18:35:42.
