data_PCOD9363165
_publ_section_title
;
Structure prediction by ZEFSAII (Michael W. Deem and Ramdas Pophale) SiO2 
 PCOD9363165
Probable space group: A M A 2
;
_chemical_formula_sum "Si O2"
_cell_formula_units_Z 64
_cell_length_a 14.097054
_cell_length_b 9.183804
_cell_length_c 21.426508
_cell_angle_alpha 90.000000
_cell_angle_beta 90.000000
_cell_angle_gamma 90.000000
_cell_volume 2773.973879
_symmetry_space_group_name_H-M "A M A 2"
_symmetry_group_IT_number 40
_symmetry_cell_setting 'orthorhombic'
loop_
_space_group_symop_operation_xyz
x,y,z
-x,-y,z
1/2-x,y,z
1/2+x,-y,z
x,1/2+y,1/2+z
-x,1/2-y,1/2+z
1/2-x,1/2+y,1/2+z
1/2+x,1/2-y,1/2+z
loop_
_atom_site_type_symbol
_atom_site_label
_atom_site_fract_x
_atom_site_fract_y
_atom_site_fract_z
Si Si1 0.640801 0.031763 0.039950
Si Si2 0.134152 0.940567 0.666140
Si Si3 0.365721 0.144873 0.549346
Si Si4 0.634472 0.851843 0.922797
Si Si5 0.134466 0.641013 0.283009
Si Si6 0.134937 0.986481 0.424984
Si Si7 0.414578 0.115300 0.163217
Si Si8 0.861011 0.529753 0.788448
O O1 0.750000 0.061485 0.023513
O O2 0.598317 0.189697 0.055934
O O3 0.640335 0.930431 0.100552
O O4 0.600565 0.949647 0.979907
O O5 0.250000 0.913489 0.666051
O O6 0.079405 0.788468 0.662475
O O7 0.110705 0.040359 0.606643
O O8 0.109329 0.030504 0.728408
O O9 0.250000 0.146910 0.550266
O O10 0.398253 0.081291 0.483069
O O11 0.750000 0.853339 0.923341
O O12 0.605612 0.900665 0.853352
O O13 0.608420 0.682920 0.931734
O O14 0.250000 0.644049 0.281460
O O15 0.099648 0.808223 0.273175
O O16 0.250000 0.994662 0.427763
O O17 0.104362 0.030981 0.355007
O O18 0.500000 0.000000 0.160754
O O19 0.369850 0.074539 0.229930
O O20 0.750000 0.555365 0.798814
#
# Coordination Sequence:
#
# PCOD9363165 Si02
#       8
#     8   8   8   8   8   8   8   8
#     4  10  19  33  54  76 101 134 170 208 252 303
#     4  10  19  33  55  78 102 133 169 208 250 299
#     4   9  17  29  51  84 110 129 163 210 253 297
#     4   8  14  26  49  81 111 133 158 200 250 298
#     4   8  15  29  53  85 110 129 162 207 250 297
#     4   8  14  26  48  79 108 130 158 202 252 299
#     4  12  25  37  49  70 102 136 175 219 258 299
#     4   9  17  33  56  77 101 134 168 204 252 306
#
# _framework density 23.071594999999999
#
# number of rings (size 3 to 8) (size 9 to 14) (size 15 to 20)
#    0.000    2.750    0.000    4.125    0.000    5.000 
#    0.000    6.250    0.000    9.000    0.000    0.000 
#    0.000    0.000    0.000    0.000    0.000    0.000 
#
# Total GULP energy -178706.959279 kJ/mol
# GULP energy per Si atom -5584.592477 kJ/mol
# Density = 2.301908 g / cm^3
# Si number density = 23.071595 Si / 1000 Ang^3
#
#
#
# Elastic Constant Matrix: (Units=GPa)
#
#
# Indices 1 2 3 4 5 6 
#
# 1 52.6225 -18.8529 -0.7380 0.0000 0.0000 0.0000
# 2 -18.8529 129.6518 122.0030 0.0000 0.0000 0.0000
# 3 -0.7380 122.0030 214.4553 0.0000 0.0000 0.0000
# 4 0.0000 0.0000 0.0000 50.5072 0.0000 0.0000
# 5 0.0000 0.0000 0.0000 0.0000 -51.5458 0.0000
# 6 0.0000 0.0000 0.0000 0.0000 0.0000 15.4103
#
#
#
# Elastic Compliance Matrix: (Units=1/GPa)
#
#
# Indices 1 2 3 4 5 6 
#
# 1 0.021286 0.006513 -0.003632 0.000000 0.000000 0.000000
# 2 0.006513 0.018592 -0.010554 0.000000 0.000000 0.000000
# 3 -0.003632 -0.010554 0.010655 0.000000 0.000000 0.000000
# 4 0.000000 0.000000 0.000000 0.019799 0.000000 0.000000
# 5 0.000000 0.000000 0.000000 0.000000 -0.019400 0.000000
# 6 0.000000 0.000000 0.000000 0.000000 0.000000 0.064892
#
#
# Mechanical properties :
#
#
# Convention : Reuss Voigt Hill
#
# Bulk Modulus (GPa) = 28.42095 66.83932 47.63014
# Shear Modulus (GPa) = 34.98999 22.49549 28.74274
#
# Velocity S-wave (km/s) = 3.89856 3.12593 3.53343
# Velocity P-wave (km/s) = 5.71055 6.48552 6.11033
#
# Compressibility (1/GPa) = 0.03518531
#
# Stress axis : x y z
#
# Youngs Moduli (GPa) = 46.97999 53.78744 93.85420
#
# Poissons Ratio (x) = -0.35031 0.34086
# Poissons Ratio (y) = -0.30597 0.99057
# Poissons Ratio (z) = 0.17062 0.56769
#
# Static dielectric constant tensor:
#      x y z
#    x 1.929950 0.000000 0.000000 
#    y 0.000000 1.812390 0.000000 
#    z 0.000000 0.000000 1.851430 
# 
# From -- ./inp_files/23358.got.cif
#   From: 2010.05.17/outbox.cif.g08.bks.cpg/sg40_12_cif.got.tgz:23358.got - 2010.06.03 18:35:42.
