data_PCOD9363200
_publ_section_title
;
Structure prediction by ZEFSAII (Michael W. Deem and Ramdas Pophale) SiO2 
 PCOD9363200
Probable space group: A M A 2
;
_chemical_formula_sum "Si O2"
_cell_formula_units_Z 56
_cell_length_a 8.588310
_cell_length_b 14.437820
_cell_length_c 23.429916
_cell_angle_alpha 90.000000
_cell_angle_beta 90.000000
_cell_angle_gamma 90.000000
_cell_volume 2905.226967
_symmetry_space_group_name_H-M "A M A 2"
_symmetry_group_IT_number 40
_symmetry_cell_setting 'orthorhombic'
loop_
_space_group_symop_operation_xyz
x,y,z
-x,-y,z
1/2-x,y,z
1/2+x,-y,z
x,1/2+y,1/2+z
-x,1/2-y,1/2+z
1/2-x,1/2+y,1/2+z
1/2+x,1/2-y,1/2+z
loop_
_atom_site_type_symbol
_atom_site_label
_atom_site_fract_x
_atom_site_fract_y
_atom_site_fract_z
Si Si1 0.562917 0.297316 0.783870
Si Si2 0.429433 0.641810 0.902204
Si Si3 0.938300 0.404305 0.025150
Si Si4 0.065272 0.896168 0.172083
Si Si5 0.434634 0.705191 0.561870
Si Si6 0.430816 0.671288 0.435439
Si Si7 0.430998 0.596736 0.314748
O O1 0.750000 0.299828 0.785631
O O2 0.503013 0.358536 0.838361
O O3 0.502615 0.339719 0.725520
O O4 0.510001 0.190955 0.792422
O O5 0.250000 0.612273 0.898798
O O6 0.446470 0.749746 0.918755
O O7 0.499118 0.596997 0.959062
O O8 0.750000 0.402245 0.025240
O O9 0.000000 0.500000 0.051524
O O10 0.001127 0.309525 0.052747
O O11 0.250000 0.899199 0.176722
O O12 0.016392 0.845542 0.113843
O O13 0.000000 0.000000 0.172498
O O14 0.250000 0.709768 0.572436
O O15 0.457989 0.650431 0.501738
O O16 0.250000 0.707179 0.432364
O O17 0.442879 0.599186 0.384125
O O18 0.500000 0.500000 0.293702
O O19 0.250000 0.601944 0.299894
#
# Coordination Sequence:
#
# PCOD9363200 Si02
#       7
#     8   8   8   8   8   8   8
#     4  10  20  38  60  84 114 150 190 237 285 334
#     4   8  16  30  51  78 110 145 183 224 272 324
#     4  10  19  33  54  85 120 155 190 229 278 337
#     4  12  26  44  63  84 109 144 188 236 284 336
#     4  10  20  38  60  84 114 150 190 237 285 334
#     4   8  16  30  51  78 110 145 183 224 272 324
#     4  10  19  33  54  85 120 155 190 229 278 337
#
# _framework density 19.275603
#
# number of rings (size 3 to 8) (size 9 to 14) (size 15 to 20)
#    0.000    2.286    0.000    3.000    0.000    3.429 
#    0.000    3.571    0.000    0.000    0.000    0.000 
#    0.000    0.000    0.000    0.000    0.000    0.000 
#
# Total GULP energy -156011.301162 kJ/mol
# GULP energy per Si atom -5571.832184 kJ/mol
# Density = 1.923173 g / cm^3
# Si number density = 19.275603 Si / 1000 Ang^3
#
#
#
# Elastic Constant Matrix: (Units=GPa)
#
#
# Indices 1 2 3 4 5 6 
#
# 1 78.6073 42.6365 36.8934 0.0000 0.0000 0.0000
# 2 42.6365 115.3378 54.0680 0.0000 0.0000 0.0000
# 3 36.8934 54.0680 118.0120 0.0000 0.0000 0.0000
# 4 0.0000 0.0000 0.0000 9.1656 0.0000 0.0000
# 5 0.0000 0.0000 0.0000 0.0000 22.4347 0.0000
# 6 0.0000 0.0000 0.0000 0.0000 0.0000 27.3703
#
#
#
# Elastic Compliance Matrix: (Units=1/GPa)
#
#
# Indices 1 2 3 4 5 6 
#
# 1 0.016733 -0.004755 -0.003053 0.000000 0.000000 0.000000
# 2 -0.004755 0.012393 -0.004191 0.000000 0.000000 0.000000
# 3 -0.003053 -0.004191 0.011348 0.000000 0.000000 0.000000
# 4 0.000000 0.000000 0.000000 0.109104 0.000000 0.000000
# 5 0.000000 0.000000 0.000000 0.000000 0.044574 0.000000
# 6 0.000000 0.000000 0.000000 0.000000 0.000000 0.036536
#
#
# Mechanical properties :
#
#
# Convention : Reuss Voigt Hill
#
# Bulk Modulus (GPa) = 60.69207 64.35030 62.52119
# Shear Modulus (GPa) = 19.21765 23.68472 21.45118
#
# Velocity S-wave (km/s) = 3.16095 3.50914 3.33959
# Velocity P-wave (km/s) = 6.69902 7.06226 6.88304
#
# Compressibility (1/GPa) = 0.01647662
#
# Stress axis : x y z
#
# Youngs Moduli (GPa) = 59.76156 80.69316 88.11803
#
# Poissons Ratio (x) = 0.38366 0.26901
# Poissons Ratio (y) = 0.28414 0.36934
# Poissons Ratio (z) = 0.18244 0.33822
#
# Static dielectric constant tensor:
#      x y z
#    x 1.660060 0.000000 0.000000 
#    y 0.000000 1.674780 0.000000 
#    z 0.000000 0.000000 1.696440 
# 
# From -- ./inp_files/22199.got.cif
#   From: 2010.05.17/outbox.cif.g08.bks.cpg/sg40_12_cif.got.tgz:22199.got - 2010.06.03 18:35:42.
