data_PCOD9363686
_publ_section_title
;
Structure prediction by ZEFSAII (Michael W. Deem and Ramdas Pophale) SiO2 
 PCOD9363686
Probable space group: A M A 2
;
_chemical_formula_sum "Si O2"
_cell_formula_units_Z 64
_cell_length_a 9.235714
_cell_length_b 16.586552
_cell_length_c 22.360416
_cell_angle_alpha 90.000000
_cell_angle_beta 90.000000
_cell_angle_gamma 90.000000
_cell_volume 3425.361952
_symmetry_space_group_name_H-M "A M A 2"
_symmetry_group_IT_number 40
_symmetry_cell_setting 'orthorhombic'
loop_
_space_group_symop_operation_xyz
x,y,z
-x,-y,z
1/2-x,y,z
1/2+x,-y,z
x,1/2+y,1/2+z
-x,1/2-y,1/2+z
1/2-x,1/2+y,1/2+z
1/2+x,1/2-y,1/2+z
loop_
_atom_site_type_symbol
_atom_site_label
_atom_site_fract_x
_atom_site_fract_y
_atom_site_fract_z
Si Si1 0.912717 0.730249 0.936840
Si Si2 0.913343 0.571157 0.013745
Si Si3 0.575110 0.083013 0.651321
Si Si4 0.423857 0.081772 0.098945
Si Si5 0.920135 0.757377 0.802471
Si Si6 0.580677 0.079331 0.839266
Si Si7 0.575915 0.267901 0.686003
Si Si8 0.083141 0.879714 0.977493
O O1 0.750000 0.767728 0.942707
O O2 0.933865 0.714334 0.866760
O O3 0.032732 0.789450 0.962417
O O4 0.915664 0.650668 0.975342
O O5 0.750000 0.542778 0.020664
O O6 0.966019 0.586751 0.080984
O O7 0.000000 0.500000 0.983882
O O8 0.750000 0.075291 0.657906
O O9 0.536146 0.173394 0.673791
O O10 0.500000 0.000000 0.674444
O O11 0.250000 0.072857 0.099457
O O12 0.459858 0.164358 0.135719
O O13 0.500000 0.000000 0.123062
O O14 0.481211 0.090769 0.030893
O O15 0.750000 0.769591 0.790189
O O16 0.000149 0.842537 0.813880
O O17 0.996927 0.712573 0.748053
O O18 0.750000 0.080864 0.823026
O O19 0.570742 0.080313 0.911865
O O20 0.500000 0.000000 0.817592
O O21 0.750000 0.269470 0.692192
O O22 0.250000 0.885803 0.996656
#
# Coordination Sequence:
#
# PCOD9363686 Si02
#       8
#     8   8   8   8   8   8   8   8
#     4   9  18  34  54  76 106 142 176 215 269 328
#     4   9  17  31  51  76 105 134 167 210 261 319
#     4   9  18  33  54  80 108 139 173 210 259 318
#     4  11  23  39  59  82 110 146 187 233 283 333
#     4  10  21  36  55  77 102 137 181 226 269 317
#     4  10  20  34  53  79 111 143 175 214 265 325
#     4  10  22  40  58  76 106 148 187 227 276 326
#     4  10  20  33  54  84 113 141 175 219 271 330
#
# _framework density 18.684156999999999
#
# number of rings (size 3 to 8) (size 9 to 14) (size 15 to 20)
#    0.000    2.250    0.000    2.625    0.000    7.500 
#    0.000    4.375    0.000    3.000    0.000    0.000 
#    0.000    0.000    0.000    0.000    0.000    0.000 
#
# Total GULP energy -178380.942485 kJ/mol
# GULP energy per Si atom -5574.404453 kJ/mol
# Density = 1.864163 g / cm^3
# Si number density = 18.684157 Si / 1000 Ang^3
#
#
#
# Elastic Constant Matrix: (Units=GPa)
#
#
# Indices 1 2 3 4 5 6 
#
# 1 55.5854 34.9946 33.2611 0.0000 0.0000 0.0000
# 2 34.9946 67.1345 32.2677 0.0000 0.0000 0.0000
# 3 33.2611 32.2677 83.4976 0.0000 0.0000 0.0000
# 4 0.0000 0.0000 0.0000 -1.9904 0.0000 0.0000
# 5 0.0000 0.0000 0.0000 0.0000 28.3091 0.0000
# 6 0.0000 0.0000 0.0000 0.0000 0.0000 30.2340
#
#
#
# Elastic Compliance Matrix: (Units=1/GPa)
#
#
# Indices 1 2 3 4 5 6 
#
# 1 0.029969 -0.012138 -0.007247 0.000000 0.000000 0.000000
# 2 -0.012138 0.023210 -0.004134 0.000000 0.000000 0.000000
# 3 -0.007247 -0.004134 0.016461 0.000000 0.000000 0.000000
# 4 0.000000 0.000000 0.000000 -0.502418 0.000000 0.000000
# 5 0.000000 0.000000 0.000000 0.000000 0.035324 0.000000
# 6 0.000000 0.000000 0.000000 0.000000 0.000000 0.033075
#
#
# Mechanical properties :
#
#
# Convention : Reuss Voigt Hill
#
# Bulk Modulus (GPa) = 44.24728 45.25158 44.74943
# Shear Modulus (GPa) = -16.13908 18.35684 1.10888
#
# Velocity S-wave (km/s) = -2.94221 3.13786 0.77122
# Velocity P-wave (km/s) = 3.49156 6.11555 4.97951
#
# Compressibility (1/GPa) = 0.02260026
#
# Stress axis : x y z
#
# Youngs Moduli (GPa) = 33.36820 43.08549 60.74993
#
# Poissons Ratio (x) = 0.52298 0.44026
# Poissons Ratio (y) = 0.40503 0.25115
# Poissons Ratio (z) = 0.24182 0.17812
#
# Static dielectric constant tensor:
#      x y z
#    x 1.638690 0.000000 0.000000 
#    y 0.000000 1.648170 0.000000 
#    z 0.000000 0.000000 1.661110 
# 
# From -- ./inp_files/22361.got.cif
#   From: 2010.05.17/outbox.cif.g08.bks.cpg/sg40_12_cif.got.tgz:22361.got - 2010.06.03 18:35:42.
