data_PCOD9363593
_publ_section_title
;
Structure prediction by ZEFSAII (Michael W. Deem and Ramdas Pophale) SiO2 
 PCOD9363593
Probable space group: A M A 2
;
_chemical_formula_sum "Si O2"
_cell_formula_units_Z 64
_cell_length_a 18.393817
_cell_length_b 7.127931
_cell_length_c 21.602877
_cell_angle_alpha 90.000000
_cell_angle_beta 90.000000
_cell_angle_gamma 90.000000
_cell_volume 2832.350145
_symmetry_space_group_name_H-M "A M A 2"
_symmetry_group_IT_number 40
_symmetry_cell_setting 'orthorhombic'
loop_
_space_group_symop_operation_xyz
x,y,z
-x,-y,z
1/2-x,y,z
1/2+x,-y,z
x,1/2+y,1/2+z
-x,1/2-y,1/2+z
1/2-x,1/2+y,1/2+z
1/2+x,1/2-y,1/2+z
loop_
_atom_site_type_symbol
_atom_site_label
_atom_site_fract_x
_atom_site_fract_y
_atom_site_fract_z
Si Si1 0.891855 0.652995 0.553920
Si Si2 0.063672 0.764715 0.553279
Si Si3 0.670052 0.130784 0.314283
Si Si4 0.602627 0.177584 0.188314
Si Si5 0.944520 0.719682 0.920159
Si Si6 0.329485 0.314220 0.292241
Si Si7 0.062294 0.271307 0.187662
Si Si8 0.398906 0.349557 0.420909
O O1 0.890028 0.426542 0.554566
O O2 0.863925 0.719458 0.620660
O O3 0.863658 0.711506 0.486223
O O4 0.978005 0.707732 0.553799
O O5 0.073652 0.866583 0.487754
O O6 0.078175 0.856211 0.619715
O O7 0.750000 0.190146 0.336725
O O8 0.650281 0.220061 0.248225
O O9 0.607154 0.160272 0.364540
O O10 0.672726 0.910744 0.299145
O O11 0.524051 0.273631 0.196916
O O12 0.584068 0.951866 0.186371
O O13 0.031092 0.716443 0.906345
O O14 0.928814 0.940567 0.930722
O O15 0.250000 0.379488 0.272343
O O16 0.391948 0.358307 0.243082
O O17 0.348521 0.372116 0.361728
#
# Coordination Sequence:
#
# PCOD9363593 Si02
#       8
#     8   8   8   8   8   8   8   8
#     4   7  11  22  42  67  89 107 136 183 230 265
#     4   7  11  22  42  67  89 107 136 183 230 265
#     4  10  20  31  43  64  95 126 153 182 217 260
#     4   8  13  24  44  66  86 111 145 185 226 264
#     4   9  17  30  49  71  92 115 146 185 227 269
#     4  10  20  31  43  64  95 126 153 182 217 260
#     4   8  13  24  44  66  86 111 145 185 226 264
#     4   9  17  30  49  71  92 115 146 185 227 269
#
# _framework density 22.596077999999999
#
# number of rings (size 3 to 8) (size 9 to 14) (size 15 to 20)
#    0.000    3.500    0.000    3.750    0.000    2.000 
#    0.000    1.250    0.000    6.000    0.000    3.500 
#    0.000    0.000    0.000    0.000    0.000    0.000 
#
# Total GULP energy -178450.705926 kJ/mol
# GULP energy per Si atom -5576.584560 kJ/mol
# Density = 2.254465 g / cm^3
# Si number density = 22.596078 Si / 1000 Ang^3
#
#
#
# Elastic Constant Matrix: (Units=GPa)
#
#
# Indices 1 2 3 4 5 6 
#
# 1 48.3350 6.9999 48.8345 0.0000 0.0000 0.0000
# 2 6.9999 64.8146 2.5419 0.0000 0.0000 0.0000
# 3 48.8345 2.5419 177.7253 0.0000 0.0000 0.0000
# 4 0.0000 0.0000 0.0000 11.5315 0.0000 0.0000
# 5 0.0000 0.0000 0.0000 0.0000 -5.7087 0.0000
# 6 0.0000 0.0000 0.0000 0.0000 0.0000 11.8481
#
#
#
# Elastic Compliance Matrix: (Units=1/GPa)
#
#
# Indices 1 2 3 4 5 6 
#
# 1 0.029152 -0.002836 -0.007970 0.000000 0.000000 0.000000
# 2 -0.002836 0.015713 0.000554 0.000000 0.000000 0.000000
# 3 -0.007970 0.000554 0.007809 0.000000 0.000000 0.000000
# 4 0.000000 0.000000 0.000000 0.086719 0.000000 0.000000
# 5 0.000000 0.000000 0.000000 0.000000 -0.175172 0.000000
# 6 0.000000 0.000000 0.000000 0.000000 0.000000 0.084402
#
#
# Mechanical properties :
#
#
# Convention : Reuss Voigt Hill
#
# Bulk Modulus (GPa) = 31.08340 45.29194 38.18767
# Shear Modulus (GPa) = 62.61869 19.03407 40.82638
#
# Velocity S-wave (km/s) = 5.26995 2.90550 4.25525
# Velocity P-wave (km/s) = 7.12852 5.59853 6.40934
#
# Compressibility (1/GPa) = 0.03217151
#
# Stress axis : x y z
#
# Youngs Moduli (GPa) = 34.30345 63.64097 128.06438
#
# Poissons Ratio (x) = 0.18047 1.02062
# Poissons Ratio (y) = 0.09728 -0.07101
# Poissons Ratio (z) = 0.27338 -0.03529
#
# Static dielectric constant tensor:
#      x y z
#    x 1.785450 0.000000 0.000000 
#    y 0.000000 1.992540 0.000000 
#    z 0.000000 0.000000 1.879760 
# 
# From -- ./inp_files/23435.got.cif
#   From: 2010.05.17/outbox.cif.g08.bks.cpg/sg40_12_cif.got.tgz:23435.got - 2010.06.03 18:35:42.
