data_PCOD9363618
_publ_section_title
;
Structure prediction by ZEFSAII (Michael W. Deem and Ramdas Pophale) SiO2 
 PCOD9363618
Probable space group: A M A 2
;
_chemical_formula_sum "Si O2"
_cell_formula_units_Z 56
_cell_length_a 9.590212
_cell_length_b 20.649446
_cell_length_c 14.774489
_cell_angle_alpha 90.000000
_cell_angle_beta 90.000000
_cell_angle_gamma 90.000000
_cell_volume 2925.829951
_symmetry_space_group_name_H-M "A M A 2"
_symmetry_group_IT_number 40
_symmetry_cell_setting 'orthorhombic'
loop_
_space_group_symop_operation_xyz
x,y,z
-x,-y,z
1/2-x,y,z
1/2+x,-y,z
x,1/2+y,1/2+z
-x,1/2-y,1/2+z
1/2-x,1/2+y,1/2+z
1/2+x,1/2-y,1/2+z
loop_
_atom_site_type_symbol
_atom_site_label
_atom_site_fract_x
_atom_site_fract_y
_atom_site_fract_z
Si Si1 0.406493 0.288597 0.482740
Si Si2 0.916495 0.315781 0.314013
Si Si3 0.084900 0.067712 0.278754
Si Si4 0.915199 0.686021 0.695640
Si Si5 0.399971 0.637032 0.972548
Si Si6 0.092313 0.441419 0.271556
Si Si7 0.400105 0.445407 0.058730
O O1 0.250000 0.316080 0.464342
O O2 0.527009 0.313541 0.416986
O O3 0.433159 0.296538 0.589619
O O4 0.397768 0.212966 0.458142
O O5 0.750000 0.326300 0.308946
O O6 0.946730 0.248949 0.258872
O O7 0.004473 0.375560 0.274981
O O8 0.250000 0.059214 0.256031
O O9 0.080909 0.098120 0.379889
O O10 0.009004 0.123947 0.220324
O O11 0.000000 0.000000 0.273554
O O12 0.750000 0.671382 0.709931
O O13 0.250000 0.617637 0.013820
O O14 0.524971 0.621354 0.039069
O O15 0.250000 0.436615 0.309248
O O16 0.110146 0.456043 0.165066
O O17 0.000000 0.500000 0.311695
O O18 0.500000 0.500000 0.020142
O O19 0.250000 0.448113 0.014993
#
# Coordination Sequence:
#
# PCOD9363618 Si02
#       7
#     8   8   8   8   8   8   8
#     4  10  21  39  61  87 119 156 200 250 305 362
#     4  11  22  38  62  91 121 156 198 249 303 364
#     4  11  23  39  61  87 122 165 210 260 314 374
#     4  10  22  40  63  90 124 164 206 254 308 368
#     4  10  20  35  56  84 117 154 193 244 307 366
#     4  10  21  37  57  83 117 157 198 244 299 359
#     4  10  20  32  50  78 112 150 190 233 285 349
#
# _framework density 19.139868
#
# number of rings (size 3 to 8) (size 9 to 14) (size 15 to 20)
#    0.000    1.714    1.429    3.000    0.000    6.857 
#    0.000    0.714    0.000    3.429    0.000    0.000 
#    0.000    0.000    0.000    0.000    0.000    0.000 
#
# Total GULP energy -156066.007472 kJ/mol
# GULP energy per Si atom -5573.785981 kJ/mol
# Density = 1.909630 g / cm^3
# Si number density = 19.139868 Si / 1000 Ang^3
#
#
#
# Elastic Constant Matrix: (Units=GPa)
#
#
# Indices 1 2 3 4 5 6 
#
# 1 161.9323 76.6123 42.1960 0.0000 0.0000 0.0000
# 2 76.6123 114.6370 25.4403 0.0000 0.0000 0.0000
# 3 42.1960 25.4403 66.9869 0.0000 0.0000 0.0000
# 4 0.0000 0.0000 0.0000 30.0413 0.0000 0.0000
# 5 0.0000 0.0000 0.0000 0.0000 27.7734 0.0000
# 6 0.0000 0.0000 0.0000 0.0000 0.0000 14.9895
#
#
#
# Elastic Compliance Matrix: (Units=1/GPa)
#
#
# Indices 1 2 3 4 5 6 
#
# 1 0.009962 -0.005749 -0.004091 0.000000 0.000000 0.000000
# 2 -0.005749 0.012844 -0.001256 0.000000 0.000000 0.000000
# 3 -0.004091 -0.001256 0.017983 0.000000 0.000000 0.000000
# 4 0.000000 0.000000 0.000000 0.033287 0.000000 0.000000
# 5 0.000000 0.000000 0.000000 0.000000 0.036006 0.000000
# 6 0.000000 0.000000 0.000000 0.000000 0.000000 0.066714
#
#
# Mechanical properties :
#
#
# Convention : Reuss Voigt Hill
#
# Bulk Modulus (GPa) = 53.78032 70.22816 62.00424
# Shear Modulus (GPa) = 24.36787 27.84800 26.10793
#
# Velocity S-wave (km/s) = 3.57199 3.81855 3.69733
# Velocity P-wave (km/s) = 6.72099 7.49757 7.11987
#
# Compressibility (1/GPa) = 0.01859416
#
# Stress axis : x y z
#
# Youngs Moduli (GPa) = 100.38420 77.85493 55.60892
#
# Poissons Ratio (x) = 0.44762 0.22752
# Poissons Ratio (y) = 0.57716 0.06987
# Poissons Ratio (z) = 0.41072 0.09782
#
# Static dielectric constant tensor:
#      x y z
#    x 1.716130 0.000000 0.000000 
#    y 0.000000 1.684370 0.000000 
#    z 0.000000 0.000000 1.666300 
# 
# From -- ./inp_files/15276.got.cif
#   From: 2010.05.17/outbox.cif.g08.bks.cpg/sg40_8_cif.got.tgz:15276.got - 2010.06.03 18:35:42.
