data_PCOD9363479
_publ_section_title
;
Structure prediction by ZEFSAII (Michael W. Deem and Ramdas Pophale) SiO2 
 PCOD9363479
Probable space group: A M A 2
;
_chemical_formula_sum "Si O2"
_cell_formula_units_Z 64
_cell_length_a 14.853927
_cell_length_b 8.322778
_cell_length_c 23.788806
_cell_angle_alpha 90.000000
_cell_angle_beta 90.000000
_cell_angle_gamma 90.000000
_cell_volume 2940.913428
_symmetry_space_group_name_H-M "A M A 2"
_symmetry_group_IT_number 40
_symmetry_cell_setting 'orthorhombic'
loop_
_space_group_symop_operation_xyz
x,y,z
-x,-y,z
1/2-x,y,z
1/2+x,-y,z
x,1/2+y,1/2+z
-x,1/2-y,1/2+z
1/2-x,1/2+y,1/2+z
1/2+x,1/2-y,1/2+z
loop_
_atom_site_type_symbol
_atom_site_label
_atom_site_fract_x
_atom_site_fract_y
_atom_site_fract_z
Si Si1 0.639319 0.399031 0.458200
Si Si2 0.856263 0.031483 0.478775
Si Si3 0.891907 0.007024 0.349847
Si Si4 0.466624 0.148301 0.724680
Si Si5 0.643869 0.202341 0.030383
Si Si6 0.344501 0.183677 0.241368
Si Si7 0.853062 0.878274 0.832135
Si Si8 0.600037 0.573193 0.652662
O O1 0.750000 0.392976 0.459217
O O2 0.607860 0.552465 0.493688
O O3 0.613860 0.432209 0.393403
O O4 0.609176 0.218756 0.478418
O O5 0.750000 0.047570 0.491437
O O6 0.868414 0.971490 0.414419
O O7 0.892636 0.882707 0.516786
O O8 0.847555 0.898916 0.302335
O O9 0.857750 0.185794 0.337652
O O10 0.000000 0.000000 0.343292
O O11 0.559113 0.234471 0.739492
O O12 0.414425 0.083708 0.779080
O O13 0.405671 0.274151 0.693317
O O14 0.500000 0.000000 0.687213
O O15 0.750000 0.213475 0.016575
O O16 0.635177 0.139560 0.093909
O O17 0.250000 0.276095 0.236044
O O18 0.347988 0.059655 0.188987
O O19 0.750000 0.929940 0.824365
O O20 0.500000 0.500000 0.643721
#
# Coordination Sequence:
#
# PCOD9363479 Si02
#       8
#     8   8   8   8   8   8   8   8
#     4   8  17  35  58  88 124 160 201 251 305 370
#     4   9  19  35  57  88 121 158 205 253 309 377
#     4  11  18  34  59  93 125 160 204 257 314 372
#     4  11  24  41  59  92 131 162 206 264 317 386
#     4  10  20  39  63  87 118 162 212 258 309 375
#     4  11  21  39  66  90 118 164 214 263 315 373
#     4  10  19  36  62  90 127 169 202 249 320 379
#     4  10  22  43  61  85 117 158 212 260 313 375
#
# _framework density 21.761945999999998
#
# number of rings (size 3 to 8) (size 9 to 14) (size 15 to 20)
#    0.000    2.000    2.500    2.625    0.000    2.000 
#    9.000    1.250    0.000    0.000    0.000    0.000 
#    0.000    0.000    0.000    0.000    0.000    0.000 
#
# Total GULP energy -178415.043471 kJ/mol
# GULP energy per Si atom -5575.470108 kJ/mol
# Density = 2.171241 g / cm^3
# Si number density = 21.761946 Si / 1000 Ang^3
#
#
#
# Elastic Constant Matrix: (Units=GPa)
#
#
# Indices 1 2 3 4 5 6 
#
# 1 63.3112 8.4631 2.8223 0.0000 0.0000 0.0000
# 2 8.4631 90.1778 52.5372 0.0000 0.0000 0.0000
# 3 2.8223 52.5372 77.3904 0.0000 0.0000 0.0000
# 4 0.0000 0.0000 0.0000 -18.5004 0.0000 0.0000
# 5 0.0000 0.0000 0.0000 0.0000 5.1645 0.0000
# 6 0.0000 0.0000 0.0000 0.0000 0.0000 -9.4569
#
#
#
# Elastic Compliance Matrix: (Units=1/GPa)
#
#
# Indices 1 2 3 4 5 6 
#
# 1 0.016020 -0.001924 0.000722 0.000000 0.000000 0.000000
# 2 -0.001924 0.018576 -0.012540 0.000000 0.000000 0.000000
# 3 0.000722 -0.012540 0.021408 0.000000 0.000000 0.000000
# 4 0.000000 0.000000 0.000000 -0.054053 0.000000 0.000000
# 5 0.000000 0.000000 0.000000 0.000000 0.193630 0.000000
# 6 0.000000 0.000000 0.000000 0.000000 0.000000 -0.105743
#
#
# Mechanical properties :
#
#
# Convention : Reuss Voigt Hill
#
# Bulk Modulus (GPa) = 35.06389 39.83605 37.44997
# Shear Modulus (GPa) = 39.42318 6.57856 23.00087
#
# Velocity S-wave (km/s) = 4.26087 1.74055 3.25457
# Velocity P-wave (km/s) = 6.35249 4.73122 5.60083
#
# Compressibility (1/GPa) = 0.02851937
#
# Stress axis : x y z
#
# Youngs Moduli (GPa) = 62.42196 53.83426 46.71135
#
# Poissons Ratio (x) = 0.10358 -0.03372
# Poissons Ratio (y) = 0.12010 0.58576
# Poissons Ratio (z) = -0.04507 0.67508
#
# Static dielectric constant tensor:
#      x y z
#    x 1.871460 0.000000 0.000000 
#    y 0.000000 1.852850 0.000000 
#    z 0.000000 0.000000 1.818850 
# 
# From -- ./inp_files/24790.got.cif
#   From: 2010.05.17/outbox.cif.g08.bks.cpg/sg40_13_cif.got.tgz:24790.got - 2010.06.03 18:35:42.
