data_PCOD9363655
_publ_section_title
;
Structure prediction by ZEFSAII (Michael W. Deem and Ramdas Pophale) SiO2 
 PCOD9363655
Probable space group: A M A 2
;
_chemical_formula_sum "Si O2"
_cell_formula_units_Z 64
_cell_length_a 8.713443
_cell_length_b 30.742281
_cell_length_c 14.682862
_cell_angle_alpha 90.000000
_cell_angle_beta 90.000000
_cell_angle_gamma 90.000000
_cell_volume 3933.114589
_symmetry_space_group_name_H-M "A M A 2"
_symmetry_group_IT_number 40
_symmetry_cell_setting 'orthorhombic'
loop_
_space_group_symop_operation_xyz
x,y,z
-x,-y,z
1/2-x,y,z
1/2+x,-y,z
x,1/2+y,1/2+z
-x,1/2-y,1/2+z
1/2-x,1/2+y,1/2+z
1/2+x,1/2-y,1/2+z
loop_
_atom_site_type_symbol
_atom_site_label
_atom_site_fract_x
_atom_site_fract_y
_atom_site_fract_z
Si Si1 0.434045 0.547303 0.714870
Si Si2 0.929079 0.815410 0.306743
Si Si3 0.932021 0.217943 0.596244
Si Si4 0.432383 0.365026 0.971828
Si Si5 0.929882 0.776665 0.796946
Si Si6 0.932549 0.634209 0.639404
Si Si7 0.066238 0.047296 0.430814
Si Si8 0.931894 0.700292 0.483019
O O1 0.500000 0.500000 0.690758
O O2 0.250000 0.548333 0.705493
O O3 0.509941 0.585373 0.655618
O O4 0.469887 0.554254 0.822686
O O5 0.750000 0.803817 0.308781
O O6 0.970736 0.849083 0.385215
O O7 0.032606 0.773279 0.321660
O O8 0.975100 0.836713 0.211688
O O9 0.750000 0.225625 0.595667
O O10 0.961778 0.171529 0.548144
O O11 0.990637 0.216206 0.699670
O O12 0.007367 0.257714 0.539737
O O13 0.250000 0.364846 0.952154
O O14 0.488431 0.414050 0.987826
O O15 0.750000 0.783348 0.786994
O O16 0.993524 0.802477 0.883656
O O17 0.750000 0.636868 0.658603
O O18 0.959732 0.657040 0.542538
O O19 0.250000 0.048078 0.440448
O O20 0.000000 0.000000 0.454679
O O21 0.750000 0.706155 0.472586
#
# Coordination Sequence:
#
# PCOD9363655 Si02
#       8
#     8   8   8   8   8   8   8   8
#     4  10  20  33  51  76 107 142 177 217 264 315
#     4  12  22  32  51  75 106 143 181 222 265 313
#     4  11  23  37  55  78 107 142 182 223 268 319
#     4  11  22  35  53  77 107 142 180 220 266 319
#     4  12  24  38  54  75 106 143 184 228 270 311
#     4  11  22  35  53  77 107 142 180 220 266 319
#     4  10  20  33  51  76 107 142 177 217 264 315
#     4  11  23  37  55  78 107 142 182 223 268 319
#
# _framework density 16.272091
#
# number of rings (size 3 to 8) (size 9 to 14) (size 15 to 20)
#    0.000    1.000    3.750    4.500    0.000    4.000 
#    0.000    0.000    0.000    0.000    0.000    0.875 
#    0.000    0.000    0.000    0.000    0.000    0.000 
#
# Total GULP energy -178748.070798 kJ/mol
# GULP energy per Si atom -5585.877212 kJ/mol
# Density = 1.623506 g / cm^3
# Si number density = 16.272091 Si / 1000 Ang^3
#
#
#
# Elastic Constant Matrix: (Units=GPa)
#
#
# Indices 1 2 3 4 5 6 
#
# 1 49.5949 14.4658 5.6835 0.0000 0.0000 0.0000
# 2 14.4658 71.5593 -3.6748 0.0000 0.0000 0.0000
# 3 5.6835 -3.6748 34.1398 0.0000 0.0000 0.0000
# 4 0.0000 0.0000 0.0000 18.7558 0.0000 0.0000
# 5 0.0000 0.0000 0.0000 0.0000 21.5664 0.0000
# 6 0.0000 0.0000 0.0000 0.0000 0.0000 22.0378
#
#
#
# Elastic Compliance Matrix: (Units=1/GPa)
#
#
# Indices 1 2 3 4 5 6 
#
# 1 0.022000 -0.004661 -0.004164 0.000000 0.000000 0.000000
# 2 -0.004661 0.015040 0.002395 0.000000 0.000000 0.000000
# 3 -0.004164 0.002395 0.030242 0.000000 0.000000 0.000000
# 4 0.000000 0.000000 0.000000 0.053317 0.000000 0.000000
# 5 0.000000 0.000000 0.000000 0.000000 0.046368 0.000000
# 6 0.000000 0.000000 0.000000 0.000000 0.000000 0.045377
#
#
# Mechanical properties :
#
#
# Convention : Reuss Voigt Hill
#
# Bulk Modulus (GPa) = 18.37526 20.91589 19.64557
# Shear Modulus (GPa) = 20.54691 21.72664 21.13677
#
# Velocity S-wave (km/s) = 3.55732 3.65801 3.60802
# Velocity P-wave (km/s) = 5.30940 5.54285 5.42738
#
# Compressibility (1/GPa) = 0.05442099
#
# Stress axis : x y z
#
# Youngs Moduli (GPa) = 45.45423 66.49072 33.06622
#
# Poissons Ratio (x) = 0.30993 0.13770
# Poissons Ratio (y) = 0.21187 -0.07919
# Poissons Ratio (z) = 0.18928 -0.15924
#
# Static dielectric constant tensor:
#      x y z
#    x 1.541030 0.000000 0.000000 
#    y 0.000000 1.561140 0.000000 
#    z 0.000000 0.000000 1.539280 
# 
# From -- ./inp_files/10548.got.cif
#   From: 2010.05.17/outbox.cif.g08.bks.cpg/sg40_6_cif.got.tgz:10548.got - 2010.06.03 18:35:42.
