data_PCOD9363685
_publ_section_title
;
Structure prediction by ZEFSAII (Michael W. Deem and Ramdas Pophale) SiO2 
 PCOD9363685
Probable space group: A M A 2
;
_chemical_formula_sum "Si O2"
_cell_formula_units_Z 56
_cell_length_a 8.947670
_cell_length_b 24.445418
_cell_length_c 13.777280
_cell_angle_alpha 90.000000
_cell_angle_beta 90.000000
_cell_angle_gamma 90.000000
_cell_volume 3013.498024
_symmetry_space_group_name_H-M "A M A 2"
_symmetry_group_IT_number 40
_symmetry_cell_setting 'orthorhombic'
loop_
_space_group_symop_operation_xyz
x,y,z
-x,-y,z
1/2-x,y,z
1/2+x,-y,z
x,1/2+y,1/2+z
-x,1/2-y,1/2+z
1/2-x,1/2+y,1/2+z
1/2+x,1/2-y,1/2+z
loop_
_atom_site_type_symbol
_atom_site_label
_atom_site_fract_x
_atom_site_fract_y
_atom_site_fract_z
Si Si1 0.428155 0.441711 0.692400
Si Si2 0.426815 0.125899 0.798238
Si Si3 0.429253 0.338105 0.994233
Si Si4 0.428663 0.274947 0.188157
Si Si5 0.928959 0.836357 0.288074
Si Si6 0.428537 0.559615 0.101345
Si Si7 0.572570 0.558279 0.463740
O O1 0.500000 0.500000 0.718512
O O2 0.250000 0.443585 0.706341
O O3 0.500017 0.392758 0.752258
O O4 0.458506 0.432229 0.577643
O O5 0.250000 0.129660 0.813052
O O6 0.490677 0.183273 0.760727
O O7 0.454559 0.082896 0.710261
O O8 0.505133 0.104188 0.894587
O O9 0.250000 0.341728 0.984639
O O10 0.465270 0.294660 0.079397
O O11 0.495126 0.396126 0.030601
O O12 0.504462 0.322713 0.893220
O O13 0.250000 0.281534 0.200061
O O14 0.466907 0.212911 0.214418
O O15 0.750000 0.841239 0.293383
O O16 0.500000 0.500000 0.090587
O O17 0.250000 0.557972 0.085023
O O18 0.500000 0.500000 0.437352
O O19 0.750000 0.554970 0.450560
#
# Coordination Sequence:
#
# PCOD9363685 Si02
#       7
#     8   8   8   8   8   8   8
#     4  10  22  40  60  84 113 147 187 232 278 329
#     4  10  20  33  54  83 115 151 191 234 281 332
#     4  10  21  39  60  83 112 147 187 231 276 328
#     4   9  21  40  59  81 113 149 186 230 278 328
#     4  11  23  40  62  87 114 146 183 227 279 333
#     4  10  20  34  53  81 114 150 190 234 282 332
#     4  10  20  34  54  81 115 152 191 234 281 332
#
# _framework density 18.583054000000001
#
# number of rings (size 3 to 8) (size 9 to 14) (size 15 to 20)
#    0.000    2.000    0.000    3.000    0.000    8.000 
#    0.000    5.714    0.000    0.000    0.000    0.000 
#    0.000    0.000    0.000    0.000    0.000    0.000 
#
# Total GULP energy -156439.495309 kJ/mol
# GULP energy per Si atom -5587.124832 kJ/mol
# Density = 1.854076 g / cm^3
# Si number density = 18.583054 Si / 1000 Ang^3
#
#
#
# Elastic Constant Matrix: (Units=GPa)
#
#
# Indices 1 2 3 4 5 6 
#
# 1 58.4021 52.7057 50.3395 0.0000 0.0000 0.0000
# 2 52.7057 124.7369 66.9588 0.0000 0.0000 0.0000
# 3 50.3395 66.9588 79.2035 0.0000 0.0000 0.0000
# 4 0.0000 0.0000 0.0000 19.5186 0.0000 0.0000
# 5 0.0000 0.0000 0.0000 0.0000 32.9060 0.0000
# 6 0.0000 0.0000 0.0000 0.0000 0.0000 28.8471
#
#
#
# Elastic Compliance Matrix: (Units=1/GPa)
#
#
# Indices 1 2 3 4 5 6 
#
# 1 0.040167 -0.005983 -0.020471 0.000000 0.000000 0.000000
# 2 -0.005983 0.015569 -0.009359 0.000000 0.000000 0.000000
# 3 -0.020471 -0.009359 0.033549 0.000000 0.000000 0.000000
# 4 0.000000 0.000000 0.000000 0.051233 0.000000 0.000000
# 5 0.000000 0.000000 0.000000 0.000000 0.030390 0.000000
# 6 0.000000 0.000000 0.000000 0.000000 0.000000 0.034665
#
#
# Mechanical properties :
#
#
# Convention : Reuss Voigt Hill
#
# Bulk Modulus (GPa) = 56.63117 66.92785 61.77951
# Shear Modulus (GPa) = 17.66247 22.41024 20.03636
#
# Velocity S-wave (km/s) = 3.08630 3.47645 3.28717
# Velocity P-wave (km/s) = 6.57580 7.22551 6.90829
#
# Compressibility (1/GPa) = 0.01765812
#
# Stress axis : x y z
#
# Youngs Moduli (GPa) = 24.89605 64.22962 29.80736
#
# Poissons Ratio (x) = 0.38430 0.61018
# Poissons Ratio (y) = 0.14896 0.27898
# Poissons Ratio (z) = 0.50964 0.60115
#
# Static dielectric constant tensor:
#      x y z
#    x 1.614410 0.000000 0.000000 
#    y 0.000000 1.611600 0.000000 
#    z 0.000000 0.000000 1.637160 
# 
# From -- ./inp_files/15284.got.cif
#   From: 2010.05.17/outbox.cif.g08.bks.cpg/sg40_8_cif.got.tgz:15284.got - 2010.06.03 18:35:42.
