data_PCOD9363495
_publ_section_title
;
Structure prediction by ZEFSAII (Michael W. Deem and Ramdas Pophale) SiO2 
 PCOD9363495
Probable space group: A M A 2
;
_chemical_formula_sum "Si O2"
_cell_formula_units_Z 56
_cell_length_a 14.581752
_cell_length_b 11.249869
_cell_length_c 15.828085
_cell_angle_alpha 90.000000
_cell_angle_beta 90.000000
_cell_angle_gamma 90.000000
_cell_volume 2596.483379
_symmetry_space_group_name_H-M "A M A 2"
_symmetry_group_IT_number 40
_symmetry_cell_setting 'orthorhombic'
loop_
_space_group_symop_operation_xyz
x,y,z
-x,-y,z
1/2-x,y,z
1/2+x,-y,z
x,1/2+y,1/2+z
-x,1/2-y,1/2+z
1/2-x,1/2+y,1/2+z
1/2+x,1/2-y,1/2+z
loop_
_atom_site_type_symbol
_atom_site_label
_atom_site_fract_x
_atom_site_fract_y
_atom_site_fract_z
Si Si1 0.538927 0.185479 0.142110
Si Si2 0.646616 0.925705 0.639366
Si Si3 0.144745 0.940778 0.991516
Si Si4 0.356963 0.820764 0.307468
Si Si5 0.094445 0.928927 0.480321
Si Si6 0.354314 0.696541 0.576746
Si Si7 0.640074 0.956746 0.822924
O O1 0.573673 0.320802 0.135026
O O2 0.587080 0.137072 0.226133
O O3 0.429667 0.175943 0.148620
O O4 0.578616 0.123841 0.057682
O O5 0.750000 0.877808 0.651498
O O6 0.623673 0.996061 0.725999
O O7 0.645940 0.997770 0.553162
O O8 0.151751 0.075910 0.023966
O O9 0.106324 0.955263 0.896288
O O10 0.000000 0.000000 0.472250
O O11 0.250000 0.815007 0.285645
O O12 0.367089 0.906771 0.387275
O O13 0.386841 0.683316 0.328201
O O14 0.250000 0.730546 0.600701
O O15 0.098436 0.797271 0.519753
O O16 0.250000 0.390721 0.493237
O O17 0.750000 0.956937 0.836701
#
# Coordination Sequence:
#
# PCOD9363495 Si02
#       7
#     8   8   8   8   8   8   8
#     4  11  22  39  64 103 129 165 221 276 323 386
#     4  10  20  37  63  93 131 169 214 270 326 386
#     4  10  19  36  65  95 127 164 212 269 331 390
#     4  10  20  39  67  95 130 176 218 260 320 399
#     4  12  23  40  64  95 131 174 228 269 321 390
#     4  11  23  41  64  91 128 178 222 266 329 393
#     4   8  16  33  60  92 122 167 215 251 313 399
#
# _framework density 21.567634000000002
#
# number of rings (size 3 to 8) (size 9 to 14) (size 15 to 20)
#    0.000    1.714    2.857    3.857    0.000    1.143 
#    0.000    2.857    3.143    1.714    0.000    0.000 
#    0.000    0.000    0.000    0.000    0.000    0.000 
#
# Total GULP energy -156210.334223 kJ/mol
# GULP energy per Si atom -5578.940508 kJ/mol
# Density = 2.151854 g / cm^3
# Si number density = 21.567634 Si / 1000 Ang^3
#
#
#
# Elastic Constant Matrix: (Units=GPa)
#
#
# Indices 1 2 3 4 5 6 
#
# 1 102.8521 8.0905 61.4974 0.0000 0.0000 0.0000
# 2 8.0905 40.1594 35.7969 0.0000 0.0000 0.0000
# 3 61.4974 35.7969 181.2953 0.0000 0.0000 0.0000
# 4 0.0000 0.0000 0.0000 40.8010 0.0000 0.0000
# 5 0.0000 0.0000 0.0000 0.0000 48.7824 0.0000
# 6 0.0000 0.0000 0.0000 0.0000 0.0000 22.6591
#
#
#
# Elastic Compliance Matrix: (Units=1/GPa)
#
#
# Indices 1 2 3 4 5 6 
#
# 1 0.012271 0.001503 -0.004459 0.000000 0.000000 0.000000
# 2 0.001503 0.030403 -0.006513 0.000000 0.000000 0.000000
# 3 -0.004459 -0.006513 0.008314 0.000000 0.000000 0.000000
# 4 0.000000 0.000000 0.000000 0.024509 0.000000 0.000000
# 5 0.000000 0.000000 0.000000 0.000000 0.020499 0.000000
# 6 0.000000 0.000000 0.000000 0.000000 0.000000 0.044132
#
#
# Mechanical properties :
#
#
# Convention : Reuss Voigt Hill
#
# Bulk Modulus (GPa) = 31.20137 59.45295 45.32716
# Shear Modulus (GPa) = 29.45488 37.04331 33.24910
#
# Velocity S-wave (km/s) = 3.69954 4.14882 3.93061
# Velocity P-wave (km/s) = 5.72250 7.11168 6.45457
#
# Compressibility (1/GPa) = 0.03204987
#
# Stress axis : x y z
#
# Youngs Moduli (GPa) = 81.49527 32.89097 120.27337
#
# Poissons Ratio (x) = -0.04942 0.53630
# Poissons Ratio (y) = -0.12245 0.78333
# Poissons Ratio (z) = 0.36339 0.21422
#
# Static dielectric constant tensor:
#      x y z
#    x 1.699240 0.000000 0.000000 
#    y 0.000000 1.798720 0.000000 
#    z 0.000000 0.000000 1.834280 
# 
# From -- ./inp_files/17094.got.cif
#   From: 2010.05.17/outbox.cif.g08.bks.cpg/sg40_9_cif.got.tgz:17094.got - 2010.06.03 18:35:42.
