data_PCOD9363448
_publ_section_title
;
Structure prediction by ZEFSAII (Michael W. Deem and Ramdas Pophale) SiO2 
 PCOD9363448
Probable space group: A M A 2
;
_chemical_formula_sum "Si O2"
_cell_formula_units_Z 64
_cell_length_a 8.853812
_cell_length_b 28.982945
_cell_length_c 12.690293
_cell_angle_alpha 90.000000
_cell_angle_beta 90.000000
_cell_angle_gamma 90.000000
_cell_volume 3256.450328
_symmetry_space_group_name_H-M "A M A 2"
_symmetry_group_IT_number 40
_symmetry_cell_setting 'orthorhombic'
loop_
_space_group_symop_operation_xyz
x,y,z
-x,-y,z
1/2-x,y,z
1/2+x,-y,z
x,1/2+y,1/2+z
-x,1/2-y,1/2+z
1/2-x,1/2+y,1/2+z
1/2+x,1/2-y,1/2+z
loop_
_atom_site_type_symbol
_atom_site_label
_atom_site_fract_x
_atom_site_fract_y
_atom_site_fract_z
Si Si1 0.072400 0.454637 0.452150
Si Si2 0.576508 0.189671 0.351414
Si Si3 0.068020 0.449673 0.107775
Si Si4 0.431266 0.590808 0.895799
Si Si5 0.424910 0.571208 0.661104
Si Si6 0.066453 0.378219 0.290251
Si Si7 0.078114 0.836338 0.116003
Si Si8 0.928605 0.213674 0.893747
O O1 0.250000 0.457770 0.441167
O O2 0.020913 0.408863 0.391424
O O3 0.000000 0.500000 0.402739
O O4 0.026240 0.452686 0.573721
O O5 0.750000 0.183479 0.384983
O O6 0.486379 0.143951 0.386872
O O7 0.574042 0.192053 0.224013
O O8 0.510794 0.237699 0.390466
O O9 0.250000 0.452794 0.109894
O O10 0.021634 0.408771 0.189313
O O11 0.000000 0.500000 0.134059
O O12 0.010072 0.434440 0.992858
O O13 0.250000 0.589598 0.906950
O O14 0.469701 0.567011 0.783285
O O15 0.250000 0.558452 0.648356
O O16 0.453210 0.624758 0.632766
O O17 0.250000 0.376123 0.289302
O O18 0.015680 0.325689 0.311066
O O19 0.250000 0.857082 0.109377
O O20 0.055779 0.808082 0.010040
O O21 0.750000 0.221147 0.874497
#
# Coordination Sequence:
#
# PCOD9363448 Si02
#       8
#     8   8   8   8   8   8   8   8
#     4  11  21  36  57  84 117 150 186 232 289 348
#     4  10  21  36  56  88 119 152 199 251 301 357
#     4  11  23  41  64  90 121 162 208 256 307 366
#     4  10  22  41  62  85 117 157 200 248 302 359
#     4  10  20  35  57  84 111 143 187 236 291 349
#     4   9  20  38  60  85 117 156 198 244 299 357
#     4   9  18  35  57  77 109 151 189 234 292 350
#     4  10  19  36  59  83 115 158 199 242 301 363
#
# _framework density 19.653302
#
# number of rings (size 3 to 8) (size 9 to 14) (size 15 to 20)
#    0.000    2.000    1.250    2.250    0.000    4.000 
#    0.000    5.625    0.000    0.000    0.000    0.000 
#    0.000    0.000    0.000    0.000    0.000    0.000 
#
# Total GULP energy -178540.365312 kJ/mol
# GULP energy per Si atom -5579.386416 kJ/mol
# Density = 1.960857 g / cm^3
# Si number density = 19.653302 Si / 1000 Ang^3
#
#
#
# Elastic Constant Matrix: (Units=GPa)
#
#
# Indices 1 2 3 4 5 6 
#
# 1 41.4412 6.4887 20.1772 0.0000 0.0000 0.0000
# 2 6.4887 51.5724 5.6945 0.0000 0.0000 0.0000
# 3 20.1772 5.6945 75.6724 0.0000 0.0000 0.0000
# 4 0.0000 0.0000 0.0000 16.2287 0.0000 0.0000
# 5 0.0000 0.0000 0.0000 0.0000 18.2672 0.0000
# 6 0.0000 0.0000 0.0000 0.0000 0.0000 32.3088
#
#
#
# Elastic Compliance Matrix: (Units=1/GPa)
#
#
# Indices 1 2 3 4 5 6 
#
# 1 0.028107 -0.002732 -0.007289 0.000000 0.000000 0.000000
# 2 -0.002732 0.019818 -0.000763 0.000000 0.000000 0.000000
# 3 -0.007289 -0.000763 0.015216 0.000000 0.000000 0.000000
# 4 0.000000 0.000000 0.000000 0.061619 0.000000 0.000000
# 5 0.000000 0.000000 0.000000 0.000000 0.054743 0.000000
# 6 0.000000 0.000000 0.000000 0.000000 0.000000 0.030951
#
#
# Mechanical properties :
#
#
# Convention : Reuss Voigt Hill
#
# Bulk Modulus (GPa) = 24.05340 25.93408 24.99374
# Shear Modulus (GPa) = 20.33518 22.44933 21.39225
#
# Velocity S-wave (km/s) = 3.22016 3.38341 3.30279
# Velocity P-wave (km/s) = 5.10797 5.33739 5.22394
#
# Compressibility (1/GPa) = 0.04157417
#
# Stress axis : x y z
#
# Youngs Moduli (GPa) = 35.57818 50.45878 65.72122
#
# Poissons Ratio (x) = 0.13783 0.47903
# Poissons Ratio (y) = 0.09718 0.05015
# Poissons Ratio (z) = 0.25933 0.03850
#
# Static dielectric constant tensor:
#      x y z
#    x 1.677210 0.000000 0.000000 
#    y 0.000000 1.706250 0.000000 
#    z 0.000000 0.000000 1.700590 
# 
# From -- ./inp_files/10654.got.cif
#   From: 2010.05.17/outbox.cif.g08.bks.cpg/sg40_6_cif.got.tgz:10654.got - 2010.06.03 18:35:42.
