data_PCOD9363494
_publ_section_title
;
Structure prediction by ZEFSAII (Michael W. Deem and Ramdas Pophale) SiO2 
 PCOD9363494
Probable space group: A M A 2
;
_chemical_formula_sum "Si O2"
_cell_formula_units_Z 44
_cell_length_a 20.323345
_cell_length_b 8.583121
_cell_length_c 10.739566
_cell_angle_alpha 90.000000
_cell_angle_beta 90.000000
_cell_angle_gamma 90.000000
_cell_volume 1873.385506
_symmetry_space_group_name_H-M "A M A 2"
_symmetry_group_IT_number 40
_symmetry_cell_setting 'orthorhombic'
loop_
_space_group_symop_operation_xyz
x,y,z
-x,-y,z
1/2-x,y,z
1/2+x,-y,z
x,1/2+y,1/2+z
-x,1/2-y,1/2+z
1/2-x,1/2+y,1/2+z
1/2+x,1/2-y,1/2+z
loop_
_atom_site_type_symbol
_atom_site_label
_atom_site_fract_x
_atom_site_fract_y
_atom_site_fract_z
Si Si1 0.750000 0.903668 0.695390
Si Si2 0.875541 0.196933 0.130280
Si Si3 0.250000 0.737623 0.736029
Si Si4 0.750000 0.788191 0.963878
Si Si5 0.395397 0.820407 0.402399
Si Si6 0.110207 0.681631 0.868067
Si Si7 0.562085 0.386466 0.623550
O O1 0.810992 0.804948 0.641784
O O2 0.750000 0.905577 0.846729
O O3 0.750000 0.088001 0.674169
O O4 0.909117 0.237694 0.262228
O O5 0.876367 0.008366 0.133281
O O6 0.903697 0.228048 0.994187
O O7 0.250000 0.646030 0.603836
O O8 0.185526 0.708636 0.820694
O O9 0.682247 0.696916 0.935902
O O10 0.432812 0.719433 0.503384
O O11 0.407208 0.003698 0.402018
O O12 0.067418 0.718709 0.746455
O O13 0.500000 0.500000 0.625416
#
# Coordination Sequence:
#
# PCOD9363494 Si02
#       7
#     4   8   4   4   8   8   8
#     4  10  23  38  65 103 141 172 217 263 346 424
#     4  10  24  41  66  99 133 171 220 273 341 408
#     4  12  22  36  70 103 137 174 208 269 347 420
#     4  10  19  36  65  92 130 172 201 262 331 400
#     4  10  22  42  65  94 133 169 218 269 342 401
#     4  11  24  40  69 100 134 168 219 273 342 408
#     4  11  26  46  67  92 129 179 235 282 330 388
#
# _framework density 23.486892000000001
#
# number of rings (size 3 to 8) (size 9 to 14) (size 15 to 20)
#    0.000    1.455    1.818    2.182    5.091    5.818 
#    0.000    0.909    0.000    0.000    0.000    0.000 
#    0.000    0.000    0.000    0.000    0.000    0.000 
#
# Total GULP energy -122751.708809 kJ/mol
# GULP energy per Si atom -5579.623128 kJ/mol
# Density = 2.343344 g / cm^3
# Si number density = 23.486892 Si / 1000 Ang^3
#
#
#
# Elastic Constant Matrix: (Units=GPa)
#
#
# Indices 1 2 3 4 5 6 
#
# 1 85.2173 24.0307 18.5909 0.0000 0.0000 0.0000
# 2 24.0307 53.5842 30.7972 0.0000 0.0000 0.0000
# 3 18.5909 30.7972 223.3082 0.0000 0.0000 0.0000
# 4 0.0000 0.0000 0.0000 29.7856 0.0000 0.0000
# 5 0.0000 0.0000 0.0000 0.0000 1.2717 0.0000
# 6 0.0000 0.0000 0.0000 0.0000 0.0000 22.7477
#
#
#
# Elastic Compliance Matrix: (Units=1/GPa)
#
#
# Indices 1 2 3 4 5 6 
#
# 1 0.013454 -0.005854 -0.000313 0.000000 0.000000 0.000000
# 2 -0.005854 0.022816 -0.002659 0.000000 0.000000 0.000000
# 3 -0.000313 -0.002659 0.004871 0.000000 0.000000 0.000000
# 4 0.000000 0.000000 0.000000 0.033573 0.000000 0.000000
# 5 0.000000 0.000000 0.000000 0.000000 0.786366 0.000000
# 6 0.000000 0.000000 0.000000 0.000000 0.000000 0.043961
#
#
# Mechanical properties :
#
#
# Convention : Reuss Voigt Hill
#
# Bulk Modulus (GPa) = 42.57342 56.54971 49.56156
# Shear Modulus (GPa) = 5.37333 30.00705 17.69019
#
# Velocity S-wave (km/s) = 1.51419 3.57824 2.74742
# Velocity P-wave (km/s) = 4.60682 6.41881 5.58677
#
# Compressibility (1/GPa) = 0.02348884
#
# Stress axis : x y z
#
# Youngs Moduli (GPa) = 74.32918 43.82923 205.30086
#
# Poissons Ratio (x) = 0.25657 0.06420
# Poissons Ratio (y) = 0.43511 0.54595
# Poissons Ratio (z) = 0.02325 0.11655
#
# Static dielectric constant tensor:
#      x y z
#    x 1.966510 0.000000 0.000000 
#    y 0.000000 1.857470 0.000000 
#    z 0.000000 0.000000 1.906310 
# 
# From -- ./inp_files/13870.got.cif
#   From: 2010.05.17/outbox.cif.g08.bks.cpg/sg40_7_cif.got.tgz:13870.got - 2010.06.03 18:35:42.
