data_PCOD9363391
_publ_section_title
;
Structure prediction by ZEFSAII (Michael W. Deem and Ramdas Pophale) SiO2 
 PCOD9363391
Probable space group: A M A 2
;
_chemical_formula_sum "Si O2"
_cell_formula_units_Z 64
_cell_length_a 8.377072
_cell_length_b 27.308892
_cell_length_c 13.324697
_cell_angle_alpha 90.000000
_cell_angle_beta 90.000000
_cell_angle_gamma 90.000000
_cell_volume 3048.271672
_symmetry_space_group_name_H-M "A M A 2"
_symmetry_group_IT_number 40
_symmetry_cell_setting 'orthorhombic'
loop_
_space_group_symop_operation_xyz
x,y,z
-x,-y,z
1/2-x,y,z
1/2+x,-y,z
x,1/2+y,1/2+z
-x,1/2-y,1/2+z
1/2-x,1/2+y,1/2+z
1/2+x,1/2-y,1/2+z
loop_
_atom_site_type_symbol
_atom_site_label
_atom_site_fract_x
_atom_site_fract_y
_atom_site_fract_z
Si Si1 0.438868 0.605266 0.027350
Si Si2 0.434432 0.287902 0.326351
Si Si3 0.558699 0.555651 0.231097
Si Si4 0.558136 0.377255 0.652471
Si Si5 0.568269 0.708042 0.950149
Si Si6 0.939945 0.553624 0.831274
Si Si7 0.056613 0.385603 0.431091
Si Si8 0.061826 0.233340 0.151236
O O1 0.250000 0.612187 0.029802
O O2 0.495987 0.586465 0.135863
O O3 0.520816 0.655629 0.992151
O O4 0.483238 0.567603 0.938361
O O5 0.250000 0.302438 0.313824
O O6 0.450811 0.233421 0.371773
O O7 0.501189 0.331667 0.393570
O O8 0.510577 0.277090 0.218549
O O9 0.500000 0.500000 0.222933
O O10 0.750000 0.556881 0.226682
O O11 0.511508 0.578623 0.339092
O O12 0.750000 0.377080 0.659779
O O13 0.490241 0.408525 0.744342
O O14 0.511946 0.396163 0.541282
O O15 0.494883 0.321165 0.659601
O O16 0.750000 0.706406 0.911117
O O17 0.559217 0.746777 0.039864
O O18 0.750000 0.554239 0.842343
O O19 0.000000 0.500000 0.801537
O O20 0.250000 0.386180 0.440950
O O21 0.250000 0.229752 0.178069
#
# Coordination Sequence:
#
# PCOD9363391 Si02
#       8
#     8   8   8   8   8   8   8   8
#     4  12  25  43  66  97 132 168 212 269 328 395
#     4  10  19  35  58  85 120 165 211 259 311 371
#     4  11  24  44  68  95 126 168 216 272 332 390
#     4  11  22  40  65  95 134 176 218 269 323 384
#     4  11  21  37  59  89 124 165 207 251 308 373
#     4  12  26  46  70  97 127 167 216 271 330 395
#     4  10  22  40  63  91 131 177 221 270 325 384
#     4   9  19  35  57  85 123 166 206 251 307 367
#
# _framework density 20.995504
#
# number of rings (size 3 to 8) (size 9 to 14) (size 15 to 20)
#    0.000    1.250    1.250    5.250    0.000    4.500 
#    0.000    4.375    0.000    0.000    0.000    0.000 
#    0.000    0.000    0.000    0.000    0.000    0.000 
#
# Total GULP energy -178684.700240 kJ/mol
# GULP energy per Si atom -5583.896882 kJ/mol
# Density = 2.094772 g / cm^3
# Si number density = 20.995504 Si / 1000 Ang^3
#
#
#
# Elastic Constant Matrix: (Units=GPa)
#
#
# Indices 1 2 3 4 5 6 
#
# 1 43.2718 -1.9245 0.5023 0.0000 0.0000 0.0000
# 2 -1.9245 65.0717 -11.3713 0.0000 0.0000 0.0000
# 3 0.5023 -11.3713 73.8922 0.0000 0.0000 0.0000
# 4 0.0000 0.0000 0.0000 21.4964 0.0000 0.0000
# 5 0.0000 0.0000 0.0000 0.0000 28.3315 0.0000
# 6 0.0000 0.0000 0.0000 0.0000 0.0000 -8.6046
#
#
#
# Elastic Compliance Matrix: (Units=1/GPa)
#
#
# Indices 1 2 3 4 5 6 
#
# 1 0.023140 0.000675 -0.000053 0.000000 0.000000 0.000000
# 2 0.000675 0.015812 0.002429 0.000000 0.000000 0.000000
# 3 -0.000053 0.002429 0.013907 0.000000 0.000000 0.000000
# 4 0.000000 0.000000 0.000000 0.046519 0.000000 0.000000
# 5 0.000000 0.000000 0.000000 0.000000 0.035296 0.000000
# 6 0.000000 0.000000 0.000000 0.000000 0.000000 -0.116217
#
#
# Mechanical properties :
#
#
# Convention : Reuss Voigt Hill
#
# Bulk Modulus (GPa) = 16.96051 17.40542 17.18296
# Shear Modulus (GPa) = 156.19462 21.24661 88.72062
#
# Velocity S-wave (km/s) = 8.63457 3.18458 6.50759
# Velocity P-wave (km/s) = 10.36839 4.67228 8.04157
#
# Compressibility (1/GPa) = 0.05896048
#
# Stress axis : x y z
#
# Youngs Moduli (GPa) = 43.21453 63.24290 71.90445
#
# Poissons Ratio (x) = -0.04269 0.00384
# Poissons Ratio (y) = -0.02917 -0.17464
# Poissons Ratio (z) = 0.00231 -0.15360
#
# Static dielectric constant tensor:
#      x y z
#    x 1.748370 0.000000 0.000000 
#    y 0.000000 1.771980 0.000000 
#    z 0.000000 0.000000 1.836590 
# 
# From -- ./inp_files/10684.got.cif
#   From: 2010.05.17/outbox.cif.g08.bks.cpg/sg40_6_cif.got.tgz:10684.got - 2010.06.03 18:35:42.
