data_PCOD9363486
_publ_section_title
;
Structure prediction by ZEFSAII (Michael W. Deem and Ramdas Pophale) SiO2 
 PCOD9363486
Probable space group: A M A 2
;
_chemical_formula_sum "Si O2"
_cell_formula_units_Z 64
_cell_length_a 14.569403
_cell_length_b 10.886052
_cell_length_c 19.424062
_cell_angle_alpha 90.000000
_cell_angle_beta 90.000000
_cell_angle_gamma 90.000000
_cell_volume 3080.719918
_symmetry_space_group_name_H-M "A M A 2"
_symmetry_group_IT_number 40
_symmetry_cell_setting 'orthorhombic'
loop_
_space_group_symop_operation_xyz
x,y,z
-x,-y,z
1/2-x,y,z
1/2+x,-y,z
x,1/2+y,1/2+z
-x,1/2-y,1/2+z
1/2-x,1/2+y,1/2+z
1/2+x,1/2-y,1/2+z
loop_
_atom_site_type_symbol
_atom_site_label
_atom_site_fract_x
_atom_site_fract_y
_atom_site_fract_z
Si Si1 0.104129 0.501071 0.465740
Si Si2 0.904367 0.772352 0.478472
Si Si3 0.355806 0.174150 0.245599
Si Si4 0.481652 0.642202 0.264326
Si Si5 0.859563 0.491505 0.622866
Si Si6 0.600145 0.756160 0.904585
Si Si7 0.888961 0.487004 0.877978
Si Si8 0.359706 0.726433 0.139062
O O1 0.138552 0.360962 0.458482
O O2 0.100404 0.522390 0.547392
O O3 0.148951 0.621255 0.432864
O O4 0.000000 0.500000 0.438009
O O5 0.889988 0.793737 0.559597
O O6 0.011340 0.762506 0.455107
O O7 0.865523 0.885500 0.435211
O O8 0.250000 0.211408 0.237278
O O9 0.421795 0.287007 0.260153
O O10 0.391440 0.109171 0.176449
O O11 0.359778 0.071812 0.305695
O O12 0.500000 0.500000 0.277354
O O13 0.431342 0.707405 0.328024
O O14 0.420787 0.657130 0.195312
O O15 0.750000 0.479038 0.615403
O O16 0.875321 0.628092 0.650797
O O17 0.645422 0.622602 0.897221
O O18 0.000000 0.500000 0.874822
O O19 0.250000 0.701740 0.145262
#
# Coordination Sequence:
#
# PCOD9363486 Si02
#       8
#     8   8   8   8   8   8   8   8
#     4   9  18  32  58  84 121 159 199 259 310 373
#     4   9  18  35  58  90 122 164 210 264 317 389
#     4  11  24  40  62  94 127 167 218 275 331 396
#     4  12  25  41  66  90 127 177 222 270 340 398
#     4   9  20  37  59  89 120 156 209 259 316 387
#     4  10  20  36  60  94 125 161 217 265 320 393
#     4  10  19  36  63  90 123 165 215 261 322 387
#     4  10  23  41  64  95 128 169 221 272 327 398
#
# _framework density 20.774365
#
# number of rings (size 3 to 8) (size 9 to 14) (size 15 to 20)
#    0.000    2.000    2.500    1.875    5.250    2.500 
#    0.000    1.250    0.000    0.000    0.000    0.000 
#    0.000    0.000    0.000    0.000    0.000    0.000 
#
# Total GULP energy -178621.727690 kJ/mol
# GULP energy per Si atom -5581.928990 kJ/mol
# Density = 2.072708 g / cm^3
# Si number density = 20.774365 Si / 1000 Ang^3
#
#
#
# Elastic Constant Matrix: (Units=GPa)
#
#
# Indices 1 2 3 4 5 6 
#
# 1 84.6336 33.6213 30.8738 0.0000 0.0000 0.0000
# 2 33.6213 183.6681 69.6622 0.0000 0.0000 0.0000
# 3 30.8738 69.6622 89.0605 0.0000 0.0000 0.0000
# 4 0.0000 0.0000 0.0000 30.7732 0.0000 0.0000
# 5 0.0000 0.0000 0.0000 0.0000 -8.3169 0.0000
# 6 0.0000 0.0000 0.0000 0.0000 0.0000 -0.3242
#
#
#
# Elastic Compliance Matrix: (Units=1/GPa)
#
#
# Indices 1 2 3 4 5 6 
#
# 1 0.013654 -0.001001 -0.003950 0.000000 0.000000 0.000000
# 2 -0.001001 0.007815 -0.005765 0.000000 0.000000 0.000000
# 3 -0.003950 -0.005765 0.017107 0.000000 0.000000 0.000000
# 4 0.000000 0.000000 0.000000 0.032496 0.000000 0.000000
# 5 0.000000 0.000000 0.000000 0.000000 -0.120237 0.000000
# 6 0.000000 0.000000 0.000000 0.000000 0.000000 -3.084769
#
#
# Mechanical properties :
#
#
# Convention : Reuss Voigt Hill
#
# Bulk Modulus (GPa) = 58.33448 69.51966 63.92707
# Shear Modulus (GPa) = -1.60938 19.30675 8.84868
#
# Velocity S-wave (km/s) = -0.88112 3.05184 2.06608
# Velocity P-wave (km/s) = 5.20632 6.77902 6.04404
#
# Compressibility (1/GPa) = 0.01714252
#
# Stress axis : x y z
#
# Youngs Moduli (GPa) = 73.23635 127.96539 58.45421
#
# Poissons Ratio (x) = 0.12812 0.23091
# Poissons Ratio (y) = 0.07333 0.33701
# Poissons Ratio (z) = 0.28931 0.73778
#
# Static dielectric constant tensor:
#      x y z
#    x 1.756390 0.000000 0.000000 
#    y 0.000000 1.751370 0.000000 
#    z 0.000000 0.000000 1.721500 
# 
# From -- ./inp_files/20799.got.cif
#   From: 2010.05.17/outbox.cif.g08.bks.cpg/sg40_11_cif.got.tgz:20799.got - 2010.06.03 18:35:42.
