data_PCOD9363296
_publ_section_title
;
Structure prediction by ZEFSAII (Michael W. Deem and Ramdas Pophale) SiO2 
 PCOD9363296
Probable space group: A M A 2
;
_chemical_formula_sum "Si O2"
_cell_formula_units_Z 44
_cell_length_a 15.291999
_cell_length_b 12.676201
_cell_length_c 12.040198
_cell_angle_alpha 90.000000
_cell_angle_beta 90.000000
_cell_angle_gamma 90.000000
_cell_volume 2333.925596
_symmetry_space_group_name_H-M "A M A 2"
_symmetry_group_IT_number 40
_symmetry_cell_setting 'orthorhombic'
loop_
_space_group_symop_operation_xyz
x,y,z
-x,-y,z
1/2-x,y,z
1/2+x,-y,z
x,1/2+y,1/2+z
-x,1/2-y,1/2+z
1/2-x,1/2+y,1/2+z
1/2+x,1/2-y,1/2+z
loop_
_atom_site_type_symbol
_atom_site_label
_atom_site_fract_x
_atom_site_fract_y
_atom_site_fract_z
Si Si1 0.930429 0.405112 0.335700
Si Si2 0.654690 0.456898 0.561336
Si Si3 0.500000 0.500000 0.718687
Si Si4 0.653464 0.226213 0.672735
Si Si5 0.049913 0.704503 0.867433
Si Si6 0.472143 0.616340 0.098073
O O1 0.864598 0.441969 0.430856
O O2 0.976562 0.295819 0.370512
O O3 0.000000 0.500000 0.332460
O O4 0.909501 0.388691 0.205697
O O5 0.750000 0.504593 0.578567
O O6 0.581074 0.515499 0.633690
O O7 0.654823 0.338224 0.610364
O O8 0.483007 0.602710 0.795835
O O9 0.750000 0.176728 0.657566
O O10 0.632831 0.249937 0.801456
O O11 0.565452 0.168242 0.632395
O O12 0.068394 0.673317 0.992998
O O13 0.500000 0.500000 0.062600
#
# Coordination Sequence:
#
# PCOD9363296 Si02
#       6
#     8   8   4   8   8   8
#     4  10  20  34  55  80 113 149 185 228 280 344
#     4  10  19  35  59  85 112 150 193 236 287 341
#     4  10  20  36  60  84 114 146 196 244 280 332
#     4   9  19  35  56  82 112 149 193 236 284 346
#     4  10  19  35  59  81 109 152 192 231 285 332
#     4  10  19  34  56  82 111 153 189 226 294 343
#
# _framework density 18.852357999999999
#
# number of rings (size 3 to 8) (size 9 to 14) (size 15 to 20)
#    0.000    2.182    3.636    0.000    0.000    0.000 
#    0.000   11.818    0.000    0.000    0.000    0.000 
#    0.000    0.000    0.000    0.000    0.000    0.000 
#
# Total GULP energy -122499.601563 kJ/mol
# GULP energy per Si atom -5568.163707 kJ/mol
# Density = 1.880945 g / cm^3
# Si number density = 18.852358 Si / 1000 Ang^3
#
#
#
# Elastic Constant Matrix: (Units=GPa)
#
#
# Indices 1 2 3 4 5 6 
#
# 1 79.7990 -8.3393 35.4390 0.0000 0.0000 0.0000
# 2 -8.3393 34.8891 3.4819 0.0000 0.0000 0.0000
# 3 35.4390 3.4819 137.4598 0.0000 0.0000 0.0000
# 4 0.0000 0.0000 0.0000 25.0119 0.0000 0.0000
# 5 0.0000 0.0000 0.0000 0.0000 10.9871 0.0000
# 6 0.0000 0.0000 0.0000 0.0000 0.0000 8.0367
#
#
#
# Elastic Compliance Matrix: (Units=1/GPa)
#
#
# Indices 1 2 3 4 5 6 
#
# 1 0.014660 0.003891 -0.003878 0.000000 0.000000 0.000000
# 2 0.003891 0.029768 -0.001757 0.000000 0.000000 0.000000
# 3 -0.003878 -0.001757 0.008319 0.000000 0.000000 0.000000
# 4 0.000000 0.000000 0.000000 0.039981 0.000000 0.000000
# 5 0.000000 0.000000 0.000000 0.000000 0.091016 0.000000
# 6 0.000000 0.000000 0.000000 0.000000 0.000000 0.124430
#
#
# Mechanical properties :
#
#
# Convention : Reuss Voigt Hill
#
# Bulk Modulus (GPa) = 20.30090 34.81235 27.55662
# Shear Modulus (GPa) = 15.24011 23.57822 19.40917
#
# Velocity S-wave (km/s) = 2.84631 3.54033 3.21212
# Velocity P-wave (km/s) = 4.64690 5.93446 5.32970
#
# Compressibility (1/GPa) = 0.04925890
#
# Stress axis : x y z
#
# Youngs Moduli (GPa) = 68.21064 33.59346 120.20349
#
# Poissons Ratio (x) = -0.13072 0.46618
# Poissons Ratio (y) = -0.26542 0.21123
# Poissons Ratio (z) = 0.26454 0.05903
#
# Static dielectric constant tensor:
#      x y z
#    x 1.656890 0.000000 0.000000 
#    y 0.000000 1.661970 0.000000 
#    z 0.000000 0.000000 1.697560 
# 
# From -- ./inp_files/12093.got.cif
#   From: 2010.05.17/outbox.cif.g08.bks.cpg/sg40_7_cif.got.tgz:12093.got - 2010.06.03 18:35:42.
