data_PCOD9363275
_publ_section_title
;
Structure prediction by ZEFSAII (Michael W. Deem and Ramdas Pophale) SiO2 
 PCOD9363275
Probable space group: A M A 2
;
_chemical_formula_sum "Si O2"
_cell_formula_units_Z 64
_cell_length_a 9.205562
_cell_length_b 16.471530
_cell_length_c 22.329351
_cell_angle_alpha 90.000000
_cell_angle_beta 90.000000
_cell_angle_gamma 90.000000
_cell_volume 3385.792585
_symmetry_space_group_name_H-M "A M A 2"
_symmetry_group_IT_number 40
_symmetry_cell_setting 'orthorhombic'
loop_
_space_group_symop_operation_xyz
x,y,z
-x,-y,z
1/2-x,y,z
1/2+x,-y,z
x,1/2+y,1/2+z
-x,1/2-y,1/2+z
1/2-x,1/2+y,1/2+z
1/2+x,1/2-y,1/2+z
loop_
_atom_site_type_symbol
_atom_site_label
_atom_site_fract_x
_atom_site_fract_y
_atom_site_fract_z
Si Si1 0.914387 0.922921 0.547660
Si Si2 0.578142 0.789129 0.143993
Si Si3 0.926279 0.266924 0.400008
Si Si4 0.074417 0.761745 0.022531
Si Si5 0.577932 0.417541 0.315330
Si Si6 0.418437 0.418184 0.723023
Si Si7 0.584039 0.868200 0.679874
Si Si8 0.417781 0.916774 0.367396
O O1 0.750000 0.929461 0.526837
O O2 0.967140 0.834082 0.528364
O O3 0.914818 0.922866 0.620381
O O4 0.000000 0.000000 0.525348
O O5 0.750000 0.798820 0.137982
O O6 0.508351 0.846918 0.193233
O O7 0.534264 0.699613 0.165907
O O8 0.496657 0.802334 0.080782
O O9 0.750000 0.266780 0.405537
O O10 0.964156 0.333675 0.349096
O O11 0.971262 0.172980 0.387142
O O12 0.004627 0.292338 0.461277
O O13 0.250000 0.767448 0.023965
O O14 0.500000 0.500000 0.336029
O O15 0.750000 0.427346 0.324629
O O16 0.554464 0.407500 0.243897
O O17 0.500000 0.500000 0.705062
O O18 0.250000 0.416932 0.704314
O O19 0.421317 0.413119 0.794978
O O20 0.750000 0.832757 0.682878
O O21 0.250000 0.924153 0.386632
O O22 0.500000 0.000000 0.384717
#
# Coordination Sequence:
#
# PCOD9363275 Si02
#       8
#     8   8   8   8   8   8   8   8
#     4   9  18  31  50  76 106 137 170 209 260 319
#     4  11  21  34  55  82 108 139 179 224 274 330
#     4  10  21  38  57  79 109 148 189 231 277 327
#     4  10  22  39  55  74 102 140 184 230 274 322
#     4  10  21  37  58  83 113 147 186 230 280 332
#     4  10  19  34  55  81 113 145 177 219 270 327
#     4   9  18  34  54  79 112 146 175 212 266 328
#     4   9  19  35  57  84 116 150 183 221 270 327
#
# _framework density 18.902517
#
# number of rings (size 3 to 8) (size 9 to 14) (size 15 to 20)
#    0.000    2.250    0.000    3.750    0.000    7.000 
#    0.000    4.375    0.000    1.500    0.000    0.000 
#    0.000    0.000    0.000    0.000    0.000    0.000 
#
# Total GULP energy -178445.808616 kJ/mol
# GULP energy per Si atom -5576.431519 kJ/mol
# Density = 1.885949 g / cm^3
# Si number density = 18.902517 Si / 1000 Ang^3
#
#
#
# Elastic Constant Matrix: (Units=GPa)
#
#
# Indices 1 2 3 4 5 6 
#
# 1 66.1396 31.6961 28.1399 0.0000 0.0000 0.0000
# 2 31.6961 63.8548 23.1667 0.0000 0.0000 0.0000
# 3 28.1399 23.1667 69.5998 0.0000 0.0000 0.0000
# 4 0.0000 0.0000 0.0000 1.0418 0.0000 0.0000
# 5 0.0000 0.0000 0.0000 0.0000 22.5765 0.0000
# 6 0.0000 0.0000 0.0000 0.0000 0.0000 34.1862
#
#
#
# Elastic Compliance Matrix: (Units=1/GPa)
#
#
# Indices 1 2 3 4 5 6 
#
# 1 0.021795 -0.008669 -0.005927 0.000000 0.000000 0.000000
# 2 -0.008669 0.021259 -0.003571 0.000000 0.000000 0.000000
# 3 -0.005927 -0.003571 0.017953 0.000000 0.000000 0.000000
# 4 0.000000 0.000000 0.000000 0.959831 0.000000 0.000000
# 5 0.000000 0.000000 0.000000 0.000000 0.044294 0.000000
# 6 0.000000 0.000000 0.000000 0.000000 0.000000 0.029252
#
#
# Mechanical properties :
#
#
# Convention : Reuss Voigt Hill
#
# Bulk Modulus (GPa) = 40.52854 40.62219 40.57537
# Shear Modulus (GPa) = 4.39004 19.33367 11.86185
#
# Velocity S-wave (km/s) = 1.52562 3.20161 2.50777
# Velocity P-wave (km/s) = 4.95890 5.93330 5.46785
#
# Compressibility (1/GPa) = 0.02467397
#
# Stress axis : x y z
#
# Youngs Moduli (GPa) = 45.88138 47.03867 55.70146
#
# Poissons Ratio (x) = 0.40775 0.33013
# Poissons Ratio (y) = 0.39772 0.19893
# Poissons Ratio (z) = 0.27193 0.16800
#
# Static dielectric constant tensor:
#      x y z
#    x 1.641630 0.000000 0.000000 
#    y 0.000000 2.399140 0.000000 
#    z 0.000000 0.000000 1.662490 
# 
# From -- ./inp_files/22362.got.cif
#   From: 2010.05.17/outbox.cif.g08.bks.cpg/sg40_12_cif.got.tgz:22362.got - 2010.06.03 18:35:42.
