data_PCOD9363865
_publ_section_title
;
Structure prediction by ZEFSAII (Michael W. Deem and Ramdas Pophale) SiO2 
 PCOD9363865
Probable space group: A M A 2
;
_chemical_formula_sum "Si O2"
_cell_formula_units_Z 56
_cell_length_a 17.321526
_cell_length_b 17.771709
_cell_length_c 9.836248
_cell_angle_alpha 90.000000
_cell_angle_beta 90.000000
_cell_angle_gamma 90.000000
_cell_volume 3027.922906
_symmetry_space_group_name_H-M "A M A 2"
_symmetry_group_IT_number 40
_symmetry_cell_setting 'orthorhombic'
loop_
_space_group_symop_operation_xyz
x,y,z
-x,-y,z
1/2-x,y,z
1/2+x,-y,z
x,1/2+y,1/2+z
-x,1/2-y,1/2+z
1/2-x,1/2+y,1/2+z
1/2+x,1/2-y,1/2+z
loop_
_atom_site_type_symbol
_atom_site_label
_atom_site_fract_x
_atom_site_fract_y
_atom_site_fract_z
Si Si1 0.157556 0.308576 0.834820
Si Si2 0.840074 0.565910 0.637649
Si Si3 0.889849 0.177066 0.901495
Si Si4 0.534196 0.417012 0.288435
Si Si5 0.940617 0.784862 0.627151
Si Si6 0.881077 0.247702 0.627324
Si Si7 0.658668 0.411313 0.522163
O O1 0.250000 0.301047 0.815861
O O2 0.129442 0.385875 0.764349
O O3 0.113105 0.244992 0.749343
O O4 0.138855 0.299285 0.992316
O O5 0.750000 0.555272 0.665047
O O6 0.848651 0.618906 0.504022
O O7 0.871251 0.483090 0.608330
O O8 0.851346 0.204971 0.761806
O O9 0.968788 0.134379 0.860646
O O10 0.907115 0.251762 0.988742
O O11 0.500000 0.500000 0.272537
O O12 0.552125 0.373929 0.148013
O O13 0.608677 0.414988 0.385037
O O14 0.026145 0.750282 0.641233
O O15 0.852345 0.332137 0.598933
O O16 0.750000 0.420225 0.493390
#
# Coordination Sequence:
#
# PCOD9363865 Si02
#       7
#     8   8   8   8   8   8   8
#     4  10  20  37  60  86 119 158 198 241 299 359
#     4   9  20  36  56  83 116 149 190 243 297 355
#     4  10  20  35  57  84 117 150 196 244 294 351
#     4  11  20  35  58  85 116 153 198 246 302 356
#     4  10  20  36  56  86 118 154 196 246 294 355
#     4  11  20  34  57  88 116 153 198 248 289 349
#     4  11  21  36  59  87 116 152 203 250 297 359
#
# _framework density 18.494526
#
# number of rings (size 3 to 8) (size 9 to 14) (size 15 to 20)
#    0.000    1.714    4.286    1.286    0.000    1.143 
#    0.000    2.857    0.000    0.000    0.000    0.000 
#    0.000    0.000    0.000    0.000    0.000    0.000 
#
# Total GULP energy -156066.880431 kJ/mol
# GULP energy per Si atom -5573.817158 kJ/mol
# Density = 1.845243 g / cm^3
# Si number density = 18.494526 Si / 1000 Ang^3
#
#
#
# Elastic Constant Matrix: (Units=GPa)
#
#
# Indices 1 2 3 4 5 6 
#
# 1 53.1081 18.8925 -0.0822 0.0000 0.0000 0.0000
# 2 18.8925 144.7611 68.5588 0.0000 0.0000 0.0000
# 3 -0.0822 68.5588 100.7896 0.0000 0.0000 0.0000
# 4 0.0000 0.0000 0.0000 30.5189 0.0000 0.0000
# 5 0.0000 0.0000 0.0000 0.0000 -19.6288 0.0000
# 6 0.0000 0.0000 0.0000 0.0000 0.0000 21.0942
#
#
#
# Elastic Compliance Matrix: (Units=1/GPa)
#
#
# Indices 1 2 3 4 5 6 
#
# 1 0.020223 -0.003905 0.002673 0.000000 0.000000 0.000000
# 2 -0.003905 0.010945 -0.007448 0.000000 0.000000 0.000000
# 3 0.002673 -0.007448 0.014990 0.000000 0.000000 0.000000
# 4 0.000000 0.000000 0.000000 0.032767 0.000000 0.000000
# 5 0.000000 0.000000 0.000000 0.000000 -0.050946 0.000000
# 6 0.000000 0.000000 0.000000 0.000000 0.000000 0.047406
#
#
# Mechanical properties :
#
#
# Convention : Reuss Voigt Hill
#
# Bulk Modulus (GPa) = 34.72567 52.59967 43.66267
# Shear Modulus (GPa) = 48.85409 20.48283 34.66846
#
# Velocity S-wave (km/s) = 5.14517 3.33153 4.33428
# Velocity P-wave (km/s) = 7.35622 6.58037 6.97908
#
# Compressibility (1/GPa) = 0.02879714
#
# Stress axis : x y z
#
# Youngs Moduli (GPa) = 49.44906 91.36563 66.71014
#
# Poissons Ratio (x) = 0.35679 -0.17830
# Poissons Ratio (y) = 0.19310 0.49687
# Poissons Ratio (z) = -0.13217 0.68051
#
# Static dielectric constant tensor:
#      x y z
#    x 1.644250 0.000000 0.000000 
#    y 0.000000 1.671210 0.000000 
#    z 0.000000 0.000000 1.650070 
# 
# From -- ./inp_files/8397.got.cif
#   From: 2010.05.17/outbox.cif.g08.bks.cpg/sg40_5_cif.got.tgz:8397.got - 2010.06.03 18:35:42.
