data_PCOD9363413
_publ_section_title
;
Structure prediction by ZEFSAII (Michael W. Deem and Ramdas Pophale) SiO2 
 PCOD9363413
Probable space group: A M A 2
;
_chemical_formula_sum "Si O2"
_cell_formula_units_Z 64
_cell_length_a 14.752618
_cell_length_b 23.163819
_cell_length_c 9.266360
_cell_angle_alpha 90.000000
_cell_angle_beta 90.000000
_cell_angle_gamma 90.000000
_cell_volume 3166.565155
_symmetry_space_group_name_H-M "A M A 2"
_symmetry_group_IT_number 40
_symmetry_cell_setting 'orthorhombic'
loop_
_space_group_symop_operation_xyz
x,y,z
-x,-y,z
1/2-x,y,z
1/2+x,-y,z
x,1/2+y,1/2+z
-x,1/2-y,1/2+z
1/2-x,1/2+y,1/2+z
1/2+x,1/2-y,1/2+z
loop_
_atom_site_type_symbol
_atom_site_label
_atom_site_fract_x
_atom_site_fract_y
_atom_site_fract_z
Si Si1 0.147313 0.084246 0.281180
Si Si2 0.348352 0.877413 0.637812
Si Si3 0.484489 0.939341 0.842368
Si Si4 0.647027 0.861176 0.962726
Si Si5 0.034203 0.187630 0.375690
Si Si6 0.921078 0.245931 0.592183
Si Si7 0.644672 0.027653 0.110462
Si Si8 0.348977 0.867944 0.323608
O O1 0.250000 0.078320 0.338473
O O2 0.086766 0.126294 0.380459
O O3 0.114312 0.021780 0.224530
O O4 0.151396 0.117545 0.128317
O O5 0.250000 0.892156 0.698433
O O6 0.425484 0.897556 0.743797
O O7 0.356647 0.809311 0.606483
O O8 0.356705 0.902024 0.475925
O O9 0.574514 0.904183 0.888513
O O10 0.500000 0.000000 0.761365
O O11 0.422697 0.961143 0.977811
O O12 0.750000 0.863572 0.903862
O O13 0.611245 0.795684 0.981462
O O14 0.075428 0.227680 0.252087
O O15 0.014869 0.219789 0.526544
O O16 0.933827 0.173485 0.316897
O O17 0.750000 0.012843 0.067714
O O18 0.646907 0.087320 0.195072
O O19 0.250000 0.839556 0.322103
#
# Coordination Sequence:
#
# PCOD9363413 Si02
#       8
#     8   8   8   8   8   8   8   8
#     4   9  18  33  55  82 112 148 188 234 293 354
#     4  10  22  41  58  82 120 157 196 241 299 363
#     4  12  23  36  59  94 123 155 195 247 307 351
#     4  10  20  35  57  84 116 153 199 243 292 358
#     4  10  20  35  56  82 114 145 197 249 291 352
#     4  10  20  37  60  85 112 157 201 249 303 352
#     4  10  19  35  60  89 115 148 194 240 286 346
#     4   9  20  37  58  82 112 155 193 231 289 354
#
# _framework density 20.211174
#
# number of rings (size 3 to 8) (size 9 to 14) (size 15 to 20)
#    0.000    2.000    1.250    3.000    0.000    1.500 
#    4.500    0.625    0.000    4.500    0.000    0.000 
#    0.000    0.000    0.000    0.000    0.000    0.000 
#
# Total GULP energy -178259.935741 kJ/mol
# GULP energy per Si atom -5570.622992 kJ/mol
# Density = 2.016517 g / cm^3
# Si number density = 20.211174 Si / 1000 Ang^3
#
#
#
# Elastic Constant Matrix: (Units=GPa)
#
#
# Indices 1 2 3 4 5 6 
#
# 1 87.1076 19.4183 6.4335 0.0000 0.0000 0.0000
# 2 19.4183 73.4327 -3.8683 0.0000 0.0000 0.0000
# 3 6.4335 -3.8683 11.6035 0.0000 0.0000 0.0000
# 4 0.0000 0.0000 0.0000 16.0434 0.0000 0.0000
# 5 0.0000 0.0000 0.0000 0.0000 23.2219 0.0000
# 6 0.0000 0.0000 0.0000 0.0000 0.0000 25.0632
#
#
#
# Elastic Compliance Matrix: (Units=1/GPa)
#
#
# Indices 1 2 3 4 5 6 
#
# 1 0.012971 -0.003877 -0.008484 0.000000 0.000000 0.000000
# 2 -0.003877 0.015020 0.007157 0.000000 0.000000 0.000000
# 3 -0.008484 0.007157 0.093270 0.000000 0.000000 0.000000
# 4 0.000000 0.000000 0.000000 0.062331 0.000000 0.000000
# 5 0.000000 0.000000 0.000000 0.000000 0.043063 0.000000
# 6 0.000000 0.000000 0.000000 0.000000 0.000000 0.039899
#
#
# Mechanical properties :
#
#
# Convention : Reuss Voigt Hill
#
# Bulk Modulus (GPa) = 9.02096 24.01234 16.51665
# Shear Modulus (GPa) = 15.92795 22.87639 19.40217
#
# Velocity S-wave (km/s) = 2.81032 3.36798 3.10170
# Velocity P-wave (km/s) = 3.87344 5.19912 4.58445
#
# Compressibility (1/GPa) = 0.11085295
#
# Stress axis : x y z
#
# Youngs Moduli (GPa) = 77.09555 66.57741 10.72151
#
# Poissons Ratio (x) = 0.25811 0.09096
# Poissons Ratio (y) = 0.29889 -0.07673
# Poissons Ratio (z) = 0.65409 -0.47648
#
# Static dielectric constant tensor:
#      x y z
#    x 1.780730 0.000000 0.000000 
#    y 0.000000 1.759130 0.000000 
#    z 0.000000 0.000000 1.729310 
# 
# From -- ./inp_files/6913.got.cif
#   From: 2010.05.17/outbox.cif.g08.bks.cpg/sg40_4_cif.got.tgz:6913.got - 2010.06.03 18:35:42.
