data_PCOD9363502
_publ_section_title
;
Structure prediction by ZEFSAII (Michael W. Deem and Ramdas Pophale) SiO2 
 PCOD9363502
Probable space group: A M A 2
;
_chemical_formula_sum "Si O2"
_cell_formula_units_Z 48
_cell_length_a 20.060355
_cell_length_b 7.327251
_cell_length_c 13.761612
_cell_angle_alpha 90.000000
_cell_angle_beta 90.000000
_cell_angle_gamma 90.000000
_cell_volume 2022.781589
_symmetry_space_group_name_H-M "A M A 2"
_symmetry_group_IT_number 40
_symmetry_cell_setting 'orthorhombic'
loop_
_space_group_symop_operation_xyz
x,y,z
-x,-y,z
1/2-x,y,z
1/2+x,-y,z
x,1/2+y,1/2+z
-x,1/2-y,1/2+z
1/2-x,1/2+y,1/2+z
1/2+x,1/2-y,1/2+z
loop_
_atom_site_type_symbol
_atom_site_label
_atom_site_fract_x
_atom_site_fract_y
_atom_site_fract_z
Si Si1 0.377146 0.262091 0.614890
Si Si2 0.884142 0.823036 0.134593
Si Si3 0.487063 0.717676 0.248956
Si Si4 0.826167 0.245715 0.841497
Si Si5 0.176583 0.954487 0.499453
Si Si6 0.457416 0.823124 0.941912
O O1 0.362231 0.474532 0.604975
O O2 0.411136 0.242399 0.718476
O O3 0.323616 0.118905 0.579515
O O4 0.437021 0.218875 0.538340
O O5 0.958612 0.814082 0.179473
O O6 0.839742 0.760629 0.227023
O O7 0.874667 0.690224 0.043301
O O8 0.500000 0.500000 0.245522
O O9 0.502542 0.778963 0.358106
O O10 0.750000 0.187018 0.860227
O O11 0.886066 0.130588 0.890036
O O12 0.834885 0.441429 0.897302
O O13 0.250000 0.869360 0.495985
O O14 0.500000 0.000000 0.968043
#
# Coordination Sequence:
#
# PCOD9363502 Si02
#       6
#     8   8   8   8   8   8
#     4  11  22  40  63  94 125 163 217 268 323 402
#     4  11  21  38  63  90 124 164 212 269 328 389
#     4  10  19  37  59  86 125 160 204 258 325 391
#     4   9  20  39  60  89 127 171 224 277 334 407
#     4  10  22  41  62  88 126 171 215 266 334 396
#     4   9  19  36  60  90 126 167 210 270 328 392
#
# _framework density 23.729700000000001
#
# number of rings (size 3 to 8) (size 9 to 14) (size 15 to 20)
#    0.000    2.000    1.667    2.000    0.000    1.333 
#    9.000    0.000    0.000    4.000    0.000    0.000 
#    0.000    0.000    0.000    0.000    0.000    0.000 
#
# Total GULP energy -133978.261169 kJ/mol
# GULP energy per Si atom -5582.427549 kJ/mol
# Density = 2.367569 g / cm^3
# Si number density = 23.729700 Si / 1000 Ang^3
#
#
#
# Elastic Constant Matrix: (Units=GPa)
#
#
# Indices 1 2 3 4 5 6 
#
# 1 57.6780 -2.7228 25.6149 0.0000 0.0000 0.0000
# 2 -2.7228 86.1353 -14.1392 0.0000 0.0000 0.0000
# 3 25.6149 -14.1392 72.9979 0.0000 0.0000 0.0000
# 4 0.0000 0.0000 0.0000 24.1269 0.0000 0.0000
# 5 0.0000 0.0000 0.0000 0.0000 26.7900 0.0000
# 6 0.0000 0.0000 0.0000 0.0000 0.0000 6.8467
#
#
#
# Elastic Compliance Matrix: (Units=1/GPa)
#
#
# Indices 1 2 3 4 5 6 
#
# 1 0.020564 -0.000552 -0.007323 0.000000 0.000000 0.000000
# 2 -0.000552 0.012006 0.002519 0.000000 0.000000 0.000000
# 3 -0.007323 0.002519 0.016756 0.000000 0.000000 0.000000
# 4 0.000000 0.000000 0.000000 0.041447 0.000000 0.000000
# 5 0.000000 0.000000 0.000000 0.000000 0.037327 0.000000
# 6 0.000000 0.000000 0.000000 0.000000 0.000000 0.146056
#
#
# Mechanical properties :
#
#
# Convention : Reuss Voigt Hill
#
# Bulk Modulus (GPa) = 25.89687 26.03522 25.96604
# Shear Modulus (GPa) = 16.79323 25.42328 21.10825
#
# Velocity S-wave (km/s) = 2.66313 3.27673 2.98573
# Velocity P-wave (km/s) = 4.51589 5.03104 4.78041
#
# Compressibility (1/GPa) = 0.03861470
#
# Stress axis : x y z
#
# Youngs Moduli (GPa) = 48.62959 83.29373 59.67837
#
# Poissons Ratio (x) = 0.04598 0.43701
# Poissons Ratio (y) = 0.02684 -0.15034
# Poissons Ratio (z) = 0.35610 -0.20983
#
# Static dielectric constant tensor:
#      x y z
#    x 1.934650 0.000000 0.000000 
#    y 0.000000 1.898810 0.000000 
#    z 0.000000 0.000000 1.938080 
# 
# From -- ./inp_files/18069.got.cif
#   From: 2010.05.17/outbox.cif.g08.bks.cpg/sg40_10_cif.got.tgz:18069.got - 2010.06.03 18:35:42.
