data_PCOD9363072
_publ_section_title
;
Structure prediction by ZEFSAII (Michael W. Deem and Ramdas Pophale) SiO2 
 PCOD9363072
Probable space group: A M A 2
;
_chemical_formula_sum "Si O2"
_cell_formula_units_Z 64
_cell_length_a 8.771832
_cell_length_b 23.535528
_cell_length_c 19.538015
_cell_angle_alpha 90.000000
_cell_angle_beta 90.000000
_cell_angle_gamma 90.000000
_cell_volume 4033.617289
_symmetry_space_group_name_H-M "A M A 2"
_symmetry_group_IT_number 40
_symmetry_cell_setting 'orthorhombic'
loop_
_space_group_symop_operation_xyz
x,y,z
-x,-y,z
1/2-x,y,z
1/2+x,-y,z
x,1/2+y,1/2+z
-x,1/2-y,1/2+z
1/2-x,1/2+y,1/2+z
1/2+x,1/2-y,1/2+z
loop_
_atom_site_type_symbol
_atom_site_label
_atom_site_fract_x
_atom_site_fract_y
_atom_site_fract_z
Si Si1 0.430984 0.338234 0.847590
Si Si2 0.433020 0.383059 0.071266
Si Si3 0.932460 0.276997 0.721547
Si Si4 0.069034 0.062106 0.708761
Si Si5 0.566998 0.751531 0.069005
Si Si6 0.930992 0.157946 0.797536
Si Si7 0.432051 0.562480 0.933410
Si Si8 0.068425 0.269388 0.426266
O O1 0.250000 0.344207 0.852687
O O2 0.481824 0.319856 0.771684
O O3 0.511870 0.394690 0.874613
O O4 0.485557 0.286402 0.896308
O O5 0.250000 0.389050 0.069522
O O6 0.497055 0.411925 0.139535
O O7 0.468965 0.315857 0.071221
O O8 0.504659 0.412241 0.004753
O O9 0.750000 0.286033 0.727827
O O10 0.975599 0.278275 0.642057
O O11 0.961104 0.213231 0.750011
O O12 0.250000 0.058556 0.701284
O O13 0.023695 0.105051 0.769405
O O14 0.000000 0.000000 0.720358
O O15 0.750000 0.756287 0.061367
O O16 0.485409 0.777925 0.003447
O O17 0.750000 0.145767 0.792389
O O18 0.966114 0.179175 0.874202
O O19 0.500000 0.500000 0.923618
O O20 0.250000 0.560403 0.935725
O O21 0.250000 0.259470 0.422851
#
# Coordination Sequence:
#
# PCOD9363072 Si02
#       8
#     8   8   8   8   8   8   8   8
#     4  11  21  34  51  75 103 134 172 215 255 301
#     4  11  21  36  52  73 105 140 176 215 251 297
#     4   9  18  34  53  74 102 136 168 208 259 304
#     4  12  24  36  52  73 100 138 179 218 256 305
#     4  10  19  32  53  77 106 139 172 210 255 305
#     4   9  18  35  52  71 101 135 171 214 259 301
#     4  12  24  38  54  74 101 138 178 217 256 303
#     4  10  20  33  52  75 104 136 169 210 258 309
#
# _framework density 15.866652
#
# number of rings (size 3 to 8) (size 9 to 14) (size 15 to 20)
#    0.000    1.500    2.500    5.250    0.000    3.500 
#    0.000    0.000    0.000    0.000    0.000    0.875 
#    0.000    2.000    0.000    0.000    0.000    0.000 
#
# Total GULP energy -178758.765189 kJ/mol
# GULP energy per Si atom -5586.211412 kJ/mol
# Density = 1.583054 g / cm^3
# Si number density = 15.866652 Si / 1000 Ang^3
#
#
#
# Elastic Constant Matrix: (Units=GPa)
#
#
# Indices 1 2 3 4 5 6 
#
# 1 93.4070 50.0148 54.1556 0.0000 0.0000 0.0000
# 2 50.0148 79.7961 53.9494 0.0000 0.0000 0.0000
# 3 54.1556 53.9494 128.3836 0.0000 0.0000 0.0000
# 4 0.0000 0.0000 0.0000 15.0796 0.0000 0.0000
# 5 0.0000 0.0000 0.0000 0.0000 13.5979 0.0000
# 6 0.0000 0.0000 0.0000 0.0000 0.0000 14.8123
#
#
#
# Elastic Compliance Matrix: (Units=1/GPa)
#
#
# Indices 1 2 3 4 5 6 
#
# 1 0.017374 -0.008290 -0.003845 0.000000 0.000000 0.000000
# 2 -0.008290 0.021461 -0.005521 0.000000 0.000000 0.000000
# 3 -0.003845 -0.005521 0.011731 0.000000 0.000000 0.000000
# 4 0.000000 0.000000 0.000000 0.066315 0.000000 0.000000
# 5 0.000000 0.000000 0.000000 0.000000 0.073541 0.000000
# 6 0.000000 0.000000 0.000000 0.000000 0.000000 0.067512
#
#
# Mechanical properties :
#
#
# Convention : Reuss Voigt Hill
#
# Bulk Modulus (GPa) = 65.56023 68.64735 67.10379
# Shear Modulus (GPa) = 16.75990 18.26242 17.51116
#
# Velocity S-wave (km/s) = 3.25360 3.39631 3.32572
# Velocity P-wave (km/s) = 7.45143 7.66414 7.55853
#
# Compressibility (1/GPa) = 0.01525315
#
# Stress axis : x y z
#
# Youngs Moduli (GPa) = 57.55680 46.59623 85.24165
#
# Poissons Ratio (x) = 0.38629 0.32777
# Poissons Ratio (y) = 0.47715 0.47065
# Poissons Ratio (z) = 0.22132 0.25727
#
# Static dielectric constant tensor:
#      x y z
#    x 1.531440 0.000000 0.000000 
#    y 0.000000 1.503740 0.000000 
#    z 0.000000 0.000000 1.534440 
# 
# From -- ./inp_files/19645.got.cif
#   From: 2010.05.17/outbox.cif.g08.bks.cpg/sg40_10_cif.got.tgz:19645.got - 2010.06.03 18:35:42.
