data_PCOD9363955
_publ_section_title
;
Structure prediction by ZEFSAII (Michael W. Deem and Ramdas Pophale) SiO2 
 PCOD9363955
Probable space group: A M A 2
;
_chemical_formula_sum "Si O2"
_cell_formula_units_Z 56
_cell_length_a 8.616457
_cell_length_b 15.037997
_cell_length_c 22.318409
_cell_angle_alpha 90.000000
_cell_angle_beta 90.000000
_cell_angle_gamma 90.000000
_cell_volume 2891.891208
_symmetry_space_group_name_H-M "A M A 2"
_symmetry_group_IT_number 40
_symmetry_cell_setting 'orthorhombic'
loop_
_space_group_symop_operation_xyz
x,y,z
-x,-y,z
1/2-x,y,z
1/2+x,-y,z
x,1/2+y,1/2+z
-x,1/2-y,1/2+z
1/2-x,1/2+y,1/2+z
1/2+x,1/2-y,1/2+z
loop_
_atom_site_type_symbol
_atom_site_label
_atom_site_fract_x
_atom_site_fract_y
_atom_site_fract_z
Si Si1 0.935268 0.095160 0.257920
Si Si2 0.935851 0.900357 0.478648
Si Si3 0.063317 0.905478 0.835795
Si Si4 0.936845 0.595063 0.197226
Si Si5 0.936167 0.405865 0.623266
Si Si6 0.562497 0.714965 0.087801
Si Si7 0.562247 0.287781 0.862892
O O1 0.750000 0.092112 0.255721
O O2 0.001938 0.106127 0.191067
O O3 0.993644 0.171170 0.302329
O O4 0.000000 0.000000 0.280435
O O5 0.750000 0.904089 0.478917
O O6 0.986496 0.848393 0.418636
O O7 0.992803 0.844005 0.535319
O O8 0.000000 0.000000 0.480112
O O9 0.250000 0.910307 0.836286
O O10 0.012148 0.893797 0.766122
O O11 0.016048 0.815503 0.869497
O O12 0.000000 0.000000 0.857651
O O13 0.750000 0.592295 0.197515
O O14 0.984849 0.672016 0.151625
O O15 0.000000 0.500000 0.175612
O O16 0.750000 0.409875 0.625736
O O17 0.983393 0.318369 0.586607
O O18 0.000000 0.500000 0.600610
O O19 0.750000 0.710617 0.084438
O O20 0.750000 0.290530 0.858372
#
# Coordination Sequence:
#
# PCOD9363955 Si02
#       7
#     8   8   8   8   8   8   8
#     4  11  21  33  54  84 115 147 182 225 275 330
#     4  11  24  40  59  81 108 142 183 229 276 327
#     4   9  18  34  55  79 109 140 175 219 267 320
#     4   9  17  30  50  77 106 137 170 210 262 318
#     4  10  20  36  57  82 113 147 182 225 274 326
#     4  10  21  37  57  79 107 145 185 225 273 323
#     4  10  21  38  57  78 108 148 188 229 276 326
#
# _framework density 19.36449
#
# number of rings (size 3 to 8) (size 9 to 14) (size 15 to 20)
#    0.000    2.000    0.000    4.714    0.000    8.000 
#    0.000    3.571    0.000    3.429    0.000    0.000 
#    0.000    0.000    0.000    0.000    0.000    0.000 
#
# Total GULP energy -156374.827361 kJ/mol
# GULP energy per Si atom -5584.815263 kJ/mol
# Density = 1.932042 g / cm^3
# Si number density = 19.364490 Si / 1000 Ang^3
#
#
#
# Elastic Constant Matrix: (Units=GPa)
#
#
# Indices 1 2 3 4 5 6 
#
# 1 32.6544 40.0389 16.2581 0.0000 0.0000 0.0000
# 2 40.0389 203.8371 58.1227 0.0000 0.0000 0.0000
# 3 16.2581 58.1227 43.3340 0.0000 0.0000 0.0000
# 4 0.0000 0.0000 0.0000 33.5489 0.0000 0.0000
# 5 0.0000 0.0000 0.0000 0.0000 90.3799 0.0000
# 6 0.0000 0.0000 0.0000 0.0000 0.0000 31.4306
#
#
#
# Elastic Compliance Matrix: (Units=1/GPa)
#
#
# Indices 1 2 3 4 5 6 
#
# 1 0.041817 -0.006057 -0.007565 0.000000 0.000000 0.000000
# 2 -0.006057 0.008821 -0.009560 0.000000 0.000000 0.000000
# 3 -0.007565 -0.009560 0.038737 0.000000 0.000000 0.000000
# 4 0.000000 0.000000 0.000000 0.029807 0.000000 0.000000
# 5 0.000000 0.000000 0.000000 0.000000 0.011064 0.000000
# 6 0.000000 0.000000 0.000000 0.000000 0.000000 0.031816
#
#
# Mechanical properties :
#
#
# Convention : Reuss Voigt Hill
#
# Bulk Modulus (GPa) = 23.24928 56.51834 39.88381
# Shear Modulus (GPa) = 22.44540 42.09895 32.27218
#
# Velocity S-wave (km/s) = 3.40825 4.66771 4.08679
# Velocity P-wave (km/s) = 5.24599 7.63544 6.55059
#
# Compressibility (1/GPa) = 0.04301208
#
# Stress axis : x y z
#
# Youngs Moduli (GPa) = 23.91392 113.36052 25.81525
#
# Poissons Ratio (x) = 0.68659 0.19530
# Poissons Ratio (y) = 0.14484 0.24678
# Poissons Ratio (z) = 0.18091 1.08367
#
# Static dielectric constant tensor:
#      x y z
#    x 1.653380 0.000000 0.000000 
#    y 0.000000 1.692970 0.000000 
#    z 0.000000 0.000000 1.658220 
# 
# From -- ./inp_files/22140.got.cif
#   From: 2010.05.17/outbox.cif.g08.bks.cpg/sg40_12_cif.got.tgz:22140.got - 2010.06.03 18:35:42.
