data_PCOD9363125
_publ_section_title
;
Structure prediction by ZEFSAII (Michael W. Deem and Ramdas Pophale) SiO2 
 PCOD9363125
Probable space group: A M A 2
;
_chemical_formula_sum "Si O2"
_cell_formula_units_Z 64
_cell_length_a 8.694286
_cell_length_b 23.873612
_cell_length_c 19.527233
_cell_angle_alpha 90.000000
_cell_angle_beta 90.000000
_cell_angle_gamma 90.000000
_cell_volume 4053.150797
_symmetry_space_group_name_H-M "A M A 2"
_symmetry_group_IT_number 40
_symmetry_cell_setting 'orthorhombic'
loop_
_space_group_symop_operation_xyz
x,y,z
-x,-y,z
1/2-x,y,z
1/2+x,-y,z
x,1/2+y,1/2+z
-x,1/2-y,1/2+z
1/2-x,1/2+y,1/2+z
1/2+x,1/2-y,1/2+z
loop_
_atom_site_type_symbol
_atom_site_label
_atom_site_fract_x
_atom_site_fract_y
_atom_site_fract_z
Si Si1 0.065557 0.937793 0.842780
Si Si2 0.935016 0.166032 0.468708
Si Si3 0.434575 0.272241 0.549396
Si Si4 0.066466 0.746920 0.202616
Si Si5 0.564469 0.121523 0.699098
Si Si6 0.433120 0.729940 0.845867
Si Si7 0.433776 0.163180 0.926508
Si Si8 0.434988 0.438425 0.058058
O O1 0.250000 0.938481 0.848524
O O2 0.026012 0.912351 0.767940
O O3 0.995920 0.895352 0.898307
O O4 0.000000 0.000000 0.849236
O O5 0.750000 0.169928 0.466651
O O6 0.980065 0.106227 0.499841
O O7 0.997642 0.214305 0.519343
O O8 0.003231 0.181209 0.394878
O O9 0.250000 0.271324 0.541473
O O10 0.472000 0.274769 0.629632
O O11 0.504412 0.320462 0.501577
O O12 0.250000 0.748507 0.211645
O O13 0.012299 0.682339 0.199768
O O14 0.986310 0.774668 0.267866
O O15 0.750000 0.129160 0.697202
O O16 0.517358 0.087224 0.631572
O O17 0.250000 0.733022 0.850699
O O18 0.502466 0.787659 0.876763
O O19 0.250000 0.164660 0.925422
O O20 0.500000 0.500000 0.047990
O O21 0.250000 0.441324 0.058617
#
# Coordination Sequence:
#
# PCOD9363125 Si02
#       8
#     8   8   8   8   8   8   8   8
#     4  11  22  35  52  73 102 140 178 217 252 298
#     4  10  19  33  51  72  99 132 170 211 252 299
#     4  10  20  33  51  75 101 131 166 208 256 305
#     4  11  21  32  51  77 103 135 171 207 252 307
#     4  10  20  34  49  70 102 139 176 211 248 292
#     4  11  21  33  51  73 101 133 167 210 258 306
#     4  11  21  34  52  74 100 133 171 212 255 303
#     4  10  21  34  50  72 100 137 176 212 251 294
#
# _framework density 15.790184999999999
#
# number of rings (size 3 to 8) (size 9 to 14) (size 15 to 20)
#    0.000    1.500    2.500    5.625    0.000    3.500 
#    0.000    0.000    0.000    0.000    0.000    0.875 
#    0.000    4.000    0.000    0.000    0.000    0.000 
#
# Total GULP energy -178728.219125 kJ/mol
# GULP energy per Si atom -5585.256848 kJ/mol
# Density = 1.575425 g / cm^3
# Si number density = 15.790185 Si / 1000 Ang^3
#
#
#
# Elastic Constant Matrix: (Units=GPa)
#
#
# Indices 1 2 3 4 5 6 
#
# 1 81.3180 44.5901 62.9894 0.0000 0.0000 0.0000
# 2 44.5901 104.1737 78.7119 0.0000 0.0000 0.0000
# 3 62.9894 78.7119 147.9805 0.0000 0.0000 0.0000
# 4 0.0000 0.0000 0.0000 19.7785 0.0000 0.0000
# 5 0.0000 0.0000 0.0000 0.0000 21.7954 0.0000
# 6 0.0000 0.0000 0.0000 0.0000 0.0000 26.2348
#
#
#
# Elastic Compliance Matrix: (Units=1/GPa)
#
#
# Indices 1 2 3 4 5 6 
#
# 1 0.019035 -0.003387 -0.006301 0.000000 0.000000 0.000000
# 2 -0.003387 0.016652 -0.007416 0.000000 0.000000 0.000000
# 3 -0.006301 -0.007416 0.013384 0.000000 0.000000 0.000000
# 4 0.000000 0.000000 0.000000 0.050560 0.000000 0.000000
# 5 0.000000 0.000000 0.000000 0.000000 0.045881 0.000000
# 6 0.000000 0.000000 0.000000 0.000000 0.000000 0.038117
#
#
# Mechanical properties :
#
#
# Convention : Reuss Voigt Hill
#
# Bulk Modulus (GPa) = 67.27458 78.45056 72.86257
# Shear Modulus (GPa) = 22.44235 23.37380 22.90808
#
# Velocity S-wave (km/s) = 3.77408 3.85161 3.81304
# Velocity P-wave (km/s) = 7.85426 8.34091 8.10124
#
# Compressibility (1/GPa) = 0.01486445
#
# Stress axis : x y z
#
# Youngs Moduli (GPa) = 52.53357 60.05166 74.71411
#
# Poissons Ratio (x) = 0.20338 0.47079
# Poissons Ratio (y) = 0.17792 0.55407
# Poissons Ratio (z) = 0.33102 0.44533
#
# Static dielectric constant tensor:
#      x y z
#    x 1.528210 0.000000 0.000000 
#    y 0.000000 1.494850 0.000000 
#    z 0.000000 0.000000 1.538250 
# 
# From -- ./inp_files/19693.got.cif
#   From: 2010.05.17/outbox.cif.g08.bks.cpg/sg40_10_cif.got.tgz:19693.got - 2010.06.03 18:35:42.
