data_PCOD9363262
_publ_section_title
;
Structure prediction by ZEFSAII (Michael W. Deem and Ramdas Pophale) SiO2 
 PCOD9363262
Probable space group: A M A 2
;
_chemical_formula_sum "Si O2"
_cell_formula_units_Z 48
_cell_length_a 18.803478
_cell_length_b 8.915550
_cell_length_c 17.331309
_cell_angle_alpha 90.000000
_cell_angle_beta 90.000000
_cell_angle_gamma 90.000000
_cell_volume 2905.478671
_symmetry_space_group_name_H-M "A M A 2"
_symmetry_group_IT_number 40
_symmetry_cell_setting 'orthorhombic'
loop_
_space_group_symop_operation_xyz
x,y,z
-x,-y,z
1/2-x,y,z
1/2+x,-y,z
x,1/2+y,1/2+z
-x,1/2-y,1/2+z
1/2-x,1/2+y,1/2+z
1/2+x,1/2-y,1/2+z
loop_
_atom_site_type_symbol
_atom_site_label
_atom_site_fract_x
_atom_site_fract_y
_atom_site_fract_z
Si Si1 0.544577 0.852492 0.732840
Si Si2 0.456556 0.151952 0.107991
Si Si3 0.332880 0.469991 0.681035
Si Si4 0.920795 0.566180 0.006406
Si Si5 0.426889 0.905906 0.330596
Si Si6 0.167400 0.136914 0.624150
O O1 0.505788 0.742604 0.669975
O O2 0.551393 0.764173 0.812159
O O3 0.500000 0.000000 0.740140
O O4 0.379136 0.099928 0.699346
O O5 0.432054 0.269357 0.043047
O O6 0.500000 0.000000 0.085501
O O7 0.383712 0.095367 0.146134
O O8 0.250000 0.508928 0.687958
O O9 0.368591 0.438706 0.764578
O O10 0.336992 0.319566 0.627271
O O11 0.870264 0.455351 0.055569
O O12 0.000000 0.500000 0.009891
O O13 0.899616 0.571743 0.916857
O O14 0.500000 0.000000 0.319295
O O15 0.250000 0.097130 0.628845
#
# Coordination Sequence:
#
# PCOD9363262 Si02
#       6
#     8   8   8   8   8   8
#     4  11  18  35  57  80 105 144 185 231 265 321
#     4  12  18  34  58  80 109 142 183 234 265 322
#     4  10  20  35  57  80 106 146 188 227 275 325
#     4  11  21  34  54  84 109 141 182 224 274 329
#     4  10  20  35  55  79 109 141 180 223 277 329
#     4  10  19  34  54  80 109 143 181 224 273 322
#
# _framework density 16.520513000000001
#
# number of rings (size 3 to 8) (size 9 to 14) (size 15 to 20)
#    0.000    1.333    8.333    0.000    0.000    2.000 
#    0.000    0.000    0.000    0.000    0.000    0.000 
#    0.000    0.000    0.000    0.000    0.000    0.000 
#
# Total GULP energy -133631.884864 kJ/mol
# GULP energy per Si atom -5567.995203 kJ/mol
# Density = 1.648291 g / cm^3
# Si number density = 16.520513 Si / 1000 Ang^3
#
#
#
# Elastic Constant Matrix: (Units=GPa)
#
#
# Indices 1 2 3 4 5 6 
#
# 1 123.5861 46.0613 43.3014 0.0000 0.0000 0.0000
# 2 46.0613 85.3153 60.8470 0.0000 0.0000 0.0000
# 3 43.3014 60.8470 96.6516 0.0000 0.0000 0.0000
# 4 0.0000 0.0000 0.0000 22.4856 0.0000 0.0000
# 5 0.0000 0.0000 0.0000 0.0000 15.5381 0.0000
# 6 0.0000 0.0000 0.0000 0.0000 0.0000 23.0288
#
#
#
# Elastic Compliance Matrix: (Units=1/GPa)
#
#
# Indices 1 2 3 4 5 6 
#
# 1 0.010345 -0.004137 -0.002030 0.000000 0.000000 0.000000
# 2 -0.004137 0.022927 -0.012580 0.000000 0.000000 0.000000
# 3 -0.002030 -0.012580 0.019176 0.000000 0.000000 0.000000
# 4 0.000000 0.000000 0.000000 0.044473 0.000000 0.000000
# 5 0.000000 0.000000 0.000000 0.000000 0.064358 0.000000
# 6 0.000000 0.000000 0.000000 0.000000 0.000000 0.043424
#
#
# Mechanical properties :
#
#
# Convention : Reuss Voigt Hill
#
# Bulk Modulus (GPa) = 66.87750 67.33028 67.10389
# Shear Modulus (GPa) = 20.22804 22.56672 21.39738
#
# Velocity S-wave (km/s) = 3.50297 3.69993 3.60279
# Velocity P-wave (km/s) = 7.54522 7.68744 7.61666
#
# Compressibility (1/GPa) = 0.01495271
#
# Stress axis : x y z
#
# Youngs Moduli (GPa) = 96.66711 43.61637 52.14917
#
# Poissons Ratio (x) = 0.18045 0.10586
# Poissons Ratio (y) = 0.39994 0.65605
# Poissons Ratio (z) = 0.19623 0.54870
#
# Static dielectric constant tensor:
#      x y z
#    x 1.553080 0.000000 0.000000 
#    y 0.000000 1.586570 0.000000 
#    z 0.000000 0.000000 1.553610 
# 
# From -- ./inp_files/20997.got.cif
#   From: 2010.05.17/outbox.cif.g08.bks.cpg/sg40_11_cif.got.tgz:20997.got - 2010.06.03 18:35:42.
