data_PCOD9363619
_publ_section_title
;
Structure prediction by ZEFSAII (Michael W. Deem and Ramdas Pophale) SiO2 
 PCOD9363619
Probable space group: A M A 2
;
_chemical_formula_sum "Si O2"
_cell_formula_units_Z 56
_cell_length_a 8.442339
_cell_length_b 21.630446
_cell_length_c 15.547131
_cell_angle_alpha 90.000000
_cell_angle_beta 90.000000
_cell_angle_gamma 90.000000
_cell_volume 2839.085812
_symmetry_space_group_name_H-M "A M A 2"
_symmetry_group_IT_number 40
_symmetry_cell_setting 'orthorhombic'
loop_
_space_group_symop_operation_xyz
x,y,z
-x,-y,z
1/2-x,y,z
1/2+x,-y,z
x,1/2+y,1/2+z
-x,1/2-y,1/2+z
1/2-x,1/2+y,1/2+z
1/2+x,1/2-y,1/2+z
loop_
_atom_site_type_symbol
_atom_site_label
_atom_site_fract_x
_atom_site_fract_y
_atom_site_fract_z
Si Si1 0.432893 0.934728 0.380850
Si Si2 0.939723 0.070769 0.885892
Si Si3 0.926904 0.942954 0.199332
Si Si4 0.058116 0.194183 0.800606
Si Si5 0.936724 0.196237 0.430711
Si Si6 0.429260 0.147026 0.045958
Si Si7 0.432866 0.729263 0.105403
O O1 0.250000 0.933340 0.405271
O O2 0.456030 0.935028 0.278248
O O3 0.511015 0.869509 0.404845
O O4 0.500000 0.000000 0.413150
O O5 0.750000 0.068576 0.891712
O O6 0.989323 0.125567 0.818751
O O7 0.013338 0.099501 0.973553
O O8 0.000000 0.000000 0.870338
O O9 0.750000 0.955488 0.232528
O O10 0.917364 0.886851 0.136259
O O11 0.000000 0.000000 0.147187
O O12 0.250000 0.189699 0.804771
O O13 0.005392 0.244177 0.874564
O O14 0.017397 0.219491 0.704724
O O15 0.750000 0.194556 0.410494
O O16 0.961689 0.197039 0.532981
O O17 0.250000 0.169620 0.022252
O O18 0.549398 0.201405 0.068616
O O19 0.250000 0.709677 0.099316
#
# Coordination Sequence:
#
# PCOD9363619 Si02
#       7
#     8   8   8   8   8   8   8
#     4  10  20  35  56  83 116 158 199 245 304 363
#     4  12  25  41  64  92 124 168 217 267 326 389
#     4  10  20  32  50  78 112 152 191 235 289 353
#     4  10  22  42  64  90 127 167 209 264 321 379
#     4  10  21  39  62  86 120 162 202 252 312 368
#     4  11  22  37  57  86 123 160 201 254 311 370
#     4  11  23  38  62  93 121 157 206 256 312 375
#
# _framework density 19.72466
#
# number of rings (size 3 to 8) (size 9 to 14) (size 15 to 20)
#    0.000    1.429    1.429    5.143    0.000    6.857 
#    0.000    0.714    0.000    1.714    0.000    0.000 
#    0.000    0.000    0.000    0.000    0.000    0.000 
#
# Total GULP energy -155903.131047 kJ/mol
# GULP energy per Si atom -5567.968966 kJ/mol
# Density = 1.967977 g / cm^3
# Si number density = 19.724660 Si / 1000 Ang^3
#
#
#
# Elastic Constant Matrix: (Units=GPa)
#
#
# Indices 1 2 3 4 5 6 
#
# 1 46.5598 23.6954 1.8594 0.0000 0.0000 0.0000
# 2 23.6954 130.0304 41.1699 0.0000 0.0000 0.0000
# 3 1.8594 41.1699 86.3947 0.0000 0.0000 0.0000
# 4 0.0000 0.0000 0.0000 34.4972 0.0000 0.0000
# 5 0.0000 0.0000 0.0000 0.0000 17.9036 0.0000
# 6 0.0000 0.0000 0.0000 0.0000 0.0000 4.8480
#
#
#
# Elastic Compliance Matrix: (Units=1/GPa)
#
#
# Indices 1 2 3 4 5 6 
#
# 1 0.023919 -0.004941 0.001840 0.000000 0.000000 0.000000
# 2 -0.004941 0.010078 -0.004696 0.000000 0.000000 0.000000
# 3 0.001840 -0.004696 0.013773 0.000000 0.000000 0.000000
# 4 0.000000 0.000000 0.000000 0.028988 0.000000 0.000000
# 5 0.000000 0.000000 0.000000 0.000000 0.055855 0.000000
# 6 0.000000 0.000000 0.000000 0.000000 0.000000 0.206269
#
#
# Mechanical properties :
#
#
# Convention : Reuss Voigt Hill
#
# Bulk Modulus (GPa) = 31.08013 44.04827 37.56420
# Shear Modulus (GPa) = 13.69108 24.53377 19.11242
#
# Velocity S-wave (km/s) = 2.63745 3.53060 3.11619
# Velocity P-wave (km/s) = 5.00660 6.24502 5.65978
#
# Compressibility (1/GPa) = 0.03217489
#
# Stress axis : x y z
#
# Youngs Moduli (GPa) = 41.80776 99.22781 72.60576
#
# Poissons Ratio (x) = 0.49031 -0.13359
# Poissons Ratio (y) = 0.20658 0.34096
# Poissons Ratio (z) = -0.07692 0.46598
#
# Static dielectric constant tensor:
#      x y z
#    x 1.763070 0.000000 0.000000 
#    y 0.000000 1.821640 0.000000 
#    z 0.000000 0.000000 1.691560 
# 
# From -- ./inp_files/15332.got.cif
#   From: 2010.05.17/outbox.cif.g08.bks.cpg/sg40_8_cif.got.tgz:15332.got - 2010.06.03 18:35:42.
