data_PCOD9363220
_publ_section_title
;
Structure prediction by ZEFSAII (Michael W. Deem and Ramdas Pophale) SiO2 
 PCOD9363220
Probable space group: A M A 2
;
_chemical_formula_sum "Si O2"
_cell_formula_units_Z 56
_cell_length_a 8.914067
_cell_length_b 14.288187
_cell_length_c 23.159290
_cell_angle_alpha 90.000000
_cell_angle_beta 90.000000
_cell_angle_gamma 90.000000
_cell_volume 2949.702800
_symmetry_space_group_name_H-M "A M A 2"
_symmetry_group_IT_number 40
_symmetry_cell_setting 'orthorhombic'
loop_
_space_group_symop_operation_xyz
x,y,z
-x,-y,z
1/2-x,y,z
1/2+x,-y,z
x,1/2+y,1/2+z
-x,1/2-y,1/2+z
1/2-x,1/2+y,1/2+z
1/2+x,1/2-y,1/2+z
loop_
_atom_site_type_symbol
_atom_site_label
_atom_site_fract_x
_atom_site_fract_y
_atom_site_fract_z
Si Si1 0.424179 0.647429 0.192840
Si Si2 0.922177 0.333464 0.663279
Si Si3 0.572689 0.302579 0.536000
Si Si4 0.571366 0.102911 0.926379
Si Si5 0.572787 0.093260 0.577241
Si Si6 0.569449 0.794458 0.816903
Si Si7 0.076163 0.095153 0.286806
O O1 0.250000 0.622397 0.186125
O O2 0.453648 0.756368 0.178121
O O3 0.522281 0.598335 0.144178
O O4 0.468380 0.642941 0.260002
O O5 0.750000 0.292431 0.665086
O O6 0.944637 0.358839 0.596582
O O7 0.927320 0.404032 0.716439
O O8 0.750000 0.305155 0.520764
O O9 0.476168 0.345685 0.485311
O O10 0.531592 0.193933 0.549528
O O11 0.750000 0.097022 0.921296
O O12 0.502673 0.160367 0.873037
O O13 0.500000 0.000000 0.926456
O O14 0.750000 0.085043 0.573847
O O15 0.500000 0.000000 0.551094
O O16 0.750000 0.790861 0.820739
O O17 0.505868 0.689834 0.807025
O O18 0.250000 0.099433 0.304125
O O19 0.000000 0.000000 0.307741
#
# Coordination Sequence:
#
# PCOD9363220 Si02
#       7
#     8   8   8   8   8   8   8
#     4   9  17  30  52  80 110 144 182 224 272 323
#     4   8  16  31  52  78 111 148 183 222 271 322
#     4   9  19  38  59  82 114 150 188 234 282 328
#     4  12  26  43  63  84 107 142 187 236 286 338
#     4  10  20  34  56  85 119 154 186 225 275 332
#     4  10  21  39  60  83 113 149 190 238 285 333
#     4  10  19  33  55  86 121 155 190 229 277 336
#
# _framework density 18.984963
#
# number of rings (size 3 to 8) (size 9 to 14) (size 15 to 20)
#    0.000    2.286    0.000    3.857    0.000    6.286 
#    0.000    2.143    0.000    1.714    0.000    0.000 
#    0.000    0.000    0.000    0.000    0.000    0.000 
#
# Total GULP energy -156099.956949 kJ/mol
# GULP energy per Si atom -5574.998462 kJ/mol
# Density = 1.894175 g / cm^3
# Si number density = 18.984963 Si / 1000 Ang^3
#
#
#
# Elastic Constant Matrix: (Units=GPa)
#
#
# Indices 1 2 3 4 5 6 
#
# 1 91.1407 54.7472 56.0186 0.0000 0.0000 0.0000
# 2 54.7472 108.4213 48.4346 0.0000 0.0000 0.0000
# 3 56.0186 48.4346 111.0055 0.0000 0.0000 0.0000
# 4 0.0000 0.0000 0.0000 14.2778 0.0000 0.0000
# 5 0.0000 0.0000 0.0000 0.0000 24.9412 0.0000
# 6 0.0000 0.0000 0.0000 0.0000 0.0000 27.8314
#
#
#
# Elastic Compliance Matrix: (Units=1/GPa)
#
#
# Indices 1 2 3 4 5 6 
#
# 1 0.019102 -0.006632 -0.006746 0.000000 0.000000 0.000000
# 2 -0.006632 0.013759 -0.002657 0.000000 0.000000 0.000000
# 3 -0.006746 -0.002657 0.013572 0.000000 0.000000 0.000000
# 4 0.000000 0.000000 0.000000 0.070039 0.000000 0.000000
# 5 0.000000 0.000000 0.000000 0.000000 0.040094 0.000000
# 6 0.000000 0.000000 0.000000 0.000000 0.000000 0.035931
#
#
# Mechanical properties :
#
#
# Convention : Reuss Voigt Hill
#
# Bulk Modulus (GPa) = 69.61935 69.88535 69.75235
# Shear Modulus (GPa) = 21.80032 23.50121 22.65077
#
# Velocity S-wave (km/s) = 3.39232 3.52218 3.45786
# Velocity P-wave (km/s) = 7.21763 7.30970 7.26381
#
# Compressibility (1/GPa) = 0.01436382
#
# Stress axis : x y z
#
# Youngs Moduli (GPa) = 52.34979 72.68058 73.68037
#
# Poissons Ratio (x) = 0.48202 0.49706
# Poissons Ratio (y) = 0.34718 0.19574
# Poissons Ratio (z) = 0.35316 0.19308
#
# Static dielectric constant tensor:
#      x y z
#    x 1.641600 0.000000 0.000000 
#    y 0.000000 1.673840 0.000000 
#    z 0.000000 0.000000 1.666810 
# 
# From -- ./inp_files/22170.got.cif
#   From: 2010.05.17/outbox.cif.g08.bks.cpg/sg40_12_cif.got.tgz:22170.got - 2010.06.03 18:35:42.
