data_PCOD9363836
_publ_section_title
;
Structure prediction by ZEFSAII (Michael W. Deem and Ramdas Pophale) SiO2 
 PCOD9363836
Probable space group: A M A 2
;
_chemical_formula_sum "Si O2"
_cell_formula_units_Z 64
_cell_length_a 8.812213
_cell_length_b 21.118382
_cell_length_c 19.954022
_cell_angle_alpha 90.000000
_cell_angle_beta 90.000000
_cell_angle_gamma 90.000000
_cell_volume 3713.437117
_symmetry_space_group_name_H-M "A M A 2"
_symmetry_group_IT_number 40
_symmetry_cell_setting 'orthorhombic'
loop_
_space_group_symop_operation_xyz
x,y,z
-x,-y,z
1/2-x,y,z
1/2+x,-y,z
x,1/2+y,1/2+z
-x,1/2-y,1/2+z
1/2-x,1/2+y,1/2+z
1/2+x,1/2-y,1/2+z
loop_
_atom_site_type_symbol
_atom_site_label
_atom_site_fract_x
_atom_site_fract_y
_atom_site_fract_z
Si Si1 0.431621 0.259728 0.109820
Si Si2 0.932753 0.933997 0.824732
Si Si3 0.567954 0.309905 0.241517
Si Si4 0.930476 0.306964 0.823735
Si Si5 0.931513 0.885234 0.968507
Si Si6 0.430827 0.381342 0.610026
Si Si7 0.929765 0.734529 0.958231
Si Si8 0.068429 0.065772 0.244418
O O1 0.250000 0.251503 0.115369
O O2 0.493949 0.303356 0.168642
O O3 0.507675 0.190638 0.117136
O O4 0.464795 0.283976 0.034804
O O5 0.750000 0.936574 0.824413
O O6 0.977915 0.873807 0.780057
O O7 0.980456 0.921528 0.901753
O O8 0.000000 0.000000 0.800680
O O9 0.750000 0.308507 0.236448
O O10 0.513537 0.249480 0.284254
O O11 0.750000 0.298648 0.816107
O O12 0.972017 0.374139 0.790782
O O13 0.977751 0.300677 0.901028
O O14 0.750000 0.892458 0.978063
O O15 0.958569 0.810305 0.955158
O O16 0.014963 0.903802 0.036728
O O17 0.250000 0.382179 0.614455
O O18 0.502593 0.420567 0.670584
O O19 0.750000 0.725560 0.946233
O O20 0.250000 0.061663 0.240798
O O21 0.000000 0.000000 0.269720
#
# Coordination Sequence:
#
# PCOD9363836 Si02
#       8
#     8   8   8   8   8   8   8   8
#     4  10  20  35  55  83 114 145 182 230 280 326
#     4  10  22  38  55  79 111 149 188 229 278 329
#     4  11  21  36  58  83 111 146 187 229 279 332
#     4  11  22  35  57  85 112 142 183 231 276 327
#     4   9  18  35  53  74 111 151 186 229 272 322
#     4  11  21  33  53  81 111 149 188 225 271 329
#     4   9  18  34  56  80 112 145 178 225 278 326
#     4  11  24  40  56  79 111 148 187 231 279 331
#
# _framework density 17.234705999999999
#
# number of rings (size 3 to 8) (size 9 to 14) (size 15 to 20)
#    0.000    1.750    2.500    3.375    0.000    6.000 
#    0.000    1.250    0.000    0.750    0.000    0.000 
#    0.000    0.000    0.000    0.000    0.000    0.000 
#
# Total GULP energy -178731.332984 kJ/mol
# GULP energy per Si atom -5585.354156 kJ/mol
# Density = 1.719548 g / cm^3
# Si number density = 17.234706 Si / 1000 Ang^3
#
#
#
# Elastic Constant Matrix: (Units=GPa)
#
#
# Indices 1 2 3 4 5 6 
#
# 1 56.1194 41.6241 39.3700 0.0000 0.0000 0.0000
# 2 41.6241 104.3011 55.7149 0.0000 0.0000 0.0000
# 3 39.3700 55.7149 101.5908 0.0000 0.0000 0.0000
# 4 0.0000 0.0000 0.0000 21.5686 0.0000 0.0000
# 5 0.0000 0.0000 0.0000 0.0000 32.7540 0.0000
# 6 0.0000 0.0000 0.0000 0.0000 0.0000 25.7357
#
#
#
# Elastic Compliance Matrix: (Units=1/GPa)
#
#
# Indices 1 2 3 4 5 6 
#
# 1 0.028232 -0.007669 -0.006735 0.000000 0.000000 0.000000
# 2 -0.007669 0.015643 -0.005607 0.000000 0.000000 0.000000
# 3 -0.006735 -0.005607 0.015529 0.000000 0.000000 0.000000
# 4 0.000000 0.000000 0.000000 0.046364 0.000000 0.000000
# 5 0.000000 0.000000 0.000000 0.000000 0.030531 0.000000
# 6 0.000000 0.000000 0.000000 0.000000 0.000000 0.038857
#
#
# Mechanical properties :
#
#
# Convention : Reuss Voigt Hill
#
# Bulk Modulus (GPa) = 51.59541 59.49212 55.54377
# Shear Modulus (GPa) = 22.55927 24.36515 23.46221
#
# Velocity S-wave (km/s) = 3.62186 3.76403 3.69363
# Velocity P-wave (km/s) = 6.89147 7.31330 7.10552
#
# Compressibility (1/GPa) = 0.01938157
#
# Stress axis : x y z
#
# Youngs Moduli (GPa) = 35.42039 63.92467 64.39740
#
# Poissons Ratio (x) = 0.49025 0.43372
# Poissons Ratio (y) = 0.27164 0.36109
# Poissons Ratio (z) = 0.23856 0.35844
#
# Static dielectric constant tensor:
#      x y z
#    x 1.575050 0.000000 0.000000 
#    y 0.000000 1.574030 0.000000 
#    z 0.000000 0.000000 1.592640 
# 
# From -- ./inp_files/22364.got.cif
#   From: 2010.05.17/outbox.cif.g08.bks.cpg/sg40_12_cif.got.tgz:22364.got - 2010.06.03 18:35:42.
