data_PCOD9363664
_publ_section_title
;
Structure prediction by ZEFSAII (Michael W. Deem and Ramdas Pophale) SiO2 
 PCOD9363664
Probable space group: A M A 2
;
_chemical_formula_sum "Si O2"
_cell_formula_units_Z 56
_cell_length_a 8.307677
_cell_length_b 20.763497
_cell_length_c 16.109890
_cell_angle_alpha 90.000000
_cell_angle_beta 90.000000
_cell_angle_gamma 90.000000
_cell_volume 2778.898456
_symmetry_space_group_name_H-M "A M A 2"
_symmetry_group_IT_number 40
_symmetry_cell_setting 'orthorhombic'
loop_
_space_group_symop_operation_xyz
x,y,z
-x,-y,z
1/2-x,y,z
1/2+x,-y,z
x,1/2+y,1/2+z
-x,1/2-y,1/2+z
1/2-x,1/2+y,1/2+z
1/2+x,1/2-y,1/2+z
loop_
_atom_site_type_symbol
_atom_site_label
_atom_site_fract_x
_atom_site_fract_y
_atom_site_fract_z
Si Si1 0.559765 0.067811 0.659340
Si Si2 0.941624 0.707746 0.772973
Si Si3 0.442260 0.426800 0.335876
Si Si4 0.938147 0.253357 0.593516
Si Si5 0.942494 0.302880 0.422183
Si Si6 0.057600 0.572999 0.832200
Si Si7 0.565191 0.371990 0.008405
O O1 0.750000 0.070317 0.639997
O O2 0.527097 0.106049 0.744054
O O3 0.446875 0.076347 0.580904
O O4 0.500000 0.000000 0.692770
O O5 0.750000 0.705092 0.781311
O O6 0.002804 0.750768 0.852424
O O7 0.982133 0.737881 0.683076
O O8 0.005878 0.634075 0.776477
O O9 0.500000 0.500000 0.352382
O O10 0.250000 0.428133 0.342895
O O11 0.520401 0.375032 0.395731
O O12 0.750000 0.266706 0.606208
O O13 0.006171 0.294018 0.515982
O O14 0.960067 0.182952 0.552484
O O15 0.750000 0.292892 0.426362
O O16 0.250000 0.570183 0.833799
O O17 0.000000 0.500000 0.813836
O O18 0.002010 0.596740 0.924046
O O19 0.750000 0.350511 0.996403
#
# Coordination Sequence:
#
# PCOD9363664 Si02
#       7
#     8   8   8   8   8   8   8
#     4  10  20  33  51  79 115 155 194 240 297 362
#     4  11  23  42  66  94 127 167 213 264 321 384
#     4  10  21  36  57  84 117 157 200 248 304 366
#     4  11  23  40  62  90 123 161 206 259 316 376
#     4  10  22  40  62  88 122 160 200 251 310 371
#     4  11  24  41  63  91 127 171 218 270 327 389
#     4  11  22  36  57  88 121 159 205 256 312 376
#
# _framework density 20.151869999999999
#
# number of rings (size 3 to 8) (size 9 to 14) (size 15 to 20)
#    0.000    1.429    1.429    3.857    0.000    9.143 
#    0.000    0.714    0.000    3.429    0.000    0.000 
#    0.000    0.000    0.000    0.000    0.000    0.000 
#
# Total GULP energy -155917.684462 kJ/mol
# GULP energy per Si atom -5568.488731 kJ/mol
# Density = 2.010600 g / cm^3
# Si number density = 20.151870 Si / 1000 Ang^3
#
#
#
# Elastic Constant Matrix: (Units=GPa)
#
#
# Indices 1 2 3 4 5 6 
#
# 1 33.4863 8.8409 15.6979 0.0000 0.0000 0.0000
# 2 8.8409 104.0699 29.1258 0.0000 0.0000 0.0000
# 3 15.6979 29.1258 76.8298 0.0000 0.0000 0.0000
# 4 0.0000 0.0000 0.0000 27.8610 0.0000 0.0000
# 5 0.0000 0.0000 0.0000 0.0000 -90.4339 0.0000
# 6 0.0000 0.0000 0.0000 0.0000 0.0000 32.7154
#
#
#
# Elastic Compliance Matrix: (Units=1/GPa)
#
#
# Indices 1 2 3 4 5 6 
#
# 1 0.033125 -0.001029 -0.006378 0.000000 0.000000 0.000000
# 2 -0.001029 0.010781 -0.003877 0.000000 0.000000 0.000000
# 3 -0.006378 -0.003877 0.015789 0.000000 0.000000 0.000000
# 4 0.000000 0.000000 0.000000 0.035892 0.000000 0.000000
# 5 0.000000 0.000000 0.000000 0.000000 -0.011058 0.000000
# 6 0.000000 0.000000 0.000000 0.000000 0.000000 0.030567
#
#
# Mechanical properties :
#
#
# Convention : Reuss Voigt Hill
#
# Bulk Modulus (GPa) = 26.93470 35.74614 31.34042
# Shear Modulus (GPa) = 33.32464 4.74328 19.03396
#
# Velocity S-wave (km/s) = 4.07095 1.53586 3.07665
# Velocity P-wave (km/s) = 5.95749 4.57406 5.31102
#
# Compressibility (1/GPa) = 0.03712683
#
# Stress axis : x y z
#
# Youngs Moduli (GPa) = 30.18910 92.75267 63.33668
#
# Poissons Ratio (x) = 0.09544 0.40396
# Poissons Ratio (y) = 0.03106 0.24555
# Poissons Ratio (z) = 0.19254 0.35959
#
# Static dielectric constant tensor:
#      x y z
#    x 1.918450 0.000000 0.000000 
#    y 0.000000 1.703690 0.000000 
#    z 0.000000 0.000000 1.829030 
# 
# From -- ./inp_files/15270.got.cif
#   From: 2010.05.17/outbox.cif.g08.bks.cpg/sg40_8_cif.got.tgz:15270.got - 2010.06.03 18:35:42.
