data_PCOD9363597
_publ_section_title
;
Structure prediction by ZEFSAII (Michael W. Deem and Ramdas Pophale) SiO2 
 PCOD9363597
Probable space group: A M A 2
;
_chemical_formula_sum "Si O2"
_cell_formula_units_Z 64
_cell_length_a 8.052096
_cell_length_b 33.449040
_cell_length_c 12.304009
_cell_angle_alpha 90.000000
_cell_angle_beta 90.000000
_cell_angle_gamma 90.000000
_cell_volume 3313.898802
_symmetry_space_group_name_H-M "A M A 2"
_symmetry_group_IT_number 40
_symmetry_cell_setting 'orthorhombic'
loop_
_space_group_symop_operation_xyz
x,y,z
-x,-y,z
1/2-x,y,z
1/2+x,-y,z
x,1/2+y,1/2+z
-x,1/2-y,1/2+z
1/2-x,1/2+y,1/2+z
1/2+x,1/2-y,1/2+z
loop_
_atom_site_type_symbol
_atom_site_label
_atom_site_fract_x
_atom_site_fract_y
_atom_site_fract_z
Si Si1 0.058321 0.184224 0.143510
Si Si2 0.948439 0.316586 0.404993
Si Si3 0.445418 0.954669 0.083413
Si Si4 0.561237 0.898642 0.274407
Si Si5 0.453885 0.647219 0.978271
Si Si6 0.449134 0.453738 0.342367
Si Si7 0.547530 0.272874 0.850348
Si Si8 0.550450 0.376209 0.219140
O O1 0.250000 0.196911 0.124679
O O2 0.063169 0.143065 0.209128
O O3 0.985789 0.215499 0.229278
O O4 0.980875 0.177105 0.026146
O O5 0.750000 0.324019 0.408144
O O6 0.015465 0.346159 0.312446
O O7 0.981470 0.270387 0.379656
O O8 0.250000 0.953591 0.070602
O O9 0.486634 0.929441 0.189609
O O10 0.500000 0.000000 0.099824
O O11 0.514163 0.941846 0.964259
O O12 0.750000 0.911898 0.294042
O O13 0.487282 0.886087 0.390808
O O14 0.250000 0.646593 0.974986
O O15 0.501188 0.691223 0.932868
O O16 0.509756 0.636803 0.099598
O O17 0.500000 0.500000 0.323691
O O18 0.250000 0.452203 0.340974
O O19 0.511559 0.421316 0.256034
O O20 0.750000 0.272206 0.849283
O O21 0.750000 0.372260 0.215015
#
# Coordination Sequence:
#
# PCOD9363597 Si02
#       8
#     8   8   8   8   8   8   8   8
#     4   8  16  31  48  68  95 130 166 203 254 309
#     4  10  20  31  48  75 104 133 171 219 264 309
#     4  10  20  33  52  80 110 134 164 210 261 313
#     4   9  16  32  56  74  95 132 174 210 255 311
#     4   8  17  34  54  75 102 140 180 219 264 317
#     4  10  21  37  57  82 111 141 175 217 269 322
#     4   9  18  33  51  69  97 137 177 215 260 311
#     4  10  20  35  55  79 108 141 181 225 269 320
#
# _framework density 19.312598999999999
#
# number of rings (size 3 to 8) (size 9 to 14) (size 15 to 20)
#    0.000    2.750    0.000    3.000    1.750    3.000 
#    0.000    5.000    0.000    0.000    0.000    0.000 
#    0.000    0.000    0.000    0.000    0.000    0.000 
#
# Total GULP energy -178276.946266 kJ/mol
# GULP energy per Si atom -5571.154571 kJ/mol
# Density = 1.926864 g / cm^3
# Si number density = 19.312599 Si / 1000 Ang^3
#
#
#
# Elastic Constant Matrix: (Units=GPa)
#
#
# Indices 1 2 3 4 5 6 
#
# 1 8.8314 -7.6179 6.7726 0.0000 0.0000 0.0000
# 2 -7.6179 60.3843 58.2193 0.0000 0.0000 0.0000
# 3 6.7726 58.2193 174.6615 0.0000 0.0000 0.0000
# 4 0.0000 0.0000 0.0000 22.1398 0.0000 0.0000
# 5 0.0000 0.0000 0.0000 0.0000 10.8118 0.0000
# 6 0.0000 0.0000 0.0000 0.0000 0.0000 28.0320
#
#
#
# Elastic Compliance Matrix: (Units=1/GPa)
#
#
# Indices 1 2 3 4 5 6 
#
# 1 0.161578 0.038939 -0.019245 0.000000 0.000000 0.000000
# 2 0.038939 0.033787 -0.012772 0.000000 0.000000 0.000000
# 3 -0.019245 -0.012772 0.010729 0.000000 0.000000 0.000000
# 4 0.000000 0.000000 0.000000 0.045168 0.000000 0.000000
# 5 0.000000 0.000000 0.000000 0.000000 0.092491 0.000000
# 6 0.000000 0.000000 0.000000 0.000000 0.000000 0.035674
#
#
# Mechanical properties :
#
#
# Convention : Reuss Voigt Hill
#
# Bulk Modulus (GPa) = 4.54674 39.84724 22.19699
# Shear Modulus (GPa) = 11.39227 24.63027 18.01127
#
# Velocity S-wave (km/s) = 2.43140 3.57507 3.05719
# Velocity P-wave (km/s) = 3.20026 6.14159 4.89698
#
# Compressibility (1/GPa) = 0.21993789
#
# Stress axis : x y z
#
# Youngs Moduli (GPa) = 6.18897 29.59714 93.20689
#
# Poissons Ratio (x) = -1.15247 1.79372
# Poissons Ratio (y) = -0.24099 1.19044
# Poissons Ratio (z) = 0.11910 0.37801
#
# Static dielectric constant tensor:
#      x y z
#    x 1.692470 0.000000 0.000000 
#    y 0.000000 1.651320 0.000000 
#    z 0.000000 0.000000 1.731080 
# 
# From -- ./inp_files/10663.got.cif
#   From: 2010.05.17/outbox.cif.g08.bks.cpg/sg40_6_cif.got.tgz:10663.got - 2010.06.03 18:35:42.
