data_PCOD9363303
_publ_section_title
;
Structure prediction by ZEFSAII (Michael W. Deem and Ramdas Pophale) SiO2 
 PCOD9363303
Probable space group: A M A 2
;
_chemical_formula_sum "Si O2"
_cell_formula_units_Z 64
_cell_length_a 9.012370
_cell_length_b 33.600539
_cell_length_c 11.767462
_cell_angle_alpha 90.000000
_cell_angle_beta 90.000000
_cell_angle_gamma 90.000000
_cell_volume 3563.428605
_symmetry_space_group_name_H-M "A M A 2"
_symmetry_group_IT_number 40
_symmetry_cell_setting 'orthorhombic'
loop_
_space_group_symop_operation_xyz
x,y,z
-x,-y,z
1/2-x,y,z
1/2+x,-y,z
x,1/2+y,1/2+z
-x,1/2-y,1/2+z
1/2-x,1/2+y,1/2+z
1/2+x,1/2-y,1/2+z
loop_
_atom_site_type_symbol
_atom_site_label
_atom_site_fract_x
_atom_site_fract_y
_atom_site_fract_z
Si Si1 0.916039 0.328201 0.918390
Si Si2 0.577237 0.604107 0.801818
Si Si3 0.077639 0.688887 0.183881
Si Si4 0.571429 0.455893 0.220852
Si Si5 0.928134 0.120342 0.831455
Si Si6 0.078208 0.226909 0.204414
Si Si7 0.925551 0.457350 0.961150
Si Si8 0.428352 0.847194 0.082750
O O1 0.750000 0.346535 0.901317
O O2 0.925167 0.291913 0.830645
O O3 0.043322 0.358406 0.882555
O O4 0.928134 0.316696 0.048386
O O5 0.750000 0.593971 0.799633
O O6 0.531487 0.619574 0.677313
O O7 0.486102 0.569326 0.859854
O O8 0.250000 0.687047 0.219318
O O9 0.988725 0.653744 0.245309
O O10 0.009085 0.731980 0.207134
O O11 0.500000 0.500000 0.236307
O O12 0.750000 0.458443 0.234290
O O13 0.502833 0.422003 0.301442
O O14 0.540223 0.442485 0.089755
O O15 0.750000 0.116611 0.822505
O O16 0.963927 0.136610 0.957889
O O17 0.250000 0.233484 0.173001
O O18 0.007176 0.193741 0.120757
O O19 0.750000 0.460770 0.953718
O O20 0.000000 0.500000 0.953019
O O21 0.250000 0.841042 0.089809
#
# Coordination Sequence:
#
# PCOD9363303 Si02
#       8
#     8   8   8   8   8   8   8   8
#     4   9  20  37  54  74 105 141 176 220 275 328
#     4  10  19  34  57  81 106 139 181 225 272 329
#     4  11  23  37  55  81 113 147 184 232 285 337
#     4  10  21  38  60  87 119 152 189 234 289 343
#     4  11  23  39  59  84 115 152 195 239 286 341
#     4  10  21  37  57  81 107 143 188 232 282 339
#     4  10  20  34  55  84 116 146 178 225 279 333
#     4   9  21  40  58  78 111 152 189 233 285 336
#
# _framework density 17.960231
#
# number of rings (size 3 to 8) (size 9 to 14) (size 15 to 20)
#    0.000    2.000    0.000    3.000    1.750    7.500 
#    0.000    0.625    0.000    0.000    0.000    0.000 
#    0.000    0.000    0.000    0.000    0.000    0.000 
#
# Total GULP energy -178579.053784 kJ/mol
# GULP energy per Si atom -5580.595431 kJ/mol
# Density = 1.791935 g / cm^3
# Si number density = 17.960231 Si / 1000 Ang^3
#
#
#
# Elastic Constant Matrix: (Units=GPa)
#
#
# Indices 1 2 3 4 5 6 
#
# 1 71.3568 46.7048 47.6323 0.0000 0.0000 0.0000
# 2 46.7048 93.4546 56.6318 0.0000 0.0000 0.0000
# 3 47.6323 56.6318 80.9065 0.0000 0.0000 0.0000
# 4 0.0000 0.0000 0.0000 10.0494 0.0000 0.0000
# 5 0.0000 0.0000 0.0000 0.0000 24.6896 0.0000
# 6 0.0000 0.0000 0.0000 0.0000 0.0000 39.1924
#
#
#
# Elastic Compliance Matrix: (Units=1/GPa)
#
#
# Indices 1 2 3 4 5 6 
#
# 1 0.025003 -0.006209 -0.010374 0.000000 0.000000 0.000000
# 2 -0.006209 0.020124 -0.010431 0.000000 0.000000 0.000000
# 3 -0.010374 -0.010431 0.025769 0.000000 0.000000 0.000000
# 4 0.000000 0.000000 0.000000 0.099508 0.000000 0.000000
# 5 0.000000 0.000000 0.000000 0.000000 0.040503 0.000000
# 6 0.000000 0.000000 0.000000 0.000000 0.000000 0.025515
#
#
# Mechanical properties :
#
#
# Convention : Reuss Voigt Hill
#
# Bulk Modulus (GPa) = 59.28302 60.85065 60.06684
# Shear Modulus (GPa) = 16.88775 21.10287 18.99531
#
# Velocity S-wave (km/s) = 3.06973 3.43151 3.25565
# Velocity P-wave (km/s) = 6.75603 7.04661 6.90285
#
# Compressibility (1/GPa) = 0.01686824
#
# Stress axis : x y z
#
# Youngs Moduli (GPa) = 39.99541 49.69115 38.80685
#
# Poissons Ratio (x) = 0.30853 0.40258
# Poissons Ratio (y) = 0.24833 0.40479
# Poissons Ratio (z) = 0.41491 0.51832
#
# Static dielectric constant tensor:
#      x y z
#    x 1.611470 0.000000 0.000000 
#    y 0.000000 1.578740 0.000000 
#    z 0.000000 0.000000 1.612520 
# 
# From -- ./inp_files/10639.got.cif
#   From: 2010.05.17/outbox.cif.g08.bks.cpg/sg40_6_cif.got.tgz:10639.got - 2010.06.03 18:35:42.
