data_PCOD9363543
_publ_section_title
;
Structure prediction by ZEFSAII (Michael W. Deem and Ramdas Pophale) SiO2 
 PCOD9363543
Probable space group: A M A 2
;
_chemical_formula_sum "Si O2"
_cell_formula_units_Z 32
_cell_length_a 17.211542
_cell_length_b 10.295431
_cell_length_c 9.568211
_cell_angle_alpha 90.000000
_cell_angle_beta 90.000000
_cell_angle_gamma 90.000000
_cell_volume 1695.489315
_symmetry_space_group_name_H-M "A M A 2"
_symmetry_group_IT_number 40
_symmetry_cell_setting 'orthorhombic'
loop_
_space_group_symop_operation_xyz
x,y,z
-x,-y,z
1/2-x,y,z
1/2+x,-y,z
x,1/2+y,1/2+z
-x,1/2-y,1/2+z
1/2-x,1/2+y,1/2+z
1/2+x,1/2-y,1/2+z
loop_
_atom_site_type_symbol
_atom_site_label
_atom_site_fract_x
_atom_site_fract_y
_atom_site_fract_z
Si Si1 0.107026 0.903866 0.561580
Si Si2 0.837288 0.300960 0.772050
Si Si3 0.911950 0.056399 0.246347
Si Si4 0.071022 0.191325 0.558183
O O1 0.156577 0.815914 0.663450
O O2 0.124106 0.906701 0.396637
O O3 0.020224 0.842582 0.564661
O O4 0.108411 0.054791 0.607108
O O5 0.750000 0.312066 0.827552
O O6 0.862325 0.433794 0.694712
O O7 0.897022 0.284697 0.901385
O O8 0.913295 0.181841 0.149352
O O9 0.000000 0.000000 0.265422
#
# Coordination Sequence:
#
# PCOD9363543 Si02
#       4
#     8   8   8   8
#     4  10  19  38  61  91 118 159 203 247 297 359
#     4  11  24  40  59  90 128 157 196 258 308 345
#     4  11  20  39  64  92 117 156 207 246 294 362
#     4  10  20  38  62  88 119 156 207 243 296 363
#
# _framework density 18.873607
#
# number of rings (size 3 to 8) (size 9 to 14) (size 15 to 20)
#    0.000    1.500    7.500    0.000    0.000    7.000 
#    4.500    0.000    0.000    0.000    0.000    0.000 
#    0.000    0.000    0.000    0.000    0.000    0.000 
#
# Total GULP energy -89204.458514 kJ/mol
# GULP energy per Si atom -5575.278657 kJ/mol
# Density = 1.883065 g / cm^3
# Si number density = 18.873607 Si / 1000 Ang^3
#
#
#
# Elastic Constant Matrix: (Units=GPa)
#
#
# Indices 1 2 3 4 5 6 
#
# 1 52.9788 14.3007 16.0512 0.0000 0.0000 0.0000
# 2 14.3007 143.6250 70.0949 0.0000 0.0000 0.0000
# 3 16.0512 70.0949 58.0858 0.0000 0.0000 0.0000
# 4 0.0000 0.0000 0.0000 43.3771 0.0000 0.0000
# 5 0.0000 0.0000 0.0000 0.0000 6.9326 0.0000
# 6 0.0000 0.0000 0.0000 0.0000 0.0000 13.3228
#
#
#
# Elastic Compliance Matrix: (Units=1/GPa)
#
#
# Indices 1 2 3 4 5 6 
#
# 1 0.020787 0.001785 -0.007898 0.000000 0.000000 0.000000
# 2 0.001785 0.017091 -0.021118 0.000000 0.000000 0.000000
# 3 -0.007898 -0.021118 0.044883 0.000000 0.000000 0.000000
# 4 0.000000 0.000000 0.000000 0.023054 0.000000 0.000000
# 5 0.000000 0.000000 0.000000 0.000000 0.144246 0.000000
# 6 0.000000 0.000000 0.000000 0.000000 0.000000 0.075059
#
#
# Mechanical properties :
#
#
# Convention : Reuss Voigt Hill
#
# Bulk Modulus (GPa) = 35.33801 50.62036 42.97918
# Shear Modulus (GPa) = 12.85297 23.00936 17.93117
#
# Velocity S-wave (km/s) = 2.61243 3.49539 3.08566
# Velocity P-wave (km/s) = 5.27863 6.57033 5.95958
#
# Compressibility (1/GPa) = 0.02829814
#
# Stress axis : x y z
#
# Youngs Moduli (GPa) = 48.10801 58.50868 22.28021
#
# Poissons Ratio (x) = -0.10442 0.17597
# Poissons Ratio (y) = -0.08586 0.47052
# Poissons Ratio (z) = 0.37995 1.23561
#
# Static dielectric constant tensor:
#      x y z
#    x 1.699880 0.000000 0.000000 
#    y 0.000000 1.666340 0.000000 
#    z 0.000000 0.000000 1.636390 
# 
# From -- ./inp_files/7097.got.cif
#   From: 2010.05.17/outbox.cif.g08.bks.cpg/sg40_4_cif.got.tgz:7097.got - 2010.06.03 18:35:42.
