data_PCOD9363718
_publ_section_title
;
Structure prediction by ZEFSAII (Michael W. Deem and Ramdas Pophale) SiO2 
 PCOD9363718
Probable space group: A M A 2
;
_chemical_formula_sum "Si O2"
_cell_formula_units_Z 56
_cell_length_a 8.865131
_cell_length_b 15.864610
_cell_length_c 20.070111
_cell_angle_alpha 90.000000
_cell_angle_beta 90.000000
_cell_angle_gamma 90.000000
_cell_volume 2822.697459
_symmetry_space_group_name_H-M "A M A 2"
_symmetry_group_IT_number 40
_symmetry_cell_setting 'orthorhombic'
loop_
_space_group_symop_operation_xyz
x,y,z
-x,-y,z
1/2-x,y,z
1/2+x,-y,z
x,1/2+y,1/2+z
-x,1/2-y,1/2+z
1/2-x,1/2+y,1/2+z
1/2+x,1/2-y,1/2+z
loop_
_atom_site_type_symbol
_atom_site_label
_atom_site_fract_x
_atom_site_fract_y
_atom_site_fract_z
Si Si1 0.932354 0.406554 0.419750
Si Si2 0.578697 0.917177 0.669609
Si Si3 0.086653 0.115586 0.517536
Si Si4 0.567754 0.750606 0.826870
Si Si5 0.571159 0.262094 0.683920
Si Si6 0.577224 0.082733 0.394825
Si Si7 0.925756 0.685053 0.547977
O O1 0.750000 0.410524 0.421173
O O2 0.977388 0.339539 0.361193
O O3 0.000000 0.500000 0.409678
O O4 0.991148 0.368233 0.490431
O O5 0.750000 0.903217 0.695727
O O6 0.592432 0.924717 0.590051
O O7 0.473393 0.836244 0.676321
O O8 0.500000 0.000000 0.698248
O O9 0.250000 0.099166 0.483819
O O10 0.071695 0.216150 0.527494
O O11 0.949911 0.083323 0.473793
O O12 0.750000 0.753138 0.822952
O O13 0.502243 0.723297 0.755797
O O14 0.516990 0.673691 0.873614
O O15 0.750000 0.273539 0.684264
O O16 0.500200 0.313434 0.621720
O O17 0.750000 0.079906 0.377003
O O18 0.500000 0.000000 0.366103
O O19 0.750000 0.659428 0.552189
#
# Coordination Sequence:
#
# PCOD9363718 Si02
#       7
#     8   8   8   8   8   8   8
#     4  11  23  41  66  97 130 169 218 269 325 388
#     4  10  20  34  52  80 116 154 195 243 297 360
#     4   9  18  32  54  83 115 150 187 234 289 347
#     4  10  23  43  62  86 125 167 208 261 319 381
#     4  11  23  38  61  87 117 162 209 259 319 383
#     4  11  22  36  57  85 117 154 192 241 298 357
#     4  10  20  38  63  90 122 160 205 259 311 368
#
# _framework density 19.839179999999999
#
# number of rings (size 3 to 8) (size 9 to 14) (size 15 to 20)
#    0.000    1.714    1.429    4.286    0.000    6.857 
#    0.000    2.143    0.000    1.714    0.000    0.000 
#    0.000    0.000    0.000    0.000    0.000    0.000 
#
# Total GULP energy -156121.386758 kJ/mol
# GULP energy per Si atom -5575.763813 kJ/mol
# Density = 1.979402 g / cm^3
# Si number density = 19.839180 Si / 1000 Ang^3
#
#
#
# Elastic Constant Matrix: (Units=GPa)
#
#
# Indices 1 2 3 4 5 6 
#
# 1 69.9060 30.7745 22.3320 0.0000 0.0000 0.0000
# 2 30.7745 77.3950 2.8688 0.0000 0.0000 0.0000
# 3 22.3320 2.8688 71.9327 0.0000 0.0000 0.0000
# 4 0.0000 0.0000 0.0000 8.0516 0.0000 0.0000
# 5 0.0000 0.0000 0.0000 0.0000 25.3351 0.0000
# 6 0.0000 0.0000 0.0000 0.0000 0.0000 32.1024
#
#
#
# Elastic Compliance Matrix: (Units=1/GPa)
#
#
# Indices 1 2 3 4 5 6 
#
# 1 0.019449 -0.007521 -0.005738 0.000000 0.000000 0.000000
# 2 -0.007521 0.015848 0.001703 0.000000 0.000000 0.000000
# 3 -0.005738 0.001703 0.015615 0.000000 0.000000 0.000000
# 4 0.000000 0.000000 0.000000 0.124200 0.000000 0.000000
# 5 0.000000 0.000000 0.000000 0.000000 0.039471 0.000000
# 6 0.000000 0.000000 0.000000 0.000000 0.000000 0.031150
#
#
# Mechanical properties :
#
#
# Convention : Reuss Voigt Hill
#
# Bulk Modulus (GPa) = 35.97082 36.79824 36.38453
# Shear Modulus (GPa) = 17.97838 23.98172 20.98005
#
# Velocity S-wave (km/s) = 3.01359 3.48056 3.25546
# Velocity P-wave (km/s) = 5.50268 5.89414 5.70178
#
# Compressibility (1/GPa) = 0.02780031
#
# Stress axis : x y z
#
# Youngs Moduli (GPa) = 51.41704 63.09923 64.03941
#
# Poissons Ratio (x) = 0.47455 0.36746
# Poissons Ratio (y) = 0.38669 -0.10905
# Poissons Ratio (z) = 0.29503 -0.10745
#
# Static dielectric constant tensor:
#      x y z
#    x 1.720220 0.000000 0.000000 
#    y 0.000000 1.752270 0.000000 
#    z 0.000000 0.000000 1.729990 
# 
# From -- ./inp_files/22177.got.cif
#   From: 2010.05.17/outbox.cif.g08.bks.cpg/sg40_12_cif.got.tgz:22177.got - 2010.06.03 18:35:42.
