data_PCOD9363771
_publ_section_title
;
Structure prediction by ZEFSAII (Michael W. Deem and Ramdas Pophale) SiO2 
 PCOD9363771
Probable space group: A M A 2
;
_chemical_formula_sum "Si O2"
_cell_formula_units_Z 64
_cell_length_a 8.845417
_cell_length_b 25.403002
_cell_length_c 15.270939
_cell_angle_alpha 90.000000
_cell_angle_beta 90.000000
_cell_angle_gamma 90.000000
_cell_volume 3431.382219
_symmetry_space_group_name_H-M "A M A 2"
_symmetry_group_IT_number 40
_symmetry_cell_setting 'orthorhombic'
loop_
_space_group_symop_operation_xyz
x,y,z
-x,-y,z
1/2-x,y,z
1/2+x,-y,z
x,1/2+y,1/2+z
-x,1/2-y,1/2+z
1/2-x,1/2+y,1/2+z
1/2+x,1/2-y,1/2+z
loop_
_atom_site_type_symbol
_atom_site_label
_atom_site_fract_x
_atom_site_fract_y
_atom_site_fract_z
Si Si1 0.068191 0.105542 0.799900
Si Si2 0.069318 0.865809 0.137280
Si Si3 0.931214 0.353551 0.009906
Si Si4 0.567857 0.058175 0.977066
Si Si5 0.429750 0.165855 0.308066
Si Si6 0.068497 0.266088 0.523115
Si Si7 0.429980 0.223039 0.832334
Si Si8 0.569953 0.055971 0.627655
O O1 0.250000 0.099940 0.800070
O O2 0.031460 0.167477 0.787861
O O3 0.001616 0.086853 0.892447
O O4 0.996897 0.071842 0.722215
O O5 0.250000 0.866774 0.149000
O O6 0.991642 0.870532 0.230955
O O7 0.029457 0.909199 0.064713
O O8 0.028671 0.809152 0.095209
O O9 0.750000 0.361871 0.018346
O O10 0.018017 0.398433 0.061409
O O11 0.970969 0.351880 0.906616
O O12 0.964377 0.294632 0.045409
O O13 0.750000 0.056762 0.968861
O O14 0.500000 0.000000 0.981508
O O15 0.250000 0.168443 0.304827
O O16 0.495009 0.224533 0.294800
O O17 0.250000 0.269466 0.507372
O O18 0.985237 0.279822 0.432863
O O19 0.250000 0.229271 0.828868
O O20 0.750000 0.052405 0.631998
O O21 0.500000 0.000000 0.601285
#
# Coordination Sequence:
#
# PCOD9363771 Si02
#       8
#     8   8   8   8   8   8   8   8
#     4  11  23  39  60  88 122 160 199 243 295 353
#     4  10  21  37  59  88 122 162 202 245 296 351
#     4   9  20  40  62  86 119 156 196 246 302 352
#     4  11  23  40  62  87 121 161 203 249 297 352
#     4  10  22  38  60  88 123 161 197 246 299 355
#     4   9  18  35  58  85 120 157 194 238 292 350
#     4  10  20  34  56  86 121 159 197 238 290 351
#     4  12  26  43  64  88 116 153 200 251 299 358
#
# _framework density 18.651377
#
# number of rings (size 3 to 8) (size 9 to 14) (size 15 to 20)
#    0.000    1.750    1.250    3.750    1.750    5.500 
#    0.000    0.625    0.000    1.500    0.000    0.000 
#    0.000    0.000    0.000    0.000    0.000    0.000 
#
# Total GULP energy -178801.276968 kJ/mol
# GULP energy per Si atom -5587.539905 kJ/mol
# Density = 1.860893 g / cm^3
# Si number density = 18.651377 Si / 1000 Ang^3
#
#
#
# Elastic Constant Matrix: (Units=GPa)
#
#
# Indices 1 2 3 4 5 6 
#
# 1 58.4686 44.8123 31.6918 0.0000 0.0000 0.0000
# 2 44.8123 101.3212 41.4450 0.0000 0.0000 0.0000
# 3 31.6918 41.4450 69.8684 0.0000 0.0000 0.0000
# 4 0.0000 0.0000 0.0000 26.2738 0.0000 0.0000
# 5 0.0000 0.0000 0.0000 0.0000 30.4859 0.0000
# 6 0.0000 0.0000 0.0000 0.0000 0.0000 -4.5832
#
#
#
# Elastic Compliance Matrix: (Units=1/GPa)
#
#
# Indices 1 2 3 4 5 6 
#
# 1 0.028349 -0.009610 -0.007158 0.000000 0.000000 0.000000
# 2 -0.009610 0.016289 -0.005304 0.000000 0.000000 0.000000
# 3 -0.007158 -0.005304 0.020706 0.000000 0.000000 0.000000
# 4 0.000000 0.000000 0.000000 0.038061 0.000000 0.000000
# 5 0.000000 0.000000 0.000000 0.000000 0.032802 0.000000
# 6 0.000000 0.000000 0.000000 0.000000 0.000000 -0.218189
#
#
# Mechanical properties :
#
#
# Convention : Reuss Voigt Hill
#
# Bulk Modulus (GPa) = 47.17000 51.72848 49.44924
# Shear Modulus (GPa) = -162.47992 17.88257 -72.29867
#
# Velocity S-wave (km/s) = -9.34362 3.09978 -6.23276
# Velocity P-wave (km/s) = 9.54249 6.37229 5.02260
#
# Compressibility (1/GPa) = 0.02119991
#
# Stress axis : x y z
#
# Youngs Moduli (GPa) = 35.27514 61.38998 48.29624
#
# Poissons Ratio (x) = 0.58996 0.34571
# Poissons Ratio (y) = 0.33899 0.25614
# Poissons Ratio (z) = 0.25251 0.32559
#
# Static dielectric constant tensor:
#      x y z
#    x 1.619940 0.000000 0.000000 
#    y 0.000000 1.636630 0.000000 
#    z 0.000000 0.000000 1.643860 
# 
# From -- ./inp_files/15560.got.cif
#   From: 2010.05.17/outbox.cif.g08.bks.cpg/sg40_8_cif.got.tgz:15560.got - 2010.06.03 18:35:42.
