data_PCOD9363258
_publ_section_title
;
Structure prediction by ZEFSAII (Michael W. Deem and Ramdas Pophale) SiO2 
 PCOD9363258
Probable space group: A M A 2
;
_chemical_formula_sum "Si O2"
_cell_formula_units_Z 48
_cell_length_a 15.938741
_cell_length_b 13.109883
_cell_length_c 13.048600
_cell_angle_alpha 90.000000
_cell_angle_beta 90.000000
_cell_angle_gamma 90.000000
_cell_volume 2726.570600
_symmetry_space_group_name_H-M "A M A 2"
_symmetry_group_IT_number 40
_symmetry_cell_setting 'orthorhombic'
loop_
_space_group_symop_operation_xyz
x,y,z
-x,-y,z
1/2-x,y,z
1/2+x,-y,z
x,1/2+y,1/2+z
-x,1/2-y,1/2+z
1/2-x,1/2+y,1/2+z
1/2+x,1/2-y,1/2+z
loop_
_atom_site_type_symbol
_atom_site_label
_atom_site_fract_x
_atom_site_fract_y
_atom_site_fract_z
Si Si1 0.409752 0.169486 0.696210
Si Si2 0.250000 0.995116 0.370987
Si Si3 0.750000 0.233640 0.292440
Si Si4 0.409286 0.995289 0.871745
Si Si5 0.750000 0.830676 0.198111
Si Si6 0.098236 0.826881 0.703073
Si Si7 0.250000 0.091072 0.968132
Si Si8 0.902326 0.997421 0.529116
O O1 0.333417 0.240422 0.728092
O O2 0.414668 0.081757 0.783376
O O3 0.503261 0.214892 0.692066
O O4 0.391749 0.106821 0.593249
O O5 0.250000 0.084049 0.286370
O O6 0.166956 0.000400 0.441699
O O7 0.250000 0.883191 0.322486
O O8 0.750000 0.309654 0.392011
O O9 0.331792 0.025209 0.941112
O O10 0.500000 0.000000 0.924895
O O11 0.396162 0.891431 0.808537
O O12 0.831608 0.758571 0.204136
O O13 0.750000 0.878444 0.085359
O O14 0.110108 0.908291 0.609515
O O15 0.000000 0.000000 0.495008
#
# Coordination Sequence:
#
# PCOD9363258 Si02
#       8
#     8   4   4   8   4   8   4   8
#     4   8  16  32  60  88 103 123 171 226 268 309
#     4  12  25  36  48  74 116 154 179 210 256 314
#     4  10  19  34  56  78 106 144 175 210 258 316
#     4   8  15  31  58  86 103 122 164 221 270 308
#     4  12  25  36  46  72 110 148 181 210 250 310
#     4   9  17  35  60  83 103 129 168 222 273 312
#     4  10  19  34  54  76 102 138 179 210 250 312
#     4   9  18  36  62  85 103 130 175 227 271 313
#
# _framework density 17.604531000000001
#
# number of rings (size 3 to 8) (size 9 to 14) (size 15 to 20)
#    0.000    2.667    0.000    4.500    0.000    4.000 
#    0.000   10.833    0.000    0.000    0.000    0.000 
#    0.000    0.000    0.000    0.000    0.000    0.000 
#
# Total GULP energy -133811.297227 kJ/mol
# GULP energy per Si atom -5575.470718 kJ/mol
# Density = 1.756446 g / cm^3
# Si number density = 17.604531 Si / 1000 Ang^3
#
#
#
# Elastic Constant Matrix: (Units=GPa)
#
#
# Indices 1 2 3 4 5 6 
#
# 1 200.1694 101.1057 97.4880 0.0000 0.0000 0.0000
# 2 101.1057 90.4973 56.9514 0.0000 0.0000 0.0000
# 3 97.4880 56.9514 89.7546 0.0000 0.0000 0.0000
# 4 0.0000 0.0000 0.0000 17.6333 0.0000 0.0000
# 5 0.0000 0.0000 0.0000 0.0000 0.4631 0.0000
# 6 0.0000 0.0000 0.0000 0.0000 0.0000 2.8776
#
#
#
# Elastic Compliance Matrix: (Units=1/GPa)
#
#
# Indices 1 2 3 4 5 6 
#
# 1 0.015164 -0.010948 -0.009524 0.000000 0.000000 0.000000
# 2 -0.010948 0.026300 -0.004797 0.000000 0.000000 0.000000
# 3 -0.009524 -0.004797 0.024529 0.000000 0.000000 0.000000
# 4 0.000000 0.000000 0.000000 0.056711 0.000000 0.000000
# 5 0.000000 0.000000 0.000000 0.000000 2.159345 0.000000
# 6 0.000000 0.000000 0.000000 0.000000 0.000000 0.347508
#
#
# Mechanical properties :
#
#
# Convention : Reuss Voigt Hill
#
# Bulk Modulus (GPa) = 64.69738 99.05686 81.87712
# Shear Modulus (GPa) = 1.86203 12.51988 7.19095
#
# Velocity S-wave (km/s) = 1.02956 2.66968 2.02326
# Velocity P-wave (km/s) = 6.18413 8.11744 7.21583
#
# Compressibility (1/GPa) = 0.01545658
#
# Stress axis : x y z
#
# Youngs Moduli (GPa) = 65.94570 38.02252 40.76751
#
# Poissons Ratio (x) = 0.41628 0.38826
# Poissons Ratio (y) = 0.72198 0.19555
# Poissons Ratio (z) = 0.62805 0.18238
#
# Static dielectric constant tensor:
#      x y z
#    x 1.619650 0.000000 0.000000 
#    y 0.000000 1.580310 0.000000 
#    z 0.000000 0.000000 1.583630 
# 
# From -- ./inp_files/12947.got.cif
#   From: 2010.05.17/outbox.cif.g08.bks.cpg/sg40_7_cif.got.tgz:12947.got - 2010.06.03 18:35:42.
