data_PCOD9363148
_publ_section_title
;
Structure prediction by ZEFSAII (Michael W. Deem and Ramdas Pophale) SiO2 
 PCOD9363148
Probable space group: A M A 2
;
_chemical_formula_sum "Si O2"
_cell_formula_units_Z 40
_cell_length_a 20.946736
_cell_length_b 5.139004
_cell_length_c 18.907496
_cell_angle_alpha 90.000000
_cell_angle_beta 90.000000
_cell_angle_gamma 90.000000
_cell_volume 2035.304215
_symmetry_space_group_name_H-M "A M A 2"
_symmetry_group_IT_number 40
_symmetry_cell_setting 'orthorhombic'
loop_
_space_group_symop_operation_xyz
x,y,z
-x,-y,z
1/2-x,y,z
1/2+x,-y,z
x,1/2+y,1/2+z
-x,1/2-y,1/2+z
1/2-x,1/2+y,1/2+z
1/2+x,1/2-y,1/2+z
loop_
_atom_site_type_symbol
_atom_site_label
_atom_site_fract_x
_atom_site_fract_y
_atom_site_fract_z
Si Si1 0.327236 0.583581 0.301940
Si Si2 0.382941 0.434363 0.452590
Si Si3 0.177748 0.750479 0.084619
Si Si4 0.930815 0.552760 0.020998
Si Si5 0.673036 0.412039 0.717021
O O1 0.250000 0.569682 0.308942
O O2 0.358836 0.508463 0.375846
O O3 0.347512 0.372168 0.242613
O O4 0.343418 0.873475 0.276567
O O5 0.324798 0.387511 0.507818
O O6 0.420873 0.163432 0.459044
O O7 0.423159 0.665130 0.487933
O O8 0.250000 0.664765 0.101705
O O9 0.127014 0.519040 0.074111
O O10 0.154024 0.954557 0.143262
O O11 0.000000 0.500000 0.053154
O O12 0.750000 0.399688 0.712989
#
# Coordination Sequence:
#
# PCOD9363148 Si02
#       5
#     8   8   8   8   8
#     4  10  19  33  52  82 118 148 177 229 293 343
#     4  10  21  35  59  82 108 148 195 237 275 340
#     4   9  21  35  58  89 115 146 192 245 285 337
#     4  10  22  38  59  85 113 155 192 239 290 341
#     4   9  19  32  50  78 119 151 177 223 293 345
#
# _framework density 19.653082999999999
#
# number of rings (size 3 to 8) (size 9 to 14) (size 15 to 20)
#    1.200    1.200    0.000    2.400    2.800    1.600 
#    0.000    0.000    0.000    4.800    0.000    0.000 
#    0.000    0.000    0.000    0.000    0.000    0.000 
#
# Total GULP energy -111380.306957 kJ/mol
# GULP energy per Si atom -5569.015348 kJ/mol
# Density = 1.960835 g / cm^3
# Si number density = 19.653083 Si / 1000 Ang^3
#
#
#
# Elastic Constant Matrix: (Units=GPa)
#
#
# Indices 1 2 3 4 5 6 
#
# 1 59.5831 -0.0203 1.1669 0.0000 0.0000 0.0000
# 2 -0.0203 68.6288 -16.7076 0.0000 0.0000 0.0000
# 3 1.1669 -16.7076 63.7701 0.0000 0.0000 0.0000
# 4 0.0000 0.0000 0.0000 18.2401 0.0000 0.0000
# 5 0.0000 0.0000 0.0000 0.0000 5.4495 0.0000
# 6 0.0000 0.0000 0.0000 0.0000 0.0000 14.8004
#
#
#
# Elastic Compliance Matrix: (Units=1/GPa)
#
#
# Indices 1 2 3 4 5 6 
#
# 1 0.016790 -0.000075 -0.000327 0.000000 0.000000 0.000000
# 2 -0.000075 0.015564 0.004079 0.000000 0.000000 0.000000
# 3 -0.000327 0.004079 0.016756 0.000000 0.000000 0.000000
# 4 0.000000 0.000000 0.000000 0.054824 0.000000 0.000000
# 5 0.000000 0.000000 0.000000 0.000000 0.183502 0.000000
# 6 0.000000 0.000000 0.000000 0.000000 0.000000 0.067566
#
#
# Mechanical properties :
#
#
# Convention : Reuss Voigt Hill
#
# Bulk Modulus (GPa) = 17.70994 17.87333 17.79164
# Shear Modulus (GPa) = 13.64376 21.53420 17.58898
#
# Velocity S-wave (km/s) = 2.63768 3.31375 2.99486
# Velocity P-wave (km/s) = 4.27871 4.87395 4.58600
#
# Compressibility (1/GPa) = 0.05646545
#
# Stress axis : x y z
#
# Youngs Moduli (GPa) = 59.56045 64.25006 59.68002
#
# Poissons Ratio (x) = 0.00479 0.01950
# Poissons Ratio (y) = 0.00444 -0.24344
# Poissons Ratio (z) = 0.01946 -0.26208
#
# Static dielectric constant tensor:
#      x y z
#    x 1.695280 0.000000 0.000000 
#    y 0.000000 1.715780 0.000000 
#    z 0.000000 0.000000 1.694310 
# 
# From -- ./inp_files/21271.got.cif
#   From: 2010.05.17/outbox.cif.g08.bks.cpg/sg40_11_cif.got.tgz:21271.got - 2010.06.03 18:35:42.
