data_PCOD9363176
_publ_section_title
;
Structure prediction by ZEFSAII (Michael W. Deem and Ramdas Pophale) SiO2 
 PCOD9363176
Probable space group: A M A 2
;
_chemical_formula_sum "Si O2"
_cell_formula_units_Z 48
_cell_length_a 8.659737
_cell_length_b 9.494069
_cell_length_c 32.172988
_cell_angle_alpha 90.000000
_cell_angle_beta 90.000000
_cell_angle_gamma 90.000000
_cell_volume 2645.138905
_symmetry_space_group_name_H-M "A M A 2"
_symmetry_group_IT_number 40
_symmetry_cell_setting 'orthorhombic'
loop_
_space_group_symop_operation_xyz
x,y,z
-x,-y,z
1/2-x,y,z
1/2+x,-y,z
x,1/2+y,1/2+z
-x,1/2-y,1/2+z
1/2-x,1/2+y,1/2+z
1/2+x,1/2-y,1/2+z
loop_
_atom_site_type_symbol
_atom_site_label
_atom_site_fract_x
_atom_site_fract_y
_atom_site_fract_z
Si Si1 0.434775 0.659119 0.935110
Si Si2 0.434393 0.657387 0.601749
Si Si3 0.435502 0.158732 0.526979
Si Si4 0.935210 0.658934 0.849189
Si Si5 0.563761 0.342781 0.269834
Si Si6 0.935843 0.657728 0.690483
O O1 0.500000 0.500000 0.936075
O O2 0.250000 0.654997 0.931066
O O3 0.506223 0.721207 0.893144
O O4 0.473313 0.718596 0.980757
O O5 0.500000 0.500000 0.596397
O O6 0.250000 0.653350 0.603188
O O7 0.492311 0.751592 0.563841
O O8 0.499084 0.708661 0.646213
O O9 0.250000 0.155335 0.530700
O O10 0.500000 0.000000 0.529103
O O11 0.750000 0.650484 0.850040
O O12 0.984952 0.754094 0.810386
O O13 0.000000 0.500000 0.844705
O O14 0.500000 0.500000 0.270318
O O15 0.750000 0.348391 0.270204
O O16 0.517399 0.258311 0.228336
O O17 0.750000 0.651040 0.688416
O O18 0.000000 0.500000 0.697348
#
# Coordination Sequence:
#
# PCOD9363176 Si02
#       6
#     8   8   8   8   8   8
#     4   9  17  30  51  78 106 138 176 218 261 307
#     4  11  22  37  57  81 109 142 179 221 269 318
#     4  10  20  35  55  81 111 143 181 222 267 318
#     4  10  19  33  54  80 106 137 178 219 260 309
#     4  10  23  38  54  78 108 140 174 215 263 316
#     4  10  20  37  58  80 105 136 178 221 262 314
#
# _framework density 18.146494000000001
#
# number of rings (size 3 to 8) (size 9 to 14) (size 15 to 20)
#    0.000    2.000    0.000    6.000    0.000    5.333 
#    0.000    2.500    0.000    2.000    0.000    0.000 
#    0.000    0.000    0.000    0.000    0.000    0.000 
#
# Total GULP energy -133944.425765 kJ/mol
# GULP energy per Si atom -5581.017740 kJ/mol
# Density = 1.810519 g / cm^3
# Si number density = 18.146494 Si / 1000 Ang^3
#
#
#
# Elastic Constant Matrix: (Units=GPa)
#
#
# Indices 1 2 3 4 5 6 
#
# 1 86.4555 32.7147 68.7250 0.0000 0.0000 0.0000
# 2 32.7147 71.1420 92.4226 0.0000 0.0000 0.0000
# 3 68.7250 92.4226 224.8625 0.0000 0.0000 0.0000
# 4 0.0000 0.0000 0.0000 30.4906 0.0000 0.0000
# 5 0.0000 0.0000 0.0000 0.0000 29.3351 0.0000
# 6 0.0000 0.0000 0.0000 0.0000 0.0000 29.4846
#
#
#
# Elastic Compliance Matrix: (Units=1/GPa)
#
#
# Indices 1 2 3 4 5 6 
#
# 1 0.015420 -0.002078 -0.003859 0.000000 0.000000 0.000000
# 2 -0.002078 0.030442 -0.011877 0.000000 0.000000 0.000000
# 3 -0.003859 -0.011877 0.010508 0.000000 0.000000 0.000000
# 4 0.000000 0.000000 0.000000 0.032797 0.000000 0.000000
# 5 0.000000 0.000000 0.000000 0.000000 0.034089 0.000000
# 6 0.000000 0.000000 0.000000 0.000000 0.000000 0.033916
#
#
# Mechanical properties :
#
#
# Convention : Reuss Voigt Hill
#
# Bulk Modulus (GPa) = 48.20964 85.57607 66.89286
# Shear Modulus (GPa) = 25.03579 30.43525 27.73552
#
# Velocity S-wave (km/s) = 3.71839 4.09980 3.91375
# Velocity P-wave (km/s) = 6.71266 8.34698 7.57403
#
# Compressibility (1/GPa) = 0.02074274
#
# Stress axis : x y z
#
# Youngs Moduli (GPa) = 64.84908 32.84966 95.16327
#
# Poissons Ratio (x) = 0.06826 0.36723
# Poissons Ratio (y) = 0.13475 1.13026
# Poissons Ratio (z) = 0.25025 0.39016
#
# Static dielectric constant tensor:
#      x y z
#    x 1.609470 0.000000 0.000000 
#    y 0.000000 1.587080 0.000000 
#    z 0.000000 0.000000 1.656070 
# 
# From -- ./inp_files/26122.got.cif
#   From: 2010.05.17/outbox.cif.g08.bks.cpg/sg40_14_cif.got.tgz:26122.got - 2010.06.03 18:35:42.
