data_PCOD9363057
_publ_section_title
;
Structure prediction by ZEFSAII (Michael W. Deem and Ramdas Pophale) SiO2 
 PCOD9363057
Probable space group: A M A 2
;
_chemical_formula_sum "Si O2"
_cell_formula_units_Z 56
_cell_length_a 8.827918
_cell_length_b 15.410582
_cell_length_c 19.966310
_cell_angle_alpha 90.000000
_cell_angle_beta 90.000000
_cell_angle_gamma 90.000000
_cell_volume 2716.283784
_symmetry_space_group_name_H-M "A M A 2"
_symmetry_group_IT_number 40
_symmetry_cell_setting 'orthorhombic'
loop_
_space_group_symop_operation_xyz
x,y,z
-x,-y,z
1/2-x,y,z
1/2+x,-y,z
x,1/2+y,1/2+z
-x,1/2-y,1/2+z
1/2-x,1/2+y,1/2+z
1/2+x,1/2-y,1/2+z
loop_
_atom_site_type_symbol
_atom_site_label
_atom_site_fract_x
_atom_site_fract_y
_atom_site_fract_z
Si Si1 0.429786 0.728090 0.410800
Si Si2 0.078872 0.084765 0.715802
Si Si3 0.413632 0.135025 0.570942
Si Si4 0.431856 0.403474 0.689752
Si Si5 0.576641 0.914072 0.422773
Si Si6 0.571311 0.311045 0.559794
Si Si7 0.071517 0.252761 0.272327
O O1 0.250000 0.717611 0.402841
O O2 0.473285 0.829902 0.414091
O O3 0.474623 0.681396 0.480764
O O4 0.518707 0.706738 0.343354
O O5 0.250000 0.096857 0.741607
O O6 0.088235 0.076502 0.635842
O O7 0.981657 0.170986 0.723882
O O8 0.000000 0.000000 0.745130
O O9 0.250000 0.183902 0.570657
O O10 0.415985 0.080877 0.503252
O O11 0.539951 0.208984 0.572313
O O12 0.500000 0.500000 0.698817
O O13 0.250000 0.406150 0.692050
O O14 0.486258 0.365648 0.617147
O O15 0.491724 0.335564 0.746383
O O16 0.750000 0.901393 0.398453
O O17 0.500000 0.000000 0.394318
O O18 0.750000 0.329659 0.565028
O O19 0.250000 0.239023 0.271276
#
# Coordination Sequence:
#
# PCOD9363057 Si02
#       7
#     8   8   8   8   8   8   8
#     4  10  22  40  62  87 120 165 210 259 321 384
#     4  11  22  37  59  89 123 162 202 250 307 368
#     4   9  18  32  54  83 119 158 194 239 296 355
#     4  12  25  43  68  98 133 173 221 275 333 394
#     4  10  19  32  51  81 117 155 199 245 298 363
#     4  10  20  37  63  93 124 161 208 258 313 376
#     4  12  25  43  65  93 128 168 215 268 326 390
#
# _framework density 20.616402000000001
#
# number of rings (size 3 to 8) (size 9 to 14) (size 15 to 20)
#    0.000    1.429    1.429    4.714    0.000    3.429 
#    0.000    3.571    0.000    3.429    0.000    0.000 
#    0.000    0.000    0.000    0.000    0.000    0.000 
#
# Total GULP energy -156132.289093 kJ/mol
# GULP energy per Si atom -5576.153182 kJ/mol
# Density = 2.056948 g / cm^3
# Si number density = 20.616402 Si / 1000 Ang^3
#
#
#
# Elastic Constant Matrix: (Units=GPa)
#
#
# Indices 1 2 3 4 5 6 
#
# 1 131.3503 28.6239 35.8067 0.0000 0.0000 0.0000
# 2 28.6239 61.4501 -3.3266 0.0000 0.0000 0.0000
# 3 35.8067 -3.3266 74.7865 0.0000 0.0000 0.0000
# 4 0.0000 0.0000 0.0000 3.2382 0.0000 0.0000
# 5 0.0000 0.0000 0.0000 0.0000 31.9682 0.0000
# 6 0.0000 0.0000 0.0000 0.0000 0.0000 29.2467
#
#
#
# Elastic Compliance Matrix: (Units=1/GPa)
#
#
# Indices 1 2 3 4 5 6 
#
# 1 0.010069 -0.004963 -0.005042 0.000000 0.000000 0.000000
# 2 -0.004963 0.018759 0.003211 0.000000 0.000000 0.000000
# 3 -0.005042 0.003211 0.015928 0.000000 0.000000 0.000000
# 4 0.000000 0.000000 0.000000 0.308809 0.000000 0.000000
# 5 0.000000 0.000000 0.000000 0.000000 0.031281 0.000000
# 6 0.000000 0.000000 0.000000 0.000000 0.000000 0.034192
#
#
# Mechanical properties :
#
#
# Convention : Reuss Voigt Hill
#
# Bulk Modulus (GPa) = 32.08422 43.31055 37.69738
# Shear Modulus (GPa) = 11.28626 26.65615 18.97121
#
# Velocity S-wave (km/s) = 2.34228 3.59967 3.03677
# Velocity P-wave (km/s) = 4.78658 6.19115 5.53361
#
# Compressibility (1/GPa) = 0.03116797
#
# Stress axis : x y z
#
# Youngs Moduli (GPa) = 99.31231 53.30742 62.78187
#
# Poissons Ratio (x) = 0.26458 0.31653
# Poissons Ratio (y) = 0.49291 -0.20158
# Poissons Ratio (z) = 0.50071 -0.17116
#
# Static dielectric constant tensor:
#      x y z
#    x 1.751510 0.000000 0.000000 
#    y 0.000000 1.737410 0.000000 
#    z 0.000000 0.000000 1.842000 
# 
# From -- ./inp_files/22191.got.cif
#   From: 2010.05.17/outbox.cif.g08.bks.cpg/sg40_12_cif.got.tgz:22191.got - 2010.06.03 18:35:42.
