data_PCOD9363067
_publ_section_title
;
Structure prediction by ZEFSAII (Michael W. Deem and Ramdas Pophale) SiO2 
 PCOD9363067
Probable space group: A M A 2
;
_chemical_formula_sum "Si O2"
_cell_formula_units_Z 56
_cell_length_a 18.588535
_cell_length_b 18.510548
_cell_length_c 8.782587
_cell_angle_alpha 90.000000
_cell_angle_beta 90.000000
_cell_angle_gamma 90.000000
_cell_volume 3021.947396
_symmetry_space_group_name_H-M "A M A 2"
_symmetry_group_IT_number 40
_symmetry_cell_setting 'orthorhombic'
loop_
_space_group_symop_operation_xyz
x,y,z
-x,-y,z
1/2-x,y,z
1/2+x,-y,z
x,1/2+y,1/2+z
-x,1/2-y,1/2+z
1/2-x,1/2+y,1/2+z
1/2+x,1/2-y,1/2+z
loop_
_atom_site_type_symbol
_atom_site_label
_atom_site_fract_x
_atom_site_fract_y
_atom_site_fract_z
Si Si1 0.959830 0.328173 0.333980
Si Si2 0.170673 0.805097 0.796912
Si Si3 0.166201 0.419189 0.017490
Si Si4 0.416897 0.027951 0.707020
Si Si5 0.952311 0.791796 0.181018
Si Si6 0.096713 0.917650 0.961995
Si Si7 0.460855 0.926752 0.290801
O O1 0.914591 0.387143 0.240467
O O2 0.935168 0.298951 0.500238
O O3 0.983947 0.265239 0.219204
O O4 0.029213 0.375457 0.386234
O O5 0.250000 0.775096 0.798565
O O6 0.163004 0.861140 0.655005
O O7 0.114086 0.742105 0.771313
O O8 0.157180 0.856853 0.941954
O O9 0.250000 0.422270 0.966524
O O10 0.102802 0.399409 0.900077
O O11 0.137238 0.495813 0.082399
O O12 0.500000 0.000000 0.678785
O O13 0.392292 0.988158 0.861723
O O14 0.979572 0.866473 0.252884
O O15 0.077581 0.940695 0.129912
O O16 0.500000 0.000000 0.342422
#
# Coordination Sequence:
#
# PCOD9363067 Si02
#       7
#     8   8   8   8   8   8   8
#     4   9  17  29  49  75 104 132 171 226 267 307
#     4   9  18  34  54  76 107 145 179 215 263 322
#     4  10  21  35  53  78 108 142 178 216 264 323
#     4   9  16  32  54  74  98 136 179 217 260 311
#     4  10  19  32  52  81 107 136 182 225 269 322
#     4   8  16  30  50  75 100 131 174 216 261 315
#     4  11  21  34  54  79 107 138 176 227 274 312
#
# _framework density 18.531096000000002
#
# number of rings (size 3 to 8) (size 9 to 14) (size 15 to 20)
#    0.000    2.571    0.000    4.286    0.000    1.714 
#    0.000    1.429    0.000    2.571    0.000    0.000 
#    0.000    0.000    0.000    0.000    0.000    0.000 
#
# Total GULP energy -155886.408628 kJ/mol
# GULP energy per Si atom -5567.371737 kJ/mol
# Density = 1.848892 g / cm^3
# Si number density = 18.531096 Si / 1000 Ang^3
#
#
#
# Elastic Constant Matrix: (Units=GPa)
#
#
# Indices 1 2 3 4 5 6 
#
# 1 83.6054 20.7548 12.8061 0.0000 0.0000 0.0000
# 2 20.7548 80.2101 5.6028 0.0000 0.0000 0.0000
# 3 12.8061 5.6028 43.6915 0.0000 0.0000 0.0000
# 4 0.0000 0.0000 0.0000 18.0258 0.0000 0.0000
# 5 0.0000 0.0000 0.0000 0.0000 17.5315 0.0000
# 6 0.0000 0.0000 0.0000 0.0000 0.0000 20.7414
#
#
#
# Elastic Compliance Matrix: (Units=1/GPa)
#
#
# Indices 1 2 3 4 5 6 
#
# 1 0.013288 -0.003195 -0.003485 0.000000 0.000000 0.000000
# 2 -0.003195 0.013348 -0.000775 0.000000 0.000000 0.000000
# 3 -0.003485 -0.000775 0.024009 0.000000 0.000000 0.000000
# 4 0.000000 0.000000 0.000000 0.055476 0.000000 0.000000
# 5 0.000000 0.000000 0.000000 0.000000 0.057040 0.000000
# 6 0.000000 0.000000 0.000000 0.000000 0.000000 0.048213
#
#
# Mechanical properties :
#
#
# Convention : Reuss Voigt Hill
#
# Bulk Modulus (GPa) = 27.98431 31.75937 29.87184
# Shear Modulus (GPa) = 20.99115 22.48261 21.73688
#
# Velocity S-wave (km/s) = 3.36929 3.48693 3.42862
# Velocity P-wave (km/s) = 5.50184 5.77817 5.64170
#
# Compressibility (1/GPa) = 0.03573431
#
# Stress axis : x y z
#
# Youngs Moduli (GPa) = 75.25651 74.91696 41.65166
#
# Poissons Ratio (x) = 0.23935 0.14516
# Poissons Ratio (y) = 0.24044 0.03229
# Poissons Ratio (z) = 0.26227 0.05808
#
# Static dielectric constant tensor:
#      x y z
#    x 1.670350 0.000000 0.000000 
#    y 0.000000 1.659370 0.000000 
#    z 0.000000 0.000000 1.678800 
# 
# From -- ./inp_files/8406.got.cif
#   From: 2010.05.17/outbox.cif.g08.bks.cpg/sg40_5_cif.got.tgz:8406.got - 2010.06.03 18:35:42.
