data_PCOD9363184
_publ_section_title
;
Structure prediction by ZEFSAII (Michael W. Deem and Ramdas Pophale) SiO2 
 PCOD9363184
Probable space group: A M A 2
;
_chemical_formula_sum "Si O2"
_cell_formula_units_Z 48
_cell_length_a 8.620604
_cell_length_b 9.209495
_cell_length_c 32.634885
_cell_angle_alpha 90.000000
_cell_angle_beta 90.000000
_cell_angle_gamma 90.000000
_cell_volume 2590.929517
_symmetry_space_group_name_H-M "A M A 2"
_symmetry_group_IT_number 40
_symmetry_cell_setting 'orthorhombic'
loop_
_space_group_symop_operation_xyz
x,y,z
-x,-y,z
1/2-x,y,z
1/2+x,-y,z
x,1/2+y,1/2+z
-x,1/2-y,1/2+z
1/2-x,1/2+y,1/2+z
1/2+x,1/2-y,1/2+z
loop_
_atom_site_type_symbol
_atom_site_label
_atom_site_fract_x
_atom_site_fract_y
_atom_site_fract_z
Si Si1 0.435858 0.162030 0.348250
Si Si2 0.564989 0.664345 0.689047
Si Si3 0.936759 0.835597 0.015280
Si Si4 0.436717 0.165616 0.103812
Si Si5 0.063600 0.837552 0.766586
Si Si6 0.563397 0.335453 0.425562
O O1 0.250000 0.158484 0.349862
O O2 0.482389 0.251712 0.307781
O O3 0.498600 0.240672 0.388710
O O4 0.500000 0.000000 0.345560
O O5 0.500000 0.500000 0.692493
O O6 0.750000 0.658417 0.689152
O O7 0.506843 0.728332 0.645503
O O8 0.503153 0.756351 0.726995
O O9 0.750000 0.841624 0.015611
O O10 0.982516 0.768913 0.059363
O O11 0.983187 0.775079 0.970801
O O12 0.000000 0.000000 0.015244
O O13 0.250000 0.163426 0.107078
O O14 0.500000 0.000000 0.102825
O O15 0.250000 0.839298 0.764200
O O16 0.000000 0.000000 0.768513
O O17 0.500000 0.500000 0.422163
O O18 0.750000 0.339717 0.423432
#
# Coordination Sequence:
#
# PCOD9363184 Si02
#       6
#     8   8   8   8   8   8
#     4  11  24  40  59  82 108 140 178 220 268 321
#     4  11  21  34  54  81 112 145 182 223 269 317
#     4   8  15  26  44  72 105 141 178 219 263 309
#     4   9  15  26  45  72 106 141 179 221 265 311
#     4  11  24  41  60  82 108 139 176 218 267 322
#     4  10  19  33  54  81 113 146 182 223 268 316
#
# _framework density 18.52617
#
# number of rings (size 3 to 8) (size 9 to 14) (size 15 to 20)
#    0.000    2.000    0.000    5.500    0.000    6.667 
#    0.000    0.000    0.000    1.000    0.000    4.667 
#    0.000    0.000    0.000    0.000    0.000    0.000 
#
# Total GULP energy -133870.597211 kJ/mol
# GULP energy per Si atom -5577.941550 kJ/mol
# Density = 1.848400 g / cm^3
# Si number density = 18.526170 Si / 1000 Ang^3
#
#
#
# Elastic Constant Matrix: (Units=GPa)
#
#
# Indices 1 2 3 4 5 6 
#
# 1 73.3434 32.4428 67.6423 0.0000 0.0000 0.0000
# 2 32.4428 83.1317 84.2156 0.0000 0.0000 0.0000
# 3 67.6423 84.2156 247.5807 0.0000 0.0000 0.0000
# 4 0.0000 0.0000 0.0000 27.6407 0.0000 0.0000
# 5 0.0000 0.0000 0.0000 0.0000 29.8521 0.0000
# 6 0.0000 0.0000 0.0000 0.0000 0.0000 24.6888
#
#
#
# Elastic Compliance Matrix: (Units=1/GPa)
#
#
# Indices 1 2 3 4 5 6 
#
# 1 0.018787 -0.003253 -0.004026 0.000000 0.000000 0.000000
# 2 -0.003253 0.018917 -0.005546 0.000000 0.000000 0.000000
# 3 -0.004026 -0.005546 0.007026 0.000000 0.000000 0.000000
# 4 0.000000 0.000000 0.000000 0.036179 0.000000 0.000000
# 5 0.000000 0.000000 0.000000 0.000000 0.033498 0.000000
# 6 0.000000 0.000000 0.000000 0.000000 0.000000 0.040504
#
#
# Mechanical properties :
#
#
# Convention : Reuss Voigt Hill
#
# Bulk Modulus (GPa) = 52.41385 85.85082 69.13234
# Shear Modulus (GPa) = 26.74940 31.08665 28.91803
#
# Velocity S-wave (km/s) = 3.80395 4.10077 3.95515
# Velocity P-wave (km/s) = 6.90265 8.29835 7.63247
#
# Compressibility (1/GPa) = 0.01907893
#
# Stress axis : x y z
#
# Youngs Moduli (GPa) = 53.22915 52.86318 142.33703
#
# Poissons Ratio (x) = 0.17196 0.57309
# Poissons Ratio (y) = 0.17315 0.78938
# Poissons Ratio (z) = 0.21432 0.29317
#
# Static dielectric constant tensor:
#      x y z
#    x 1.625000 0.000000 0.000000 
#    y 0.000000 1.598810 0.000000 
#    z 0.000000 0.000000 1.697040 
# 
# From -- ./inp_files/26137.got.cif
#   From: 2010.05.17/outbox.cif.g08.bks.cpg/sg40_14_cif.got.tgz:26137.got - 2010.06.03 18:35:42.
