data_PCOD9363408
_publ_section_title
;
Structure prediction by ZEFSAII (Michael W. Deem and Ramdas Pophale) SiO2 
 PCOD9363408
Probable space group: A M A 2
;
_chemical_formula_sum "Si O2"
_cell_formula_units_Z 56
_cell_length_a 20.874053
_cell_length_b 10.007477
_cell_length_c 11.375633
_cell_angle_alpha 90.000000
_cell_angle_beta 90.000000
_cell_angle_gamma 90.000000
_cell_volume 2376.331117
_symmetry_space_group_name_H-M "A M A 2"
_symmetry_group_IT_number 40
_symmetry_cell_setting 'orthorhombic'
loop_
_space_group_symop_operation_xyz
x,y,z
-x,-y,z
1/2-x,y,z
1/2+x,-y,z
x,1/2+y,1/2+z
-x,1/2-y,1/2+z
1/2-x,1/2+y,1/2+z
1/2+x,1/2-y,1/2+z
loop_
_atom_site_type_symbol
_atom_site_label
_atom_site_fract_x
_atom_site_fract_y
_atom_site_fract_z
Si Si1 0.385525 0.699724 0.390590
Si Si2 0.677741 0.442733 0.590618
Si Si3 0.122292 0.716800 0.950225
Si Si4 0.679361 0.383459 0.169281
Si Si5 0.487685 0.841533 0.533595
Si Si6 0.132478 0.828013 0.700480
Si Si7 0.676064 0.538433 0.835817
O O1 0.369334 0.582152 0.481992
O O2 0.377269 0.649522 0.259592
O O3 0.449771 0.775468 0.424642
O O4 0.333694 0.819663 0.396754
O O5 0.750000 0.465665 0.548830
O O6 0.671631 0.301121 0.658347
O O7 0.662659 0.545916 0.695504
O O8 0.129970 0.818157 0.842169
O O9 0.128008 0.570780 0.888351
O O10 0.175236 0.702068 0.050954
O O11 0.056554 0.727527 0.022385
O O12 0.750000 0.365588 0.222490
O O13 0.666723 0.540592 0.150151
O O14 0.438874 0.819216 0.642970
O O15 0.500000 0.000000 0.525888
O O16 0.750000 0.494668 0.848142
#
# Coordination Sequence:
#
# PCOD9363408 Si02
#       7
#     8   8   8   8   8   8   8
#     4  11  23  38  60  92 127 173 214 267 338 398
#     4   9  18  35  58  85 116 157 212 266 319 387
#     4  11  23  40  65  96 124 172 222 279 332 400
#     4  12  25  40  62  98 140 178 221 276 347 417
#     4  11  21  42  68  92 124 169 226 283 335 408
#     4  10  23  40  65  92 126 170 223 274 337 399
#     4  10  19  35  60  86 117 160 216 270 325 392
#
# _framework density 23.565740999999999
#
# number of rings (size 3 to 8) (size 9 to 14) (size 15 to 20)
#    0.000    1.429    2.857    3.000    2.000    2.857 
#    0.000    0.000    0.000    0.857    0.000    0.000 
#    0.000    0.000    0.000    0.000    0.000    0.000 
#
# Total GULP energy -156334.802381 kJ/mol
# GULP energy per Si atom -5583.385799 kJ/mol
# Density = 2.351210 g / cm^3
# Si number density = 23.565741 Si / 1000 Ang^3
#
#
#
# Elastic Constant Matrix: (Units=GPa)
#
#
# Indices 1 2 3 4 5 6 
#
# 1 81.8456 11.2218 12.5710 0.0000 0.0000 0.0000
# 2 11.2218 37.4932 16.0867 0.0000 0.0000 0.0000
# 3 12.5710 16.0867 99.1004 0.0000 0.0000 0.0000
# 4 0.0000 0.0000 0.0000 19.3584 0.0000 0.0000
# 5 0.0000 0.0000 0.0000 0.0000 26.9647 0.0000
# 6 0.0000 0.0000 0.0000 0.0000 0.0000 18.7337
#
#
#
# Elastic Compliance Matrix: (Units=1/GPa)
#
#
# Indices 1 2 3 4 5 6 
#
# 1 0.012848 -0.003382 -0.001081 0.000000 0.000000 0.000000
# 2 -0.003382 0.029558 -0.004369 0.000000 0.000000 0.000000
# 3 -0.001081 -0.004369 0.010937 0.000000 0.000000 0.000000
# 4 0.000000 0.000000 0.000000 0.051657 0.000000 0.000000
# 5 0.000000 0.000000 0.000000 0.000000 0.037086 0.000000
# 6 0.000000 0.000000 0.000000 0.000000 0.000000 0.053380
#
#
# Mechanical properties :
#
#
# Convention : Reuss Voigt Hill
#
# Bulk Modulus (GPa) = 28.02696 33.13313 30.58005
# Shear Modulus (GPa) = 22.22004 24.91534 23.56769
#
# Velocity S-wave (km/s) = 3.07399 3.25510 3.16584
# Velocity P-wave (km/s) = 4.95158 5.31205 5.13498
#
# Compressibility (1/GPa) = 0.03567993
#
# Stress axis : x y z
#
# Youngs Moduli (GPa) = 77.83438 33.83153 91.43184
#
# Poissons Ratio (x) = 0.11441 0.09882
# Poissons Ratio (y) = 0.26321 0.39948
# Poissons Ratio (z) = 0.08413 0.14781
#
# Static dielectric constant tensor:
#      x y z
#    x 1.839080 0.000000 0.000000 
#    y 0.000000 1.905600 0.000000 
#    z 0.000000 0.000000 1.953040 
# 
# From -- ./inp_files/13569.got.cif
#   From: 2010.05.17/outbox.cif.g08.bks.cpg/sg40_7_cif.got.tgz:13569.got - 2010.06.03 18:35:42.
