data_PCOD9363141
_publ_section_title
;
Structure prediction by ZEFSAII (Michael W. Deem and Ramdas Pophale) SiO2 
 PCOD9363141
Probable space group: A M A 2
;
_chemical_formula_sum "Si O2"
_cell_formula_units_Z 60
_cell_length_a 7.701213
_cell_length_b 14.677248
_cell_length_c 27.303369
_cell_angle_alpha 90.000000
_cell_angle_beta 90.000000
_cell_angle_gamma 90.000000
_cell_volume 3086.171145
_symmetry_space_group_name_H-M "A M A 2"
_symmetry_group_IT_number 40
_symmetry_cell_setting 'orthorhombic'
loop_
_space_group_symop_operation_xyz
x,y,z
-x,-y,z
1/2-x,y,z
1/2+x,-y,z
x,1/2+y,1/2+z
-x,1/2-y,1/2+z
1/2-x,1/2+y,1/2+z
1/2+x,1/2-y,1/2+z
loop_
_atom_site_type_symbol
_atom_site_label
_atom_site_fract_x
_atom_site_fract_y
_atom_site_fract_z
Si Si1 0.957016 0.400316 0.905050
Si Si2 0.947062 0.599030 0.644487
Si Si3 0.250000 0.258990 0.793440
Si Si4 0.552948 0.394664 0.752074
Si Si5 0.548760 0.793230 0.051967
Si Si6 0.542884 0.899646 0.517152
Si Si7 0.547433 0.712563 0.356463
Si Si8 0.457738 0.606358 0.453748
O O1 0.750000 0.393117 0.907314
O O2 0.017845 0.313005 0.875393
O O3 0.000000 0.500000 0.884472
O O4 0.024893 0.396301 0.960866
O O5 0.750000 0.592760 0.661837
O O6 0.000000 0.500000 0.624434
O O7 0.054901 0.619006 0.693160
O O8 0.961465 0.670369 0.600901
O O9 0.405523 0.328378 0.772950
O O10 0.405356 0.191276 0.815756
O O11 0.500000 0.500000 0.760501
O O12 0.750000 0.380457 0.771255
O O13 0.750000 0.819710 0.055862
O O14 0.532683 0.685160 0.045990
O O15 0.478746 0.839377 0.002050
O O16 0.750000 0.889229 0.515841
O O17 0.500000 0.000000 0.536480
O O18 0.750000 0.715287 0.341674
O O19 0.534742 0.648946 0.404358
O O20 0.500000 0.500000 0.458418
O O21 0.250000 0.618629 0.451078
#
# Coordination Sequence:
#
# PCOD9363141 Si02
#       8
#     8   8   4   8   8   8   8   8
#     4   9  19  32  49  72 106 155 194 235 288 340
#     4  11  21  37  60  89 125 163 203 252 310 374
#     4  12  24  40  60  86 118 160 208 250 312 370
#     4  11  21  41  63  88 127 165 204 259 314 374
#     4  11  22  35  57  89 123 162 213 254 300 368
#     4  10  19  33  52  75 112 159 201 243 294 352
#     4  11  23  40  58  85 123 158 204 258 300 363
#     4  11  23  39  60  85 124 165 207 259 307 362
#
# _framework density 19.441566999999999
#
# number of rings (size 3 to 8) (size 9 to 14) (size 15 to 20)
#    0.000    1.333    3.333    4.000    0.933    3.733 
#    2.400    0.000    0.000    0.000    0.000    0.933 
#    0.000    0.000    0.000    0.000    0.000    0.000 
#
# Total GULP energy -167077.580416 kJ/mol
# GULP energy per Si atom -5569.252681 kJ/mol
# Density = 1.939732 g / cm^3
# Si number density = 19.441567 Si / 1000 Ang^3
#
#
#
# Elastic Constant Matrix: (Units=GPa)
#
#
# Indices 1 2 3 4 5 6 
#
# 1 122.8163 -2.0104 16.7703 0.0000 0.0000 0.0000
# 2 -2.0104 82.6895 32.4766 0.0000 0.0000 0.0000
# 3 16.7703 32.4766 66.6831 0.0000 0.0000 0.0000
# 4 0.0000 0.0000 0.0000 41.9184 0.0000 0.0000
# 5 0.0000 0.0000 0.0000 0.0000 60.9565 0.0000
# 6 0.0000 0.0000 0.0000 0.0000 0.0000 -23.8882
#
#
#
# Elastic Compliance Matrix: (Units=1/GPa)
#
#
# Indices 1 2 3 4 5 6 
#
# 1 0.008543 0.001300 -0.002782 0.000000 0.000000 0.000000
# 2 0.001300 0.015152 -0.007706 0.000000 0.000000 0.000000
# 3 -0.002782 -0.007706 0.019449 0.000000 0.000000 0.000000
# 4 0.000000 0.000000 0.000000 0.023856 0.000000 0.000000
# 5 0.000000 0.000000 0.000000 0.000000 0.016405 0.000000
# 6 0.000000 0.000000 0.000000 0.000000 0.000000 -0.041862
#
#
# Mechanical properties :
#
#
# Convention : Reuss Voigt Hill
#
# Bulk Modulus (GPa) = 40.37401 40.74021 40.55711
# Shear Modulus (GPa) = 73.33996 30.79417 52.06707
#
# Velocity S-wave (km/s) = 6.14859 3.98419 5.18068
# Velocity P-wave (km/s) = 8.43912 6.49351 7.52943
#
# Compressibility (1/GPa) = 0.02476841
#
# Stress axis : x y z
#
# Youngs Moduli (GPa) = 117.04962 65.99900 51.41619
#
# Poissons Ratio (x) = -0.08582 0.14303
# Poissons Ratio (y) = -0.15220 0.39623
# Poissons Ratio (z) = 0.32562 0.50861
#
# Static dielectric constant tensor:
#      x y z
#    x 1.722970 0.000000 0.000000 
#    y 0.000000 1.645260 0.000000 
#    z 0.000000 0.000000 1.708360 
# 
# From -- ./inp_files/26321.got.cif
#   From: 2010.05.17/outbox.cif.g08.bks.cpg/sg40_14_cif.got.tgz:26321.got - 2010.06.03 18:35:42.
