data_PCOD9363143
_publ_section_title
;
Structure prediction by ZEFSAII (Michael W. Deem and Ramdas Pophale) SiO2 
 PCOD9363143
Probable space group: A M A 2
;
_chemical_formula_sum "Si O2"
_cell_formula_units_Z 64
_cell_length_a 7.360119
_cell_length_b 27.297945
_cell_length_c 13.705872
_cell_angle_alpha 90.000000
_cell_angle_beta 90.000000
_cell_angle_gamma 90.000000
_cell_volume 2753.730674
_symmetry_space_group_name_H-M "A M A 2"
_symmetry_group_IT_number 40
_symmetry_cell_setting 'orthorhombic'
loop_
_space_group_symop_operation_xyz
x,y,z
-x,-y,z
1/2-x,y,z
1/2+x,-y,z
x,1/2+y,1/2+z
-x,1/2-y,1/2+z
1/2-x,1/2+y,1/2+z
1/2+x,1/2-y,1/2+z
loop_
_atom_site_type_symbol
_atom_site_label
_atom_site_fract_x
_atom_site_fract_y
_atom_site_fract_z
Si Si1 0.972490 0.617404 0.197220
Si Si2 0.540969 0.112883 0.918744
Si Si3 0.529650 0.775482 0.922930
Si Si4 0.455069 0.286737 0.087967
Si Si5 0.530974 0.215580 0.243393
Si Si6 0.033805 0.942279 0.509133
Si Si7 0.972012 0.107763 0.308557
Si Si8 0.033435 0.442570 0.608619
O O1 0.750000 0.618176 0.203449
O O2 0.036403 0.608417 0.308408
O O3 0.033909 0.669856 0.152792
O O4 0.029148 0.578714 0.113795
O O5 0.750000 0.096206 0.910925
O O6 0.537799 0.170476 0.944336
O O7 0.460559 0.084225 0.011363
O O8 0.750000 0.776365 0.929419
O O9 0.478800 0.759511 0.814993
O O10 0.459991 0.730090 0.987319
O O11 0.250000 0.303313 0.065961
O O12 0.453535 0.234346 0.142223
O O13 0.750000 0.214280 0.234224
O O14 0.474270 0.163479 0.285005
O O15 0.250000 0.934767 0.509912
O O16 0.965387 0.913645 0.412668
O O17 0.000000 0.000000 0.499599
O O18 0.750000 0.106774 0.311803
O O19 0.032257 0.076808 0.213784
O O20 0.250000 0.433029 0.609920
O O21 0.000000 0.500000 0.601021
#
# Coordination Sequence:
#
# PCOD9363143 Si02
#       8
#     8   8   8   8   8   8   8   8
#     4   9  18  34  55  76 103 141 178 212 259 320
#     4  10  20  36  56  77 106 143 182 217 261 324
#     4  10  20  32  51  80 110 138 174 220 266 307
#     4  10  19  33  52  76 107 143 178 213 259 319
#     4  10  19  33  53  79 107 138 176 215 258 312
#     4  10  20  36  57  78 102 137 180 224 270 319
#     4   9  18  34  55  78 106 139 175 216 267 326
#     4  10  21  36  55  78 103 137 179 223 271 319
#
# _framework density 23.241198000000001
#
# number of rings (size 3 to 8) (size 9 to 14) (size 15 to 20)
#    0.000    2.250    1.250    1.875    0.000    5.500 
#    0.000    2.500    0.000    1.500    0.000    0.000 
#    0.000    0.000    0.000    0.000    0.000    0.000 
#
# Total GULP energy -178612.338441 kJ/mol
# GULP energy per Si atom -5581.635576 kJ/mol
# Density = 2.318830 g / cm^3
# Si number density = 23.241198 Si / 1000 Ang^3
#
#
#
# Elastic Constant Matrix: (Units=GPa)
#
#
# Indices 1 2 3 4 5 6 
#
# 1 83.9876 -11.5356 3.6026 0.0000 0.0000 0.0000
# 2 -11.5356 96.1519 13.3751 0.0000 0.0000 0.0000
# 3 3.6026 13.3751 98.6653 0.0000 0.0000 0.0000
# 4 0.0000 0.0000 0.0000 44.5568 0.0000 0.0000
# 5 0.0000 0.0000 0.0000 0.0000 -3.8214 0.0000
# 6 0.0000 0.0000 0.0000 0.0000 0.0000 47.7074
#
#
#
# Elastic Compliance Matrix: (Units=1/GPa)
#
#
# Indices 1 2 3 4 5 6 
#
# 1 0.012147 0.001548 -0.000653 0.000000 0.000000 0.000000
# 2 0.001548 0.010797 -0.001520 0.000000 0.000000 0.000000
# 3 -0.000653 -0.001520 0.010365 0.000000 0.000000 0.000000
# 4 0.000000 0.000000 0.000000 0.022443 0.000000 0.000000
# 5 0.000000 0.000000 0.000000 0.000000 -0.261684 0.000000
# 6 0.000000 0.000000 0.000000 0.000000 0.000000 0.020961
#
#
# Mechanical properties :
#
#
# Convention : Reuss Voigt Hill
#
# Bulk Modulus (GPa) = 31.19250 32.18767 31.69009
# Shear Modulus (GPa) = -28.89628 35.91274 3.50823
#
# Velocity S-wave (km/s) = -3.52990 3.93519 1.22994
# Velocity P-wave (km/s) = 1.77856 5.87598 3.96004
#
# Compressibility (1/GPa) = 0.03205898
#
# Stress axis : x y z
#
# Youngs Moduli (GPa) = 82.32356 92.61473 96.47652
#
# Poissons Ratio (x) = -0.14339 0.06304
# Poissons Ratio (y) = -0.12745 0.14667
# Poissons Ratio (z) = 0.05379 0.14080
#
# Static dielectric constant tensor:
#      x y z
#    x 1.904600 0.000000 0.000000 
#    y 0.000000 1.812450 0.000000 
#    z 0.000000 0.000000 1.867650 
# 
# From -- ./inp_files/11482.got.cif
#   From: 2010.05.17/outbox.cif.g08.bks.cpg/sg40_6_cif.got.tgz:11482.got - 2010.06.03 18:35:42.
