data_PCOD9363020
_publ_section_title
;
Structure prediction by ZEFSAII (Michael W. Deem and Ramdas Pophale) SiO2 
 PCOD9363020
Probable space group: A M A 2
;
_chemical_formula_sum "Si O2"
_cell_formula_units_Z 64
_cell_length_a 8.762361
_cell_length_b 30.750166
_cell_length_c 14.742866
_cell_angle_alpha 90.000000
_cell_angle_beta 90.000000
_cell_angle_gamma 90.000000
_cell_volume 3972.377602
_symmetry_space_group_name_H-M "A M A 2"
_symmetry_group_IT_number 40
_symmetry_cell_setting 'orthorhombic'
loop_
_space_group_symop_operation_xyz
x,y,z
-x,-y,z
1/2-x,y,z
1/2+x,-y,z
x,1/2+y,1/2+z
-x,1/2-y,1/2+z
1/2-x,1/2+y,1/2+z
1/2+x,1/2-y,1/2+z
loop_
_atom_site_type_symbol
_atom_site_label
_atom_site_fract_x
_atom_site_fract_y
_atom_site_fract_z
Si Si1 0.922896 0.173325 0.797460
Si Si2 0.932203 0.453078 0.406243
Si Si3 0.571496 0.628705 0.493016
Si Si4 0.934729 0.797191 0.117520
Si Si5 0.567801 0.047101 0.705601
Si Si6 0.071977 0.631202 0.130152
Si Si7 0.071392 0.223236 0.319146
Si Si8 0.067978 0.292020 0.013659
O O1 0.750000 0.162873 0.764250
O O2 0.939963 0.153538 0.896700
O O3 0.936274 0.224906 0.804682
O O4 0.041903 0.154096 0.727197
O O5 0.750000 0.455120 0.397941
O O6 0.000000 0.500000 0.431698
O O7 0.983185 0.416189 0.476572
O O8 0.003182 0.442844 0.306770
O O9 0.750000 0.620504 0.510940
O O10 0.501938 0.661296 0.566433
O O11 0.750000 0.798270 0.113858
O O12 0.980133 0.796499 0.223184
O O13 0.982177 0.752186 0.066901
O O14 0.750000 0.045014 0.710617
O O15 0.513717 0.085189 0.638851
O O16 0.500000 0.000000 0.680805
O O17 0.250000 0.623975 0.115031
O O18 0.005729 0.665430 0.058363
O O19 0.250000 0.212089 0.333876
O O20 0.978788 0.211507 0.408745
O O21 0.250000 0.294620 0.023224
#
# Coordination Sequence:
#
# PCOD9363020 Si02
#       8
#     8   8   8   8   8   8   8   8
#     4  10  19  32  50  73 106 142 176 221 263 304
#     4  11  21  34  52  76 106 139 176 215 263 317
#     4  11  21  33  52  76 106 142 180 219 263 313
#     4  10  21  35  52  74 105 141 180 222 265 313
#     4  11  21  35  53  76 107 139 174 216 263 313
#     4  12  23  34  52  77 105 143 183 216 260 317
#     4  10  20  37  53  72 104 141 179 224 267 307
#     4  11  22  36  53  76 105 139 179 223 265 312
#
# _framework density 16.111257999999999
#
# number of rings (size 3 to 8) (size 9 to 14) (size 15 to 20)
#    0.000    1.250    3.750    4.875    0.000    2.000 
#    0.000    0.000    0.000    0.000    0.000    0.875 
#    0.000    6.000    0.000    0.000    0.000    0.000 
#
# Total GULP energy -178725.201743 kJ/mol
# GULP energy per Si atom -5585.162554 kJ/mol
# Density = 1.607459 g / cm^3
# Si number density = 16.111258 Si / 1000 Ang^3
#
#
#
# Elastic Constant Matrix: (Units=GPa)
#
#
# Indices 1 2 3 4 5 6 
#
# 1 99.0427 44.8737 36.9532 0.0000 0.0000 0.0000
# 2 44.8737 105.6111 43.4262 0.0000 0.0000 0.0000
# 3 36.9532 43.4262 77.9743 0.0000 0.0000 0.0000
# 4 0.0000 0.0000 0.0000 23.6157 0.0000 0.0000
# 5 0.0000 0.0000 0.0000 0.0000 25.8522 0.0000
# 6 0.0000 0.0000 0.0000 0.0000 0.0000 39.5411
#
#
#
# Elastic Compliance Matrix: (Units=1/GPa)
#
#
# Indices 1 2 3 4 5 6 
#
# 1 0.013462 -0.004016 -0.004143 0.000000 0.000000 0.000000
# 2 -0.004016 0.013479 -0.005604 0.000000 0.000000 0.000000
# 3 -0.004143 -0.005604 0.017909 0.000000 0.000000 0.000000
# 4 0.000000 0.000000 0.000000 0.042345 0.000000 0.000000
# 5 0.000000 0.000000 0.000000 0.000000 0.038681 0.000000
# 6 0.000000 0.000000 0.000000 0.000000 0.000000 0.025290
#
#
# Mechanical properties :
#
#
# Convention : Reuss Voigt Hill
#
# Bulk Modulus (GPa) = 57.72218 59.23715 58.47967
# Shear Modulus (GPa) = 27.10498 28.29348 27.69923
#
# Velocity S-wave (km/s) = 4.10611 4.19517 4.15088
# Velocity P-wave (km/s) = 7.64102 7.76616 7.70385
#
# Compressibility (1/GPa) = 0.01732436
#
# Stress axis : x y z
#
# Youngs Moduli (GPa) = 74.28213 74.18707 55.83772
#
# Poissons Ratio (x) = 0.29797 0.23134
# Poissons Ratio (y) = 0.29835 0.31289
# Poissons Ratio (z) = 0.30776 0.41572
#
# Static dielectric constant tensor:
#      x y z
#    x 1.552740 0.000000 0.000000 
#    y 0.000000 1.543310 0.000000 
#    z 0.000000 0.000000 1.521390 
# 
# From -- ./inp_files/15878.got.cif
#   From: 2010.05.17/outbox.cif.g08.bks.cpg/sg40_8_cif.got.tgz:15878.got - 2010.06.03 18:35:42.
