data_PCOD9363976
_publ_section_title
;
Structure prediction by ZEFSAII (Michael W. Deem and Ramdas Pophale) SiO2 
 PCOD9363976
Probable space group: A M A 2
;
_chemical_formula_sum "Si O2"
_cell_formula_units_Z 36
_cell_length_a 15.093293
_cell_length_b 4.752231
_cell_length_c 18.747710
_cell_angle_alpha 90.000000
_cell_angle_beta 90.000000
_cell_angle_gamma 90.000000
_cell_volume 1344.713525
_symmetry_space_group_name_H-M "A M A 2"
_symmetry_group_IT_number 40
_symmetry_cell_setting 'orthorhombic'
loop_
_space_group_symop_operation_xyz
x,y,z
-x,-y,z
1/2-x,y,z
1/2+x,-y,z
x,1/2+y,1/2+z
-x,1/2-y,1/2+z
1/2-x,1/2+y,1/2+z
1/2+x,1/2-y,1/2+z
loop_
_atom_site_type_symbol
_atom_site_label
_atom_site_fract_x
_atom_site_fract_y
_atom_site_fract_z
Si Si1 0.856097 0.571502 0.805730
Si Si2 0.914624 0.192632 0.524488
Si Si3 0.250000 0.027168 0.601628
Si Si4 0.143903 0.428498 0.397526
Si Si5 0.914624 0.192632 0.678768
O O1 0.750000 0.548836 0.796414
O O2 0.879467 0.386650 0.876067
O O3 0.900184 0.422119 0.739150
O O4 0.879467 0.886650 0.827189
O O5 0.900184 0.422119 0.464106
O O6 0.918714 0.346033 0.601628
O O7 0.827705 0.000622 0.539367
O O8 0.000000 0.000000 0.515400
O O9 0.172295 0.999377 0.663889
O O10 0.250000 0.451162 0.406841
O O11 0.000000 0.000000 0.687856
#
# Coordination Sequence:
#
# PCOD9363976 Si02
#       5
#     8   8   4   8   8
#     4  10  20  36  58  85 117 153 191 237 290 342
#     4   9  17  32  57  83 113 152 194 236 287 343
#     4   8  14  32  56  80 116 150 188 246 276 352
#     4  10  20  36  58  85 117 153 191 237 290 342
#     4   9  17  32  57  83 113 152 194 236 287 343
#
# _framework density 26.771502999999999
#
# number of rings (size 3 to 8) (size 9 to 14) (size 15 to 20)
#    1.333    1.333    2.222    0.000    0.000    1.778 
#    0.000    2.222    0.000   16.000    0.000    0.000 
#    0.000    0.000    0.000    0.000    0.000    0.000 
#
# Total GULP energy -100331.291405 kJ/mol
# GULP energy per Si atom -5573.960634 kJ/mol
# Density = 2.671057 g / cm^3
# Si number density = 26.771503 Si / 1000 Ang^3
#
#
#
# Elastic Constant Matrix: (Units=GPa)
#
#
# Indices 1 2 3 4 5 6 
#
# 1 193.0916 30.1033 27.4344 0.0000 0.0000 0.0000
# 2 30.1033 89.8688 19.0084 0.0000 0.0000 0.0000
# 3 27.4344 19.0084 122.7454 0.0000 0.0000 0.0000
# 4 0.0000 0.0000 0.0000 -7.5868 0.0000 0.0000
# 5 0.0000 0.0000 0.0000 0.0000 39.1865 0.0000
# 6 0.0000 0.0000 0.0000 0.0000 0.0000 16.8706
#
#
#
# Elastic Compliance Matrix: (Units=1/GPa)
#
#
# Indices 1 2 3 4 5 6 
#
# 1 0.005578 -0.001659 -0.000990 0.000000 0.000000 0.000000
# 2 -0.001659 0.011998 -0.001487 0.000000 0.000000 0.000000
# 3 -0.000990 -0.001487 0.008598 0.000000 0.000000 0.000000
# 4 0.000000 0.000000 0.000000 -0.131807 0.000000 0.000000
# 5 0.000000 0.000000 0.000000 0.000000 0.025519 0.000000
# 6 0.000000 0.000000 0.000000 0.000000 0.000000 0.059275
#
#
# Mechanical properties :
#
#
# Convention : Reuss Voigt Hill
#
# Bulk Modulus (GPa) = 55.85940 62.08864 58.97402
# Shear Modulus (GPa) = -757.64936 31.63803 -363.00566
#
# Velocity S-wave (km/s) = -16.84103 3.44143 -11.65712
# Velocity P-wave (km/s) = 18.90105 6.24769 12.61381
#
# Compressibility (1/GPa) = 0.01790209
#
# Stress axis : x y z
#
# Youngs Moduli (GPa) = 179.26965 83.34973 116.29973
#
# Poissons Ratio (x) = 0.13829 0.11512
# Poissons Ratio (y) = 0.29744 0.17295
# Poissons Ratio (z) = 0.17745 0.12395
#
# Static dielectric constant tensor:
#      x y z
#    x 2.053290 0.000000 0.000000 
#    y 0.000000 2.061460 0.000000 
#    z 0.000000 0.000000 2.148810 
# 
# From -- ./inp_files/22927.got.cif
#   From: 2010.05.17/outbox.cif.g08.bks.cpg/sg40_12_cif.got.tgz:22927.got - 2010.06.03 18:35:42.
