data_PCOD9363084
_publ_section_title
;
Structure prediction by ZEFSAII (Michael W. Deem and Ramdas Pophale) SiO2 
 PCOD9363084
Probable space group: A M A 2
;
_chemical_formula_sum "Si O2"
_cell_formula_units_Z 64
_cell_length_a 8.450423
_cell_length_b 25.865581
_cell_length_c 15.474802
_cell_angle_alpha 90.000000
_cell_angle_beta 90.000000
_cell_angle_gamma 90.000000
_cell_volume 3382.406404
_symmetry_space_group_name_H-M "A M A 2"
_symmetry_group_IT_number 40
_symmetry_cell_setting 'orthorhombic'
loop_
_space_group_symop_operation_xyz
x,y,z
-x,-y,z
1/2-x,y,z
1/2+x,-y,z
x,1/2+y,1/2+z
-x,1/2-y,1/2+z
1/2-x,1/2+y,1/2+z
1/2+x,1/2-y,1/2+z
loop_
_atom_site_type_symbol
_atom_site_label
_atom_site_fract_x
_atom_site_fract_y
_atom_site_fract_z
Si Si1 0.058560 0.107315 0.789230
Si Si2 0.059537 0.864275 0.117552
Si Si3 0.942742 0.350018 0.989859
Si Si4 0.560234 0.058424 0.967720
Si Si5 0.438163 0.165920 0.293836
Si Si6 0.058169 0.265199 0.510881
Si Si7 0.438678 0.222083 0.816829
Si Si8 0.441361 0.056909 0.611222
O O1 0.250000 0.106562 0.792516
O O2 0.010070 0.167228 0.777577
O O3 0.006898 0.073277 0.707691
O O4 0.996229 0.085299 0.879390
O O5 0.250000 0.864886 0.118501
O O6 0.000799 0.868045 0.215120
O O7 0.005281 0.908064 0.050356
O O8 0.008969 0.808694 0.078595
O O9 0.750000 0.351281 0.989458
O O10 0.996931 0.398828 0.044957
O O11 0.996098 0.349740 0.889820
O O12 0.986648 0.294157 0.029770
O O13 0.750000 0.058457 0.967717
O O14 0.500000 0.000000 0.971405
O O15 0.250000 0.163359 0.295418
O O16 0.488191 0.225538 0.279777
O O17 0.250000 0.266943 0.503609
O O18 0.987217 0.279036 0.417588
O O19 0.250000 0.226081 0.808174
O O20 0.250000 0.057027 0.610509
O O21 0.500000 0.000000 0.589258
#
# Coordination Sequence:
#
# PCOD9363084 Si02
#       8
#     8   8   8   8   8   8   8   8
#     4  10  21  35  56  84 114 150 189 227 276 338
#     4  10  21  36  57  84 113 148 190 236 286 335
#     4   8  17  35  58  78 104 143 185 224 275 334
#     4  11  23  39  59  82 114 152 190 234 284 342
#     4  10  21  36  56  82 114 151 189 233 283 341
#     4   9  17  33  56  80 109 145 183 224 278 338
#     4  10  19  32  53  83 117 148 184 225 273 335
#     4  10  21  38  57  79 106 142 187 230 274 327
#
# _framework density 18.92144
#
# number of rings (size 3 to 8) (size 9 to 14) (size 15 to 20)
#    0.000    2.250    1.250    2.250    1.750    3.500 
#    0.000    3.750    0.000    3.000    0.000    0.000 
#    0.000    0.000    0.000    0.000    0.000    0.000 
#
# Total GULP energy -178603.260211 kJ/mol
# GULP energy per Si atom -5581.351882 kJ/mol
# Density = 1.887837 g / cm^3
# Si number density = 18.921440 Si / 1000 Ang^3
#
#
#
# Elastic Constant Matrix: (Units=GPa)
#
#
# Indices 1 2 3 4 5 6 
#
# 1 11.2939 18.6770 16.7555 0.0000 0.0000 0.0000
# 2 18.6770 125.6963 61.4498 0.0000 0.0000 0.0000
# 3 16.7555 61.4498 90.2679 0.0000 0.0000 0.0000
# 4 0.0000 0.0000 0.0000 30.9607 0.0000 0.0000
# 5 0.0000 0.0000 0.0000 0.0000 23.5988 0.0000
# 6 0.0000 0.0000 0.0000 0.0000 0.0000 3.5690
#
#
#
# Elastic Compliance Matrix: (Units=1/GPa)
#
#
# Indices 1 2 3 4 5 6 
#
# 1 0.132391 -0.011478 -0.016761 0.000000 0.000000 0.000000
# 2 -0.011478 0.012919 -0.006664 0.000000 0.000000 0.000000
# 3 -0.016761 -0.006664 0.018726 0.000000 0.000000 0.000000
# 4 0.000000 0.000000 0.000000 0.032299 0.000000 0.000000
# 5 0.000000 0.000000 0.000000 0.000000 0.042375 0.000000
# 6 0.000000 0.000000 0.000000 0.000000 0.000000 0.280192
#
#
# Mechanical properties :
#
#
# Convention : Reuss Voigt Hill
#
# Bulk Modulus (GPa) = 10.61227 46.78030 28.69629
# Shear Modulus (GPa) = 8.06298 20.31742 14.19020
#
# Velocity S-wave (km/s) = 2.06653 3.28041 2.74150
# Velocity P-wave (km/s) = 3.36375 6.25502 5.02195
#
# Compressibility (1/GPa) = 0.09423051
#
# Stress axis : x y z
#
# Youngs Moduli (GPa) = 7.55337 77.40488 53.40180
#
# Poissons Ratio (x) = 0.88843 0.89507
# Poissons Ratio (y) = 0.08670 0.35588
# Poissons Ratio (z) = 0.12660 0.51584
#
# Static dielectric constant tensor:
#      x y z
#    x 1.654400 0.000000 0.000000 
#    y 0.000000 1.649450 0.000000 
#    z 0.000000 0.000000 1.659580 
# 
# From -- ./inp_files/15561.got.cif
#   From: 2010.05.17/outbox.cif.g08.bks.cpg/sg40_8_cif.got.tgz:15561.got - 2010.06.03 18:35:42.
