data_PCOD9363742
_publ_section_title
;
Structure prediction by ZEFSAII (Michael W. Deem and Ramdas Pophale) SiO2 
 PCOD9363742
Probable space group: A M A 2
;
_chemical_formula_sum "Si O2"
_cell_formula_units_Z 64
_cell_length_a 8.774230
_cell_length_b 20.946006
_cell_length_c 19.786604
_cell_angle_alpha 90.000000
_cell_angle_beta 90.000000
_cell_angle_gamma 90.000000
_cell_volume 3636.482485
_symmetry_space_group_name_H-M "A M A 2"
_symmetry_group_IT_number 40
_symmetry_cell_setting 'orthorhombic'
loop_
_space_group_symop_operation_xyz
x,y,z
-x,-y,z
1/2-x,y,z
1/2+x,-y,z
x,1/2+y,1/2+z
-x,1/2-y,1/2+z
1/2-x,1/2+y,1/2+z
1/2+x,1/2-y,1/2+z
loop_
_atom_site_type_symbol
_atom_site_label
_atom_site_fract_x
_atom_site_fract_y
_atom_site_fract_z
Si Si1 0.932029 0.186455 0.091800
Si Si2 0.432170 0.567943 0.100662
Si Si3 0.928697 0.264467 0.304933
Si Si4 0.569904 0.692194 0.169977
Si Si5 0.567841 0.379572 0.954080
Si Si6 0.567426 0.762597 0.958935
Si Si7 0.070312 0.389267 0.811250
Si Si8 0.431309 0.067278 0.172739
O O1 0.750000 0.184307 0.092862
O O2 0.988497 0.249843 0.130608
O O3 0.999420 0.125422 0.129979
O O4 0.994723 0.193249 0.015893
O O5 0.500000 0.500000 0.120926
O O6 0.250000 0.569066 0.108844
O O7 0.505340 0.625861 0.142183
O O8 0.466205 0.580534 0.021306
O O9 0.750000 0.277127 0.290786
O O10 0.962721 0.283920 0.381958
O O11 0.948509 0.187527 0.302520
O O12 0.030098 0.297426 0.248488
O O13 0.750000 0.696086 0.158328
O O14 0.750000 0.375914 0.945315
O O15 0.502497 0.308334 0.965885
O O16 0.492297 0.405335 0.885490
O O17 0.750000 0.758372 0.967536
O O18 0.250000 0.403553 0.806550
O O19 0.981224 0.422039 0.750482
O O20 0.250000 0.067330 0.167508
O O21 0.500000 0.000000 0.149694
#
# Coordination Sequence:
#
# PCOD9363742 Si02
#       8
#     8   8   8   8   8   8   8   8
#     4  12  23  38  60  87 119 153 194 242 292 344
#     4  11  24  40  58  82 116 155 196 242 292 346
#     4   9  19  35  57  85 119 151 188 238 290 339
#     4  12  23  36  60  88 116 152 196 241 289 345
#     4  10  20  34  54  81 116 157 197 238 286 343
#     4  10  20  35  58  87 117 151 193 240 291 344
#     4  10  20  35  56  82 117 156 195 239 285 340
#     4  12  25  41  60  84 116 155 198 242 293 351
#
# _framework density 17.599423999999999
#
# number of rings (size 3 to 8) (size 9 to 14) (size 15 to 20)
#    0.000    1.250    2.500    5.625    0.000    4.500 
#    0.000    1.250    0.000    0.750    0.000    0.000 
#    0.000    0.000    0.000    0.000    0.000    0.000 
#
# Total GULP energy -178908.970189 kJ/mol
# GULP energy per Si atom -5590.905318 kJ/mol
# Density = 1.755937 g / cm^3
# Si number density = 17.599424 Si / 1000 Ang^3
#
#
#
# Elastic Constant Matrix: (Units=GPa)
#
#
# Indices 1 2 3 4 5 6 
#
# 1 116.4627 49.9005 53.7870 0.0000 0.0000 0.0000
# 2 49.9005 95.8376 44.1252 0.0000 0.0000 0.0000
# 3 53.7870 44.1252 84.9602 0.0000 0.0000 0.0000
# 4 0.0000 0.0000 0.0000 18.7594 0.0000 0.0000
# 5 0.0000 0.0000 0.0000 0.0000 33.7233 0.0000
# 6 0.0000 0.0000 0.0000 0.0000 0.0000 27.8036
#
#
#
# Elastic Compliance Matrix: (Units=1/GPa)
#
#
# Indices 1 2 3 4 5 6 
#
# 1 0.013194 -0.003974 -0.006289 0.000000 0.000000 0.000000
# 2 -0.003974 0.014911 -0.005228 0.000000 0.000000 0.000000
# 3 -0.006289 -0.005228 0.018467 0.000000 0.000000 0.000000
# 4 0.000000 0.000000 0.000000 0.053307 0.000000 0.000000
# 5 0.000000 0.000000 0.000000 0.000000 0.029653 0.000000
# 6 0.000000 0.000000 0.000000 0.000000 0.000000 0.035967
#
#
# Mechanical properties :
#
#
# Convention : Reuss Voigt Hill
#
# Bulk Modulus (GPa) = 64.14683 65.87621 65.01152
# Shear Modulus (GPa) = 24.79231 26.02043 25.40637
#
# Velocity S-wave (km/s) = 3.75734 3.84927 3.80358
# Velocity P-wave (km/s) = 7.43981 7.56756 7.50396
#
# Compressibility (1/GPa) = 0.01558923
#
# Stress axis : x y z
#
# Youngs Moduli (GPa) = 75.79439 67.06595 54.15160
#
# Poissons Ratio (x) = 0.26654 0.34054
# Poissons Ratio (y) = 0.30123 0.28311
# Poissons Ratio (z) = 0.47664 0.35062
#
# Static dielectric constant tensor:
#      x y z
#    x 1.582280 0.000000 0.000000 
#    y 0.000000 1.579290 0.000000 
#    z 0.000000 0.000000 1.608630 
# 
# From -- ./inp_files/22439.got.cif
#   From: 2010.05.17/outbox.cif.g08.bks.cpg/sg40_12_cif.got.tgz:22439.got - 2010.06.03 18:35:42.
