data_PCOD9363817
_publ_section_title
;
Structure prediction by ZEFSAII (Michael W. Deem and Ramdas Pophale) SiO2 
 PCOD9363817
Probable space group: A M A 2
;
_chemical_formula_sum "Si O2"
_cell_formula_units_Z 48
_cell_length_a 29.070081
_cell_length_b 9.153818
_cell_length_c 7.157760
_cell_angle_alpha 90.000000
_cell_angle_beta 90.000000
_cell_angle_gamma 90.000000
_cell_volume 1904.695903
_symmetry_space_group_name_H-M "A M A 2"
_symmetry_group_IT_number 40
_symmetry_cell_setting 'orthorhombic'
loop_
_space_group_symop_operation_xyz
x,y,z
-x,-y,z
1/2-x,y,z
1/2+x,-y,z
x,1/2+y,1/2+z
-x,1/2-y,1/2+z
1/2-x,1/2+y,1/2+z
1/2+x,1/2-y,1/2+z
loop_
_atom_site_type_symbol
_atom_site_label
_atom_site_fract_x
_atom_site_fract_y
_atom_site_fract_z
Si Si1 0.699627 0.347270 0.630880
Si Si2 0.601026 0.338359 0.609208
Si Si3 0.896547 0.840065 0.562252
Si Si4 0.959261 0.095806 0.050894
Si Si5 0.198972 0.296910 0.553829
Si Si6 0.958512 0.591418 0.124919
O O1 0.750000 0.309751 0.552245
O O2 0.651629 0.294319 0.544156
O O3 0.696082 0.527241 0.604364
O O4 0.699629 0.266631 0.836894
O O5 0.587035 0.499674 0.552184
O O6 0.558422 0.241801 0.540542
O O7 0.602268 0.334847 0.835659
O O8 0.940119 0.745021 0.631457
O O9 0.847212 0.781929 0.625941
O O10 0.911021 0.000596 0.621821
O O11 0.000000 0.000000 0.137510
O O12 0.972168 0.122752 0.837024
O O13 0.250000 0.252767 0.624121
O O14 0.000000 0.500000 0.038223
#
# Coordination Sequence:
#
# PCOD9363817 Si02
#       6
#     8   8   8   8   8   8
#     4   9  17  32  57  84 114 154 199 250 309 375
#     4  10  20  35  55  81 108 146 194 240 295 362
#     4  10  20  35  55  79 108 148 192 238 300 362
#     4  10  20  35  54  78 110 146 190 239 293 357
#     4   9  17  32  56  84 114 153 200 250 308 376
#     4  10  22  37  53  80 116 149 189 245 299 356
#
# _framework density 25.200875
#
# number of rings (size 3 to 8) (size 9 to 14) (size 15 to 20)
#    0.000    2.333    1.667    1.000    0.000    2.000 
#    0.000    0.833    0.000    2.000    0.000    0.000 
#    0.000    0.000    0.000    0.000    0.000    0.000 
#
# Total GULP energy -133673.463939 kJ/mol
# GULP energy per Si atom -5569.727664 kJ/mol
# Density = 2.514352 g / cm^3
# Si number density = 25.200875 Si / 1000 Ang^3
#
#
#
# Elastic Constant Matrix: (Units=GPa)
#
#
# Indices 1 2 3 4 5 6 
#
# 1 173.2528 22.8400 21.8451 0.0000 0.0000 0.0000
# 2 22.8400 92.9595 21.0024 0.0000 0.0000 0.0000
# 3 21.8451 21.0024 158.6326 0.0000 0.0000 0.0000
# 4 0.0000 0.0000 0.0000 0.9777 0.0000 0.0000
# 5 0.0000 0.0000 0.0000 0.0000 -4.3035 0.0000
# 6 0.0000 0.0000 0.0000 0.0000 0.0000 20.1476
#
#
#
# Elastic Compliance Matrix: (Units=1/GPa)
#
#
# Indices 1 2 3 4 5 6 
#
# 1 0.006030 -0.001334 -0.000654 0.000000 0.000000 0.000000
# 2 -0.001334 0.011384 -0.001324 0.000000 0.000000 0.000000
# 3 -0.000654 -0.001324 0.006569 0.000000 0.000000 0.000000
# 4 0.000000 0.000000 0.000000 1.022791 0.000000 0.000000
# 5 0.000000 0.000000 0.000000 0.000000 -0.232367 0.000000
# 6 0.000000 0.000000 0.000000 0.000000 0.000000 0.049634
#
#
# Mechanical properties :
#
#
# Convention : Reuss Voigt Hill
#
# Bulk Modulus (GPa) = 57.60034 61.80220 59.70127
# Shear Modulus (GPa) = 5.70483 27.30818 16.50650
#
# Velocity S-wave (km/s) = 1.50621 3.29541 2.56207
# Velocity P-wave (km/s) = 5.09225 6.24954 5.70034
#
# Compressibility (1/GPa) = 0.01736101
#
# Stress axis : x y z
#
# Youngs Moduli (GPa) = 165.83200 87.84156 152.22693
#
# Poissons Ratio (x) = 0.11717 0.09953
# Poissons Ratio (y) = 0.22120 0.20148
# Poissons Ratio (z) = 0.10842 0.11626
#
# Static dielectric constant tensor:
#      x y z
#    x 1.983150 0.000000 0.000000 
#    y 0.000000 1.955140 0.000000 
#    z 0.000000 0.000000 1.954130 
# 
# From -- ./inp_files/9311.got.cif
#   From: 2010.05.17/outbox.cif.g08.bks.cpg/sg40_5_cif.got.tgz:9311.got - 2010.06.03 18:35:42.
