data_PCOD9363341
_publ_section_title
;
Structure prediction by ZEFSAII (Michael W. Deem and Ramdas Pophale) SiO2 
 PCOD9363341
Probable space group: A M A 2
;
_chemical_formula_sum "Si O2"
_cell_formula_units_Z 64
_cell_length_a 17.710257
_cell_length_b 12.126810
_cell_length_c 16.649261
_cell_angle_alpha 90.000000
_cell_angle_beta 90.000000
_cell_angle_gamma 90.000000
_cell_volume 3575.743832
_symmetry_space_group_name_H-M "A M A 2"
_symmetry_group_IT_number 40
_symmetry_cell_setting 'orthorhombic'
loop_
_space_group_symop_operation_xyz
x,y,z
-x,-y,z
1/2-x,y,z
1/2+x,-y,z
x,1/2+y,1/2+z
-x,1/2-y,1/2+z
1/2-x,1/2+y,1/2+z
1/2+x,1/2-y,1/2+z
loop_
_atom_site_type_symbol
_atom_site_label
_atom_site_fract_x
_atom_site_fract_y
_atom_site_fract_z
Si Si1 0.416307 0.448588 0.294570
Si Si2 0.911719 0.477115 0.619207
Si Si3 0.158460 0.678078 0.027385
Si Si4 0.159806 0.422530 0.466840
Si Si5 0.339453 0.542750 0.876656
Si Si6 0.660050 0.352955 0.209521
Si Si7 0.085342 0.194391 0.249654
Si Si8 0.412344 0.864625 0.269944
O O1 0.500000 0.500000 0.294056
O O2 0.383956 0.445801 0.384846
O O3 0.364110 0.529789 0.243335
O O4 0.415344 0.325330 0.258436
O O5 0.864028 0.497539 0.539585
O O6 0.900822 0.358665 0.661899
O O7 0.891601 0.565638 0.689427
O O8 0.000000 0.500000 0.600926
O O9 0.250000 0.674260 0.028622
O O10 0.131888 0.660147 0.117900
O O11 0.138239 0.799455 0.996249
O O12 0.133838 0.587109 0.962898
O O13 0.250000 0.426404 0.453885
O O14 0.250000 0.522408 0.878904
O O15 0.356817 0.640046 0.812625
O O16 0.381626 0.435411 0.843806
O O17 0.750000 0.340334 0.210445
O O18 0.623821 0.255223 0.261660
O O19 0.002340 0.148334 0.272771
#
# Coordination Sequence:
#
# PCOD9363341 Si02
#       8
#     8   8   8   8   8   8   8   8
#     4  12  24  40  59  84 121 163 199 242 302 362
#     4   9  19  35  60  88 115 147 195 249 294 343
#     4   9  19  35  57  85 117 150 191 238 289 350
#     4  11  21  37  60  88 118 154 199 244 292 355
#     4  10  19  34  60  90 117 149 193 246 295 345
#     4  11  22  38  60  86 116 156 199 244 295 357
#     4  10  21  38  59  86 123 153 198 246 299 352
#     4  10  19  36  60  87 118 152 196 246 294 352
#
# _framework density 17.898374
#
# number of rings (size 3 to 8) (size 9 to 14) (size 15 to 20)
#    0.000    1.750    3.750    2.250    0.000    2.500 
#    0.000    2.500    2.750    1.500    0.000    0.000 
#    0.000    0.000    0.000    0.000    0.000    0.000 
#
# Total GULP energy -178614.638727 kJ/mol
# GULP energy per Si atom -5581.707460 kJ/mol
# Density = 1.785764 g / cm^3
# Si number density = 17.898374 Si / 1000 Ang^3
#
#
#
# Elastic Constant Matrix: (Units=GPa)
#
#
# Indices 1 2 3 4 5 6 
#
# 1 28.2113 8.0020 3.7491 0.0000 0.0000 0.0000
# 2 8.0020 113.4503 39.9573 0.0000 0.0000 0.0000
# 3 3.7491 39.9573 75.9615 0.0000 0.0000 0.0000
# 4 0.0000 0.0000 0.0000 30.3805 0.0000 0.0000
# 5 0.0000 0.0000 0.0000 0.0000 24.8830 0.0000
# 6 0.0000 0.0000 0.0000 0.0000 0.0000 26.2982
#
#
#
# Elastic Compliance Matrix: (Units=1/GPa)
#
#
# Indices 1 2 3 4 5 6 
#
# 1 0.036189 -0.002361 -0.000544 0.000000 0.000000 0.000000
# 2 -0.002361 0.010973 -0.005655 0.000000 0.000000 0.000000
# 3 -0.000544 -0.005655 0.016166 0.000000 0.000000 0.000000
# 4 0.000000 0.000000 0.000000 0.032916 0.000000 0.000000
# 5 0.000000 0.000000 0.000000 0.000000 0.040188 0.000000
# 6 0.000000 0.000000 0.000000 0.000000 0.000000 0.038025
#
#
# Mechanical properties :
#
#
# Convention : Reuss Voigt Hill
#
# Bulk Modulus (GPa) = 21.64183 35.67111 28.65647
# Shear Modulus (GPa) = 24.15690 27.37334 25.76512
#
# Velocity S-wave (km/s) = 3.67777 3.91497 3.79822
# Velocity P-wave (km/s) = 5.49112 6.35681 5.93976
#
# Compressibility (1/GPa) = 0.04620681
#
# Stress axis : x y z
#
# Youngs Moduli (GPa) = 27.63294 91.13463 61.85717
#
# Poissons Ratio (x) = 0.21515 0.03367
# Poissons Ratio (y) = 0.06524 0.34983
# Poissons Ratio (z) = 0.01504 0.51540
#
# Static dielectric constant tensor:
#      x y z
#    x 1.606220 0.000000 0.000000 
#    y 0.000000 1.608560 0.000000 
#    z 0.000000 0.000000 1.605270 
# 
# From -- ./inp_files/17881.got.cif
#   From: 2010.05.17/outbox.cif.g08.bks.cpg/sg40_9_cif.got.tgz:17881.got - 2010.06.03 18:35:42.
