data_PCOD9363259
_publ_section_title
;
Structure prediction by ZEFSAII (Michael W. Deem and Ramdas Pophale) SiO2 
 PCOD9363259
Probable space group: A M A 2
;
_chemical_formula_sum "Si O2"
_cell_formula_units_Z 48
_cell_length_a 8.546500
_cell_length_b 30.770248
_cell_length_c 10.322372
_cell_angle_alpha 90.000000
_cell_angle_beta 90.000000
_cell_angle_gamma 90.000000
_cell_volume 2714.555965
_symmetry_space_group_name_H-M "A M A 2"
_symmetry_group_IT_number 40
_symmetry_cell_setting 'orthorhombic'
loop_
_space_group_symop_operation_xyz
x,y,z
-x,-y,z
1/2-x,y,z
1/2+x,-y,z
x,1/2+y,1/2+z
-x,1/2-y,1/2+z
1/2-x,1/2+y,1/2+z
1/2+x,1/2-y,1/2+z
loop_
_atom_site_type_symbol
_atom_site_label
_atom_site_fract_x
_atom_site_fract_y
_atom_site_fract_z
Si Si1 0.063773 0.952028 0.062490
Si Si2 0.562205 0.712937 0.356425
Si Si3 0.059962 0.117782 0.560375
Si Si4 0.938279 0.451790 0.848614
Si Si5 0.560615 0.283030 0.071049
Si Si6 0.437719 0.616260 0.356348
O O1 0.250000 0.953913 0.070419
O O2 0.996532 0.940760 0.204385
O O3 0.000000 0.000000 0.029275
O O4 0.010600 0.917214 0.956890
O O5 0.750000 0.709616 0.358139
O O6 0.507193 0.726411 0.212947
O O7 0.513394 0.748118 0.463639
O O8 0.490194 0.665603 0.383780
O O9 0.250000 0.117188 0.557964
O O10 0.006310 0.083411 0.453739
O O11 0.012246 0.167660 0.534861
O O12 0.013061 0.106640 0.707624
O O13 0.750000 0.452732 0.847826
O O14 0.000000 0.500000 0.879665
O O15 0.750000 0.282749 0.080301
O O16 0.250000 0.613733 0.363052
#
# Coordination Sequence:
#
# PCOD9363259 Si02
#       6
#     8   8   8   8   8   8
#     4  11  22  37  55  79 108 139 177 218 261 312
#     4  10  20  34  54  81 108 137 178 223 265 315
#     4   8  17  34  55  76 101 136 176 216 261 314
#     4  10  19  34  54  77 105 138 175 216 264 314
#     4   9  19  36  54  75 106 140 176 219 266 316
#     4  10  20  37  57  78 107 142 176 216 267 317
#
# _framework density 17.682449999999999
#
# number of rings (size 3 to 8) (size 9 to 14) (size 15 to 20)
#    0.000    2.333    0.000    5.000    0.000    3.333 
#    0.000   11.667    0.000    0.000    0.000    0.000 
#    0.000    0.000    0.000    0.000    0.000    0.000 
#
# Total GULP energy -133934.198487 kJ/mol
# GULP energy per Si atom -5580.591604 kJ/mol
# Density = 1.764220 g / cm^3
# Si number density = 17.682450 Si / 1000 Ang^3
#
#
#
# Elastic Constant Matrix: (Units=GPa)
#
#
# Indices 1 2 3 4 5 6 
#
# 1 65.7632 39.4969 41.2347 0.0000 0.0000 0.0000
# 2 39.4969 129.7452 130.7981 0.0000 0.0000 0.0000
# 3 41.2347 130.7981 150.1587 0.0000 0.0000 0.0000
# 4 0.0000 0.0000 0.0000 44.4494 0.0000 0.0000
# 5 0.0000 0.0000 0.0000 0.0000 23.7906 0.0000
# 6 0.0000 0.0000 0.0000 0.0000 0.0000 29.9496
#
#
#
# Elastic Compliance Matrix: (Units=1/GPa)
#
#
# Indices 1 2 3 4 5 6 
#
# 1 0.018646 -0.004220 -0.001444 0.000000 0.000000 0.000000
# 2 -0.004220 0.064201 -0.054764 0.000000 0.000000 0.000000
# 3 -0.001444 -0.054764 0.054759 0.000000 0.000000 0.000000
# 4 0.000000 0.000000 0.000000 0.022497 0.000000 0.000000
# 5 0.000000 0.000000 0.000000 0.000000 0.042033 0.000000
# 6 0.000000 0.000000 0.000000 0.000000 0.000000 0.033389
#
#
# Mechanical properties :
#
#
# Convention : Reuss Voigt Hill
#
# Bulk Modulus (GPa) = 59.70491 85.41406 72.55948
# Shear Modulus (GPa) = 13.81339 28.58040 21.19690
#
# Velocity S-wave (km/s) = 2.79801 4.02470 3.46606
# Velocity P-wave (km/s) = 6.65409 8.36701 7.55923
#
# Compressibility (1/GPa) = 0.01674904
#
# Stress axis : x y z
#
# Youngs Moduli (GPa) = 53.62981 15.57613 18.26169
#
# Poissons Ratio (x) = 0.06574 0.02637
# Poissons Ratio (y) = 0.22634 1.00009
# Poissons Ratio (z) = 0.07745 0.85301
#
# Static dielectric constant tensor:
#      x y z
#    x 1.602550 0.000000 0.000000 
#    y 0.000000 1.584840 0.000000 
#    z 0.000000 0.000000 1.584160 
# 
# From -- ./inp_files/10269.got.cif
#   From: 2010.05.17/outbox.cif.g08.bks.cpg/sg40_6_cif.got.tgz:10269.got - 2010.06.03 18:35:42.
