data_PCOD9363696
_publ_section_title
;
Structure prediction by ZEFSAII (Michael W. Deem and Ramdas Pophale) SiO2 
 PCOD9363696
Probable space group: A M A 2
;
_chemical_formula_sum "Si O2"
_cell_formula_units_Z 64
_cell_length_a 21.338793
_cell_length_b 19.193155
_cell_length_c 8.912100
_cell_angle_alpha 90.000000
_cell_angle_beta 90.000000
_cell_angle_gamma 90.000000
_cell_volume 3650.028639
_symmetry_space_group_name_H-M "A M A 2"
_symmetry_group_IT_number 40
_symmetry_cell_setting 'orthorhombic'
loop_
_space_group_symop_operation_xyz
x,y,z
-x,-y,z
1/2-x,y,z
1/2+x,-y,z
x,1/2+y,1/2+z
-x,1/2-y,1/2+z
1/2-x,1/2+y,1/2+z
1/2+x,1/2-y,1/2+z
loop_
_atom_site_type_symbol
_atom_site_label
_atom_site_fract_x
_atom_site_fract_y
_atom_site_fract_z
Si Si1 0.063731 0.233073 0.431390
Si Si2 0.178494 0.470120 0.238894
Si Si3 0.824597 0.658108 0.460641
Si Si4 0.474504 0.100189 0.608574
Si Si5 0.419561 0.060167 0.914061
Si Si6 0.591434 0.536482 0.981960
Si Si7 0.968351 0.828626 0.106743
Si Si8 0.082818 0.432989 0.641722
O O1 0.128776 0.276178 0.440830
O O2 0.060074 0.168648 0.548392
O O3 0.052882 0.208502 0.259882
O O4 0.005118 0.279639 0.488926
O O5 0.250000 0.489060 0.251959
O O6 0.168986 0.396203 0.322426
O O7 0.138100 0.531157 0.316485
O O8 0.156115 0.460770 0.069527
O O9 0.750000 0.672779 0.481286
O O10 0.857638 0.613217 0.592210
O O11 0.469976 0.083097 0.786122
O O12 0.545852 0.096407 0.550102
O O13 0.440873 0.035569 0.528756
O O14 0.414762 0.127457 0.020941
O O15 0.430458 0.994111 0.022544
O O16 0.595276 0.538411 0.805611
O O17 0.021444 0.885069 0.149967
#
# Coordination Sequence:
#
# PCOD9363696 Si02
#       8
#     8   8   8   8   8   8   8   8
#     4  11  22  36  54  81 121 151 190 239 283 357
#     4   9  20  38  59  83 110 149 197 237 282 339
#     4   9  21  39  58  79 110 157 196 227 278 346
#     4  10  21  34  53  87 119 143 180 230 295 349
#     4  10  21  35  58  80 114 149 183 234 294 339
#     4  10  20  33  57  87 115 141 180 244 289 337
#     4  11  22  32  52  82 113 150 184 235 298 343
#     4  10  20  33  57  86 112 140 190 241 287 339
#
# _framework density 17.534109000000001
#
# number of rings (size 3 to 8) (size 9 to 14) (size 15 to 20)
#    0.000    2.000    1.250    1.875   14.000    0.500 
#    0.000    3.125    0.000    1.500    0.000    0.000 
#    0.000    0.000    0.000    0.000    0.000    0.000 
#
# Total GULP energy -178300.157568 kJ/mol
# GULP energy per Si atom -5571.879924 kJ/mol
# Density = 1.749420 g / cm^3
# Si number density = 17.534109 Si / 1000 Ang^3
#
#
#
# Elastic Constant Matrix: (Units=GPa)
#
#
# Indices 1 2 3 4 5 6 
#
# 1 77.8942 44.1278 39.2797 0.0000 0.0000 0.0000
# 2 44.1278 88.5415 48.3415 0.0000 0.0000 0.0000
# 3 39.2797 48.3415 142.0321 0.0000 0.0000 0.0000
# 4 0.0000 0.0000 0.0000 25.5491 0.0000 0.0000
# 5 0.0000 0.0000 0.0000 0.0000 13.7712 0.0000
# 6 0.0000 0.0000 0.0000 0.0000 0.0000 21.3886
#
#
#
# Elastic Compliance Matrix: (Units=1/GPa)
#
#
# Indices 1 2 3 4 5 6 
#
# 1 0.018550 -0.007915 -0.002436 0.000000 0.000000 0.000000
# 2 -0.007915 0.017249 -0.003682 0.000000 0.000000 0.000000
# 3 -0.002436 -0.003682 0.008968 0.000000 0.000000 0.000000
# 4 0.000000 0.000000 0.000000 0.039140 0.000000 0.000000
# 5 0.000000 0.000000 0.000000 0.000000 0.072616 0.000000
# 6 0.000000 0.000000 0.000000 0.000000 0.000000 0.046754
#
#
# Mechanical properties :
#
#
# Convention : Reuss Voigt Hill
#
# Bulk Modulus (GPa) = 59.87801 63.55175 61.71488
# Shear Modulus (GPa) = 21.10503 23.92302 22.51402
#
# Velocity S-wave (km/s) = 3.47314 3.69775 3.58720
# Velocity P-wave (km/s) = 7.09275 7.38610 7.24091
#
# Compressibility (1/GPa) = 0.01670062
#
# Stress axis : x y z
#
# Youngs Moduli (GPa) = 53.90707 57.97386 111.51295
#
# Poissons Ratio (x) = 0.45887 0.27167
# Poissons Ratio (y) = 0.42668 0.41058
# Poissons Ratio (z) = 0.13133 0.21345
#
# Static dielectric constant tensor:
#      x y z
#    x 1.600630 0.000000 0.000000 
#    y 0.000000 1.626030 0.000000 
#    z 0.000000 0.000000 1.609570 
# 
# From -- ./inp_files/8451.got.cif
#   From: 2010.05.17/outbox.cif.g08.bks.cpg/sg40_5_cif.got.tgz:8451.got - 2010.06.03 18:35:42.
