data_PCOD9363443
_publ_section_title
;
Structure prediction by ZEFSAII (Michael W. Deem and Ramdas Pophale) SiO2 
 PCOD9363443
Probable space group: A M A 2
;
_chemical_formula_sum "Si O2"
_cell_formula_units_Z 64
_cell_length_a 7.536693
_cell_length_b 31.586783
_cell_length_c 12.383794
_cell_angle_alpha 90.000000
_cell_angle_beta 90.000000
_cell_angle_gamma 90.000000
_cell_volume 2948.084592
_symmetry_space_group_name_H-M "A M A 2"
_symmetry_group_IT_number 40
_symmetry_cell_setting 'orthorhombic'
loop_
_space_group_symop_operation_xyz
x,y,z
-x,-y,z
1/2-x,y,z
1/2+x,-y,z
x,1/2+y,1/2+z
-x,1/2-y,1/2+z
1/2-x,1/2+y,1/2+z
1/2+x,1/2-y,1/2+z
loop_
_atom_site_type_symbol
_atom_site_label
_atom_site_fract_x
_atom_site_fract_y
_atom_site_fract_z
Si Si1 0.037124 0.546929 0.312480
Si Si2 0.962518 0.453656 0.785435
Si Si3 0.953030 0.436621 0.550045
Si Si4 0.036720 0.125389 0.668989
Si Si5 0.458580 0.840055 0.041801
Si Si6 0.035160 0.703063 0.767781
Si Si7 0.461959 0.796696 0.823647
Si Si8 0.967261 0.372984 0.922392
O O1 0.250000 0.552300 0.319225
O O2 0.965742 0.550332 0.435276
O O3 0.969881 0.585185 0.238045
O O4 0.000000 0.500000 0.269716
O O5 0.750000 0.448398 0.777774
O O6 0.035668 0.451322 0.662981
O O7 0.026651 0.414721 0.857653
O O8 0.000000 0.500000 0.831383
O O9 0.750000 0.452368 0.549042
O O10 0.952282 0.385674 0.553515
O O11 0.250000 0.121543 0.664019
O O12 0.972095 0.126429 0.546035
O O13 0.996219 0.168471 0.732286
O O14 0.250000 0.848633 0.025026
O O15 0.480381 0.813129 0.150069
O O16 0.528953 0.815201 0.937342
O O17 0.250000 0.703431 0.768723
O O18 0.969842 0.750228 0.793663
O O19 0.977372 0.668681 0.856634
O O20 0.250000 0.792346 0.835602
O O21 0.750000 0.373043 0.923169
#
# Coordination Sequence:
#
# PCOD9363443 Si02
#       8
#     8   8   8   8   8   8   8   8
#     4  10  21  35  55  84 113 148 192 235 284 340
#     4  10  20  35  56  81 111 146 187 231 282 337
#     4  10  19  36  58  82 113 152 190 226 283 345
#     4  10  21  38  61  84 111 151 197 234 277 342
#     4  11  22  36  59  90 118 144 186 238 285 329
#     4  10  21  40  61  81 114 155 189 226 283 345
#     4  10  23  39  58  87 118 149 186 234 289 333
#     4   9  19  37  60  81 108 150 192 230 275 336
#
# _framework density 21.709011
#
# number of rings (size 3 to 8) (size 9 to 14) (size 15 to 20)
#    0.000    2.000    2.500    0.750    1.750    3.000 
#    0.000    1.250    0.000    0.000    0.000    0.000 
#    0.000    0.000    0.000    0.000    0.000    0.000 
#
# Total GULP energy -178844.333922 kJ/mol
# GULP energy per Si atom -5588.885435 kJ/mol
# Density = 2.165960 g / cm^3
# Si number density = 21.709011 Si / 1000 Ang^3
#
#
#
# Elastic Constant Matrix: (Units=GPa)
#
#
# Indices 1 2 3 4 5 6 
#
# 1 57.0737 -8.7830 -0.3406 0.0000 0.0000 0.0000
# 2 -8.7830 197.0599 87.3009 0.0000 0.0000 0.0000
# 3 -0.3406 87.3009 160.1112 0.0000 0.0000 0.0000
# 4 0.0000 0.0000 0.0000 57.2137 0.0000 0.0000
# 5 0.0000 0.0000 0.0000 0.0000 -9.8380 0.0000
# 6 0.0000 0.0000 0.0000 0.0000 0.0000 16.0971
#
#
#
# Elastic Compliance Matrix: (Units=1/GPa)
#
#
# Indices 1 2 3 4 5 6 
#
# 1 0.017675 0.001017 -0.000517 0.000000 0.000000 0.000000
# 2 0.001017 0.006749 -0.003678 0.000000 0.000000 0.000000
# 3 -0.000517 -0.003678 0.008250 0.000000 0.000000 0.000000
# 4 0.000000 0.000000 0.000000 0.017478 0.000000 0.000000
# 5 0.000000 0.000000 0.000000 0.000000 -0.101646 0.000000
# 6 0.000000 0.000000 0.000000 0.000000 0.000000 0.062123
#
#
# Mechanical properties :
#
#
# Convention : Reuss Voigt Hill
#
# Bulk Modulus (GPa) = 37.99699 63.39995 50.69847
# Shear Modulus (GPa) = 194.11933 35.09905 114.60919
#
# Velocity S-wave (km/s) = 9.46641 4.02530 7.27379
# Velocity P-wave (km/s) = 11.70576 7.13246 9.69269
#
# Compressibility (1/GPa) = 0.02631787
#
# Stress axis : x y z
#
# Youngs Moduli (GPa) = 56.57847 148.16389 121.21304
#
# Poissons Ratio (x) = -0.15064 0.06264
# Poissons Ratio (y) = -0.05752 0.44581
# Poissons Ratio (z) = 0.02924 0.54493
#
# Static dielectric constant tensor:
#      x y z
#    x 1.820820 0.000000 0.000000 
#    y 0.000000 1.755010 0.000000 
#    z 0.000000 0.000000 1.767650 
# 
# From -- ./inp_files/10584.got.cif
#   From: 2010.05.17/outbox.cif.g08.bks.cpg/sg40_6_cif.got.tgz:10584.got - 2010.06.03 18:35:42.
