data_PCOD9363291
_publ_section_title
;
Structure prediction by ZEFSAII (Michael W. Deem and Ramdas Pophale) SiO2 
 PCOD9363291
Probable space group: A M A 2
;
_chemical_formula_sum "Si O2"
_cell_formula_units_Z 48
_cell_length_a 14.667163
_cell_length_b 16.592672
_cell_length_c 9.683389
_cell_angle_alpha 90.000000
_cell_angle_beta 90.000000
_cell_angle_gamma 90.000000
_cell_volume 2356.621445
_symmetry_space_group_name_H-M "A M A 2"
_symmetry_group_IT_number 40
_symmetry_cell_setting 'orthorhombic'
loop_
_space_group_symop_operation_xyz
x,y,z
-x,-y,z
1/2-x,y,z
1/2+x,-y,z
x,1/2+y,1/2+z
-x,1/2-y,1/2+z
1/2-x,1/2+y,1/2+z
1/2+x,1/2-y,1/2+z
loop_
_atom_site_type_symbol
_atom_site_label
_atom_site_fract_x
_atom_site_fract_y
_atom_site_fract_z
Si Si1 0.060131 0.335201 0.702310
Si Si2 0.077209 0.569466 0.541521
Si Si3 0.850024 0.514714 0.795832
Si Si4 0.856043 0.369231 0.002723
Si Si5 0.353550 0.311108 0.412410
Si Si6 0.457784 0.655784 0.279576
O O1 0.079947 0.412165 0.795726
O O2 0.130956 0.334730 0.573482
O O3 0.063604 0.251283 0.780540
O O4 0.965950 0.354605 0.624081
O O5 0.146541 0.527741 0.645433
O O6 0.098523 0.604377 0.391825
O O7 0.000000 0.500000 0.524096
O O8 0.750000 0.548614 0.821147
O O9 0.868537 0.445717 0.905897
O O10 0.750000 0.368781 0.053071
O O11 0.927341 0.370035 0.127586
O O12 0.866069 0.285886 0.917524
O O13 0.250000 0.330491 0.370003
O O14 0.435353 0.349914 0.323132
#
# Coordination Sequence:
#
# PCOD9363291 Si02
#       6
#     8   8   8   8   8   8
#     4   9  18  33  55  82 110 146 190 233 279 335
#     4   9  19  35  53  80 110 144 189 230 276 336
#     4  10  19  34  56  81 110 150 193 232 277 340
#     4   9  19  34  54  82 117 150 183 231 293 343
#     4   9  17  32  55  83 113 149 189 232 283 342
#     4  10  19  34  57  86 115 149 190 238 289 336
#
# _framework density 20.368141999999999
#
# number of rings (size 3 to 8) (size 9 to 14) (size 15 to 20)
#    0.000    2.667    0.000    1.500    0.000    1.333 
#    0.000    7.500    0.000    6.000    0.000   42.000 
#    0.000    0.000    0.000    0.000    0.000    0.000 
#
# Total GULP energy -133810.575179 kJ/mol
# GULP energy per Si atom -5575.440632 kJ/mol
# Density = 2.032178 g / cm^3
# Si number density = 20.368142 Si / 1000 Ang^3
#
#
#
# Elastic Constant Matrix: (Units=GPa)
#
#
# Indices 1 2 3 4 5 6 
#
# 1 80.3325 0.3091 42.0132 0.0000 0.0000 0.0000
# 2 0.3091 60.2667 22.0889 0.0000 0.0000 0.0000
# 3 42.0132 22.0889 57.3143 0.0000 0.0000 0.0000
# 4 0.0000 0.0000 0.0000 34.1209 0.0000 0.0000
# 5 0.0000 0.0000 0.0000 0.0000 27.0083 0.0000
# 6 0.0000 0.0000 0.0000 0.0000 0.0000 15.7644
#
#
#
# Elastic Compliance Matrix: (Units=1/GPa)
#
#
# Indices 1 2 3 4 5 6 
#
# 1 0.022391 0.006872 -0.019061 0.000000 0.000000 0.000000
# 2 0.006872 0.021431 -0.013297 0.000000 0.000000 0.000000
# 3 -0.019061 -0.013297 0.036545 0.000000 0.000000 0.000000
# 4 0.000000 0.000000 0.000000 0.029308 0.000000 0.000000
# 5 0.000000 0.000000 0.000000 0.000000 0.037026 0.000000
# 6 0.000000 0.000000 0.000000 0.000000 0.000000 0.063434
#
#
# Mechanical properties :
#
#
# Convention : Reuss Voigt Hill
#
# Bulk Modulus (GPa) = 34.02089 36.30399 35.16244
# Shear Modulus (GPa) = 18.45664 24.27886 21.36775
#
# Velocity S-wave (km/s) = 3.01350 3.45628 3.24246
# Velocity P-wave (km/s) = 5.37099 5.81296 5.59634
#
# Compressibility (1/GPa) = 0.02939370
#
# Stress axis : x y z
#
# Youngs Moduli (GPa) = 44.66118 46.66105 27.36363
#
# Poissons Ratio (x) = -0.32063 0.52159
# Poissons Ratio (y) = -0.30689 0.36384
# Poissons Ratio (z) = 0.85131 0.62044
#
# Static dielectric constant tensor:
#      x y z
#    x 1.765770 0.000000 0.000000 
#    y 0.000000 1.724050 0.000000 
#    z 0.000000 0.000000 1.734400 
# 
# From -- ./inp_files/6435.got.cif
#   From: 2010.05.17/outbox.cif.g08.bks.cpg/sg40_4_cif.got.tgz:6435.got - 2010.06.03 18:35:42.
