data_PCOD9363689
_publ_section_title
;
Structure prediction by ZEFSAII (Michael W. Deem and Ramdas Pophale) SiO2 
 PCOD9363689
Probable space group: A M A 2
;
_chemical_formula_sum "Si O2"
_cell_formula_units_Z 56
_cell_length_a 8.950434
_cell_length_b 14.380677
_cell_length_c 23.115761
_cell_angle_alpha 90.000000
_cell_angle_beta 90.000000
_cell_angle_gamma 90.000000
_cell_volume 2975.305889
_symmetry_space_group_name_H-M "A M A 2"
_symmetry_group_IT_number 40
_symmetry_cell_setting 'orthorhombic'
loop_
_space_group_symop_operation_xyz
x,y,z
-x,-y,z
1/2-x,y,z
1/2+x,-y,z
x,1/2+y,1/2+z
-x,1/2-y,1/2+z
1/2-x,1/2+y,1/2+z
1/2+x,1/2-y,1/2+z
loop_
_atom_site_type_symbol
_atom_site_label
_atom_site_fract_x
_atom_site_fract_y
_atom_site_fract_z
Si Si1 0.081545 0.639768 0.185020
Si Si2 0.080666 0.355646 0.647349
Si Si3 0.571155 0.301059 0.533033
Si Si4 0.571269 0.102340 0.922103
Si Si5 0.926183 0.092830 0.569941
Si Si6 0.569283 0.801151 0.811014
Si Si7 0.930170 0.093081 0.273284
O O1 0.250000 0.600349 0.180343
O O2 0.092149 0.747923 0.166717
O O3 0.033300 0.642904 0.251752
O O4 0.973006 0.597975 0.137407
O O5 0.250000 0.388414 0.634588
O O6 0.021126 0.401721 0.705870
O O7 0.979937 0.356535 0.590572
O O8 0.750000 0.306398 0.526551
O O9 0.488702 0.343006 0.478055
O O10 0.528716 0.192172 0.542496
O O11 0.750000 0.096521 0.922733
O O12 0.513222 0.155258 0.865181
O O13 0.500000 0.000000 0.922554
O O14 0.750000 0.085273 0.564791
O O15 0.000000 0.000000 0.544660
O O16 0.750000 0.806059 0.817778
O O17 0.530068 0.692118 0.801893
O O18 0.750000 0.087494 0.273484
O O19 0.000000 0.000000 0.299682
#
# Coordination Sequence:
#
# PCOD9363689 Si02
#       7
#     8   8   8   8   8   8   8
#     4   8  15  30  53  77 106 144 182 221 268 318
#     4   8  15  30  51  77 109 146 183 220 266 318
#     4  10  21  38  58  82 112 146 185 232 278 323
#     4  12  26  43  63  83 104 138 182 230 280 331
#     4  10  20  33  54  84 117 150 184 224 272 326
#     4   9  19  38  59  81 112 148 186 231 276 321
#     4   9  18  32  54  84 118 152 184 222 271 325
#
# _framework density 18.821594999999999
#
# number of rings (size 3 to 8) (size 9 to 14) (size 15 to 20)
#    0.000    2.571    0.000    3.857    0.000    4.571 
#    0.000    5.000    0.000    0.000    0.000    0.000 
#    0.000    0.000    0.000    0.000    0.000    0.000 
#
# Total GULP energy -156145.325085 kJ/mol
# GULP energy per Si atom -5576.618753 kJ/mol
# Density = 1.877876 g / cm^3
# Si number density = 18.821595 Si / 1000 Ang^3
#
#
#
# Elastic Constant Matrix: (Units=GPa)
#
#
# Indices 1 2 3 4 5 6 
#
# 1 67.8071 53.8774 60.7406 0.0000 0.0000 0.0000
# 2 53.8774 125.6017 59.8594 0.0000 0.0000 0.0000
# 3 60.7406 59.8594 128.2796 0.0000 0.0000 0.0000
# 4 0.0000 0.0000 0.0000 17.0089 0.0000 0.0000
# 5 0.0000 0.0000 0.0000 0.0000 30.1562 0.0000
# 6 0.0000 0.0000 0.0000 0.0000 0.0000 24.5105
#
#
#
# Elastic Compliance Matrix: (Units=1/GPa)
#
#
# Indices 1 2 3 4 5 6 
#
# 1 0.030892 -0.008076 -0.010859 0.000000 0.000000 0.000000
# 2 -0.008076 0.012350 -0.001939 0.000000 0.000000 0.000000
# 3 -0.010859 -0.001939 0.013842 0.000000 0.000000 0.000000
# 4 0.000000 0.000000 0.000000 0.058793 0.000000 0.000000
# 5 0.000000 0.000000 0.000000 0.000000 0.033161 0.000000
# 6 0.000000 0.000000 0.000000 0.000000 0.000000 0.040799
#
#
# Mechanical properties :
#
#
# Convention : Reuss Voigt Hill
#
# Bulk Modulus (GPa) = 65.20507 74.51590 69.86049
# Shear Modulus (GPa) = 21.12416 24.14916 22.63666
#
# Velocity S-wave (km/s) = 3.35376 3.58586 3.47175
# Velocity P-wave (km/s) = 7.05095 7.53798 7.29853
#
# Compressibility (1/GPa) = 0.01533623
#
# Stress axis : x y z
#
# Youngs Moduli (GPa) = 32.37094 80.97178 72.24469
#
# Poissons Ratio (x) = 0.65394 0.78449
# Poissons Ratio (y) = 0.26143 0.14007
# Poissons Ratio (z) = 0.35151 0.15699
#
# Static dielectric constant tensor:
#      x y z
#    x 1.639650 0.000000 0.000000 
#    y 0.000000 1.687060 0.000000 
#    z 0.000000 0.000000 1.637520 
# 
# From -- ./inp_files/22197.got.cif
#   From: 2010.05.17/outbox.cif.g08.bks.cpg/sg40_12_cif.got.tgz:22197.got - 2010.06.03 18:35:42.
