data_PCOD9363379
_publ_section_title
;
Structure prediction by ZEFSAII (Michael W. Deem and Ramdas Pophale) SiO2 
 PCOD9363379
Probable space group: A M A 2
;
_chemical_formula_sum "Si O2"
_cell_formula_units_Z 64
_cell_length_a 8.839374
_cell_length_b 19.956512
_cell_length_c 20.823062
_cell_angle_alpha 90.000000
_cell_angle_beta 90.000000
_cell_angle_gamma 90.000000
_cell_volume 3673.252132
_symmetry_space_group_name_H-M "A M A 2"
_symmetry_group_IT_number 40
_symmetry_cell_setting 'orthorhombic'
loop_
_space_group_symop_operation_xyz
x,y,z
-x,-y,z
1/2-x,y,z
1/2+x,-y,z
x,1/2+y,1/2+z
-x,1/2-y,1/2+z
1/2-x,1/2+y,1/2+z
1/2+x,1/2-y,1/2+z
loop_
_atom_site_type_symbol
_atom_site_label
_atom_site_fract_x
_atom_site_fract_y
_atom_site_fract_z
Si Si1 0.931810 0.286919 0.055620
Si Si2 0.069075 0.570119 0.110009
Si Si3 0.069254 0.291913 0.304160
Si Si4 0.431422 0.571123 0.261892
Si Si5 0.571684 0.428551 0.882527
Si Si6 0.929752 0.710265 0.922142
Si Si7 0.071608 0.571476 0.727786
Si Si8 0.930581 0.208653 0.186573
O O1 0.750000 0.287029 0.045174
O O2 0.979266 0.362992 0.073366
O O3 0.962903 0.240701 0.117247
O O4 0.015974 0.265010 0.991588
O O5 0.250000 0.565620 0.105318
O O6 0.031864 0.578691 0.185712
O O7 0.000000 0.500000 0.087310
O O8 0.250000 0.292162 0.305453
O O9 0.004011 0.366684 0.298597
O O10 0.005352 0.253721 0.366039
O O11 0.011469 0.252002 0.241541
O O12 0.500000 0.500000 0.282438
O O13 0.250000 0.571616 0.268158
O O14 0.500000 0.500000 0.900410
O O15 0.750000 0.427403 0.897784
O O16 0.489162 0.365798 0.914171
O O17 0.554718 0.420833 0.805171
O O18 0.750000 0.712121 0.915729
O O19 0.250000 0.572653 0.713768
O O20 0.000000 0.500000 0.710466
O O21 0.988087 0.633019 0.694118
O O22 0.750000 0.212200 0.197052
#
# Coordination Sequence:
#
# PCOD9363379 Si02
#       8
#     8   8   8   8   8   8   8   8
#     4  10  22  40  57  79 115 155 192 235 287 341
#     4   9  18  33  53  79 112 151 189 228 274 329
#     4  12  23  37  59  86 115 152 193 239 286 338
#     4  10  19  35  57  87 118 149 188 235 286 339
#     4  10  20  35  55  81 114 153 192 234 280 337
#     4  12  25  39  57  82 114 154 195 240 288 342
#     4  10  20  34  56  86 117 149 187 235 284 339
#     4  11  21  37  61  86 115 151 190 238 288 338
#
# _framework density 17.423252999999999
#
# number of rings (size 3 to 8) (size 9 to 14) (size 15 to 20)
#    0.000    1.500    2.500    3.750    0.000    3.500 
#    0.000    1.250    0.000    0.750    0.000    1.750 
#    0.000    0.000    0.000    0.000    0.000    0.000 
#
# Total GULP energy -178848.297258 kJ/mol
# GULP energy per Si atom -5589.009289 kJ/mol
# Density = 1.738360 g / cm^3
# Si number density = 17.423253 Si / 1000 Ang^3
#
#
#
# Elastic Constant Matrix: (Units=GPa)
#
#
# Indices 1 2 3 4 5 6 
#
# 1 111.5714 61.5050 63.2474 0.0000 0.0000 0.0000
# 2 61.5050 128.6475 57.6220 0.0000 0.0000 0.0000
# 3 63.2474 57.6220 88.1620 0.0000 0.0000 0.0000
# 4 0.0000 0.0000 0.0000 16.1984 0.0000 0.0000
# 5 0.0000 0.0000 0.0000 0.0000 12.5156 0.0000
# 6 0.0000 0.0000 0.0000 0.0000 0.0000 32.1025
#
#
#
# Elastic Compliance Matrix: (Units=1/GPa)
#
#
# Indices 1 2 3 4 5 6 
#
# 1 0.016200 -0.003591 -0.009275 0.000000 0.000000 0.000000
# 2 -0.003591 0.011787 -0.005128 0.000000 0.000000 0.000000
# 3 -0.009275 -0.005128 0.021348 0.000000 0.000000 0.000000
# 4 0.000000 0.000000 0.000000 0.061734 0.000000 0.000000
# 5 0.000000 0.000000 0.000000 0.000000 0.079900 0.000000
# 6 0.000000 0.000000 0.000000 0.000000 0.000000 0.031150
#
#
# Mechanical properties :
#
#
# Convention : Reuss Voigt Hill
#
# Bulk Modulus (GPa) = 74.91824 77.01440 75.96632
# Shear Modulus (GPa) = 19.04358 21.89709 20.47033
#
# Velocity S-wave (km/s) = 3.30964 3.54895 3.43138
# Velocity P-wave (km/s) = 7.59587 7.81610 7.70677
#
# Compressibility (1/GPa) = 0.01334788
#
# Stress axis : x y z
#
# Youngs Moduli (GPa) = 61.72777 84.84240 46.84260
#
# Poissons Ratio (x) = 0.30465 0.43447
# Poissons Ratio (y) = 0.22165 0.24019
# Poissons Ratio (z) = 0.57253 0.43504
#
# Static dielectric constant tensor:
#      x y z
#    x 1.578110 0.000000 0.000000 
#    y 0.000000 1.582050 0.000000 
#    z 0.000000 0.000000 1.585360 
# 
# From -- ./inp_files/22441.got.cif
#   From: 2010.05.17/outbox.cif.g08.bks.cpg/sg40_12_cif.got.tgz:22441.got - 2010.06.03 18:35:42.
