data_PCOD9363604
_publ_section_title
;
Structure prediction by ZEFSAII (Michael W. Deem and Ramdas Pophale) SiO2 
 PCOD9363604
Probable space group: A M A 2
;
_chemical_formula_sum "Si O2"
_cell_formula_units_Z 64
_cell_length_a 8.259058
_cell_length_b 14.870727
_cell_length_c 29.210196
_cell_angle_alpha 90.000000
_cell_angle_beta 90.000000
_cell_angle_gamma 90.000000
_cell_volume 3587.543601
_symmetry_space_group_name_H-M "A M A 2"
_symmetry_group_IT_number 40
_symmetry_cell_setting 'orthorhombic'
loop_
_space_group_symop_operation_xyz
x,y,z
-x,-y,z
1/2-x,y,z
1/2+x,-y,z
x,1/2+y,1/2+z
-x,1/2-y,1/2+z
1/2-x,1/2+y,1/2+z
1/2+x,1/2-y,1/2+z
loop_
_atom_site_type_symbol
_atom_site_label
_atom_site_fract_x
_atom_site_fract_y
_atom_site_fract_z
Si Si1 0.056333 0.602634 0.125000
Si Si2 0.946106 0.707148 0.934547
Si Si3 0.436758 0.142878 0.808098
Si Si4 0.558984 0.404173 0.743124
Si Si5 0.441862 0.169098 0.339007
Si Si6 0.554319 0.906294 0.904581
Si Si7 0.945529 0.791631 0.713688
Si Si8 0.943617 0.602528 0.024135
O O1 0.250000 0.602940 0.125627
O O2 0.997070 0.666283 0.166062
O O3 0.000000 0.500000 0.132230
O O4 0.000993 0.631391 0.074476
O O5 0.750000 0.704165 0.932617
O O6 0.995908 0.811827 0.927602
O O7 0.013889 0.650615 0.891418
O O8 0.000323 0.665191 0.982512
O O9 0.250000 0.113576 0.804072
O O10 0.448235 0.245807 0.825230
O O11 0.512605 0.094752 0.852111
O O12 0.508519 0.149327 0.757168
O O13 0.500000 0.500000 0.724971
O O14 0.750000 0.399249 0.737172
O O15 0.525014 0.399369 0.797897
O O16 0.488676 0.312764 0.721389
O O17 0.250000 0.192061 0.336523
O O18 0.750000 0.904711 0.902648
O O19 0.500000 0.000000 0.926546
O O20 0.750000 0.797443 0.715246
O O21 0.750000 0.603005 0.024218
O O22 0.000000 0.500000 0.017000
#
# Coordination Sequence:
#
# PCOD9363604 Si02
#       8
#     8   8   8   8   8   8   8   8
#     4  10  20  34  53  77 102 127 158 199 249 301
#     4   9  19  34  50  68  95 131 164 197 243 295
#     4   8  15  29  45  62  91 128 160 191 230 276
#     4  10  20  32  48  72 102 135 169 204 242 288
#     4   9  17  28  44  68  94 122 160 201 236 274
#     4   9  17  29  45  67  95 127 161 193 229 274
#     4   9  18  33  52  72  97 131 167 202 242 289
#     4  10  20  35  54  74  96 123 157 199 248 299
#
# _framework density 17.839503000000001
#
# number of rings (size 3 to 8) (size 9 to 14) (size 15 to 20)
#    0.000    2.750    0.000    3.000    0.000    6.500 
#    0.000    2.500    0.000    0.750    0.000    3.500 
#    0.000    0.000    0.000    0.000    0.000    0.000 
#
# Total GULP energy -178146.467929 kJ/mol
# GULP energy per Si atom -5567.077123 kJ/mol
# Density = 1.779890 g / cm^3
# Si number density = 17.839503 Si / 1000 Ang^3
#
#
#
# Elastic Constant Matrix: (Units=GPa)
#
#
# Indices 1 2 3 4 5 6 
#
# 1 17.7322 13.2130 20.3554 0.0000 0.0000 0.0000
# 2 13.2130 80.6558 67.9543 0.0000 0.0000 0.0000
# 3 20.3554 67.9543 154.6866 0.0000 0.0000 0.0000
# 4 0.0000 0.0000 0.0000 24.5166 0.0000 0.0000
# 5 0.0000 0.0000 0.0000 0.0000 25.6967 0.0000
# 6 0.0000 0.0000 0.0000 0.0000 0.0000 13.2758
#
#
#
# Elastic Compliance Matrix: (Units=1/GPa)
#
#
# Indices 1 2 3 4 5 6 
#
# 1 0.068052 -0.005721 -0.006442 0.000000 0.000000 0.000000
# 2 -0.005721 0.020165 -0.008106 0.000000 0.000000 0.000000
# 3 -0.006442 -0.008106 0.010873 0.000000 0.000000 0.000000
# 4 0.000000 0.000000 0.000000 0.040789 0.000000 0.000000
# 5 0.000000 0.000000 0.000000 0.000000 0.038916 0.000000
# 6 0.000000 0.000000 0.000000 0.000000 0.000000 0.075325
#
#
# Mechanical properties :
#
#
# Convention : Reuss Voigt Hill
#
# Bulk Modulus (GPa) = 17.07843 50.68001 33.87922
# Shear Modulus (GPa) = 15.91476 22.80128 19.35802
#
# Velocity S-wave (km/s) = 2.99006 3.57898 3.29769
# Velocity P-wave (km/s) = 4.63840 6.74902 5.79069
#
# Compressibility (1/GPa) = 0.05855338
#
# Stress axis : x y z
#
# Youngs Moduli (GPa) = 14.69463 49.59166 91.96928
#
# Poissons Ratio (x) = 0.28370 0.59246
# Poissons Ratio (y) = 0.08406 0.74547
# Poissons Ratio (z) = 0.09466 0.40197
#
# Static dielectric constant tensor:
#      x y z
#    x 1.623900 0.000000 0.000000 
#    y 0.000000 1.617370 0.000000 
#    z 0.000000 0.000000 1.643440 
# 
# From -- ./inp_files/26441.got.cif
#   From: 2010.05.17/outbox.cif.g08.bks.cpg/sg40_14_cif.got.tgz:26441.got - 2010.06.03 18:35:42.
