data_PCOD9363657
_publ_section_title
;
Structure prediction by ZEFSAII (Michael W. Deem and Ramdas Pophale) SiO2 
 PCOD9363657
Probable space group: A M A 2
;
_chemical_formula_sum "Si O2"
_cell_formula_units_Z 64
_cell_length_a 8.841777
_cell_length_b 33.520425
_cell_length_c 12.114281
_cell_angle_alpha 90.000000
_cell_angle_beta 90.000000
_cell_angle_gamma 90.000000
_cell_volume 3590.432090
_symmetry_space_group_name_H-M "A M A 2"
_symmetry_group_IT_number 40
_symmetry_cell_setting 'orthorhombic'
loop_
_space_group_symop_operation_xyz
x,y,z
-x,-y,z
1/2-x,y,z
1/2+x,-y,z
x,1/2+y,1/2+z
-x,1/2-y,1/2+z
1/2-x,1/2+y,1/2+z
1/2+x,1/2-y,1/2+z
loop_
_atom_site_type_symbol
_atom_site_label
_atom_site_fract_x
_atom_site_fract_y
_atom_site_fract_z
Si Si1 0.570452 0.456623 0.132560
Si Si2 0.066998 0.853265 0.247894
Si Si3 0.432136 0.544437 0.383192
Si Si4 0.930105 0.278113 0.873179
Si Si5 0.578165 0.599333 0.955243
Si Si6 0.434036 0.312226 0.327028
Si Si7 0.422705 0.315990 0.077561
Si Si8 0.433390 0.379730 0.500493
O O1 0.500000 0.500000 0.118694
O O2 0.750000 0.459272 0.131879
O O3 0.525513 0.442939 0.256770
O O4 0.516205 0.429568 0.032186
O O5 0.250000 0.850618 0.255397
O O6 0.019393 0.887797 0.334746
O O7 0.002054 0.811244 0.291866
O O8 0.025927 0.865192 0.123703
O O9 0.500000 0.500000 0.401117
O O10 0.250000 0.542458 0.391015
O O11 0.496904 0.577976 0.464796
O O12 0.750000 0.279919 0.860317
O O13 0.982162 0.232963 0.852080
O O14 0.976643 0.289370 0.997592
O O15 0.750000 0.583878 0.944579
O O16 0.583819 0.641075 0.020489
O O17 0.250000 0.312918 0.331165
O O18 0.479658 0.320874 0.201531
O O19 0.484151 0.345670 0.413596
O O20 0.250000 0.300003 0.081074
O O21 0.250000 0.382901 0.495999
#
# Coordination Sequence:
#
# PCOD9363657 Si02
#       8
#     8   8   8   8   8   8   8   8
#     4  10  20  33  53  81 110 138 169 213 266 320
#     4   9  20  37  56  76 104 146 185 220 270 328
#     4  10  21  37  57  84 115 143 178 222 275 329
#     4  10  20  33  51  77 106 138 179 226 271 317
#     4   9  17  32  53  75 100 133 174 215 260 315
#     4   9  19  33  52  78 106 138 177 223 273 324
#     4   9  18  34  52  71  99 136 173 211 263 320
#     4  10  20  37  59  80 106 144 189 230 272 327
#
# _framework density 17.825151999999999
#
# number of rings (size 3 to 8) (size 9 to 14) (size 15 to 20)
#    0.000    2.500    0.000    2.625    1.750    5.000 
#    0.000    3.125    0.000    0.000    0.000    0.000 
#    0.000    0.000    0.000    0.000    0.000    0.000 
#
# Total GULP energy -178401.290798 kJ/mol
# GULP energy per Si atom -5575.040337 kJ/mol
# Density = 1.778458 g / cm^3
# Si number density = 17.825152 Si / 1000 Ang^3
#
#
#
# Elastic Constant Matrix: (Units=GPa)
#
#
# Indices 1 2 3 4 5 6 
#
# 1 29.8667 26.6534 30.6274 0.0000 0.0000 0.0000
# 2 26.6534 87.5526 73.7962 0.0000 0.0000 0.0000
# 3 30.6274 73.7962 163.9779 0.0000 0.0000 0.0000
# 4 0.0000 0.0000 0.0000 45.5076 0.0000 0.0000
# 5 0.0000 0.0000 0.0000 0.0000 -16.6443 0.0000
# 6 0.0000 0.0000 0.0000 0.0000 0.0000 25.2647
#
#
#
# Elastic Compliance Matrix: (Units=1/GPa)
#
#
# Indices 1 2 3 4 5 6 
#
# 1 0.047398 -0.011225 -0.003801 0.000000 0.000000 0.000000
# 2 -0.011225 0.021061 -0.007381 0.000000 0.000000 0.000000
# 3 -0.003801 -0.007381 0.010130 0.000000 0.000000 0.000000
# 4 0.000000 0.000000 0.000000 0.021974 0.000000 0.000000
# 5 0.000000 0.000000 0.000000 0.000000 -0.060081 0.000000
# 6 0.000000 0.000000 0.000000 0.000000 0.000000 0.039581
#
#
# Mechanical properties :
#
#
# Convention : Reuss Voigt Hill
#
# Bulk Modulus (GPa) = 29.60951 60.39458 45.00204
# Shear Modulus (GPa) = 36.72789 20.84696 28.78743
#
# Velocity S-wave (km/s) = 4.54415 3.42354 4.02305
# Velocity P-wave (km/s) = 6.64677 7.04150 6.84698
#
# Compressibility (1/GPa) = 0.03377294
#
# Stress axis : x y z
#
# Youngs Moduli (GPa) = 21.09811 47.48185 98.71432
#
# Poissons Ratio (x) = 0.53300 0.37521
# Poissons Ratio (y) = 0.23683 0.72865
# Poissons Ratio (z) = 0.08019 0.35048
#
# Static dielectric constant tensor:
#      x y z
#    x 1.633700 0.000000 0.000000 
#    y 0.000000 1.571900 0.000000 
#    z 0.000000 0.000000 1.623920 
# 
# From -- ./inp_files/10566.got.cif
#   From: 2010.05.17/outbox.cif.g08.bks.cpg/sg40_6_cif.got.tgz:10566.got - 2010.06.03 18:35:42.
