data_PCOD9363234
_publ_section_title
;
Structure prediction by ZEFSAII (Michael W. Deem and Ramdas Pophale) SiO2 
 PCOD9363234
Probable space group: A M A 2
;
_chemical_formula_sum "Si O2"
_cell_formula_units_Z 64
_cell_length_a 18.503533
_cell_length_b 16.532349
_cell_length_c 12.366731
_cell_angle_alpha 90.000000
_cell_angle_beta 90.000000
_cell_angle_gamma 90.000000
_cell_volume 3783.067914
_symmetry_space_group_name_H-M "A M A 2"
_symmetry_group_IT_number 40
_symmetry_cell_setting 'orthorhombic'
loop_
_space_group_symop_operation_xyz
x,y,z
-x,-y,z
1/2-x,y,z
1/2+x,-y,z
x,1/2+y,1/2+z
-x,1/2-y,1/2+z
1/2-x,1/2+y,1/2+z
1/2+x,1/2-y,1/2+z
loop_
_atom_site_type_symbol
_atom_site_label
_atom_site_fract_x
_atom_site_fract_y
_atom_site_fract_z
Si Si1 0.836067 0.323454 0.353490
Si Si2 0.664396 0.408673 0.582956
Si Si3 0.663861 0.249504 0.962359
Si Si4 0.914167 0.001760 0.459944
Si Si5 0.411924 0.846208 0.319250
Si Si6 0.836529 0.597409 0.599377
Si Si7 0.835727 0.396527 0.127407
Si Si8 0.415725 0.144247 0.295456
O O1 0.750000 0.305323 0.341655
O O2 0.846982 0.367194 0.467406
O O3 0.880927 0.241262 0.346941
O O4 0.856153 0.379423 0.251035
O O5 0.750000 0.401232 0.610884
O O6 0.647513 0.504119 0.574918
O O7 0.616452 0.368945 0.676811
O O8 0.750000 0.250881 0.941614
O O9 0.621587 0.281788 0.858519
O O10 0.642869 0.161272 0.006106
O O11 0.649445 0.314543 0.058487
O O12 0.894890 0.089658 0.414320
O O13 0.874942 0.969506 0.566465
O O14 0.897521 0.936520 0.365238
O O15 0.000000 0.000000 0.477703
O O16 0.374695 0.877091 0.209816
O O17 0.498046 0.845895 0.299734
O O18 0.750000 0.605683 0.613446
O O19 0.750000 0.410498 0.122536
#
# Coordination Sequence:
#
# PCOD9363234 Si02
#       8
#     8   8   8   8   8   8   8   8
#     4  10  21  38  56  79 110 144 182 223 271 327
#     4  10  21  37  57  81 113 145 177 224 280 331
#     4   9  17  32  55  81 104 135 185 229 259 312
#     4   9  19  34  53  79 112 140 177 227 269 313
#     4  11  20  34  56  81 110 143 181 226 264 324
#     4  10  19  33  57  82 105 141 185 226 264 319
#     4   9  17  32  56  80 104 138 179 223 267 315
#     4  10  20  34  53  82 112 145 174 222 283 317
#
# _framework density 16.917486
#
# number of rings (size 3 to 8) (size 9 to 14) (size 15 to 20)
#    0.000    2.250    2.500    0.750    0.000    2.500 
#    2.250    1.250    2.750    3.000    0.000    0.000 
#    0.000    0.000    0.000    0.000    0.000    0.000 
#
# Total GULP energy -178498.628860 kJ/mol
# GULP energy per Si atom -5578.082152 kJ/mol
# Density = 1.687898 g / cm^3
# Si number density = 16.917486 Si / 1000 Ang^3
#
#
#
# Elastic Constant Matrix: (Units=GPa)
#
#
# Indices 1 2 3 4 5 6 
#
# 1 42.3100 57.7572 59.6441 0.0000 0.0000 0.0000
# 2 57.7572 114.3266 79.6791 0.0000 0.0000 0.0000
# 3 59.6441 79.6791 128.5977 0.0000 0.0000 0.0000
# 4 0.0000 0.0000 0.0000 28.4549 0.0000 0.0000
# 5 0.0000 0.0000 0.0000 0.0000 4.2098 0.0000
# 6 0.0000 0.0000 0.0000 0.0000 0.0000 18.0098
#
#
#
# Elastic Compliance Matrix: (Units=1/GPa)
#
#
# Indices 1 2 3 4 5 6 
#
# 1 0.125230 -0.040103 -0.033234 0.000000 0.000000 0.000000
# 2 -0.040103 0.028237 0.001104 0.000000 0.000000 0.000000
# 3 -0.033234 0.001104 0.022506 0.000000 0.000000 0.000000
# 4 0.000000 0.000000 0.000000 0.035143 0.000000 0.000000
# 5 0.000000 0.000000 0.000000 0.000000 0.237540 0.000000
# 6 0.000000 0.000000 0.000000 0.000000 0.000000 0.055525
#
#
# Mechanical properties :
#
#
# Convention : Reuss Voigt Hill
#
# Bulk Modulus (GPa) = 31.73901 75.48834 53.61368
# Shear Modulus (GPa) = 7.58552 16.01182 11.79867
#
# Velocity S-wave (km/s) = 2.11980 3.07981 2.64374
# Velocity P-wave (km/s) = 4.97928 7.57399 6.40931
#
# Compressibility (1/GPa) = 0.03150697
#
# Stress axis : x y z
#
# Youngs Moduli (GPa) = 7.98532 35.41431 44.43232
#
# Poissons Ratio (x) = 1.42022 1.47667
# Poissons Ratio (y) = 0.32024 -0.04906
# Poissons Ratio (z) = 0.26539 -0.03911
#
# Static dielectric constant tensor:
#      x y z
#    x 1.559970 0.000000 0.000000 
#    y 0.000000 1.564960 0.000000 
#    z 0.000000 0.000000 1.553900 
# 
# From -- ./inp_files/13101.got.cif
#   From: 2010.05.17/outbox.cif.g08.bks.cpg/sg40_7_cif.got.tgz:13101.got - 2010.06.03 18:35:42.
