data_PCOD9363457
_publ_section_title
;
Structure prediction by ZEFSAII (Michael W. Deem and Ramdas Pophale) SiO2 
 PCOD9363457
Probable space group: A M A 2
;
_chemical_formula_sum "Si O2"
_cell_formula_units_Z 56
_cell_length_a 18.298542
_cell_length_b 10.096046
_cell_length_c 13.299008
_cell_angle_alpha 90.000000
_cell_angle_beta 90.000000
_cell_angle_gamma 90.000000
_cell_volume 2456.897594
_symmetry_space_group_name_H-M "A M A 2"
_symmetry_group_IT_number 40
_symmetry_cell_setting 'orthorhombic'
loop_
_space_group_symop_operation_xyz
x,y,z
-x,-y,z
1/2-x,y,z
1/2+x,-y,z
x,1/2+y,1/2+z
-x,1/2-y,1/2+z
1/2-x,1/2+y,1/2+z
1/2+x,1/2-y,1/2+z
loop_
_atom_site_type_symbol
_atom_site_label
_atom_site_fract_x
_atom_site_fract_y
_atom_site_fract_z
Si Si1 0.666834 0.995897 0.201030
Si Si2 0.525534 0.651318 0.233165
Si Si3 0.829407 0.063382 0.629627
Si Si4 0.125040 0.219744 0.634056
Si Si5 0.433267 0.325721 0.447204
Si Si6 0.097112 0.613314 0.498930
Si Si7 0.834109 0.127600 0.400452
O O1 0.750000 0.946223 0.210593
O O2 0.665479 0.145473 0.158075
O O3 0.635375 0.030339 0.312973
O O4 0.627223 0.910604 0.112874
O O5 0.500000 0.500000 0.256845
O O6 0.597482 0.635679 0.165816
O O7 0.454931 0.718536 0.185421
O O8 0.549823 0.719153 0.335613
O O9 0.750000 0.120284 0.658194
O O10 0.833340 0.060071 0.509260
O O11 0.835341 0.912857 0.667067
O O12 0.110340 0.224336 0.515119
O O13 0.394174 0.469384 0.446549
O O14 0.511288 0.353346 0.499978
O O15 0.131148 0.729266 0.429237
O O16 0.750000 0.152677 0.370312
#
# Coordination Sequence:
#
# PCOD9363457 Si02
#       7
#     8   8   8   8   8   8   8
#     4  10  21  36  60  91 121 163 210 254 312 375
#     4  10  19  36  61  84 115 159 201 247 307 376
#     4  10  22  40  58  85 122 160 204 254 313 376
#     4  10  21  37  60  86 122 154 197 262 304 367
#     4  10  20  36  59  89 117 153 201 260 315 368
#     4  10  19  36  60  85 119 153 205 261 305 370
#     4  10  21  38  59  83 120 165 204 250 312 377
#
# _framework density 22.792973
#
# number of rings (size 3 to 8) (size 9 to 14) (size 15 to 20)
#    0.000    2.000    1.429    2.571    2.000    0.000 
#    5.143    3.571    9.429    0.000    0.000    0.000 
#    0.000    0.000    0.000    0.000    0.000    0.000 
#
# Total GULP energy -156176.900875 kJ/mol
# GULP energy per Si atom -5577.746460 kJ/mol
# Density = 2.274109 g / cm^3
# Si number density = 22.792973 Si / 1000 Ang^3
#
#
#
# Elastic Constant Matrix: (Units=GPa)
#
#
# Indices 1 2 3 4 5 6 
#
# 1 80.9507 20.8471 38.0880 0.0000 0.0000 0.0000
# 2 20.8471 78.0439 4.8785 0.0000 0.0000 0.0000
# 3 38.0880 4.8785 135.0185 0.0000 0.0000 0.0000
# 4 0.0000 0.0000 0.0000 17.8736 0.0000 0.0000
# 5 0.0000 0.0000 0.0000 0.0000 28.0029 0.0000
# 6 0.0000 0.0000 0.0000 0.0000 0.0000 11.6890
#
#
#
# Elastic Compliance Matrix: (Units=1/GPa)
#
#
# Indices 1 2 3 4 5 6 
#
# 1 0.015305 -0.003827 -0.004179 0.000000 0.000000 0.000000
# 2 -0.003827 0.013799 0.000581 0.000000 0.000000 0.000000
# 3 -0.004179 0.000581 0.008564 0.000000 0.000000 0.000000
# 4 0.000000 0.000000 0.000000 0.055948 0.000000 0.000000
# 5 0.000000 0.000000 0.000000 0.000000 0.035711 0.000000
# 6 0.000000 0.000000 0.000000 0.000000 0.000000 0.085551
#
#
# Mechanical properties :
#
#
# Convention : Reuss Voigt Hill
#
# Bulk Modulus (GPa) = 43.82473 46.84892 45.33682
# Shear Modulus (GPa) = 21.06726 26.85974 23.96350
#
# Velocity S-wave (km/s) = 3.04351 3.43654 3.24598
# Velocity P-wave (km/s) = 5.62313 6.02869 5.82944
#
# Compressibility (1/GPa) = 0.02281817
#
# Stress axis : x y z
#
# Youngs Moduli (GPa) = 65.33757 72.46761 116.76334
#
# Poissons Ratio (x) = 0.27734 0.48798
# Poissons Ratio (y) = 0.25005 -0.06784
# Poissons Ratio (z) = 0.27306 -0.04210
#
# Static dielectric constant tensor:
#      x y z
#    x 1.827450 0.000000 0.000000 
#    y 0.000000 1.863150 0.000000 
#    z 0.000000 0.000000 1.899850 
# 
# From -- ./inp_files/13552.got.cif
#   From: 2010.05.17/outbox.cif.g08.bks.cpg/sg40_7_cif.got.tgz:13552.got - 2010.06.03 18:35:42.
