data_PCOD9363798
_publ_section_title
;
Structure prediction by ZEFSAII (Michael W. Deem and Ramdas Pophale) SiO2 
 PCOD9363798
Probable space group: A M A 2
;
_chemical_formula_sum "Si O2"
_cell_formula_units_Z 56
_cell_length_a 17.195373
_cell_length_b 12.373130
_cell_length_c 11.361029
_cell_angle_alpha 90.000000
_cell_angle_beta 90.000000
_cell_angle_gamma 90.000000
_cell_volume 2417.179182
_symmetry_space_group_name_H-M "A M A 2"
_symmetry_group_IT_number 40
_symmetry_cell_setting 'orthorhombic'
loop_
_space_group_symop_operation_xyz
x,y,z
-x,-y,z
1/2-x,y,z
1/2+x,-y,z
x,1/2+y,1/2+z
-x,1/2-y,1/2+z
1/2-x,1/2+y,1/2+z
1/2+x,1/2-y,1/2+z
loop_
_atom_site_type_symbol
_atom_site_label
_atom_site_fract_x
_atom_site_fract_y
_atom_site_fract_z
Si Si1 0.335966 0.054701 0.776520
Si Si2 0.159155 0.161529 0.193036
Si Si3 0.588892 0.494841 0.049869
Si Si4 0.902080 0.255073 0.930420
Si Si5 0.453416 0.605558 0.483183
Si Si6 0.587004 0.545337 0.805173
Si Si7 0.333706 0.793321 0.163791
O O1 0.250000 0.028900 0.821973
O O2 0.358832 0.984598 0.662785
O O3 0.400053 0.059906 0.877449
O O4 0.333954 0.172963 0.715199
O O5 0.250000 0.178081 0.166358
O O6 0.129415 0.238863 0.298364
O O7 0.144695 0.043163 0.251022
O O8 0.102916 0.158711 0.080273
O O9 0.500000 0.500000 0.090249
O O10 0.594328 0.376668 0.985861
O O11 0.606697 0.572337 0.940225
O O12 0.983750 0.193133 0.939098
O O13 0.844579 0.200049 0.024192
O O14 0.500000 0.500000 0.530533
O O15 0.500000 0.500000 0.806542
O O16 0.594519 0.648263 0.723862
O O17 0.250000 0.840920 0.197130
#
# Coordination Sequence:
#
# PCOD9363798 Si02
#       7
#     8   8   8   8   8   8   8
#     4  10  23  41  61  88 131 175 219 275 337 398
#     4  11  23  41  65  96 135 172 221 282 337 397
#     4   9  20  37  64  93 126 167 217 273 332 393
#     4  10  23  39  67  95 132 167 221 278 336 402
#     4  12  26  43  68  94 131 180 228 272 339 409
#     4  10  20  34  63  97 132 168 221 276 329 401
#     4  10  20  37  62  93 130 171 216 269 338 399
#
# _framework density 23.167498999999999
#
# number of rings (size 3 to 8) (size 9 to 14) (size 15 to 20)
#    0.000    1.714    0.000    3.857   10.000    4.571 
#    0.000    2.143    0.000    0.000    0.000    0.000 
#    0.000    0.000    0.000    0.000    0.000    0.000 
#
# Total GULP energy -156499.361928 kJ/mol
# GULP energy per Si atom -5589.262926 kJ/mol
# Density = 2.311477 g / cm^3
# Si number density = 23.167499 Si / 1000 Ang^3
#
#
#
# Elastic Constant Matrix: (Units=GPa)
#
#
# Indices 1 2 3 4 5 6 
#
# 1 122.6707 16.0782 50.6602 0.0000 0.0000 0.0000
# 2 16.0782 26.4351 19.8579 0.0000 0.0000 0.0000
# 3 50.6602 19.8579 129.0388 0.0000 0.0000 0.0000
# 4 0.0000 0.0000 0.0000 19.9663 0.0000 0.0000
# 5 0.0000 0.0000 0.0000 0.0000 28.7431 0.0000
# 6 0.0000 0.0000 0.0000 0.0000 0.0000 28.0618
#
#
#
# Elastic Compliance Matrix: (Units=1/GPa)
#
#
# Indices 1 2 3 4 5 6 
#
# 1 0.010015 -0.003548 -0.003386 0.000000 0.000000 0.000000
# 2 -0.003548 0.044030 -0.005383 0.000000 0.000000 0.000000
# 3 -0.003386 -0.005383 0.009907 0.000000 0.000000 0.000000
# 4 0.000000 0.000000 0.000000 0.050084 0.000000 0.000000
# 5 0.000000 0.000000 0.000000 0.000000 0.034791 0.000000
# 6 0.000000 0.000000 0.000000 0.000000 0.000000 0.035636
#
#
# Mechanical properties :
#
#
# Convention : Reuss Voigt Hill
#
# Bulk Modulus (GPa) = 25.43298 50.14859 37.79079
# Shear Modulus (GPa) = 22.50190 28.12413 25.31301
#
# Velocity S-wave (km/s) = 3.11990 3.48795 3.30905
# Velocity P-wave (km/s) = 4.89695 6.15745 5.56302
#
# Compressibility (1/GPa) = 0.03931902
#
# Stress axis : x y z
#
# Youngs Moduli (GPa) = 99.84775 22.71176 100.93564
#
# Poissons Ratio (x) = 0.08058 0.34176
# Poissons Ratio (y) = 0.35425 0.54333
# Poissons Ratio (z) = 0.33808 0.12226
#
# Static dielectric constant tensor:
#      x y z
#    x 1.842500 0.000000 0.000000 
#    y 0.000000 1.936710 0.000000 
#    z 0.000000 0.000000 1.865150 
# 
# From -- ./inp_files/12241.got.cif
#   From: 2010.05.17/outbox.cif.g08.bks.cpg/sg40_7_cif.got.tgz:12241.got - 2010.06.03 18:35:42.
