data_PCOD9363159
_publ_section_title
;
Structure prediction by ZEFSAII (Michael W. Deem and Ramdas Pophale) SiO2 
 PCOD9363159
Probable space group: A M A 2
;
_chemical_formula_sum "Si O2"
_cell_formula_units_Z 64
_cell_length_a 9.029014
_cell_length_b 16.431125
_cell_length_c 22.304704
_cell_angle_alpha 90.000000
_cell_angle_beta 90.000000
_cell_angle_gamma 90.000000
_cell_volume 3309.055796
_symmetry_space_group_name_H-M "A M A 2"
_symmetry_group_IT_number 40
_symmetry_cell_setting 'orthorhombic'
loop_
_space_group_symop_operation_xyz
x,y,z
-x,-y,z
1/2-x,y,z
1/2+x,-y,z
x,1/2+y,1/2+z
-x,1/2-y,1/2+z
1/2-x,1/2+y,1/2+z
1/2+x,1/2-y,1/2+z
loop_
_atom_site_type_symbol
_atom_site_label
_atom_site_fract_x
_atom_site_fract_y
_atom_site_fract_z
Si Si1 0.079109 0.585031 0.811930
Si Si2 0.423637 0.420867 0.996400
Si Si3 0.082566 0.798097 0.082870
Si Si4 0.571898 0.261285 0.461500
Si Si5 0.571501 0.413689 0.257369
Si Si6 0.420224 0.082255 0.167549
Si Si7 0.929312 0.228638 0.837492
Si Si8 0.083073 0.109551 0.616838
O O1 0.250000 0.579674 0.831888
O O2 0.074933 0.586834 0.739416
O O3 0.023353 0.675906 0.829059
O O4 0.000000 0.500000 0.829580
O O5 0.500000 0.500000 0.969428
O O6 0.250000 0.427844 0.989578
O O7 0.468392 0.418381 0.066480
O O8 0.470316 0.334562 0.968703
O O9 0.250000 0.826191 0.070939
O O10 0.089660 0.705600 0.105172
O O11 0.007600 0.846338 0.136242
O O12 0.986086 0.801941 0.022517
O O13 0.750000 0.267127 0.456435
O O14 0.489590 0.294494 0.403167
O O15 0.500000 0.500000 0.277367
O O16 0.750000 0.413874 0.266130
O O17 0.499696 0.335604 0.290627
O O18 0.543671 0.406857 0.185614
O O19 0.250000 0.083198 0.148942
O O20 0.500000 0.000000 0.148676
O O21 0.750000 0.225872 0.833455
O O22 0.250000 0.076911 0.605182
#
# Coordination Sequence:
#
# PCOD9363159 Si02
#       8
#     8   8   8   8   8   8   8   8
#     4   9  20  36  57  86 119 152 188 229 278 335
#     4  10  20  33  53  80 112 146 180 220 270 326
#     4  10  19  34  56  82 110 142 179 223 274 329
#     4  10  22  39  56  77 105 143 187 229 273 327
#     4  11  23  39  59  85 115 150 190 235 284 337
#     4  10  19  33  53  80 112 144 178 221 272 329
#     4  11  23  40  60  83 112 150 193 239 285 332
#     4   9  19  34  55  83 114 145 179 220 272 331
#
# _framework density 19.340864
#
# number of rings (size 3 to 8) (size 9 to 14) (size 15 to 20)
#    0.000    2.000    0.000    3.375    0.000    6.000 
#    0.000    3.125    0.000    0.000    0.000    0.000 
#    0.000    0.000    0.000    0.000    0.000    0.000 
#
# Total GULP energy -178559.849053 kJ/mol
# GULP energy per Si atom -5579.995283 kJ/mol
# Density = 1.929684 g / cm^3
# Si number density = 19.340864 Si / 1000 Ang^3
#
#
#
# Elastic Constant Matrix: (Units=GPa)
#
#
# Indices 1 2 3 4 5 6 
#
# 1 67.4044 32.1033 28.0088 0.0000 0.0000 0.0000
# 2 32.1033 68.3365 23.5912 0.0000 0.0000 0.0000
# 3 28.0088 23.5912 64.8087 0.0000 0.0000 0.0000
# 4 0.0000 0.0000 0.0000 1.6387 0.0000 0.0000
# 5 0.0000 0.0000 0.0000 0.0000 17.9875 0.0000
# 6 0.0000 0.0000 0.0000 0.0000 0.0000 34.6045
#
#
#
# Elastic Compliance Matrix: (Units=1/GPa)
#
#
# Indices 1 2 3 4 5 6 
#
# 1 0.021156 -0.007757 -0.006320 0.000000 0.000000 0.000000
# 2 -0.007757 0.019581 -0.003775 0.000000 0.000000 0.000000
# 3 -0.006320 -0.003775 0.019535 0.000000 0.000000 0.000000
# 4 0.000000 0.000000 0.000000 0.610222 0.000000 0.000000
# 5 0.000000 0.000000 0.000000 0.000000 0.055594 0.000000
# 6 0.000000 0.000000 0.000000 0.000000 0.000000 0.028898
#
#
# Mechanical properties :
#
#
# Convention : Reuss Voigt Hill
#
# Bulk Modulus (GPa) = 40.70217 40.88404 40.79310
# Shear Modulus (GPa) = 6.25876 18.63590 12.44733
#
# Velocity S-wave (km/s) = 1.80085 3.10748 2.53963
# Velocity P-wave (km/s) = 5.04127 5.83608 5.45317
#
# Compressibility (1/GPa) = 0.02456871
#
# Stress axis : x y z
#
# Youngs Moduli (GPa) = 47.26690 51.06996 51.18911
#
# Poissons Ratio (x) = 0.39616 0.32349
# Poissons Ratio (y) = 0.36666 0.19325
# Poissons Ratio (z) = 0.29871 0.19280
#
# Static dielectric constant tensor:
#      x y z
#    x 1.677720 0.000000 0.000000 
#    y 0.000000 1.699510 0.000000 
#    z 0.000000 0.000000 1.656260 
# 
# From -- ./inp_files/22415.got.cif
#   From: 2010.05.17/outbox.cif.g08.bks.cpg/sg40_12_cif.got.tgz:22415.got - 2010.06.03 18:35:42.
