data_PCOD9363863
_publ_section_title
;
Structure prediction by ZEFSAII (Michael W. Deem and Ramdas Pophale) SiO2 
 PCOD9363863
Probable space group: A M A 2
;
_chemical_formula_sum "Si O2"
_cell_formula_units_Z 64
_cell_length_a 9.044376
_cell_length_b 24.700441
_cell_length_c 14.432788
_cell_angle_alpha 90.000000
_cell_angle_beta 90.000000
_cell_angle_gamma 90.000000
_cell_volume 3224.285933
_symmetry_space_group_name_H-M "A M A 2"
_symmetry_group_IT_number 40
_symmetry_cell_setting 'orthorhombic'
loop_
_space_group_symop_operation_xyz
x,y,z
-x,-y,z
1/2-x,y,z
1/2+x,-y,z
x,1/2+y,1/2+z
-x,1/2-y,1/2+z
1/2-x,1/2+y,1/2+z
1/2+x,1/2-y,1/2+z
loop_
_atom_site_type_symbol
_atom_site_label
_atom_site_fract_x
_atom_site_fract_y
_atom_site_fract_z
Si Si1 0.919547 0.728380 0.703320
Si Si2 0.419304 0.277221 0.477202
Si Si3 0.925981 0.388583 0.480408
Si Si4 0.571320 0.840455 0.492612
Si Si5 0.073472 0.338299 0.194008
Si Si6 0.426401 0.444583 0.313980
Si Si7 0.427463 0.616181 0.695292
Si Si8 0.926645 0.945015 0.371684
O O1 0.750000 0.728971 0.734282
O O2 0.918865 0.728092 0.589833
O O3 0.003077 0.782880 0.733047
O O4 0.000480 0.672606 0.726605
O O5 0.250000 0.288339 0.447154
O O6 0.521212 0.327913 0.454051
O O7 0.467378 0.217381 0.445997
O O8 0.750000 0.393626 0.469977
O O9 0.965865 0.395543 0.588713
O O10 0.009278 0.430413 0.414883
O O11 0.750000 0.838713 0.506290
O O12 0.491181 0.844719 0.590925
O O13 0.534493 0.892496 0.431976
O O14 0.250000 0.332184 0.191264
O O15 0.037009 0.392142 0.251625
O O16 0.500000 0.500000 0.279596
O O17 0.250000 0.450464 0.316909
O O18 0.250000 0.622774 0.699993
O O19 0.471325 0.569502 0.766534
O O20 0.750000 0.950990 0.374872
O O21 0.000000 0.000000 0.404499
#
# Coordination Sequence:
#
# PCOD9363863 Si02
#       8
#     8   8   8   8   8   8   8   8
#     4   9  17  31  55  86 115 143 178 221 270 325
#     4   8  15  30  52  80 112 143 176 215 266 326
#     4  10  20  35  57  84 113 144 178 222 273 323
#     4   9  19  36  58  82 111 147 182 222 272 323
#     4  10  21  37  58  83 111 143 178 222 276 330
#     4  11  25  42  58  78 106 143 187 231 275 326
#     4   9  19  36  57  83 115 148 182 223 272 323
#     4  10  22  39  56  78 110 147 188 230 271 320
#
# _framework density 19.849356
#
# number of rings (size 3 to 8) (size 9 to 14) (size 15 to 20)
#    0.000    2.500    0.000    2.250    0.000    8.500 
#    0.000    6.250    0.000    0.000    0.000    0.000 
#    0.000    0.000    0.000    0.000    0.000    0.000 
#
# Total GULP energy -178703.285910 kJ/mol
# GULP energy per Si atom -5584.477685 kJ/mol
# Density = 1.980418 g / cm^3
# Si number density = 19.849356 Si / 1000 Ang^3
#
#
#
# Elastic Constant Matrix: (Units=GPa)
#
#
# Indices 1 2 3 4 5 6 
#
# 1 22.2237 12.3088 9.5856 0.0000 0.0000 0.0000
# 2 12.3088 74.6718 3.7283 0.0000 0.0000 0.0000
# 3 9.5856 3.7283 39.3899 0.0000 0.0000 0.0000
# 4 0.0000 0.0000 0.0000 22.8080 0.0000 0.0000
# 5 0.0000 0.0000 0.0000 0.0000 -25.1447 0.0000
# 6 0.0000 0.0000 0.0000 0.0000 0.0000 36.7856
#
#
#
# Elastic Compliance Matrix: (Units=1/GPa)
#
#
# Indices 1 2 3 4 5 6 
#
# 1 0.055121 -0.008456 -0.012613 0.000000 0.000000 0.000000
# 2 -0.008456 0.014753 0.000661 0.000000 0.000000 0.000000
# 3 -0.012613 0.000661 0.028394 0.000000 0.000000 0.000000
# 4 0.000000 0.000000 0.000000 0.043844 0.000000 0.000000
# 5 0.000000 0.000000 0.000000 0.000000 -0.039770 0.000000
# 6 0.000000 0.000000 0.000000 0.000000 0.000000 0.027185
#
#
# Mechanical properties :
#
#
# Convention : Reuss Voigt Hill
#
# Bulk Modulus (GPa) = 17.40598 20.83675 19.12137
# Shear Modulus (GPa) = 26.38610 14.26731 20.32670
#
# Velocity S-wave (km/s) = 3.64994 2.68391 3.20355
# Velocity P-wave (km/s) = 5.15275 4.48606 4.83092
#
# Compressibility (1/GPa) = 0.05745152
#
# Stress axis : x y z
#
# Youngs Moduli (GPa) = 18.14192 67.78361 35.21859
#
# Poissons Ratio (x) = 0.57320 0.44423
# Poissons Ratio (y) = 0.15341 -0.02330
# Poissons Ratio (z) = 0.22883 -0.04484
#
# Static dielectric constant tensor:
#      x y z
#    x 1.663770 0.000000 0.000000 
#    y 0.000000 1.686270 0.000000 
#    z 0.000000 0.000000 1.730670 
# 
# From -- ./inp_files/15697.got.cif
#   From: 2010.05.17/outbox.cif.g08.bks.cpg/sg40_8_cif.got.tgz:15697.got - 2010.06.03 18:35:42.
