data_PCOD9363050
_publ_section_title
;
Structure prediction by ZEFSAII (Michael W. Deem and Ramdas Pophale) SiO2 
 PCOD9363050
Probable space group: A M A 2
;
_chemical_formula_sum "Si O2"
_cell_formula_units_Z 64
_cell_length_a 8.639272
_cell_length_b 21.248931
_cell_length_c 20.185286
_cell_angle_alpha 90.000000
_cell_angle_beta 90.000000
_cell_angle_gamma 90.000000
_cell_volume 3705.519824
_symmetry_space_group_name_H-M "A M A 2"
_symmetry_group_IT_number 40
_symmetry_cell_setting 'orthorhombic'
loop_
_space_group_symop_operation_xyz
x,y,z
-x,-y,z
1/2-x,y,z
1/2+x,-y,z
x,1/2+y,1/2+z
-x,1/2-y,1/2+z
1/2-x,1/2+y,1/2+z
1/2+x,1/2-y,1/2+z
loop_
_atom_site_type_symbol
_atom_site_label
_atom_site_fract_x
_atom_site_fract_y
_atom_site_fract_z
Si Si1 0.563368 0.933629 0.162840
Si Si2 0.064605 0.685742 0.162412
Si Si3 0.063290 0.618550 0.523867
Si Si4 0.933434 0.066604 0.740615
Si Si5 0.563364 0.307543 0.738267
Si Si6 0.564032 0.755666 0.377599
Si Si7 0.565052 0.884924 0.876096
Si Si8 0.563856 0.259640 0.025398
O O1 0.750000 0.935391 0.163394
O O2 0.510822 0.921400 0.086942
O O3 0.514182 0.873369 0.206029
O O4 0.500000 0.000000 0.186877
O O5 0.250000 0.681071 0.165784
O O6 0.015893 0.695974 0.085902
O O7 0.993922 0.624850 0.197219
O O8 0.010938 0.748471 0.200727
O O9 0.250000 0.619279 0.523634
O O10 0.013134 0.596648 0.450596
O O11 0.006805 0.690116 0.533810
O O12 0.750000 0.065372 0.738599
O O13 0.987699 0.078244 0.816183
O O14 0.000000 0.000000 0.717395
O O15 0.750000 0.302761 0.730797
O O16 0.526311 0.300115 0.815931
O O17 0.750000 0.744198 0.376070
O O18 0.480800 0.688560 0.368707
O O19 0.524083 0.780730 0.450757
O O20 0.750000 0.891553 0.871293
O O21 0.750000 0.253561 0.028947
#
# Coordination Sequence:
#
# PCOD9363050 Si02
#       8
#     8   8   8   8   8   8   8   8
#     4  10  21  35  50  73 105 143 182 220 264 311
#     4  11  21  34  55  82 109 138 176 221 269 319
#     4   9  18  32  50  74 108 143 178 217 258 312
#     4  12  25  40  56  76 106 143 181 224 270 324
#     4  10  19  33  55  78 104 139 180 222 267 316
#     4   9  17  31  52  79 107 139 176 214 264 316
#     4  10  19  32  51  78 109 141 177 217 261 312
#     4   9  18  31  51  80 109 136 172 217 262 314
#
# _framework density 17.271531
#
# number of rings (size 3 to 8) (size 9 to 14) (size 15 to 20)
#    0.000    2.000    2.500    1.875    0.000    2.500 
#    0.000    1.250    0.000    0.750    0.000    1.750 
#    0.000    0.000    0.000    0.000    0.000    0.000 
#
# Total GULP energy -178563.128028 kJ/mol
# GULP energy per Si atom -5580.097751 kJ/mol
# Density = 1.723222 g / cm^3
# Si number density = 17.271531 Si / 1000 Ang^3
#
#
#
# Elastic Constant Matrix: (Units=GPa)
#
#
# Indices 1 2 3 4 5 6 
#
# 1 35.0108 31.4205 33.3748 0.0000 0.0000 0.0000
# 2 31.4205 118.2611 63.9610 0.0000 0.0000 0.0000
# 3 33.3748 63.9610 111.3990 0.0000 0.0000 0.0000
# 4 0.0000 0.0000 0.0000 19.5099 0.0000 0.0000
# 5 0.0000 0.0000 0.0000 0.0000 18.1198 0.0000
# 6 0.0000 0.0000 0.0000 0.0000 0.0000 26.1001
#
#
#
# Elastic Compliance Matrix: (Units=1/GPa)
#
#
# Indices 1 2 3 4 5 6 
#
# 1 0.043161 -0.006489 -0.009205 0.000000 0.000000 0.000000
# 2 -0.006489 0.013240 -0.005658 0.000000 0.000000 0.000000
# 3 -0.009205 -0.005658 0.014983 0.000000 0.000000 0.000000
# 4 0.000000 0.000000 0.000000 0.051256 0.000000 0.000000
# 5 0.000000 0.000000 0.000000 0.000000 0.055188 0.000000
# 6 0.000000 0.000000 0.000000 0.000000 0.000000 0.038314
#
#
# Mechanical properties :
#
#
# Convention : Reuss Voigt Hill
#
# Bulk Modulus (GPa) = 34.86711 58.02039 46.44375
# Shear Modulus (GPa) = 18.62849 21.80695 20.21772
#
# Velocity S-wave (km/s) = 3.28772 3.55716 3.42509
# Velocity P-wave (km/s) = 5.88588 7.10895 6.52613
#
# Compressibility (1/GPa) = 0.02868032
#
# Stress axis : x y z
#
# Youngs Moduli (GPa) = 23.16902 75.52962 66.74175
#
# Poissons Ratio (x) = 0.49009 0.61438
# Poissons Ratio (y) = 0.15034 0.37761
# Poissons Ratio (z) = 0.21328 0.42733
#
# Static dielectric constant tensor:
#      x y z
#    x 1.581470 0.000000 0.000000 
#    y 0.000000 1.551910 0.000000 
#    z 0.000000 0.000000 1.624060 
# 
# From -- ./inp_files/22369.got.cif
#   From: 2010.05.17/outbox.cif.g08.bks.cpg/sg40_12_cif.got.tgz:22369.got - 2010.06.03 18:35:42.
