data_PCOD9363974
_publ_section_title
;
Structure prediction by ZEFSAII (Michael W. Deem and Ramdas Pophale) SiO2 
 PCOD9363974
Probable space group: A M A 2
;
_chemical_formula_sum "Si O2"
_cell_formula_units_Z 64
_cell_length_a 8.443944
_cell_length_b 14.595814
_cell_length_c 25.317593
_cell_angle_alpha 90.000000
_cell_angle_beta 90.000000
_cell_angle_gamma 90.000000
_cell_volume 3120.298043
_symmetry_space_group_name_H-M "A M A 2"
_symmetry_group_IT_number 40
_symmetry_cell_setting 'orthorhombic'
loop_
_space_group_symop_operation_xyz
x,y,z
-x,-y,z
1/2-x,y,z
1/2+x,-y,z
x,1/2+y,1/2+z
-x,1/2-y,1/2+z
1/2-x,1/2+y,1/2+z
1/2+x,1/2-y,1/2+z
loop_
_atom_site_type_symbol
_atom_site_label
_atom_site_fract_x
_atom_site_fract_y
_atom_site_fract_z
Si Si1 0.940580 0.394566 0.411900
Si Si2 0.440907 0.102906 0.569606
Si Si3 0.560246 0.895561 0.027268
Si Si4 0.060919 0.275566 0.743122
Si Si5 0.941381 0.219885 0.126216
Si Si6 0.939986 0.395509 0.839739
Si Si7 0.558747 0.894844 0.453873
Si Si8 0.937897 0.103877 0.799191
O O1 0.750000 0.392343 0.407636
O O2 0.989789 0.356117 0.469373
O O3 0.000000 0.500000 0.413511
O O4 0.013019 0.358778 0.357394
O O5 0.250000 0.099977 0.569269
O O6 0.491951 0.176257 0.612788
O O7 0.494659 0.138809 0.511458
O O8 0.500000 0.000000 0.577649
O O9 0.750000 0.896098 0.027537
O O10 0.499126 0.842046 0.078063
O O11 0.500000 0.000000 0.030079
O O12 0.250000 0.280010 0.743515
O O13 0.003817 0.305389 0.684962
O O14 0.997515 0.338322 0.790087
O O15 0.009346 0.172103 0.756206
O O16 0.750000 0.216855 0.125874
O O17 0.750000 0.395969 0.839906
O O18 0.995584 0.356727 0.897198
O O19 0.000000 0.500000 0.835719
O O20 0.750000 0.892227 0.453935
O O21 0.500000 0.000000 0.453323
O O22 0.750000 0.103327 0.795790
O O23 0.000000 0.000000 0.794218
#
# Coordination Sequence:
#
# PCOD9363974 Si02
#       8
#     8   8   8   8   8   8   8   8
#     4   9  17  32  55  86 118 147 181 225 279 341
#     4   9  18  35  57  82 110 141 175 218 270 326
#     4  10  21  37  60  87 116 149 186 230 283 339
#     4  11  24  41  57  79 112 151 196 243 285 334
#     4  10  23  40  57  79 111 150 193 236 280 330
#     4  10  20  36  58  85 113 146 184 227 283 341
#     4   8  15  29  52  81 111 138 171 214 267 329
#     4  11  22  38  61  87 115 150 188 233 287 344
#
# _framework density 20.510860999999998
#
# number of rings (size 3 to 8) (size 9 to 14) (size 15 to 20)
#    0.000    2.250    0.000    3.375    0.000    5.500 
#    0.000    2.500    0.000    0.000    0.000    0.000 
#    0.000    0.000    0.000    0.000    0.000    0.000 
#
# Total GULP energy -178571.139627 kJ/mol
# GULP energy per Si atom -5580.348113 kJ/mol
# Density = 2.046418 g / cm^3
# Si number density = 20.510861 Si / 1000 Ang^3
#
#
#
# Elastic Constant Matrix: (Units=GPa)
#
#
# Indices 1 2 3 4 5 6 
#
# 1 31.9853 -7.8165 12.9939 0.0000 0.0000 0.0000
# 2 -7.8165 32.2637 -2.7339 0.0000 0.0000 0.0000
# 3 12.9939 -2.7339 92.0315 0.0000 0.0000 0.0000
# 4 0.0000 0.0000 0.0000 33.8760 0.0000 0.0000
# 5 0.0000 0.0000 0.0000 0.0000 23.6721 0.0000
# 6 0.0000 0.0000 0.0000 0.0000 0.0000 26.1731
#
#
#
# Elastic Compliance Matrix: (Units=1/GPa)
#
#
# Indices 1 2 3 4 5 6 
#
# 1 0.035168 0.008120 -0.004724 0.000000 0.000000 0.000000
# 2 0.008120 0.032948 -0.000168 0.000000 0.000000 0.000000
# 3 -0.004724 -0.000168 0.011528 0.000000 0.000000 0.000000
# 4 0.000000 0.000000 0.000000 0.029519 0.000000 0.000000
# 5 0.000000 0.000000 0.000000 0.000000 0.042244 0.000000
# 6 0.000000 0.000000 0.000000 0.000000 0.000000 0.038207
#
#
# Mechanical properties :
#
#
# Convention : Reuss Voigt Hill
#
# Bulk Modulus (GPa) = 11.61453 17.90750 14.76102
# Shear Modulus (GPa) = 23.60078 27.00003 25.30041
#
# Velocity S-wave (km/s) = 3.39580 3.63213 3.51595
# Velocity P-wave (km/s) = 4.58805 5.13220 4.86774
#
# Compressibility (1/GPa) = 0.08609904
#
# Stress axis : x y z
#
# Youngs Moduli (GPa) = 28.43512 30.35130 86.74634
#
# Poissons Ratio (x) = -0.24644 0.40980
# Poissons Ratio (y) = -0.23089 0.01455
# Poissons Ratio (z) = 0.13433 0.00509
#
# Static dielectric constant tensor:
#      x y z
#    x 1.695590 0.000000 0.000000 
#    y 0.000000 1.701820 0.000000 
#    z 0.000000 0.000000 1.776110 
# 
# From -- ./inp_files/24320.got.cif
#   From: 2010.05.17/outbox.cif.g08.bks.cpg/sg40_13_cif.got.tgz:24320.got - 2010.06.03 18:35:42.
