data_PCOD9363968
_publ_section_title
;
Structure prediction by ZEFSAII (Michael W. Deem and Ramdas Pophale) SiO2 
 PCOD9363968
Probable space group: A M A 2
;
_chemical_formula_sum "Si O2"
_cell_formula_units_Z 48
_cell_length_a 8.629232
_cell_length_b 19.559086
_cell_length_c 15.359140
_cell_angle_alpha 90.000000
_cell_angle_beta 90.000000
_cell_angle_gamma 90.000000
_cell_volume 2592.313972
_symmetry_space_group_name_H-M "A M A 2"
_symmetry_group_IT_number 40
_symmetry_cell_setting 'orthorhombic'
loop_
_space_group_symop_operation_xyz
x,y,z
-x,-y,z
1/2-x,y,z
1/2+x,-y,z
x,1/2+y,1/2+z
-x,1/2-y,1/2+z
1/2-x,1/2+y,1/2+z
1/2+x,1/2-y,1/2+z
loop_
_atom_site_type_symbol
_atom_site_label
_atom_site_fract_x
_atom_site_fract_y
_atom_site_fract_z
Si Si1 0.063690 0.925393 0.893980
Si Si2 0.564030 0.830211 0.245244
Si Si3 0.435126 0.925614 0.395101
Si Si4 0.935017 0.425715 0.088779
Si Si5 0.062509 0.328668 0.237096
Si Si6 0.063557 0.924598 0.094307
O O1 0.250000 0.928734 0.892532
O O2 0.014327 0.868767 0.824635
O O3 0.017818 0.910546 0.993812
O O4 0.000000 0.000000 0.870027
O O5 0.750000 0.834294 0.250660
O O6 0.492313 0.868750 0.328033
O O7 0.518702 0.750697 0.241323
O O8 0.505871 0.869750 0.159904
O O9 0.250000 0.928599 0.397164
O O10 0.499120 0.912661 0.492122
O O11 0.500000 0.000000 0.367630
O O12 0.750000 0.429037 0.085135
O O13 0.000000 0.500000 0.116750
O O14 0.990471 0.368304 0.155637
O O15 0.250000 0.332451 0.230457
O O16 0.250000 0.924811 0.100621
O O17 0.000000 0.000000 0.116344
#
# Coordination Sequence:
#
# PCOD9363968 Si02
#       6
#     8   8   8   8   8   8
#     4   9  19  36  58  82 108 141 182 228 275 325
#     4  11  23  38  56  82 117 153 188 231 283 337
#     4  11  22  39  62  86 113 147 191 238 286 340
#     4  11  22  38  61  87 115 148 190 237 285 337
#     4  10  22  39  57  82 117 153 187 228 281 337
#     4  10  20  36  58  83 110 144 188 234 281 334
#
# _framework density 18.516275
#
# number of rings (size 3 to 8) (size 9 to 14) (size 15 to 20)
#    0.000    1.667    0.000    6.000    0.000    5.333 
#    0.000    1.667    0.000    0.000    0.000    0.000 
#    0.000    0.000    0.000    0.000    0.000    0.000 
#
# Total GULP energy -134151.900098 kJ/mol
# GULP energy per Si atom -5589.662504 kJ/mol
# Density = 1.847413 g / cm^3
# Si number density = 18.516275 Si / 1000 Ang^3
#
#
#
# Elastic Constant Matrix: (Units=GPa)
#
#
# Indices 1 2 3 4 5 6 
#
# 1 92.1363 71.9700 53.4403 0.0000 0.0000 0.0000
# 2 71.9700 195.9831 125.3427 0.0000 0.0000 0.0000
# 3 53.4403 125.3427 120.1852 0.0000 0.0000 0.0000
# 4 0.0000 0.0000 0.0000 2.9420 0.0000 0.0000
# 5 0.0000 0.0000 0.0000 0.0000 30.0461 0.0000
# 6 0.0000 0.0000 0.0000 0.0000 0.0000 27.0334
#
#
#
# Elastic Compliance Matrix: (Units=1/GPa)
#
#
# Indices 1 2 3 4 5 6 
#
# 1 0.015544 -0.003867 -0.002878 0.000000 0.000000 0.000000
# 2 -0.003867 0.016285 -0.015264 0.000000 0.000000 0.000000
# 3 -0.002878 -0.015264 0.025520 0.000000 0.000000 0.000000
# 4 0.000000 0.000000 0.000000 0.339899 0.000000 0.000000
# 5 0.000000 0.000000 0.000000 0.000000 0.033282 0.000000
# 6 0.000000 0.000000 0.000000 0.000000 0.000000 0.036991
#
#
# Mechanical properties :
#
#
# Convention : Reuss Voigt Hill
#
# Bulk Modulus (GPa) = 75.02607 101.09007 88.05807
# Shear Modulus (GPa) = 9.69022 22.50777 16.09899
#
# Velocity S-wave (km/s) = 2.29013 3.49028 2.95184
# Velocity P-wave (km/s) = 6.89927 8.42357 7.69923
#
# Compressibility (1/GPa) = 0.01332870
#
# Stress axis : x y z
#
# Youngs Moduli (GPa) = 64.33469 61.40599 39.18523
#
# Poissons Ratio (x) = 0.23746 0.11279
# Poissons Ratio (y) = 0.24879 0.59814
# Poissons Ratio (z) = 0.18518 0.93732
#
# Static dielectric constant tensor:
#      x y z
#    x 1.620730 0.000000 0.000000 
#    y 0.000000 1.602050 0.000000 
#    z 0.000000 0.000000 1.630930 
# 
# From -- ./inp_files/15041.got.cif
#   From: 2010.05.17/outbox.cif.g08.bks.cpg/sg40_8_cif.got.tgz:15041.got - 2010.06.03 18:35:42.
