data_PCOD9363387
_publ_section_title
;
Structure prediction by ZEFSAII (Michael W. Deem and Ramdas Pophale) SiO2 
 PCOD9363387
Probable space group: A M A 2
;
_chemical_formula_sum "Si O2"
_cell_formula_units_Z 60
_cell_length_a 11.579934
_cell_length_b 27.778777
_cell_length_c 9.443953
_cell_angle_alpha 90.000000
_cell_angle_beta 90.000000
_cell_angle_gamma 90.000000
_cell_volume 3037.896843
_symmetry_space_group_name_H-M "A M A 2"
_symmetry_group_IT_number 40
_symmetry_cell_setting 'orthorhombic'
loop_
_space_group_symop_operation_xyz
x,y,z
-x,-y,z
1/2-x,y,z
1/2+x,-y,z
x,1/2+y,1/2+z
-x,1/2-y,1/2+z
1/2-x,1/2+y,1/2+z
1/2+x,1/2-y,1/2+z
loop_
_atom_site_type_symbol
_atom_site_label
_atom_site_fract_x
_atom_site_fract_y
_atom_site_fract_z
Si Si1 0.613550 0.695291 0.035600
Si Si2 0.884263 0.808397 0.034527
Si Si3 0.000000 0.500000 0.938288
Si Si4 0.122361 0.945267 0.212021
Si Si5 0.514316 0.133582 0.794313
Si Si6 0.873561 0.916331 0.569583
Si Si7 0.885052 0.531940 0.384316
Si Si8 0.459937 0.639868 0.812802
O O1 0.750000 0.689841 0.020157
O O2 0.575297 0.667801 0.178748
O O3 0.586030 0.751923 0.040698
O O4 0.550255 0.671596 0.901850
O O5 0.750000 0.813170 0.989722
O O6 0.968817 0.836737 0.928330
O O7 0.898873 0.830572 0.190293
O O8 0.897613 0.514240 0.831393
O O9 0.970795 0.455078 0.034904
O O10 0.250000 0.924001 0.227719
O O11 0.026783 0.904867 0.240845
O O12 0.113127 0.966911 0.055725
O O13 0.404615 0.112041 0.710331
O O14 0.590876 0.087080 0.835741
O O15 0.750000 0.940354 0.580330
O O16 0.877841 0.881306 0.434392
O O17 0.750000 0.518371 0.344251
O O18 0.000000 0.500000 0.342894
#
# Coordination Sequence:
#
# PCOD9363387 Si02
#       8
#     8   8   4   8   8   8   8   8
#     4  10  22  40  63  90 122 163 210 267 328 398
#     4  11  22  38  63  93 124 163 212 264 330 394
#     4  10  20  36  56  84 114 156 212 250 312 358
#     4  10  19  35  58  83 115 152 203 256 304 362
#     4  11  23  42  62  91 131 169 207 266 330 390
#     4  10  22  38  58  84 120 162 208 256 316 382
#     4  11  24  42  63  94 128 169 218 268 326 386
#     4  10  20  38  59  85 117 155 207 256 318 376
#
# _framework density 19.750506999999999
#
# number of rings (size 3 to 8) (size 9 to 14) (size 15 to 20)
#    0.000    1.600    2.000    2.800    0.933    1.067 
#    0.000    1.333    0.000    6.400    0.000    0.000 
#    0.000    0.000    0.000    0.000    0.000    0.000 
#
# Total GULP energy -167415.320235 kJ/mol
# GULP energy per Si atom -5580.510675 kJ/mol
# Density = 1.970555 g / cm^3
# Si number density = 19.750507 Si / 1000 Ang^3
#
#
#
# Elastic Constant Matrix: (Units=GPa)
#
#
# Indices 1 2 3 4 5 6 
#
# 1 89.0513 30.8519 19.8892 0.0000 0.0000 0.0000
# 2 30.8519 95.1304 32.6996 0.0000 0.0000 0.0000
# 3 19.8892 32.6996 92.0073 0.0000 0.0000 0.0000
# 4 0.0000 0.0000 0.0000 28.8102 0.0000 0.0000
# 5 0.0000 0.0000 0.0000 0.0000 -8.1888 0.0000
# 6 0.0000 0.0000 0.0000 0.0000 0.0000 17.9950
#
#
#
# Elastic Compliance Matrix: (Units=1/GPa)
#
#
# Indices 1 2 3 4 5 6 
#
# 1 0.012824 -0.003652 -0.001474 0.000000 0.000000 0.000000
# 2 -0.003652 0.013015 -0.003836 0.000000 0.000000 0.000000
# 3 -0.001474 -0.003836 0.012551 0.000000 0.000000 0.000000
# 4 0.000000 0.000000 0.000000 0.034710 0.000000 0.000000
# 5 0.000000 0.000000 0.000000 0.000000 -0.122119 0.000000
# 6 0.000000 0.000000 0.000000 0.000000 0.000000 0.055571
#
#
# Mechanical properties :
#
#
# Convention : Reuss Voigt Hill
#
# Bulk Modulus (GPa) = 48.86439 49.23004 49.04722
# Shear Modulus (GPa) = 159.75306 20.57319 90.16312
#
# Velocity S-wave (km/s) = 9.00340 3.23097 6.76389
# Velocity P-wave (km/s) = 11.52719 6.23690 9.26755
#
# Compressibility (1/GPa) = 0.02046480
#
# Stress axis : x y z
#
# Youngs Moduli (GPa) = 77.97840 76.83482 79.67685
#
# Poissons Ratio (x) = 0.28062 0.11746
# Poissons Ratio (y) = 0.28480 0.30564
# Poissons Ratio (z) = 0.11495 0.29474
#
# Static dielectric constant tensor:
#      x y z
#    x 1.700110 0.000000 0.000000 
#    y 0.000000 1.695030 0.000000 
#    z 0.000000 0.000000 1.668910 
# 
# From -- ./inp_files/5584.got.cif
#   From: 2010.05.17/outbox.cif.g08.bks.cpg/sg40_3_cif.got.tgz:5584.got - 2010.06.03 18:35:42.
