data_PCOD9363374
_publ_section_title
;
Structure prediction by ZEFSAII (Michael W. Deem and Ramdas Pophale) SiO2 
 PCOD9363374
Probable space group: A M A 2
;
_chemical_formula_sum "Si O2"
_cell_formula_units_Z 48
_cell_length_a 16.026379
_cell_length_b 12.579642
_cell_length_c 12.871332
_cell_angle_alpha 90.000000
_cell_angle_beta 90.000000
_cell_angle_gamma 90.000000
_cell_volume 2594.939180
_symmetry_space_group_name_H-M "A M A 2"
_symmetry_group_IT_number 40
_symmetry_cell_setting 'orthorhombic'
loop_
_space_group_symop_operation_xyz
x,y,z
-x,-y,z
1/2-x,y,z
1/2+x,-y,z
x,1/2+y,1/2+z
-x,1/2-y,1/2+z
1/2-x,1/2+y,1/2+z
1/2+x,1/2-y,1/2+z
loop_
_atom_site_type_symbol
_atom_site_label
_atom_site_fract_x
_atom_site_fract_y
_atom_site_fract_z
Si Si1 0.250000 0.844755 0.098300
Si Si2 0.093609 0.005046 0.756564
Si Si3 0.750000 0.761278 0.991824
Si Si4 0.750000 0.499864 0.404922
Si Si5 0.250000 0.431917 0.828194
Si Si6 0.413362 0.743976 0.175714
Si Si7 0.580435 0.173252 0.578439
Si Si8 0.072480 0.422186 0.853491
O O1 0.250000 0.911543 0.205744
O O2 0.335255 0.777837 0.105120
O O3 0.250000 0.920379 0.000507
O O4 0.095137 0.920263 0.662425
O O5 0.167604 0.983136 0.835920
O O6 0.103556 0.124576 0.714475
O O7 0.000000 0.000000 0.803304
O O8 0.750000 0.879462 0.947648
O O9 0.750000 0.678506 0.894595
O O10 0.666264 0.736059 0.056762
O O11 0.161758 0.482387 0.857223
O O12 0.502743 0.742305 0.118925
O O13 0.418004 0.824831 0.273014
O O14 0.555226 0.121721 0.468300
O O15 0.000000 0.500000 0.818992
#
# Coordination Sequence:
#
# PCOD9363374 Si02
#       8
#     4   8   4   4   4   8   8   8
#     4  10  22  36  54  82 114 150 186 222 281 350
#     4  10  21  39  61  84 111 150 195 239 281 338
#     4  10  21  38  61  84 115 156 188 230 290 348
#     4  12  23  35  58  87 120 149 183 236 294 348
#     4   8  18  37  55  73 107 151 189 216 267 342
#     4  10  21  38  59  82 114 152 191 236 287 341
#     4  10  21  38  61  85 109 146 197 238 277 337
#     4  10  19  35  57  82 111 147 187 232 283 338
#
# _framework density 18.497544000000001
#
# number of rings (size 3 to 8) (size 9 to 14) (size 15 to 20)
#    0.000    2.000    0.000    5.500    0.000    6.667 
#    0.000    3.333    0.000    6.000    0.000    0.000 
#    0.000    0.000    0.000    0.000    0.000    0.000 
#
# Total GULP energy -133923.732261 kJ/mol
# GULP energy per Si atom -5580.155511 kJ/mol
# Density = 1.845544 g / cm^3
# Si number density = 18.497544 Si / 1000 Ang^3
#
#
#
# Elastic Constant Matrix: (Units=GPa)
#
#
# Indices 1 2 3 4 5 6 
#
# 1 167.6339 61.0211 82.8370 0.0000 0.0000 0.0000
# 2 61.0211 70.4637 37.2721 0.0000 0.0000 0.0000
# 3 82.8370 37.2721 101.3797 0.0000 0.0000 0.0000
# 4 0.0000 0.0000 0.0000 20.8235 0.0000 0.0000
# 5 0.0000 0.0000 0.0000 0.0000 4.2931 0.0000
# 6 0.0000 0.0000 0.0000 0.0000 0.0000 19.5148
#
#
#
# Elastic Compliance Matrix: (Units=1/GPa)
#
#
# Indices 1 2 3 4 5 6 
#
# 1 0.011978 -0.006450 -0.007416 0.000000 0.000000 0.000000
# 2 -0.006450 0.021091 -0.002484 0.000000 0.000000 0.000000
# 3 -0.007416 -0.002484 0.016836 0.000000 0.000000 0.000000
# 4 0.000000 0.000000 0.000000 0.048023 0.000000 0.000000
# 5 0.000000 0.000000 0.000000 0.000000 0.232933 0.000000
# 6 0.000000 0.000000 0.000000 0.000000 0.000000 0.051243
#
#
# Mechanical properties :
#
#
# Convention : Reuss Voigt Hill
#
# Bulk Modulus (GPa) = 58.11820 77.97086 68.04453
# Shear Modulus (GPa) = 11.88951 19.48276 15.68613
#
# Velocity S-wave (km/s) = 2.53802 3.24892 2.91522
# Velocity P-wave (km/s) = 6.33059 7.50450 6.94240
#
# Compressibility (1/GPa) = 0.01720631
#
# Stress axis : x y z
#
# Youngs Moduli (GPa) = 83.48784 47.41291 59.39537
#
# Poissons Ratio (x) = 0.30582 0.44045
# Poissons Ratio (y) = 0.53851 0.14752
# Poissons Ratio (z) = 0.61911 0.11776
#
# Static dielectric constant tensor:
#      x y z
#    x 1.674860 0.000000 0.000000 
#    y 0.000000 1.618160 0.000000 
#    z 0.000000 0.000000 1.612180 
# 
# From -- ./inp_files/12944.got.cif
#   From: 2010.05.17/outbox.cif.g08.bks.cpg/sg40_7_cif.got.tgz:12944.got - 2010.06.03 18:35:42.
