data_PCOD9363625
_publ_section_title
;
Structure prediction by ZEFSAII (Michael W. Deem and Ramdas Pophale) SiO2 
 PCOD9363625
Probable space group: A M A 2
;
_chemical_formula_sum "Si O2"
_cell_formula_units_Z 40
_cell_length_a 7.375205
_cell_length_b 29.272277
_cell_length_c 7.737217
_cell_angle_alpha 90.000000
_cell_angle_beta 90.000000
_cell_angle_gamma 90.000000
_cell_volume 1670.380379
_symmetry_space_group_name_H-M "A M A 2"
_symmetry_group_IT_number 40
_symmetry_cell_setting 'orthorhombic'
loop_
_space_group_symop_operation_xyz
x,y,z
-x,-y,z
1/2-x,y,z
1/2+x,-y,z
x,1/2+y,1/2+z
-x,1/2-y,1/2+z
1/2-x,1/2+y,1/2+z
1/2+x,1/2-y,1/2+z
loop_
_atom_site_type_symbol
_atom_site_label
_atom_site_fract_x
_atom_site_fract_y
_atom_site_fract_z
Si Si1 0.470571 0.718059 0.737180
Si Si2 0.971675 0.877909 0.127786
Si Si3 0.043635 0.314129 0.119561
Si Si4 0.453886 0.089635 0.503545
Si Si5 0.966875 0.949016 0.841193
O O1 0.250000 0.720114 0.736446
O O2 0.523361 0.675715 0.612736
O O3 0.536494 0.769512 0.710035
O O4 0.539369 0.702099 0.921470
O O5 0.750000 0.878004 0.131534
O O6 0.032296 0.897943 0.315283
O O7 0.033573 0.910680 0.974587
O O8 0.250000 0.321798 0.176835
O O9 0.947352 0.362613 0.110943
O O10 0.250000 0.073422 0.466830
O O11 0.540566 0.056602 0.645584
O O12 0.750000 0.942914 0.829322
O O13 0.000000 0.000000 0.906712
#
# Coordination Sequence:
#
# PCOD9363625 Si02
#       5
#     8   8   8   8   8
#     4   9  19  34  51  75 108 144 181 220 267 329
#     4   8  16  34  54  73 101 138 180 213 256 327
#     4  10  20  32  52  81 109 141 182 227 269 315
#     4   9  19  36  56  75 106 148 179 216 274 332
#     4  10  21  36  57  80 103 139 181 225 277 326
#
# _framework density 23.946642000000001
#
# number of rings (size 3 to 8) (size 9 to 14) (size 15 to 20)
#    0.000    2.800    0.000    1.800    2.800    3.200 
#    0.000    4.000    0.000    0.000    0.000    0.000 
#    0.000    0.000    0.000    0.000    0.000    0.000 
#
# Total GULP energy -111554.661449 kJ/mol
# GULP energy per Si atom -5577.733072 kJ/mol
# Density = 2.389214 g / cm^3
# Si number density = 23.946642 Si / 1000 Ang^3
#
#
#
# Elastic Constant Matrix: (Units=GPa)
#
#
# Indices 1 2 3 4 5 6 
#
# 1 92.4888 -6.3227 -0.9383 0.0000 0.0000 0.0000
# 2 -6.3227 46.4212 22.9378 0.0000 0.0000 0.0000
# 3 -0.9383 22.9378 74.9223 0.0000 0.0000 0.0000
# 4 0.0000 0.0000 0.0000 43.3626 0.0000 0.0000
# 5 0.0000 0.0000 0.0000 0.0000 2.4118 0.0000
# 6 0.0000 0.0000 0.0000 0.0000 0.0000 16.6292
#
#
#
# Elastic Compliance Matrix: (Units=1/GPa)
#
#
# Indices 1 2 3 4 5 6 
#
# 1 0.010923 0.001673 -0.000375 0.000000 0.000000 0.000000
# 2 0.001673 0.025638 -0.007828 0.000000 0.000000 0.000000
# 3 -0.000375 -0.007828 0.015739 0.000000 0.000000 0.000000
# 4 0.000000 0.000000 0.000000 0.023061 0.000000 0.000000
# 5 0.000000 0.000000 0.000000 0.000000 0.414628 0.000000
# 6 0.000000 0.000000 0.000000 0.000000 0.000000 0.060135
#
#
# Mechanical properties :
#
#
# Convention : Reuss Voigt Hill
#
# Bulk Modulus (GPa) = 25.48499 27.24289 26.36394
# Shear Modulus (GPa) = 8.67657 25.69107 17.18382
#
# Velocity S-wave (km/s) = 1.90556 3.27899 2.68169
# Velocity P-wave (km/s) = 3.93790 5.07315 4.54114
#
# Compressibility (1/GPa) = 0.03923878
#
# Stress axis : x y z
#
# Youngs Moduli (GPa) = 91.55247 39.00483 63.53611
#
# Poissons Ratio (x) = -0.06526 0.02386
# Poissons Ratio (y) = -0.15319 0.49737
# Poissons Ratio (z) = 0.03438 0.30534
#
# Static dielectric constant tensor:
#      x y z
#    x 1.903720 0.000000 0.000000 
#    y 0.000000 1.935810 0.000000 
#    z 0.000000 0.000000 1.930650 
# 
# From -- ./inp_files/4231.got.cif
#   From: 2010.05.17/outbox.cif.g08.bks.cpg/sg40_3_cif.got.tgz:4231.got - 2010.06.03 18:35:42.
