data_PCOD9363048
_publ_section_title
;
Structure prediction by ZEFSAII (Michael W. Deem and Ramdas Pophale) SiO2 
 PCOD9363048
Probable space group: A M A 2
;
_chemical_formula_sum "Si O2"
_cell_formula_units_Z 56
_cell_length_a 8.410357
_cell_length_b 24.792776
_cell_length_c 14.090652
_cell_angle_alpha 90.000000
_cell_angle_beta 90.000000
_cell_angle_gamma 90.000000
_cell_volume 2938.127762
_symmetry_space_group_name_H-M "A M A 2"
_symmetry_group_IT_number 40
_symmetry_cell_setting 'orthorhombic'
loop_
_space_group_symop_operation_xyz
x,y,z
-x,-y,z
1/2-x,y,z
1/2+x,-y,z
x,1/2+y,1/2+z
-x,1/2-y,1/2+z
1/2-x,1/2+y,1/2+z
1/2+x,1/2-y,1/2+z
loop_
_atom_site_type_symbol
_atom_site_label
_atom_site_fract_x
_atom_site_fract_y
_atom_site_fract_z
Si Si1 0.557912 0.167080 0.053890
Si Si2 0.441253 0.227261 0.448964
Si Si3 0.058087 0.875090 0.557014
Si Si4 0.441982 0.440902 0.454025
Si Si5 0.440238 0.664526 0.764189
Si Si6 0.058050 0.440593 0.236148
Si Si7 0.059883 0.939608 0.369037
O O1 0.750000 0.166702 0.050895
O O2 0.505690 0.177741 0.160986
O O3 0.501540 0.214564 0.983814
O O4 0.502179 0.108440 0.018651
O O5 0.250000 0.229399 0.443641
O O6 0.488623 0.181966 0.525415
O O7 0.498967 0.205108 0.347114
O O8 0.250000 0.870859 0.557725
O O9 0.004062 0.897243 0.658669
O O10 0.014543 0.917739 0.474068
O O11 0.500000 0.500000 0.483637
O O12 0.250000 0.441497 0.454775
O O13 0.494020 0.431341 0.344658
O O14 0.250000 0.666868 0.761993
O O15 0.491867 0.604614 0.796488
O O16 0.250000 0.440489 0.235560
O O17 0.000000 0.500000 0.207750
O O18 0.250000 0.938833 0.362311
O O19 0.000000 0.000000 0.353636
#
# Coordination Sequence:
#
# PCOD9363048 Si02
#       7
#     8   8   8   8   8   8   8
#     4  10  21  38  57  77 103 137 171 210 262 313
#     4   9  20  37  55  76 104 136 172 213 259 309
#     4   9  18  31  50  77 108 140 175 215 260 306
#     4   9  19  35  54  75 103 135 169 210 255 304
#     4  10  21  37  56  79 105 136 175 218 261 313
#     4   9  17  30  49  75 105 138 173 211 255 304
#     4  10  19  32  51  77 109 144 179 219 264 311
#
# _framework density 19.059756
#
# number of rings (size 3 to 8) (size 9 to 14) (size 15 to 20)
#    0.000    2.571    0.000    1.286    0.000    4.571 
#    0.000    4.286    0.000    0.000    0.000    0.000 
#    0.000    0.000    0.000    0.000    0.000    0.000 
#
# Total GULP energy -156223.853836 kJ/mol
# GULP energy per Si atom -5579.423351 kJ/mol
# Density = 1.901638 g / cm^3
# Si number density = 19.059756 Si / 1000 Ang^3
#
#
#
# Elastic Constant Matrix: (Units=GPa)
#
#
# Indices 1 2 3 4 5 6 
#
# 1 7.9437 17.8159 13.0151 0.0000 0.0000 0.0000
# 2 17.8159 146.0181 81.0367 0.0000 0.0000 0.0000
# 3 13.0151 81.0367 96.2686 0.0000 0.0000 0.0000
# 4 0.0000 0.0000 0.0000 18.9566 0.0000 0.0000
# 5 0.0000 0.0000 0.0000 0.0000 13.1407 0.0000
# 6 0.0000 0.0000 0.0000 0.0000 0.0000 24.0225
#
#
#
# Elastic Compliance Matrix: (Units=1/GPa)
#
#
# Indices 1 2 3 4 5 6 
#
# 1 0.179235 -0.015804 -0.010929 0.000000 0.000000 0.000000
# 2 -0.015804 0.014246 -0.009856 0.000000 0.000000 0.000000
# 3 -0.010929 -0.009856 0.020161 0.000000 0.000000 0.000000
# 4 0.000000 0.000000 0.000000 0.052752 0.000000 0.000000
# 5 0.000000 0.000000 0.000000 0.000000 0.076100 0.000000
# 6 0.000000 0.000000 0.000000 0.000000 0.000000 0.041628
#
#
# Mechanical properties :
#
#
# Convention : Reuss Voigt Hill
#
# Bulk Modulus (GPa) = 7.11911 52.66286 29.89098
# Shear Modulus (GPa) = 9.91827 20.44815 15.18321
#
# Velocity S-wave (km/s) = 2.28365 3.27898 2.82549
# Velocity P-wave (km/s) = 3.27058 6.48275 5.13433
#
# Compressibility (1/GPa) = 0.14046704
#
# Stress axis : x y z
#
# Youngs Moduli (GPa) = 5.57926 70.19332 49.59979
#
# Poissons Ratio (x) = 1.10931 0.54206
# Poissons Ratio (y) = 0.08817 0.48884
# Poissons Ratio (z) = 0.06097 0.69180
#
# Static dielectric constant tensor:
#      x y z
#    x 1.659450 0.000000 0.000000 
#    y 0.000000 1.644410 0.000000 
#    z 0.000000 0.000000 1.663580 
# 
# From -- ./inp_files/15304.got.cif
#   From: 2010.05.17/outbox.cif.g08.bks.cpg/sg40_8_cif.got.tgz:15304.got - 2010.06.03 18:35:42.
