data_PCOD9363979
_publ_section_title
;
Structure prediction by ZEFSAII (Michael W. Deem and Ramdas Pophale) SiO2 
 PCOD9363979
Probable space group: A M A 2
;
_chemical_formula_sum "Si O2"
_cell_formula_units_Z 64
_cell_length_a 8.588844
_cell_length_b 25.688915
_cell_length_c 15.387685
_cell_angle_alpha 90.000000
_cell_angle_beta 90.000000
_cell_angle_gamma 90.000000
_cell_volume 3395.109327
_symmetry_space_group_name_H-M "A M A 2"
_symmetry_group_IT_number 40
_symmetry_cell_setting 'orthorhombic'
loop_
_space_group_symop_operation_xyz
x,y,z
-x,-y,z
1/2-x,y,z
1/2+x,-y,z
x,1/2+y,1/2+z
-x,1/2-y,1/2+z
1/2-x,1/2+y,1/2+z
1/2+x,1/2-y,1/2+z
loop_
_atom_site_type_symbol
_atom_site_label
_atom_site_fract_x
_atom_site_fract_y
_atom_site_fract_z
Si Si1 0.061591 0.233212 0.242210
Si Si2 0.936026 0.168348 0.957129
Si Si3 0.563076 0.556621 0.138029
Si Si4 0.937684 0.365717 0.630169
Si Si5 0.938031 0.941607 0.284301
Si Si6 0.065071 0.780977 0.435774
Si Si7 0.061039 0.849469 0.759649
Si Si8 0.563448 0.391297 0.967611
O O1 0.250000 0.231494 0.252027
O O2 0.017864 0.189916 0.172473
O O3 0.016488 0.292740 0.222021
O O4 0.989199 0.218871 0.335185
O O5 0.750000 0.172224 0.956032
O O6 0.987443 0.150276 0.860803
O O7 0.004966 0.226004 0.971918
O O8 0.990946 0.131609 0.034795
O O9 0.500000 0.500000 0.161713
O O10 0.750000 0.555725 0.138846
O O11 0.506401 0.601814 0.203616
O O12 0.505716 0.572545 0.042402
O O13 0.750000 0.367119 0.623688
O O14 0.987740 0.409563 0.698966
O O15 0.750000 0.942377 0.284360
O O16 0.986610 0.911889 0.372453
O O17 0.000000 0.000000 0.284302
O O18 0.250000 0.782843 0.442611
O O19 0.994122 0.832247 0.479172
O O20 0.250000 0.850954 0.758597
O O21 0.750000 0.392651 0.971154
#
# Coordination Sequence:
#
# PCOD9363979 Si02
#       8
#     8   8   8   8   8   8   8   8
#     4   9  17  35  58  81 115 153 188 236 294 347
#     4  10  21  38  59  85 117 155 195 245 298 350
#     4  11  23  40  60  86 114 152 199 246 297 353
#     4  10  20  36  58  86 119 155 194 241 297 347
#     4  10  22  39  59  82 116 157 194 236 290 347
#     4  11  21  34  55  86 120 156 194 233 285 354
#     4   8  18  37  60  81 110 151 192 236 295 349
#     4  11  22  39  59  85 118 156 194 242 295 347
#
# _framework density 18.850645
#
# number of rings (size 3 to 8) (size 9 to 14) (size 15 to 20)
#    0.000    2.000    1.250    3.375    1.750    3.000 
#    0.000    6.875    0.000    3.000    0.000    0.000 
#    0.000    0.000    0.000    0.000    0.000    0.000 
#
# Total GULP energy -178712.654125 kJ/mol
# GULP energy per Si atom -5584.770441 kJ/mol
# Density = 1.880774 g / cm^3
# Si number density = 18.850645 Si / 1000 Ang^3
#
#
#
# Elastic Constant Matrix: (Units=GPa)
#
#
# Indices 1 2 3 4 5 6 
#
# 1 37.5531 24.2948 16.5884 0.0000 0.0000 0.0000
# 2 24.2948 115.9386 45.1529 0.0000 0.0000 0.0000
# 3 16.5884 45.1529 71.5438 0.0000 0.0000 0.0000
# 4 0.0000 0.0000 0.0000 31.1673 0.0000 0.0000
# 5 0.0000 0.0000 0.0000 0.0000 22.9017 0.0000
# 6 0.0000 0.0000 0.0000 0.0000 0.0000 9.6061
#
#
#
# Elastic Compliance Matrix: (Units=1/GPa)
#
#
# Indices 1 2 3 4 5 6 
#
# 1 0.031725 -0.005016 -0.004190 0.000000 0.000000 0.000000
# 2 -0.005016 0.012229 -0.006555 0.000000 0.000000 0.000000
# 3 -0.004190 -0.006555 0.019086 0.000000 0.000000 0.000000
# 4 0.000000 0.000000 0.000000 0.032085 0.000000 0.000000
# 5 0.000000 0.000000 0.000000 0.000000 0.043665 0.000000
# 6 0.000000 0.000000 0.000000 0.000000 0.000000 0.104101
#
#
# Mechanical properties :
#
#
# Convention : Reuss Voigt Hill
#
# Bulk Modulus (GPa) = 31.72817 44.12307 37.92562
# Shear Modulus (GPa) = 17.54883 22.00165 19.77524
#
# Velocity S-wave (km/s) = 3.05444 3.42007 3.24242
# Velocity P-wave (km/s) = 5.41363 6.24927 5.84640
#
# Compressibility (1/GPa) = 0.03151773
#
# Stress axis : x y z
#
# Youngs Moduli (GPa) = 31.52091 81.77085 52.39420
#
# Poissons Ratio (x) = 0.41017 0.21954
# Poissons Ratio (y) = 0.15811 0.34345
# Poissons Ratio (z) = 0.13208 0.53602
#
# Static dielectric constant tensor:
#      x y z
#    x 1.638660 0.000000 0.000000 
#    y 0.000000 1.640120 0.000000 
#    z 0.000000 0.000000 1.661440 
# 
# From -- ./inp_files/15674.got.cif
#   From: 2010.05.17/outbox.cif.g08.bks.cpg/sg40_8_cif.got.tgz:15674.got - 2010.06.03 18:35:42.
