data_PCOD9363208
_publ_section_title
;
Structure prediction by ZEFSAII (Michael W. Deem and Ramdas Pophale) SiO2 
 PCOD9363208
Probable space group: A M A 2
;
_chemical_formula_sum "Si O2"
_cell_formula_units_Z 64
_cell_length_a 14.997086
_cell_length_b 9.706900
_cell_length_c 22.749675
_cell_angle_alpha 90.000000
_cell_angle_beta 90.000000
_cell_angle_gamma 90.000000
_cell_volume 3311.788809
_symmetry_space_group_name_H-M "A M A 2"
_symmetry_group_IT_number 40
_symmetry_cell_setting 'orthorhombic'
loop_
_space_group_symop_operation_xyz
x,y,z
-x,-y,z
1/2-x,y,z
1/2+x,-y,z
x,1/2+y,1/2+z
-x,1/2-y,1/2+z
1/2-x,1/2+y,1/2+z
1/2+x,1/2-y,1/2+z
loop_
_atom_site_type_symbol
_atom_site_label
_atom_site_fract_x
_atom_site_fract_y
_atom_site_fract_z
Si Si1 0.022325 0.849865 0.152030
Si Si2 0.937620 0.122182 0.504592
Si Si3 0.435058 0.378089 0.522219
Si Si4 0.851441 0.161048 0.905037
Si Si5 0.905355 0.927135 0.704580
Si Si6 0.651532 0.667627 0.119361
Si Si7 0.519744 0.148490 0.373993
Si Si8 0.350422 0.116007 0.832821
O O1 0.077429 0.885711 0.092131
O O2 0.076473 0.730841 0.185713
O O3 0.928362 0.772703 0.136254
O O4 0.000000 0.000000 0.179337
O O5 0.857370 0.139150 0.549530
O O6 0.926903 0.110884 0.434719
O O7 0.002093 0.249295 0.512802
O O8 0.000000 0.000000 0.526927
O O9 0.500000 0.500000 0.503577
O O10 0.357037 0.365651 0.475253
O O11 0.750000 0.200012 0.888910
O O12 0.926238 0.274102 0.888619
O O13 0.873726 0.017268 0.872369
O O14 0.852381 0.929247 0.765101
O O15 0.863428 0.023730 0.654018
O O16 0.000000 0.000000 0.716898
O O17 0.750000 0.721366 0.133292
O O18 0.580256 0.259833 0.341077
O O19 0.500000 0.000000 0.345201
O O20 0.250000 0.158799 0.849450
#
# Coordination Sequence:
#
# PCOD9363208 Si02
#       8
#     8   8   8   8   8   8   8   8
#     4   9  19  36  56  79 111 150 183 222 283 341
#     4   9  17  32  51  74 106 144 181 217 271 330
#     4   9  16  31  52  75 108 145 181 222 271 327
#     4  10  20  35  57  83 111 149 195 235 275 328
#     4  10  20  37  60  81 109 149 190 229 275 329
#     4  10  19  33  55  82 110 144 191 237 273 320
#     4  10  21  37  57  81 115 150 182 230 287 338
#     4  11  23  39  60  85 111 145 192 236 277 331
#
# _framework density 19.324904
#
# number of rings (size 3 to 8) (size 9 to 14) (size 15 to 20)
#    0.000    2.250    0.000    4.875    0.000    1.500 
#    0.000   19.375    0.000    0.000    0.000    0.000 
#    0.000    0.000    0.000    0.000    0.000    0.000 
#
# Total GULP energy -178194.905438 kJ/mol
# GULP energy per Si atom -5568.590795 kJ/mol
# Density = 1.928092 g / cm^3
# Si number density = 19.324904 Si / 1000 Ang^3
#
#
#
# Elastic Constant Matrix: (Units=GPa)
#
#
# Indices 1 2 3 4 5 6 
#
# 1 82.6067 35.8878 24.4309 0.0000 0.0000 0.0000
# 2 35.8878 135.0622 21.8319 0.0000 0.0000 0.0000
# 3 24.4309 21.8319 67.2487 0.0000 0.0000 0.0000
# 4 0.0000 0.0000 0.0000 21.1271 0.0000 0.0000
# 5 0.0000 0.0000 0.0000 0.0000 48.9257 0.0000
# 6 0.0000 0.0000 0.0000 0.0000 0.0000 5.9811
#
#
#
# Elastic Compliance Matrix: (Units=1/GPa)
#
#
# Indices 1 2 3 4 5 6 
#
# 1 0.014788 -0.003230 -0.004323 0.000000 0.000000 0.000000
# 2 -0.003230 0.008520 -0.001592 0.000000 0.000000 0.000000
# 3 -0.004323 -0.001592 0.016958 0.000000 0.000000 0.000000
# 4 0.000000 0.000000 0.000000 0.047333 0.000000 0.000000
# 5 0.000000 0.000000 0.000000 0.000000 0.020439 0.000000
# 6 0.000000 0.000000 0.000000 0.000000 0.000000 0.167193
#
#
# Mechanical properties :
#
#
# Convention : Reuss Voigt Hill
#
# Bulk Modulus (GPa) = 45.51085 49.91319 47.71202
# Shear Modulus (GPa) = 16.61976 28.72457 22.67216
#
# Velocity S-wave (km/s) = 2.93579 3.85957 3.42893
# Velocity P-wave (km/s) = 5.92396 6.76359 6.35765
#
# Compressibility (1/GPa) = 0.02197278
#
# Stress axis : x y z
#
# Youngs Moduli (GPa) = 67.62396 117.37438 58.96989
#
# Poissons Ratio (x) = 0.37917 0.25496
# Poissons Ratio (y) = 0.21845 0.09390
# Poissons Ratio (z) = 0.29237 0.18690
#
# Static dielectric constant tensor:
#      x y z
#    x 1.644260 0.000000 0.000000 
#    y 0.000000 1.669090 0.000000 
#    z 0.000000 0.000000 1.723750 
# 
# From -- ./inp_files/24808.got.cif
#   From: 2010.05.17/outbox.cif.g08.bks.cpg/sg40_13_cif.got.tgz:24808.got - 2010.06.03 18:35:42.
