data_PCOD9363368
_publ_section_title
;
Structure prediction by ZEFSAII (Michael W. Deem and Ramdas Pophale) SiO2 
 PCOD9363368
Probable space group: A M A 2
;
_chemical_formula_sum "Si O2"
_cell_formula_units_Z 64
_cell_length_a 7.807611
_cell_length_b 34.482160
_cell_length_c 12.011365
_cell_angle_alpha 90.000000
_cell_angle_beta 90.000000
_cell_angle_gamma 90.000000
_cell_volume 3233.739223
_symmetry_space_group_name_H-M "A M A 2"
_symmetry_group_IT_number 40
_symmetry_cell_setting 'orthorhombic'
loop_
_space_group_symop_operation_xyz
x,y,z
-x,-y,z
1/2-x,y,z
1/2+x,-y,z
x,1/2+y,1/2+z
-x,1/2-y,1/2+z
1/2-x,1/2+y,1/2+z
1/2+x,1/2-y,1/2+z
loop_
_atom_site_type_symbol
_atom_site_label
_atom_site_fract_x
_atom_site_fract_y
_atom_site_fract_z
Si Si1 0.041644 0.276742 0.947620
Si Si2 0.956493 0.310168 0.406590
Si Si3 0.955984 0.455261 0.195436
Si Si4 0.546099 0.173199 0.653782
Si Si5 0.054563 0.101591 0.514898
Si Si6 0.952830 0.378470 0.566196
Si Si7 0.543563 0.954782 0.945554
Si Si8 0.551646 0.649794 0.807665
O O1 0.250000 0.276570 0.938408
O O2 0.978320 0.233340 0.929172
O O3 0.979813 0.309981 0.860823
O O4 0.001670 0.291263 0.072020
O O5 0.750000 0.308833 0.419123
O O6 0.022843 0.343677 0.488843
O O7 0.999462 0.320270 0.280275
O O8 0.750000 0.449574 0.194416
O O9 0.024695 0.432761 0.087963
O O10 0.016504 0.443884 0.319775
O O11 0.000000 0.500000 0.184847
O O12 0.750000 0.166293 0.642676
O O13 0.449279 0.136729 0.602765
O O14 0.250000 0.092313 0.482961
O O15 0.964209 0.117972 0.405545
O O16 0.750000 0.380054 0.544126
O O17 0.018872 0.421130 0.529575
O O18 0.974355 0.366361 0.694171
O O19 0.750000 0.954111 0.943824
O O20 0.500000 0.000000 0.968798
O O21 0.750000 0.656934 0.784002
#
# Coordination Sequence:
#
# PCOD9363368 Si02
#       8
#     8   8   8   8   8   8   8   8
#     4   8  18  35  52  73 105 140 173 218 272 322
#     4  10  20  35  55  77 105 142 180 222 270 324
#     4   9  18  32  54  83 111 138 172 219 271 325
#     4  10  20  34  52  78 107 135 174 223 269 313
#     4  10  19  35  57  78 104 142 182 215 262 328
#     4  10  21  36  56  80 107 143 189 229 269 331
#     4   9  18  34  54  80 110 140 176 223 274 326
#     4  10  21  37  55  77 110 144 181 229 275 320
#
# _framework density 19.791329999999999
#
# number of rings (size 3 to 8) (size 9 to 14) (size 15 to 20)
#    0.000    2.500    0.000    2.625    1.750    4.000 
#    0.000    6.250    0.000    0.000    0.000    0.000 
#    0.000    0.000    0.000    0.000    0.000    0.000 
#
# Total GULP energy -178415.245961 kJ/mol
# GULP energy per Si atom -5575.476436 kJ/mol
# Density = 1.974628 g / cm^3
# Si number density = 19.791330 Si / 1000 Ang^3
#
#
#
# Elastic Constant Matrix: (Units=GPa)
#
#
# Indices 1 2 3 4 5 6 
#
# 1 23.6212 7.4989 -8.8011 0.0000 0.0000 0.0000
# 2 7.4989 112.0562 87.4398 0.0000 0.0000 0.0000
# 3 -8.8011 87.4398 133.9755 0.0000 0.0000 0.0000
# 4 0.0000 0.0000 0.0000 15.0265 0.0000 0.0000
# 5 0.0000 0.0000 0.0000 0.0000 47.1128 0.0000
# 6 0.0000 0.0000 0.0000 0.0000 0.0000 13.5667
#
#
#
# Elastic Compliance Matrix: (Units=1/GPa)
#
#
# Indices 1 2 3 4 5 6 
#
# 1 0.050369 -0.012130 0.011226 0.000000 0.000000 0.000000
# 2 -0.012130 0.021107 -0.014573 0.000000 0.000000 0.000000
# 3 0.011226 -0.014573 0.017712 0.000000 0.000000 0.000000
# 4 0.000000 0.000000 0.000000 0.066549 0.000000 0.000000
# 5 0.000000 0.000000 0.000000 0.000000 0.021226 0.000000
# 6 0.000000 0.000000 0.000000 0.000000 0.000000 0.073710
#
#
# Mechanical properties :
#
#
# Convention : Reuss Voigt Hill
#
# Bulk Modulus (GPa) = 17.17221 49.10315 33.13768
# Shear Modulus (GPa) = 16.60918 27.37555 21.99236
#
# Velocity S-wave (km/s) = 2.90006 3.72319 3.33710
# Velocity P-wave (km/s) = 4.46198 6.58385 5.62390
#
# Compressibility (1/GPa) = 0.05823362
#
# Stress axis : x y z
#
# Youngs Moduli (GPa) = 19.85366 47.37733 56.45781
#
# Poissons Ratio (x) = 0.57471 -0.63378
# Poissons Ratio (y) = 0.24083 0.82273
# Poissons Ratio (z) = -0.22287 0.69041
#
# Static dielectric constant tensor:
#      x y z
#    x 1.736440 0.000000 0.000000 
#    y 0.000000 1.717980 0.000000 
#    z 0.000000 0.000000 1.673010 
# 
# From -- ./inp_files/10667.got.cif
#   From: 2010.05.17/outbox.cif.g08.bks.cpg/sg40_6_cif.got.tgz:10667.got - 2010.06.03 18:35:42.
