data_PCOD9363900
_publ_section_title
;
Structure prediction by ZEFSAII (Michael W. Deem and Ramdas Pophale) SiO2 
 PCOD9363900
Probable space group: A M A 2
;
_chemical_formula_sum "Si O2"
_cell_formula_units_Z 64
_cell_length_a 16.040134
_cell_length_b 18.833960
_cell_length_c 10.098772
_cell_angle_alpha 90.000000
_cell_angle_beta 90.000000
_cell_angle_gamma 90.000000
_cell_volume 3050.831368
_symmetry_space_group_name_H-M "A M A 2"
_symmetry_group_IT_number 40
_symmetry_cell_setting 'orthorhombic'
loop_
_space_group_symop_operation_xyz
x,y,z
-x,-y,z
1/2-x,y,z
1/2+x,-y,z
x,1/2+y,1/2+z
-x,1/2-y,1/2+z
1/2-x,1/2+y,1/2+z
1/2+x,1/2-y,1/2+z
loop_
_atom_site_type_symbol
_atom_site_label
_atom_site_fract_x
_atom_site_fract_y
_atom_site_fract_z
Si Si1 0.155571 0.509914 0.680680
Si Si2 0.067397 0.548977 0.930486
Si Si3 0.081508 0.688391 0.394611
Si Si4 0.838288 0.819643 0.148157
Si Si5 0.988641 0.178028 0.274617
Si Si6 0.953898 0.566316 0.456274
Si Si7 0.848107 0.179739 0.045578
Si Si8 0.652843 0.836487 0.606411
O O1 0.250000 0.482832 0.660952
O O2 0.124028 0.503252 0.830712
O O3 0.160070 0.594902 0.661046
O O4 0.088676 0.476355 0.579736
O O5 0.000000 0.500000 0.001644
O O6 0.014998 0.604121 0.839962
O O7 0.122523 0.596494 0.025005
O O8 0.158139 0.697118 0.492997
O O9 0.036930 0.763979 0.382534
O O10 0.104712 0.669143 0.244828
O O11 0.026718 0.625453 0.458570
O O12 0.750000 0.794768 0.207895
O O13 0.926031 0.793610 0.206700
O O14 0.911607 0.168425 0.171286
O O15 0.877668 0.623235 0.433839
O O16 0.000000 0.500000 0.381748
O O17 0.750000 0.170581 0.076035
O O18 0.859182 0.264020 0.021945
O O19 0.750000 0.841973 0.636608
#
# Coordination Sequence:
#
# PCOD9363900 Si02
#       8
#     8   8   8   8   8   8   8   8
#     4  10  20  35  59  91 122 154 200 260 314 367
#     4  11  22  37  61  91 124 165 202 251 321 387
#     4  11  22  37  65  87 123 169 210 257 317 379
#     4  10  20  38  63  92 120 158 209 260 316 377
#     4  10  21  38  63  93 126 161 205 267 319 370
#     4  12  20  35  57  92 128 163 207 260 315 375
#     4  10  20  37  62  93 124 163 213 264 315 373
#     4  10  23  42  62  88 122 165 217 260 314 389
#
# _framework density 20.977888
#
# number of rings (size 3 to 8) (size 9 to 14) (size 15 to 20)
#    0.000    1.500    2.500    3.750    1.750    1.500 
#    0.000    1.875    0.000    0.000    0.000    0.000 
#    0.000    0.000    0.000    0.000    0.000    0.000 
#
# Total GULP energy -178150.704663 kJ/mol
# GULP energy per Si atom -5567.209521 kJ/mol
# Density = 2.093014 g / cm^3
# Si number density = 20.977888 Si / 1000 Ang^3
#
#
#
# Elastic Constant Matrix: (Units=GPa)
#
#
# Indices 1 2 3 4 5 6 
#
# 1 146.1568 28.7676 18.9046 0.0000 0.0000 0.0000
# 2 28.7676 64.6621 0.5107 0.0000 0.0000 0.0000
# 3 18.9046 0.5107 34.3601 0.0000 0.0000 0.0000
# 4 0.0000 0.0000 0.0000 31.7550 0.0000 0.0000
# 5 0.0000 0.0000 0.0000 0.0000 13.8771 0.0000
# 6 0.0000 0.0000 0.0000 0.0000 0.0000 29.0563
#
#
#
# Elastic Compliance Matrix: (Units=1/GPa)
#
#
# Indices 1 2 3 4 5 6 
#
# 1 0.008117 -0.003576 -0.004413 0.000000 0.000000 0.000000
# 2 -0.003576 0.017042 0.001714 0.000000 0.000000 0.000000
# 3 -0.004413 0.001714 0.031506 0.000000 0.000000 0.000000
# 4 0.000000 0.000000 0.000000 0.031491 0.000000 0.000000
# 5 0.000000 0.000000 0.000000 0.000000 0.072061 0.000000
# 6 0.000000 0.000000 0.000000 0.000000 0.000000 0.034416
#
#
# Mechanical properties :
#
#
# Convention : Reuss Voigt Hill
#
# Bulk Modulus (GPa) = 22.66751 37.94942 30.30846
# Shear Modulus (GPa) = 22.53400 28.07077 25.30238
#
# Velocity S-wave (km/s) = 3.28102 3.66199 3.47673
# Velocity P-wave (km/s) = 5.01820 6.00081 5.53137
#
# Compressibility (1/GPa) = 0.04411601
#
# Stress axis : x y z
#
# Youngs Moduli (GPa) = 123.20454 58.67692 31.74025
#
# Poissons Ratio (x) = 0.20984 0.14005
# Poissons Ratio (y) = 0.44060 -0.05441
# Poissons Ratio (z) = 0.54364 -0.10059
#
# Static dielectric constant tensor:
#      x y z
#    x 1.799460 0.000000 0.000000 
#    y 0.000000 1.796250 0.000000 
#    z 0.000000 0.000000 1.791290 
# 
# From -- ./inp_files/12476.got.cif
#   From: 2010.05.17/outbox.cif.g08.bks.cpg/sg40_7_cif.got.tgz:12476.got - 2010.06.03 18:35:42.
