data_PCOD9363211
_publ_section_title
;
Structure prediction by ZEFSAII (Michael W. Deem and Ramdas Pophale) SiO2 
 PCOD9363211
Probable space group: A M A 2
;
_chemical_formula_sum "Si O2"
_cell_formula_units_Z 48
_cell_length_a 14.248359
_cell_length_b 9.233524
_cell_length_c 18.016948
_cell_angle_alpha 90.000000
_cell_angle_beta 90.000000
_cell_angle_gamma 90.000000
_cell_volume 2370.355889
_symmetry_space_group_name_H-M "A M A 2"
_symmetry_group_IT_number 40
_symmetry_cell_setting 'orthorhombic'
loop_
_space_group_symop_operation_xyz
x,y,z
-x,-y,z
1/2-x,y,z
1/2+x,-y,z
x,1/2+y,1/2+z
-x,1/2-y,1/2+z
1/2-x,1/2+y,1/2+z
1/2+x,1/2-y,1/2+z
loop_
_atom_site_type_symbol
_atom_site_label
_atom_site_fract_x
_atom_site_fract_y
_atom_site_fract_z
Si Si1 0.910285 0.606779 0.496060
Si Si2 0.361850 0.840108 0.583077
Si Si3 0.471750 0.846953 0.149879
Si Si4 0.971995 0.153856 0.431996
Si Si5 0.359496 0.585886 0.205651
Si Si6 0.353088 0.593012 0.367644
O O1 0.894955 0.625660 0.583673
O O2 0.851255 0.521421 0.435017
O O3 0.000000 0.500000 0.496556
O O4 0.937652 0.764592 0.466272
O O5 0.250000 0.804838 0.582395
O O6 0.432593 0.716306 0.612788
O O7 0.400186 0.872914 0.500710
O O8 0.377289 0.974146 0.639070
O O9 0.426761 0.723355 0.199502
O O10 0.500000 0.000000 0.184673
O O11 0.925260 0.277561 0.382035
O O12 0.000000 0.000000 0.398661
O O13 0.250000 0.627725 0.199252
O O14 0.372510 0.519920 0.288057
O O15 0.250000 0.660423 0.363709
#
# Coordination Sequence:
#
# PCOD9363211 Si02
#       6
#     8   8   8   8   8   8
#     4   8  17  33  53  77 104 141 184 220 266 332
#     4  10  20  36  58  83 112 150 191 232 278 337
#     4  10  20  34  56  85 114 145 186 236 288 335
#     4  10  19  33  55  83 112 143 183 230 283 336
#     4  10  22  38  57  82 114 152 193 233 278 334
#     4  10  21  38  57  80 112 151 191 231 277 334
#
# _framework density 20.250126000000002
#
# number of rings (size 3 to 8) (size 9 to 14) (size 15 to 20)
#    0.000    2.333    0.000    4.000    0.000    6.000 
#    0.000    1.667    0.000    4.000    0.000    0.000 
#    0.000    0.000    0.000    0.000    0.000    0.000 
#
# Total GULP energy -133655.213656 kJ/mol
# GULP energy per Si atom -5568.967236 kJ/mol
# Density = 2.020404 g / cm^3
# Si number density = 20.250126 Si / 1000 Ang^3
#
#
#
# Elastic Constant Matrix: (Units=GPa)
#
#
# Indices 1 2 3 4 5 6 
#
# 1 61.8390 22.8197 19.6670 0.0000 0.0000 0.0000
# 2 22.8197 92.0312 8.1716 0.0000 0.0000 0.0000
# 3 19.6670 8.1716 80.7234 0.0000 0.0000 0.0000
# 4 0.0000 0.0000 0.0000 21.4841 0.0000 0.0000
# 5 0.0000 0.0000 0.0000 0.0000 45.4339 0.0000
# 6 0.0000 0.0000 0.0000 0.0000 0.0000 16.2638
#
#
#
# Elastic Compliance Matrix: (Units=1/GPa)
#
#
# Indices 1 2 3 4 5 6 
#
# 1 0.019124 -0.004367 -0.004217 0.000000 0.000000 0.000000
# 2 -0.004367 0.011962 -0.000147 0.000000 0.000000 0.000000
# 3 -0.004217 -0.000147 0.013430 0.000000 0.000000 0.000000
# 4 0.000000 0.000000 0.000000 0.046546 0.000000 0.000000
# 5 0.000000 0.000000 0.000000 0.000000 0.022010 0.000000
# 6 0.000000 0.000000 0.000000 0.000000 0.000000 0.061486
#
#
# Mechanical properties :
#
#
# Convention : Reuss Voigt Hill
#
# Bulk Modulus (GPa) = 36.96416 37.32335 37.14375
# Shear Modulus (GPa) = 24.87081 28.89871 26.88476
#
# Velocity S-wave (km/s) = 3.50834 3.78178 3.64762
# Velocity P-wave (km/s) = 5.89107 6.12702 6.01020
#
# Compressibility (1/GPa) = 0.02705323
#
# Stress axis : x y z
#
# Youngs Moduli (GPa) = 52.29063 83.59908 74.45865
#
# Poissons Ratio (x) = 0.36511 0.31400
# Poissons Ratio (y) = 0.22838 0.01093
# Poissons Ratio (z) = 0.22052 0.01228
#
# Static dielectric constant tensor:
#      x y z
#    x 1.744280 0.000000 0.000000 
#    y 0.000000 1.707020 0.000000 
#    z 0.000000 0.000000 1.800190 
# 
# From -- ./inp_files/20529.got.cif
#   From: 2010.05.17/outbox.cif.g08.bks.cpg/sg40_11_cif.got.tgz:20529.got - 2010.06.03 18:35:42.
