data_PCOD9363013
_publ_section_title
;
Structure prediction by ZEFSAII (Michael W. Deem and Ramdas Pophale) SiO2 
 PCOD9363013
Probable space group: A M A 2
;
_chemical_formula_sum "Si O2"
_cell_formula_units_Z 40
_cell_length_a 8.678074
_cell_length_b 26.392139
_cell_length_c 9.979264
_cell_angle_alpha 90.000000
_cell_angle_beta 90.000000
_cell_angle_gamma 90.000000
_cell_volume 2285.580126
_symmetry_space_group_name_H-M "A M A 2"
_symmetry_group_IT_number 40
_symmetry_cell_setting 'orthorhombic'
loop_
_space_group_symop_operation_xyz
x,y,z
-x,-y,z
1/2-x,y,z
1/2+x,-y,z
x,1/2+y,1/2+z
-x,1/2-y,1/2+z
1/2-x,1/2+y,1/2+z
1/2+x,1/2-y,1/2+z
loop_
_atom_site_type_symbol
_atom_site_label
_atom_site_fract_x
_atom_site_fract_y
_atom_site_fract_z
Si Si1 0.436395 0.165162 0.589670
Si Si2 0.935515 0.217477 0.089964
Si Si3 0.065375 0.365104 0.807499
Si Si4 0.065136 0.556294 0.599806
Si Si5 0.564287 0.361193 0.383811
O O1 0.250000 0.163648 0.581771
O O2 0.484555 0.224278 0.595099
O O3 0.504736 0.140086 0.457445
O O4 0.484572 0.139495 0.729446
O O5 0.750000 0.216481 0.083234
O O6 0.981432 0.184729 0.220708
O O7 0.001604 0.187727 0.962456
O O8 0.250000 0.368078 0.806508
O O9 0.996959 0.412785 0.727741
O O10 0.250000 0.554931 0.604281
O O11 0.017088 0.589886 0.470444
O O12 0.000000 0.500000 0.594342
O O13 0.750000 0.358519 0.386473
#
# Coordination Sequence:
#
# PCOD9363013 Si02
#       5
#     8   8   8   8   8
#     4  10  19  32  49  74 108 141 169 206 254 301
#     4   9  18  31  49  73 104 140 176 209 246 297
#     4  10  20  34  52  77 105 136 174 213 252 301
#     4  10  20  37  59  78  97 128 168 213 261 310
#     4   9  19  34  52  74 102 135 172 211 255 303
#
# _framework density 17.501027000000001
#
# number of rings (size 3 to 8) (size 9 to 14) (size 15 to 20)
#    0.000    2.400    0.000    2.400    0.000    4.800 
#    0.000    1.000    0.000    2.400    0.000    0.000 
#    0.000    0.000    0.000    0.000    0.000    0.000 
#
# Total GULP energy -111614.753931 kJ/mol
# GULP energy per Si atom -5580.737697 kJ/mol
# Density = 1.746119 g / cm^3
# Si number density = 17.501027 Si / 1000 Ang^3
#
#
#
# Elastic Constant Matrix: (Units=GPa)
#
#
# Indices 1 2 3 4 5 6 
#
# 1 24.7510 35.5180 39.2328 0.0000 0.0000 0.0000
# 2 35.5180 139.4708 85.2232 0.0000 0.0000 0.0000
# 3 39.2328 85.2232 187.9244 0.0000 0.0000 0.0000
# 4 0.0000 0.0000 0.0000 5.2087 0.0000 0.0000
# 5 0.0000 0.0000 0.0000 0.0000 26.9311 0.0000
# 6 0.0000 0.0000 0.0000 0.0000 0.0000 24.4820
#
#
#
# Elastic Compliance Matrix: (Units=1/GPa)
#
#
# Indices 1 2 3 4 5 6 
#
# 1 0.074383 -0.013078 -0.009598 0.000000 0.000000 0.000000
# 2 -0.013078 0.012218 -0.002810 0.000000 0.000000 0.000000
# 3 -0.009598 -0.002810 0.008600 0.000000 0.000000 0.000000
# 4 0.000000 0.000000 0.000000 0.191988 0.000000 0.000000
# 5 0.000000 0.000000 0.000000 0.000000 0.037132 0.000000
# 6 0.000000 0.000000 0.000000 0.000000 0.000000 0.040846
#
#
# Mechanical properties :
#
#
# Convention : Reuss Voigt Hill
#
# Bulk Modulus (GPa) = 22.61020 74.67712 48.64366
# Shear Modulus (GPa) = 11.60410 24.13584 17.86997
#
# Velocity S-wave (km/s) = 2.57777 3.71767 3.19890
# Velocity P-wave (km/s) = 4.66983 7.82246 6.44198
#
# Compressibility (1/GPa) = 0.04422782
#
# Stress axis : x y z
#
# Youngs Moduli (GPa) = 13.44390 81.84865 116.28386
#
# Poissons Ratio (x) = 1.07039 1.11612
# Poissons Ratio (y) = 0.17581 0.32681
# Poissons Ratio (z) = 0.12904 0.23003
#
# Static dielectric constant tensor:
#      x y z
#    x 1.587430 0.000000 0.000000 
#    y 0.000000 1.571760 0.000000 
#    z 0.000000 0.000000 1.588090 
# 
# From -- ./inp_files/4216.got.cif
#   From: 2010.05.17/outbox.cif.g08.bks.cpg/sg40_3_cif.got.tgz:4216.got - 2010.06.03 18:35:42.
