data_PCOD9363720
_publ_section_title
;
Structure prediction by ZEFSAII (Michael W. Deem and Ramdas Pophale) SiO2 
 PCOD9363720
Probable space group: A M A 2
;
_chemical_formula_sum "Si O2"
_cell_formula_units_Z 64
_cell_length_a 27.057673
_cell_length_b 6.842395
_cell_length_c 18.941997
_cell_angle_alpha 90.000000
_cell_angle_beta 90.000000
_cell_angle_gamma 90.000000
_cell_volume 3506.907808
_symmetry_space_group_name_H-M "A M A 2"
_symmetry_group_IT_number 40
_symmetry_cell_setting 'orthorhombic'
loop_
_space_group_symop_operation_xyz
x,y,z
-x,-y,z
1/2-x,y,z
1/2+x,-y,z
x,1/2+y,1/2+z
-x,1/2-y,1/2+z
1/2-x,1/2+y,1/2+z
1/2+x,1/2-y,1/2+z
loop_
_atom_site_type_symbol
_atom_site_label
_atom_site_fract_x
_atom_site_fract_y
_atom_site_fract_z
Si Si1 0.193644 0.669179 0.100630
Si Si2 0.442184 0.505864 0.770076
Si Si3 0.118122 0.589049 0.977047
Si Si4 0.086423 0.711494 0.392161
Si Si5 0.870516 0.676734 0.337745
Si Si6 0.552651 0.053986 0.012924
Si Si7 0.873700 0.976583 0.135656
Si Si8 0.694125 0.173147 0.703861
O O1 0.250000 0.679959 0.074420
O O2 0.194207 0.542619 0.171937
O O3 0.170185 0.873562 0.121459
O O4 0.156774 0.585030 0.040996
O O5 0.500000 0.500000 0.750983
O O6 0.437005 0.341315 0.830471
O O7 0.418127 0.706517 0.803510
O O8 0.408698 0.463140 0.701363
O O9 0.107466 0.375003 0.945941
O O10 0.139309 0.714745 0.911492
O O11 0.069549 0.720126 0.999540
O O12 0.121119 0.551460 0.354350
O O13 0.053526 0.568280 0.440235
O O14 0.826079 0.693786 0.282684
O O15 0.500000 0.000000 0.045623
O O16 0.593877 0.971132 0.065533
O O17 0.846487 0.780165 0.156438
O O18 0.750000 0.250700 0.697244
#
# Coordination Sequence:
#
# PCOD9363720 Si02
#       8
#     8   8   8   8   8   8   8   8
#     4  10  20  35  57  80 104 139 183 224 273 330
#     4  10  21  33  55  79 108 142 184 219 268 327
#     4   9  20  36  52  78 109 142 177 224 271 318
#     4  10  20  34  53  74 110 144 175 224 268 318
#     4   9  20  36  52  78 109 142 177 224 271 318
#     4  10  21  33  55  79 108 142 184 219 268 327
#     4  10  20  38  54  78 110 142 174 230 278 320
#     4  10  20  35  57  80 104 139 183 224 273 330
#
# _framework density 18.249696
#
# number of rings (size 3 to 8) (size 9 to 14) (size 15 to 20)
#    0.000    2.250    0.000    2.250    5.250    0.500 
#    0.000    0.625    0.000    4.500    0.000    0.000 
#    0.000    0.000    0.000    0.000    0.000    0.000 
#
# Total GULP energy -178139.266807 kJ/mol
# GULP energy per Si atom -5566.852088 kJ/mol
# Density = 1.820816 g / cm^3
# Si number density = 18.249696 Si / 1000 Ang^3
#
#
#
# Elastic Constant Matrix: (Units=GPa)
#
#
# Indices 1 2 3 4 5 6 
#
# 1 73.4934 21.9314 6.3320 0.0000 0.0000 0.0000
# 2 21.9314 62.9540 7.4004 0.0000 0.0000 0.0000
# 3 6.3320 7.4004 46.7866 0.0000 0.0000 0.0000
# 4 0.0000 0.0000 0.0000 14.0892 0.0000 0.0000
# 5 0.0000 0.0000 0.0000 0.0000 11.8801 0.0000
# 6 0.0000 0.0000 0.0000 0.0000 0.0000 11.7316
#
#
#
# Elastic Compliance Matrix: (Units=1/GPa)
#
#
# Indices 1 2 3 4 5 6 
#
# 1 0.015256 -0.005168 -0.001247 0.000000 0.000000 0.000000
# 2 -0.005168 0.017936 -0.002138 0.000000 0.000000 0.000000
# 3 -0.001247 -0.002138 0.021881 0.000000 0.000000 0.000000
# 4 0.000000 0.000000 0.000000 0.070976 0.000000 0.000000
# 5 0.000000 0.000000 0.000000 0.000000 0.084175 0.000000
# 6 0.000000 0.000000 0.000000 0.000000 0.000000 0.085240
#
#
# Mechanical properties :
#
#
# Convention : Reuss Voigt Hill
#
# Bulk Modulus (GPa) = 26.33864 28.28461 27.31162
# Shear Modulus (GPa) = 15.37393 17.37819 16.37606
#
# Velocity S-wave (km/s) = 2.90560 3.08920 2.99880
# Velocity P-wave (km/s) = 5.07152 5.31568 5.19504
#
# Compressibility (1/GPa) = 0.03796704
#
# Stress axis : x y z
#
# Youngs Moduli (GPa) = 65.54618 55.75261 45.70269
#
# Poissons Ratio (x) = 0.28815 0.05700
# Poissons Ratio (y) = 0.33876 0.09769
# Poissons Ratio (z) = 0.08175 0.11918
#
# Static dielectric constant tensor:
#      x y z
#    x 1.654680 0.000000 0.000000 
#    y 0.000000 1.633650 0.000000 
#    z 0.000000 0.000000 1.640080 
# 
# From -- ./inp_files/3224.got.cif
#   From: 2010.05.17/outbox.cif.g08.bks.cpg/sg40_2_cif.got.tgz:3224.got - 2010.06.03 18:35:42.
