data_PCOD9363508
_publ_section_title
;
Structure prediction by ZEFSAII (Michael W. Deem and Ramdas Pophale) SiO2 
 PCOD9363508
Probable space group: A M A 2
;
_chemical_formula_sum "Si O2"
_cell_formula_units_Z 64
_cell_length_a 18.203084
_cell_length_b 20.417799
_cell_length_c 7.211110
_cell_angle_alpha 90.000000
_cell_angle_beta 90.000000
_cell_angle_gamma 90.000000
_cell_volume 2680.130973
_symmetry_space_group_name_H-M "A M A 2"
_symmetry_group_IT_number 40
_symmetry_cell_setting 'orthorhombic'
loop_
_space_group_symop_operation_xyz
x,y,z
-x,-y,z
1/2-x,y,z
1/2+x,-y,z
x,1/2+y,1/2+z
-x,1/2-y,1/2+z
1/2-x,1/2+y,1/2+z
1/2+x,1/2-y,1/2+z
loop_
_atom_site_type_symbol
_atom_site_label
_atom_site_fract_x
_atom_site_fract_y
_atom_site_fract_z
Si Si1 0.331540 0.108580 0.027570
Si Si2 0.095531 0.730099 0.491546
Si Si3 0.333191 0.463872 0.972666
Si Si4 0.627983 0.391080 0.098107
Si Si5 0.164903 0.252732 0.588003
Si Si6 0.461319 0.867871 0.504771
Si Si7 0.956021 0.645578 0.550095
Si Si8 0.577796 0.513538 0.641171
O O1 0.250000 0.088112 0.082710
O O2 0.348750 0.181889 0.095711
O O3 0.392073 0.056254 0.084121
O O4 0.339096 0.109959 0.804915
O O5 0.136163 0.749003 0.301380
O O6 0.063299 0.796274 0.575023
O O7 0.025925 0.682072 0.465751
O O8 0.250000 0.444614 0.015296
O O9 0.344499 0.540865 0.012425
O O10 0.396931 0.418594 0.057099
O O11 0.354916 0.456657 0.757087
O O12 0.652561 0.321200 0.014854
O O13 0.539884 0.389527 0.080994
O O14 0.250000 0.269389 0.580008
O O15 0.113274 0.308814 0.505786
O O16 0.467352 0.859034 0.277472
O O17 0.943575 0.569819 0.495442
O O18 0.500000 0.500000 0.745761
#
# Coordination Sequence:
#
# PCOD9363508 Si02
#       8
#     8   8   8   8   8   8   8   8
#     4  11  24  40  63  92 122 157 200 249 307 354
#     4  10  19  37  60  88 118 153 196 249 290 354
#     4  11  23  39  61  89 122 159 202 249 302 352
#     4  11  21  40  61  87 121 160 198 246 296 370
#     4  10  21  37  63  91 118 155 197 244 301 357
#     4  10  22  37  62  89 118 160 205 244 298 365
#     4  10  20  38  61  90 119 157 201 247 297 358
#     4  11  22  39  61  88 123 158 203 249 294 358
#
# _framework density 23.879431
#
# number of rings (size 3 to 8) (size 9 to 14) (size 15 to 20)
#    0.000    1.500    2.500    4.500    0.000    6.500 
#    0.000    0.000    0.000    0.000    0.000    0.000 
#    0.000    0.000    0.000    0.000    0.000    0.000 
#
# Total GULP energy -178721.236426 kJ/mol
# GULP energy per Si atom -5585.038638 kJ/mol
# Density = 2.382508 g / cm^3
# Si number density = 23.879431 Si / 1000 Ang^3
#
#
#
# Elastic Constant Matrix: (Units=GPa)
#
#
# Indices 1 2 3 4 5 6 
#
# 1 185.5929 25.5787 3.9091 0.0000 0.0000 0.0000
# 2 25.5787 87.7108 -17.4982 0.0000 0.0000 0.0000
# 3 3.9091 -17.4982 59.9537 0.0000 0.0000 0.0000
# 4 0.0000 0.0000 0.0000 13.2447 0.0000 0.0000
# 5 0.0000 0.0000 0.0000 0.0000 20.1753 0.0000
# 6 0.0000 0.0000 0.0000 0.0000 0.0000 40.4082
#
#
#
# Elastic Compliance Matrix: (Units=1/GPa)
#
#
# Indices 1 2 3 4 5 6 
#
# 1 0.005659 -0.001831 -0.000903 0.000000 0.000000 0.000000
# 2 -0.001831 0.012698 0.003825 0.000000 0.000000 0.000000
# 3 -0.000903 0.003825 0.017855 0.000000 0.000000 0.000000
# 4 0.000000 0.000000 0.000000 0.075502 0.000000 0.000000
# 5 0.000000 0.000000 0.000000 0.000000 0.049565 0.000000
# 6 0.000000 0.000000 0.000000 0.000000 0.000000 0.024747
#
#
# Mechanical properties :
#
#
# Convention : Reuss Voigt Hill
#
# Bulk Modulus (GPa) = 26.04465 39.69295 32.86880
# Shear Modulus (GPa) = 25.42679 36.18351 30.80515
#
# Velocity S-wave (km/s) = 3.26667 3.89685 3.59559
# Velocity P-wave (km/s) = 5.01583 6.07500 5.57065
#
# Compressibility (1/GPa) = 0.03839560
#
# Stress axis : x y z
#
# Youngs Moduli (GPa) = 176.69509 78.75164 56.00687
#
# Poissons Ratio (x) = 0.14417 0.05059
# Poissons Ratio (y) = 0.32347 -0.21425
# Poissons Ratio (z) = 0.15961 -0.30126
#
# Static dielectric constant tensor:
#      x y z
#    x 1.863880 0.000000 0.000000 
#    y 0.000000 1.955000 0.000000 
#    z 0.000000 0.000000 2.028640 
# 
# From -- ./inp_files/7804.got.cif
#   From: 2010.05.17/outbox.cif.g08.bks.cpg/sg40_4_cif.got.tgz:7804.got - 2010.06.03 18:35:42.
