data_PCOD9363024
_publ_section_title
;
Structure prediction by ZEFSAII (Michael W. Deem and Ramdas Pophale) SiO2 
 PCOD9363024
Probable space group: A M A 2
;
_chemical_formula_sum "Si O2"
_cell_formula_units_Z 64
_cell_length_a 8.771118
_cell_length_b 14.760387
_cell_length_c 24.883586
_cell_angle_alpha 90.000000
_cell_angle_beta 90.000000
_cell_angle_gamma 90.000000
_cell_volume 3221.555853
_symmetry_space_group_name_H-M "A M A 2"
_symmetry_group_IT_number 40
_symmetry_cell_setting 'orthorhombic'
loop_
_space_group_symop_operation_xyz
x,y,z
-x,-y,z
1/2-x,y,z
1/2+x,-y,z
x,1/2+y,1/2+z
-x,1/2-y,1/2+z
1/2-x,1/2+y,1/2+z
1/2+x,1/2-y,1/2+z
loop_
_atom_site_type_symbol
_atom_site_label
_atom_site_fract_x
_atom_site_fract_y
_atom_site_fract_z
Si Si1 0.425653 0.595234 0.636780
Si Si2 0.434701 0.204089 0.635912
Si Si3 0.420180 0.644802 0.758336
Si Si4 0.069736 0.403642 0.365583
Si Si5 0.931801 0.773611 0.428938
Si Si6 0.073158 0.171083 0.755332
Si Si7 0.927437 0.080505 0.358601
Si Si8 0.932469 0.400309 0.029500
O O1 0.500000 0.500000 0.618244
O O2 0.250000 0.598892 0.618855
O O3 0.504803 0.693008 0.626039
O O4 0.426276 0.594260 0.701990
O O5 0.250000 0.209875 0.638002
O O6 0.485888 0.161947 0.693619
O O7 0.481473 0.139205 0.587325
O O8 0.250000 0.685631 0.763169
O O9 0.548653 0.721241 0.761360
O O10 0.456553 0.583764 0.808653
O O11 0.250000 0.411257 0.359852
O O12 0.040657 0.330590 0.413032
O O13 0.000000 0.500000 0.379320
O O14 0.006972 0.372893 0.306893
O O15 0.750000 0.790089 0.417957
O O16 0.964936 0.820428 0.486133
O O17 0.040597 0.826807 0.388573
O O18 0.250000 0.145295 0.756750
O O19 0.750000 0.069736 0.347068
O O20 0.000000 0.000000 0.394000
O O21 0.750000 0.410474 0.030031
O O22 0.000000 0.500000 0.019510
#
# Coordination Sequence:
#
# PCOD9363024 Si02
#       8
#     8   8   8   8   8   8   8   8
#     4  10  20  33  53  81 116 158 201 244 294 351
#     4   9  20  38  60  87 122 160 201 248 301 359
#     4  10  19  32  50  77 114 154 195 238 288 348
#     4  11  23  39  61  87 120 158 199 247 300 363
#     4  10  22  41  62  84 116 154 195 244 299 354
#     4  10  19  34  57  86 120 159 199 242 296 355
#     4  12  23  33  51  79 113 152 194 239 290 350
#     4  10  22  42  66  91 119 155 198 249 305 359
#
# _framework density 19.866177
#
# number of rings (size 3 to 8) (size 9 to 14) (size 15 to 20)
#    0.000    1.750    1.250    3.375    0.000    6.000 
#    0.000    1.875    0.000    1.500    0.000    0.000 
#    0.000    0.000    0.000    0.000    0.000    0.000 
#
# Total GULP energy -178286.389344 kJ/mol
# GULP energy per Si atom -5571.449667 kJ/mol
# Density = 1.982096 g / cm^3
# Si number density = 19.866177 Si / 1000 Ang^3
#
#
#
# Elastic Constant Matrix: (Units=GPa)
#
#
# Indices 1 2 3 4 5 6 
#
# 1 47.2583 38.6820 23.9094 0.0000 0.0000 0.0000
# 2 38.6820 124.2018 54.1183 0.0000 0.0000 0.0000
# 3 23.9094 54.1183 102.4390 0.0000 0.0000 0.0000
# 4 0.0000 0.0000 0.0000 9.8765 0.0000 0.0000
# 5 0.0000 0.0000 0.0000 0.0000 17.3079 0.0000
# 6 0.0000 0.0000 0.0000 0.0000 0.0000 34.9365
#
#
#
# Elastic Compliance Matrix: (Units=1/GPa)
#
#
# Indices 1 2 3 4 5 6 
#
# 1 0.028919 -0.007879 -0.002587 0.000000 0.000000 0.000000
# 2 -0.007879 0.012606 -0.004821 0.000000 0.000000 0.000000
# 3 -0.002587 -0.004821 0.012912 0.000000 0.000000 0.000000
# 4 0.000000 0.000000 0.000000 0.101250 0.000000 0.000000
# 5 0.000000 0.000000 0.000000 0.000000 0.057777 0.000000
# 6 0.000000 0.000000 0.000000 0.000000 0.000000 0.028623
#
#
# Mechanical properties :
#
#
# Convention : Reuss Voigt Hill
#
# Bulk Modulus (GPa) = 41.90587 56.36873 49.13730
# Shear Modulus (GPa) = 17.81797 22.90349 20.36073
#
# Velocity S-wave (km/s) = 2.99808 3.39911 3.20487
# Velocity P-wave (km/s) = 5.75539 6.62126 6.20345
#
# Compressibility (1/GPa) = 0.02386301
#
# Stress axis : x y z
#
# Youngs Moduli (GPa) = 34.57986 79.32831 77.44474
#
# Poissons Ratio (x) = 0.62505 0.20035
# Poissons Ratio (y) = 0.27246 0.37333
# Poissons Ratio (z) = 0.08946 0.38241
#
# Static dielectric constant tensor:
#      x y z
#    x 1.663180 0.000000 0.000000 
#    y 0.000000 1.750610 0.000000 
#    z 0.000000 0.000000 1.746230 
# 
# From -- ./inp_files/24254.got.cif
#   From: 2010.05.17/outbox.cif.g08.bks.cpg/sg40_13_cif.got.tgz:24254.got - 2010.06.03 18:35:42.
