data_PCOD9363006
_publ_section_title
;
Structure prediction by ZEFSAII (Michael W. Deem and Ramdas Pophale) SiO2 
 PCOD9363006
Probable space group: A M A 2
;
_chemical_formula_sum "Si O2"
_cell_formula_units_Z 64
_cell_length_a 8.331186
_cell_length_b 28.822457
_cell_length_c 15.117313
_cell_angle_alpha 90.000000
_cell_angle_beta 90.000000
_cell_angle_gamma 90.000000
_cell_volume 3630.048567
_symmetry_space_group_name_H-M "A M A 2"
_symmetry_group_IT_number 40
_symmetry_cell_setting 'orthorhombic'
loop_
_space_group_symop_operation_xyz
x,y,z
-x,-y,z
1/2-x,y,z
1/2+x,-y,z
x,1/2+y,1/2+z
-x,1/2-y,1/2+z
1/2-x,1/2+y,1/2+z
1/2+x,1/2-y,1/2+z
loop_
_atom_site_type_symbol
_atom_site_label
_atom_site_fract_x
_atom_site_fract_y
_atom_site_fract_z
Si Si1 0.556640 0.778491 0.576710
Si Si2 0.556660 0.279021 0.872234
Si Si3 0.944474 0.865960 0.253361
Si Si4 0.558094 0.947657 0.571657
Si Si5 0.556949 0.324270 0.374953
Si Si6 0.440292 0.947763 0.376007
Si Si7 0.442913 0.175326 0.074156
Si Si8 0.946467 0.365211 0.195985
O O1 0.750000 0.775239 0.581695
O O2 0.514022 0.789050 0.474578
O O3 0.485860 0.728257 0.598829
O O4 0.503946 0.819854 0.640275
O O5 0.750000 0.275862 0.866800
O O6 0.503334 0.320706 0.809422
O O7 0.486330 0.228660 0.850152
O O8 0.750000 0.866783 0.254678
O O9 0.999190 0.858278 0.152406
O O10 0.004632 0.911699 0.302001
O O11 0.750000 0.947671 0.573319
O O12 0.506382 0.933522 0.472638
O O13 0.498967 0.911030 0.644478
O O14 0.500000 0.000000 0.587131
O O15 0.750000 0.327383 0.378194
O O16 0.494642 0.333166 0.474500
O O17 0.500111 0.358016 0.296948
O O18 0.250000 0.948625 0.381438
O O19 0.500000 0.000000 0.358456
O O20 0.250000 0.172017 0.070972
O O21 0.750000 0.365850 0.195667
#
# Coordination Sequence:
#
# PCOD9363006 Si02
#       8
#     8   8   8   8   8   8   8   8
#     4   9  16  27  43  64  91 125 162 196 234 282
#     4   9  17  28  43  65  95 129 162 198 241 283
#     4  10  19  32  49  69  96 130 164 195 235 284
#     4  10  19  34  53  73  98 125 153 188 236 289
#     4   9  17  30  46  67  95 128 167 203 235 274
#     4  11  22  36  54  76  99 122 150 188 236 285
#     4   9  18  30  45  67  96 128 161 200 238 270
#     4   9  17  29  48  69  92 127 163 194 233 283
#
# _framework density 17.630617999999998
#
# number of rings (size 3 to 8) (size 9 to 14) (size 15 to 20)
#    0.000    2.500    0.000    3.750    0.000    3.000 
#    0.000    5.000    0.000    0.750    0.000    1.750 
#    0.000    0.000    0.000    0.000    0.000    0.000 
#
# Total GULP energy -178513.398946 kJ/mol
# GULP energy per Si atom -5578.543717 kJ/mol
# Density = 1.759049 g / cm^3
# Si number density = 17.630618 Si / 1000 Ang^3
#
#
#
# Elastic Constant Matrix: (Units=GPa)
#
#
# Indices 1 2 3 4 5 6 
#
# 1 18.3979 13.6450 21.2937 0.0000 0.0000 0.0000
# 2 13.6450 93.4950 92.5662 0.0000 0.0000 0.0000
# 3 21.2937 92.5662 127.8061 0.0000 0.0000 0.0000
# 4 0.0000 0.0000 0.0000 33.1894 0.0000 0.0000
# 5 0.0000 0.0000 0.0000 0.0000 13.4903 0.0000
# 6 0.0000 0.0000 0.0000 0.0000 0.0000 24.8395
#
#
#
# Elastic Compliance Matrix: (Units=1/GPa)
#
#
# Indices 1 2 3 4 5 6 
#
# 1 0.067885 0.004561 -0.014614 0.000000 0.000000 0.000000
# 2 0.004561 0.038111 -0.028362 0.000000 0.000000 0.000000
# 3 -0.014614 -0.028362 0.030801 0.000000 0.000000 0.000000
# 4 0.000000 0.000000 0.000000 0.030130 0.000000 0.000000
# 5 0.000000 0.000000 0.000000 0.000000 0.074127 0.000000
# 6 0.000000 0.000000 0.000000 0.000000 0.000000 0.040258
#
#
# Mechanical properties :
#
#
# Convention : Reuss Voigt Hill
#
# Bulk Modulus (GPa) = 16.67580 54.96765 35.82172
# Shear Modulus (GPa) = 13.22288 21.78346 17.50317
#
# Velocity S-wave (km/s) = 2.74158 3.51885 3.15425
# Velocity P-wave (km/s) = 4.41595 6.91048 5.79894
#
# Compressibility (1/GPa) = 0.05996715
#
# Stress axis : x y z
#
# Youngs Moduli (GPa) = 14.73073 26.23931 32.46615
#
# Poissons Ratio (x) = -0.11969 0.47446
# Poissons Ratio (y) = -0.06719 0.92082
# Poissons Ratio (z) = 0.21528 0.74421
#
# Static dielectric constant tensor:
#      x y z
#    x 1.605470 0.000000 0.000000 
#    y 0.000000 1.573870 0.000000 
#    z 0.000000 0.000000 1.635180 
# 
# From -- ./inp_files/15908.got.cif
#   From: 2010.05.17/outbox.cif.g08.bks.cpg/sg40_8_cif.got.tgz:15908.got - 2010.06.03 18:35:42.
