data_PCOD9363021
_publ_section_title
;
Structure prediction by ZEFSAII (Michael W. Deem and Ramdas Pophale) SiO2 
 PCOD9363021
Probable space group: A M A 2
;
_chemical_formula_sum "Si O2"
_cell_formula_units_Z 48
_cell_length_a 18.548978
_cell_length_b 16.047248
_cell_length_c 9.127894
_cell_angle_alpha 90.000000
_cell_angle_beta 90.000000
_cell_angle_gamma 90.000000
_cell_volume 2717.009385
_symmetry_space_group_name_H-M "A M A 2"
_symmetry_group_IT_number 40
_symmetry_cell_setting 'orthorhombic'
loop_
_space_group_symop_operation_xyz
x,y,z
-x,-y,z
1/2-x,y,z
1/2+x,-y,z
x,1/2+y,1/2+z
-x,1/2-y,1/2+z
1/2-x,1/2+y,1/2+z
1/2+x,1/2-y,1/2+z
loop_
_atom_site_type_symbol
_atom_site_label
_atom_site_fract_x
_atom_site_fract_y
_atom_site_fract_z
Si Si1 0.832466 0.509584 0.420500
Si Si2 0.085752 0.158604 0.915774
Si Si3 0.830350 0.503484 0.771660
Si Si4 0.465466 0.089674 0.221786
Si Si5 0.958447 0.086760 0.729994
Si Si6 0.405940 0.347736 0.920431
O O1 0.750000 0.525992 0.374531
O O2 0.855499 0.413806 0.390068
O O3 0.836269 0.520439 0.596717
O O4 0.893057 0.564447 0.340316
O O5 0.114847 0.251663 0.906261
O O6 0.018687 0.143486 0.807237
O O7 0.054962 0.140912 0.078468
O O8 0.750000 0.473215 0.801936
O O9 0.892444 0.436439 0.805513
O O10 0.847643 0.587419 0.858898
O O11 0.522788 0.135210 0.322855
O O12 0.500000 0.000000 0.176413
O O13 0.926474 0.128065 0.585415
O O14 0.000000 0.000000 0.693959
#
# Coordination Sequence:
#
# PCOD9363021 Si02
#       6
#     8   8   8   8   8   8
#     4   9  19  36  54  69  93 133 172 199 234 295
#     4  10  19  32  52  75 100 130 163 202 244 290
#     4   9  18  33  52  71  95 132 170 198 235 294
#     4   9  17  33  52  71  96 132 171 197 233 295
#     4  10  19  32  50  74 101 130 164 201 245 291
#     4  11  20  30  50  80 105 123 156 211 255 283
#
# _framework density 17.666481999999998
#
# number of rings (size 3 to 8) (size 9 to 14) (size 15 to 20)
#    0.000    2.333    0.000    6.000    0.000    1.333 
#    0.000    0.000    0.000    3.000    0.000    9.333 
#    0.000    0.000    0.000    0.000    0.000    0.000 
#
# Total GULP energy -133870.286695 kJ/mol
# GULP energy per Si atom -5577.928612 kJ/mol
# Density = 1.762627 g / cm^3
# Si number density = 17.666482 Si / 1000 Ang^3
#
#
#
# Elastic Constant Matrix: (Units=GPa)
#
#
# Indices 1 2 3 4 5 6 
#
# 1 66.4174 -16.6696 -7.1127 0.0000 0.0000 0.0000
# 2 -16.6696 38.3653 7.8335 0.0000 0.0000 0.0000
# 3 -7.1127 7.8335 26.6398 0.0000 0.0000 0.0000
# 4 0.0000 0.0000 0.0000 16.1399 0.0000 0.0000
# 5 0.0000 0.0000 0.0000 0.0000 1.3695 0.0000
# 6 0.0000 0.0000 0.0000 0.0000 0.0000 7.3076
#
#
#
# Elastic Compliance Matrix: (Units=1/GPa)
#
#
# Indices 1 2 3 4 5 6 
#
# 1 0.017058 0.006896 0.002527 0.000000 0.000000 0.000000
# 2 0.006896 0.030518 -0.007133 0.000000 0.000000 0.000000
# 3 0.002527 -0.007133 0.040310 0.000000 0.000000 0.000000
# 4 0.000000 0.000000 0.000000 0.061958 0.000000 0.000000
# 5 0.000000 0.000000 0.000000 0.000000 0.730184 0.000000
# 6 0.000000 0.000000 0.000000 0.000000 0.000000 0.136844
#
#
# Mechanical properties :
#
#
# Convention : Reuss Voigt Hill
#
# Bulk Modulus (GPa) = 10.81504 11.05833 10.93668
# Shear Modulus (GPa) = 4.79334 14.78815 9.79074
#
# Velocity S-wave (km/s) = 1.64898 2.89636 2.35670
# Velocity P-wave (km/s) = 3.12419 4.17831 3.68910
#
# Compressibility (1/GPa) = 0.09246387
#
# Stress axis : x y z
#
# Youngs Moduli (GPa) = 58.62516 32.76788 24.80780
#
# Poissons Ratio (x) = -0.22595 -0.06268
# Poissons Ratio (y) = -0.40425 0.17695
# Poissons Ratio (z) = -0.14812 0.23373
#
# Static dielectric constant tensor:
#      x y z
#    x 1.607090 0.000000 0.000000 
#    y 0.000000 1.593150 0.000000 
#    z 0.000000 0.000000 1.594440 
# 
# From -- ./inp_files/7566.got.cif
#   From: 2010.05.17/outbox.cif.g08.bks.cpg/sg40_4_cif.got.tgz:7566.got - 2010.06.03 18:35:42.
