data_PCOD9363906
_publ_section_title
;
Structure prediction by ZEFSAII (Michael W. Deem and Ramdas Pophale) SiO2 
 PCOD9363906
Probable space group: A M A 2
;
_chemical_formula_sum "Si O2"
_cell_formula_units_Z 60
_cell_length_a 15.595376
_cell_length_b 13.485230
_cell_length_c 14.888050
_cell_angle_alpha 90.000000
_cell_angle_beta 90.000000
_cell_angle_gamma 90.000000
_cell_volume 3131.064590
_symmetry_space_group_name_H-M "A M A 2"
_symmetry_group_IT_number 40
_symmetry_cell_setting 'orthorhombic'
loop_
_space_group_symop_operation_xyz
x,y,z
-x,-y,z
1/2-x,y,z
1/2+x,-y,z
x,1/2+y,1/2+z
-x,1/2-y,1/2+z
1/2-x,1/2+y,1/2+z
1/2+x,1/2-y,1/2+z
loop_
_atom_site_type_symbol
_atom_site_label
_atom_site_fract_x
_atom_site_fract_y
_atom_site_fract_z
Si Si1 0.982344 0.893837 0.268800
Si Si2 0.654272 0.266327 0.667106
Si Si3 0.089159 0.699552 0.471427
Si Si4 0.000000 0.500000 0.410350
Si Si5 0.152598 0.619006 0.136636
Si Si6 0.344196 0.777795 0.291599
Si Si7 0.147204 0.445039 0.267413
Si Si8 0.463963 0.609534 0.969302
O O1 0.923807 0.827470 0.207445
O O2 0.936151 0.901796 0.365751
O O3 0.075882 0.850185 0.288317
O O4 0.000000 0.000000 0.227297
O O5 0.750000 0.299981 0.693589
O O6 0.645083 0.281012 0.560159
O O7 0.643483 0.156803 0.710307
O O8 0.142136 0.707980 0.378478
O O9 0.039224 0.593983 0.465539
O O10 0.026885 0.795806 0.471471
O O11 0.921529 0.545254 0.348830
O O12 0.250000 0.592125 0.116189
O O13 0.151151 0.713922 0.200993
O O14 0.118665 0.530577 0.198533
O O15 0.105163 0.632960 0.044163
O O16 0.250000 0.824608 0.298079
O O17 0.250000 0.459185 0.292214
O O18 0.500000 0.500000 0.992674
#
# Coordination Sequence:
#
# PCOD9363906 Si02
#       8
#     8   8   8   4   8   8   8   8
#     4  10  23  41  59  84 118 162 216 253 311 386
#     4  11  24  41  62  88 126 169 211 266 318 383
#     4  11  23  37  61  94 127 168 215 255 326 392
#     4  12  24  40  68  96 134 182 208 280 334 388
#     4  10  20  35  60  91 122 154 202 266 321 375
#     4  10  20  38  62  90 123 159 204 261 316 379
#     4  10  22  39  64  99 128 165 219 270 332 387
#     4  10  21  37  60  88 119 161 207 266 320 379
#
# _framework density 19.162811999999999
#
# number of rings (size 3 to 8) (size 9 to 14) (size 15 to 20)
#    0.000    1.600    1.333    3.600    3.733    1.600 
#    0.000    7.333    0.000    0.000    0.000    0.000 
#    0.000    0.000    0.000    0.000    0.000    0.000 
#
# Total GULP energy -167195.234207 kJ/mol
# GULP energy per Si atom -5573.174474 kJ/mol
# Density = 1.911920 g / cm^3
# Si number density = 19.162812 Si / 1000 Ang^3
#
#
#
# Elastic Constant Matrix: (Units=GPa)
#
#
# Indices 1 2 3 4 5 6 
#
# 1 62.6663 28.9508 15.0846 0.0000 0.0000 0.0000
# 2 28.9508 80.3131 2.0194 0.0000 0.0000 0.0000
# 3 15.0846 2.0194 43.6395 0.0000 0.0000 0.0000
# 4 0.0000 0.0000 0.0000 -40.0066 0.0000 0.0000
# 5 0.0000 0.0000 0.0000 0.0000 -8.5412 0.0000
# 6 0.0000 0.0000 0.0000 0.0000 0.0000 10.4411
#
#
#
# Elastic Compliance Matrix: (Units=1/GPa)
#
#
# Indices 1 2 3 4 5 6 
#
# 1 0.021052 -0.007414 -0.006934 0.000000 0.000000 0.000000
# 2 -0.007414 0.015077 0.001865 0.000000 0.000000 0.000000
# 3 -0.006934 0.001865 0.025225 0.000000 0.000000 0.000000
# 4 0.000000 0.000000 0.000000 -0.024996 0.000000 0.000000
# 5 0.000000 0.000000 0.000000 0.000000 -0.117079 0.000000
# 6 0.000000 0.000000 0.000000 0.000000 0.000000 0.095775
#
#
# Mechanical properties :
#
#
# Convention : Reuss Voigt Hill
#
# Bulk Modulus (GPa) = 27.48117 30.96983 29.22550
# Shear Modulus (GPa) = 95.87724 1.74960 48.81342
#
# Velocity S-wave (km/s) = 7.08107 0.95656 5.05255
# Velocity P-wave (km/s) = 9.01263 4.17331 7.02296
#
# Compressibility (1/GPa) = 0.03638855
#
# Stress axis : x y z
#
# Youngs Moduli (GPa) = 47.50162 66.32597 39.64250
#
# Poissons Ratio (x) = 0.49176 0.27487
# Poissons Ratio (y) = 0.35219 -0.07394
# Poissons Ratio (z) = 0.32937 -0.12371
#
# Static dielectric constant tensor:
#      x y z
#    x 1.733190 0.000000 0.000000 
#    y 0.000000 1.753130 0.000000 
#    z 0.000000 0.000000 1.692640 
# 
# From -- ./inp_files/20752.got.cif
#   From: 2010.05.17/outbox.cif.g08.bks.cpg/sg40_11_cif.got.tgz:20752.got - 2010.06.03 18:35:42.
