data_PCOD9363934
_publ_section_title
;
Structure prediction by ZEFSAII (Michael W. Deem and Ramdas Pophale) SiO2 
 PCOD9363934
Probable space group: A M A 2
;
_chemical_formula_sum "Si O2"
_cell_formula_units_Z 48
_cell_length_a 8.660134
_cell_length_b 31.210160
_cell_length_c 10.065277
_cell_angle_alpha 90.000000
_cell_angle_beta 90.000000
_cell_angle_gamma 90.000000
_cell_volume 2720.485017
_symmetry_space_group_name_H-M "A M A 2"
_symmetry_group_IT_number 40
_symmetry_cell_setting 'orthorhombic'
loop_
_space_group_symop_operation_xyz
x,y,z
-x,-y,z
1/2-x,y,z
1/2+x,-y,z
x,1/2+y,1/2+z
-x,1/2-y,1/2+z
1/2-x,1/2+y,1/2+z
1/2+x,1/2-y,1/2+z
loop_
_atom_site_type_symbol
_atom_site_label
_atom_site_fract_x
_atom_site_fract_y
_atom_site_fract_z
Si Si1 0.564211 0.546452 0.290770
Si Si2 0.565551 0.381111 0.793033
Si Si3 0.564633 0.212083 0.291110
Si Si4 0.564341 0.546876 0.598478
Si Si5 0.064639 0.213542 0.584218
Si Si6 0.064010 0.879474 0.588159
O O1 0.500000 0.500000 0.251659
O O2 0.750000 0.544503 0.286899
O O3 0.519304 0.554678 0.444184
O O4 0.514596 0.584200 0.192365
O O5 0.750000 0.381199 0.796820
O O6 0.505510 0.333941 0.752975
O O7 0.503651 0.416891 0.693147
O O8 0.500362 0.388930 0.941263
O O9 0.750000 0.208242 0.296599
O O10 0.501892 0.222565 0.437831
O O11 0.523586 0.249084 0.187000
O O12 0.500000 0.500000 0.634890
O O13 0.750000 0.546781 0.607175
O O14 0.250000 0.210533 0.575903
O O15 0.997839 0.167464 0.626519
O O16 0.250000 0.878269 0.582688
#
# Coordination Sequence:
#
# PCOD9363934 Si02
#       6
#     8   8   8   8   8   8
#     4   9  20  36  56  80 106 138 175 216 263 314
#     4  11  22  36  55  80 108 142 181 220 264 314
#     4  10  21  37  56  79 108 141 177 220 267 316
#     4  10  20  37  57  80 109 140 177 220 266 316
#     4  10  21  36  55  80 107 138 178 220 264 316
#     4  10  20  36  56  79 108 141 176 218 267 316
#
# _framework density 17.643913999999999
#
# number of rings (size 3 to 8) (size 9 to 14) (size 15 to 20)
#    0.000    2.000    0.000    5.500    0.000    6.667 
#    0.000    6.667    0.000    0.000    0.000    0.000 
#    0.000    0.000    0.000    0.000    0.000    0.000 
#
# Total GULP energy -134023.179946 kJ/mol
# GULP energy per Si atom -5584.299164 kJ/mol
# Density = 1.760376 g / cm^3
# Si number density = 17.643914 Si / 1000 Ang^3
#
#
#
# Elastic Constant Matrix: (Units=GPa)
#
#
# Indices 1 2 3 4 5 6 
#
# 1 77.8752 68.4825 51.4827 0.0000 0.0000 0.0000
# 2 68.4825 195.6998 136.7909 0.0000 0.0000 0.0000
# 3 51.4827 136.7909 108.4010 0.0000 0.0000 0.0000
# 4 0.0000 0.0000 0.0000 44.2194 0.0000 0.0000
# 5 0.0000 0.0000 0.0000 0.0000 86.9914 0.0000
# 6 0.0000 0.0000 0.0000 0.0000 0.0000 31.1983
#
#
#
# Elastic Compliance Matrix: (Units=1/GPa)
#
#
# Indices 1 2 3 4 5 6 
#
# 1 0.018908 -0.002880 -0.005345 0.000000 0.000000 0.000000
# 2 -0.002880 0.043759 -0.053851 0.000000 0.000000 0.000000
# 3 -0.005345 -0.053851 0.079718 0.000000 0.000000 0.000000
# 4 0.000000 0.000000 0.000000 0.022614 0.000000 0.000000
# 5 0.000000 0.000000 0.000000 0.000000 0.011495 0.000000
# 6 0.000000 0.000000 0.000000 0.000000 0.000000 0.032053
#
#
# Mechanical properties :
#
#
# Convention : Reuss Voigt Hill
#
# Bulk Modulus (GPa) = 54.85026 99.49868 77.17447
# Shear Modulus (GPa) = 14.75892 40.82983 27.79437
#
# Velocity S-wave (km/s) = 2.89535 4.81573 3.97330
# Velocity P-wave (km/s) = 6.50632 9.35076 8.05509
#
# Compressibility (1/GPa) = 0.01823145
#
# Stress axis : x y z
#
# Youngs Moduli (GPa) = 52.88891 22.85244 12.54418
#
# Poissons Ratio (x) = 0.06582 0.06705
# Poissons Ratio (y) = 0.15234 0.67552
# Poissons Ratio (z) = 0.28269 1.23063
#
# Static dielectric constant tensor:
#      x y z
#    x 1.592920 0.000000 0.000000 
#    y 0.000000 1.577250 0.000000 
#    z 0.000000 0.000000 1.583730 
# 
# From -- ./inp_files/4577.got.cif
#   From: 2010.05.17/outbox.cif.g08.bks.cpg/sg40_3_cif.got.tgz:4577.got - 2010.06.03 18:35:42.
