data_PCOD9363639
_publ_section_title
;
Structure prediction by ZEFSAII (Michael W. Deem and Ramdas Pophale) SiO2 
 PCOD9363639
Probable space group: A M A 2
;
_chemical_formula_sum "Si O2"
_cell_formula_units_Z 64
_cell_length_a 8.826097
_cell_length_b 28.739383
_cell_length_c 14.879944
_cell_angle_alpha 90.000000
_cell_angle_beta 90.000000
_cell_angle_gamma 90.000000
_cell_volume 3774.395737
_symmetry_space_group_name_H-M "A M A 2"
_symmetry_group_IT_number 40
_symmetry_cell_setting 'orthorhombic'
loop_
_space_group_symop_operation_xyz
x,y,z
-x,-y,z
1/2-x,y,z
1/2+x,-y,z
x,1/2+y,1/2+z
-x,1/2-y,1/2+z
1/2-x,1/2+y,1/2+z
1/2+x,1/2-y,1/2+z
loop_
_atom_site_type_symbol
_atom_site_label
_atom_site_fract_x
_atom_site_fract_y
_atom_site_fract_z
Si Si1 0.579307 0.230940 0.334800
Si Si2 0.068043 0.639634 0.896579
Si Si3 0.067238 0.049728 0.285608
Si Si4 0.567797 0.827493 0.591315
Si Si5 0.921212 0.266964 0.540662
Si Si6 0.433959 0.168804 0.785958
Si Si7 0.431888 0.950590 0.087804
Si Si8 0.069121 0.859275 0.974463
O O1 0.750000 0.221721 0.302165
O O2 0.487089 0.183471 0.337670
O O3 0.587395 0.248634 0.437842
O O4 0.516650 0.276838 0.287171
O O5 0.250000 0.640382 0.898254
O O6 0.020500 0.591356 0.851794
O O7 0.014075 0.647591 0.999564
O O8 0.250000 0.047291 0.282116
O O9 0.003198 0.058931 0.185776
O O10 0.000000 0.000000 0.314107
O O11 0.750000 0.826930 0.588875
O O12 0.511817 0.774223 0.588149
O O13 0.523761 0.849631 0.687139
O O14 0.750000 0.271392 0.575430
O O15 0.000940 0.316821 0.533087
O O16 0.250000 0.168528 0.795209
O O17 0.503188 0.144815 0.873595
O O18 0.250000 0.954460 0.096415
O O19 0.500000 0.000000 0.057214
O O20 0.467225 0.908286 0.021001
O O21 0.250000 0.853810 0.970717
#
# Coordination Sequence:
#
# PCOD9363639 Si02
#       8
#     8   8   8   8   8   8   8   8
#     4   8  15  27  42  63  91 122 158 195 229 268
#     4   9  18  31  48  70  95 125 160 196 237 285
#     4  10  20  34  52  74  97 122 155 196 244 295
#     4   9  17  31  49  70 100 135 168 202 239 280
#     4   9  17  29  45  67  95 128 165 200 235 277
#     4   9  18  31  48  71  99 133 168 199 234 280
#     4  10  21  36  54  75  96 121 154 195 246 297
#     4  10  20  33  50  72  98 128 162 201 245 292
#
# _framework density 16.956354999999999
#
# number of rings (size 3 to 8) (size 9 to 14) (size 15 to 20)
#    0.000    2.750    0.000    3.000    0.000    7.500 
#    0.000    3.750    0.000    0.750    0.000    3.500 
#    0.000    0.000    0.000    0.000    0.000    0.000 
#
# Total GULP energy -178253.878948 kJ/mol
# GULP energy per Si atom -5570.433717 kJ/mol
# Density = 1.691776 g / cm^3
# Si number density = 16.956355 Si / 1000 Ang^3
#
#
#
# Elastic Constant Matrix: (Units=GPa)
#
#
# Indices 1 2 3 4 5 6 
#
# 1 32.9952 44.0758 28.3805 0.0000 0.0000 0.0000
# 2 44.0758 136.2500 70.2439 0.0000 0.0000 0.0000
# 3 28.3805 70.2439 84.4470 0.0000 0.0000 0.0000
# 4 0.0000 0.0000 0.0000 24.0147 0.0000 0.0000
# 5 0.0000 0.0000 0.0000 0.0000 7.2389 0.0000
# 6 0.0000 0.0000 0.0000 0.0000 0.0000 23.2828
#
#
#
# Elastic Compliance Matrix: (Units=1/GPa)
#
#
# Indices 1 2 3 4 5 6 
#
# 1 0.055330 -0.014553 -0.006490 0.000000 0.000000 0.000000
# 2 -0.014553 0.016678 -0.008982 0.000000 0.000000 0.000000
# 3 -0.006490 -0.008982 0.021494 0.000000 0.000000 0.000000
# 4 0.000000 0.000000 0.000000 0.041641 0.000000 0.000000
# 5 0.000000 0.000000 0.000000 0.000000 0.138143 0.000000
# 6 0.000000 0.000000 0.000000 0.000000 0.000000 0.042950
#
#
# Mechanical properties :
#
#
# Convention : Reuss Voigt Hill
#
# Bulk Modulus (GPa) = 29.89313 59.89917 44.89615
# Shear Modulus (GPa) = 12.90536 18.30674 15.60605
#
# Velocity S-wave (km/s) = 2.76178 3.28935 3.03704
# Velocity P-wave (km/s) = 5.27614 7.05894 6.23162
#
# Compressibility (1/GPa) = 0.03345250
#
# Stress axis : x y z
#
# Youngs Moduli (GPa) = 18.07349 59.95977 46.52456
#
# Poissons Ratio (x) = 0.87259 0.30193
# Poissons Ratio (y) = 0.26302 0.41788
# Poissons Ratio (z) = 0.11729 0.53855
#
# Static dielectric constant tensor:
#      x y z
#    x 1.584430 0.000000 0.000000 
#    y 0.000000 1.555430 0.000000 
#    z 0.000000 0.000000 1.605940 
# 
# From -- ./inp_files/15897.got.cif
#   From: 2010.05.17/outbox.cif.g08.bks.cpg/sg40_8_cif.got.tgz:15897.got - 2010.06.03 18:35:42.
