data_PCOD9363434
_publ_section_title
;
Structure prediction by ZEFSAII (Michael W. Deem and Ramdas Pophale) SiO2 
 PCOD9363434
Probable space group: A M A 2
;
_chemical_formula_sum "Si O2"
_cell_formula_units_Z 64
_cell_length_a 24.483169
_cell_length_b 26.148478
_cell_length_c 5.337861
_cell_angle_alpha 90.000000
_cell_angle_beta 90.000000
_cell_angle_gamma 90.000000
_cell_volume 3417.285833
_symmetry_space_group_name_H-M "A M A 2"
_symmetry_group_IT_number 40
_symmetry_cell_setting 'orthorhombic'
loop_
_space_group_symop_operation_xyz
x,y,z
-x,-y,z
1/2-x,y,z
1/2+x,-y,z
x,1/2+y,1/2+z
-x,1/2-y,1/2+z
1/2-x,1/2+y,1/2+z
1/2+x,1/2-y,1/2+z
loop_
_atom_site_type_symbol
_atom_site_label
_atom_site_fract_x
_atom_site_fract_y
_atom_site_fract_z
Si Si1 0.875650 0.593074 0.222760
Si Si2 0.459926 0.814098 0.721853
Si Si3 0.040565 0.048521 0.313636
Si Si4 0.684747 0.749407 0.743110
Si Si5 0.815416 0.627848 0.725565
Si Si6 0.064727 0.513194 0.313449
Si Si7 0.978749 0.839041 0.224949
Si Si8 0.124309 0.220000 0.243176
O O1 0.924193 0.634381 0.217349
O O2 0.839734 0.605917 0.467792
O O3 0.901958 0.537289 0.246606
O O4 0.841739 0.600966 0.967712
O O5 0.493913 0.812575 0.465328
O O6 0.418848 0.766888 0.739004
O O7 0.497616 0.817362 0.966888
O O8 0.009592 0.100486 0.245884
O O9 0.068408 0.052592 0.584105
O O10 0.000000 0.000000 0.340794
O O11 0.079993 0.035526 0.083104
O O12 0.750000 0.753689 0.736987
O O13 0.671035 0.688552 0.740041
O O14 0.658584 0.774420 0.496752
O O15 0.660963 0.773318 0.996955
O O16 0.750000 0.622927 0.729076
O O17 0.000000 0.500000 0.341084
O O18 0.914040 0.829620 0.234944
#
# Coordination Sequence:
#
# PCOD9363434 Si02
#       8
#     8   8   8   8   8   8   8   8
#     4  12  21  36  61  86 118 158 190 239 296 355
#     4  12  21  36  52  84 121 163 192 219 286 353
#     4  10  19  36  52  78 110 148 193 235 269 317
#     4  11  22  41  62  84 116 153 199 254 287 340
#     4  11  22  38  58  87 117 152 193 242 294 352
#     4  10  20  34  53  82 111 145 193 237 276 339
#     4  12  24  36  57  81 124 162 193 239 279 352
#     4  12  23  39  55  88 118 157 198 229 296 346
#
# _framework density 18.728314999999998
#
# number of rings (size 3 to 8) (size 9 to 14) (size 15 to 20)
#    0.000    0.750    2.500    8.250    0.000    2.000 
#    0.000    0.000    0.000    0.000    0.000   17.500 
#    0.000    0.000    0.000    0.000    0.000    0.000 
#
# Total GULP energy -178875.751894 kJ/mol
# GULP energy per Si atom -5589.867247 kJ/mol
# Density = 1.868569 g / cm^3
# Si number density = 18.728315 Si / 1000 Ang^3
#
#
#
# Elastic Constant Matrix: (Units=GPa)
#
#
# Indices 1 2 3 4 5 6 
#
# 1 72.6815 7.5925 40.3600 0.0000 0.0000 0.0000
# 2 7.5925 34.7785 -4.0490 0.0000 0.0000 0.0000
# 3 40.3600 -4.0490 137.1495 0.0000 0.0000 0.0000
# 4 0.0000 0.0000 0.0000 -16.2364 0.0000 0.0000
# 5 0.0000 0.0000 0.0000 0.0000 28.9855 0.0000
# 6 0.0000 0.0000 0.0000 0.0000 0.0000 22.1978
#
#
#
# Elastic Compliance Matrix: (Units=1/GPa)
#
#
# Indices 1 2 3 4 5 6 
#
# 1 0.017071 -0.004327 -0.005151 0.000000 0.000000 0.000000
# 2 -0.004327 0.029949 0.002157 0.000000 0.000000 0.000000
# 3 -0.005151 0.002157 0.008871 0.000000 0.000000 0.000000
# 4 0.000000 0.000000 0.000000 -0.061590 0.000000 0.000000
# 5 0.000000 0.000000 0.000000 0.000000 0.034500 0.000000
# 6 0.000000 0.000000 0.000000 0.000000 0.000000 0.045049
#
#
# Mechanical properties :
#
#
# Convention : Reuss Voigt Hill
#
# Bulk Modulus (GPa) = 24.24237 36.93517 30.58877
# Shear Modulus (GPa) = 48.90364 20.36980 34.63672
#
# Velocity S-wave (km/s) = 5.11555 3.30153 4.30517
# Velocity P-wave (km/s) = 6.91839 5.85643 6.40944
#
# Compressibility (1/GPa) = 0.04125009
#
# Stress axis : x y z
#
# Youngs Moduli (GPa) = 58.57825 33.39001 112.72757
#
# Poissons Ratio (x) = 0.14446 0.58070
# Poissons Ratio (y) = 0.25344 -0.24320
# Poissons Ratio (z) = 0.30176 -0.07204
#
# Static dielectric constant tensor:
#      x y z
#    x 1.608090 0.000000 0.000000 
#    y 0.000000 1.671890 0.000000 
#    z 0.000000 0.000000 1.692400 
# 
# From -- ./inp_files/2873.got.cif
#   From: 2010.05.17/outbox.cif.g08.bks.cpg/sg40_2_cif.got.tgz:2873.got - 2010.06.03 18:35:42.
