data_PCOD9363965
_publ_section_title
;
Structure prediction by ZEFSAII (Michael W. Deem and Ramdas Pophale) SiO2 
 PCOD9363965
Probable space group: A M A 2
;
_chemical_formula_sum "Si O2"
_cell_formula_units_Z 64
_cell_length_a 14.855087
_cell_length_b 21.770249
_cell_length_c 9.591777
_cell_angle_alpha 90.000000
_cell_angle_beta 90.000000
_cell_angle_gamma 90.000000
_cell_volume 3101.970542
_symmetry_space_group_name_H-M "A M A 2"
_symmetry_group_IT_number 40
_symmetry_cell_setting 'orthorhombic'
loop_
_space_group_symop_operation_xyz
x,y,z
-x,-y,z
1/2-x,y,z
1/2+x,-y,z
x,1/2+y,1/2+z
-x,1/2-y,1/2+z
1/2-x,1/2+y,1/2+z
1/2+x,1/2-y,1/2+z
loop_
_atom_site_type_symbol
_atom_site_label
_atom_site_fract_x
_atom_site_fract_y
_atom_site_fract_z
Si Si1 0.091624 0.226156 0.809820
Si Si2 0.144829 0.493462 0.402915
Si Si3 0.149931 0.911641 0.658252
Si Si4 0.454170 0.903262 0.106211
Si Si5 0.039086 0.863578 0.401107
Si Si6 0.848600 0.874666 0.012687
Si Si7 0.650453 0.314927 0.000508
Si Si8 0.391447 0.811883 0.878913
O O1 0.079990 0.297099 0.854183
O O2 0.145021 0.188163 0.927030
O O3 0.129592 0.209815 0.657452
O O4 0.990984 0.199207 0.818508
O O5 0.250000 0.474516 0.424825
O O6 0.115776 0.467719 0.253457
O O7 0.082417 0.461896 0.520396
O O8 0.144353 0.566676 0.409798
O O9 0.250000 0.925972 0.606555
O O10 0.087204 0.890558 0.535156
O O11 0.154640 0.856077 0.769240
O O12 0.439177 0.906672 0.269702
O O13 0.559856 0.884354 0.098000
O O14 0.403300 0.847974 0.025055
O O15 0.934218 0.853490 0.442415
O O16 0.750000 0.878527 0.082900
O O17 0.750000 0.343862 0.998219
O O18 0.651107 0.253659 0.906028
#
# Coordination Sequence:
#
# PCOD9363965 Si02
#       8
#     8   8   8   8   8   8   8   8
#     4  10  20  36  57  86 126 159 188 244 303 353
#     4   9  20  40  66  91 114 154 211 255 292 348
#     4  10  20  36  60  88 118 156 200 252 303 345
#     4  10  20  37  62  84 119 158 196 248 303 346
#     4  11  23  38  57  93 129 154 196 249 304 366
#     4  10  21  38  65  92 117 154 207 251 290 355
#     4  11  21  34  55  83 123 168 198 234 300 365
#     4   9  18  35  54  80 113 157 201 241 280 353
#
# _framework density 20.632047
#
# number of rings (size 3 to 8) (size 9 to 14) (size 15 to 20)
#    0.000    2.000    2.500    1.125    0.000    2.500 
#    0.000    0.000    5.500    0.000    0.000    0.000 
#    0.000    0.000    0.000    0.000    0.000    0.000 
#
# Total GULP energy -178473.446147 kJ/mol
# GULP energy per Si atom -5577.295192 kJ/mol
# Density = 2.058509 g / cm^3
# Si number density = 20.632047 Si / 1000 Ang^3
#
#
#
# Elastic Constant Matrix: (Units=GPa)
#
#
# Indices 1 2 3 4 5 6 
#
# 1 105.2612 10.3637 41.9428 0.0000 0.0000 0.0000
# 2 10.3637 20.6846 1.6383 0.0000 0.0000 0.0000
# 3 41.9428 1.6383 104.6682 0.0000 0.0000 0.0000
# 4 0.0000 0.0000 0.0000 -5.2534 0.0000 0.0000
# 5 0.0000 0.0000 0.0000 0.0000 6.2332 0.0000
# 6 0.0000 0.0000 0.0000 0.0000 0.0000 13.6941
#
#
#
# Elastic Compliance Matrix: (Units=1/GPa)
#
#
# Indices 1 2 3 4 5 6 
#
# 1 0.011920 -0.005601 -0.004689 0.000000 0.000000 0.000000
# 2 -0.005601 0.051037 0.001446 0.000000 0.000000 0.000000
# 3 -0.004689 0.001446 0.011410 0.000000 0.000000 0.000000
# 4 0.000000 0.000000 0.000000 -0.190352 0.000000 0.000000
# 5 0.000000 0.000000 0.000000 0.000000 0.160431 0.000000
# 6 0.000000 0.000000 0.000000 0.000000 0.000000 0.073024
#
#
# Mechanical properties :
#
#
# Convention : Reuss Voigt Hill
#
# Bulk Modulus (GPa) = 17.64330 37.61150 27.62740
# Shear Modulus (GPa) = 32.45657 14.71274 23.58465
#
# Velocity S-wave (km/s) = 3.97055 2.67329 3.38466
# Velocity P-wave (km/s) = 5.43970 5.27237 5.35669
#
# Compressibility (1/GPa) = 0.05667875
#
# Stress axis : x y z
#
# Youngs Moduli (GPa) = 83.89268 19.59362 87.63995
#
# Poissons Ratio (x) = 0.10974 0.41094
# Poissons Ratio (y) = 0.46988 -0.12669
# Poissons Ratio (z) = 0.39337 -0.02832
#
# Static dielectric constant tensor:
#      x y z
#    x 1.798260 0.000000 0.000000 
#    y 0.000000 1.729910 0.000000 
#    z 0.000000 0.000000 1.712520 
# 
# From -- ./inp_files/6906.got.cif
#   From: 2010.05.17/outbox.cif.g08.bks.cpg/sg40_4_cif.got.tgz:6906.got - 2010.06.03 18:35:42.
