data_PCOD9363649
_publ_section_title
;
Structure prediction by ZEFSAII (Michael W. Deem and Ramdas Pophale) SiO2 
 PCOD9363649
Probable space group: A M A 2
;
_chemical_formula_sum "Si O2"
_cell_formula_units_Z 64
_cell_length_a 8.833899
_cell_length_b 15.118477
_cell_length_c 27.571866
_cell_angle_alpha 90.000000
_cell_angle_beta 90.000000
_cell_angle_gamma 90.000000
_cell_volume 3682.363289
_symmetry_space_group_name_H-M "A M A 2"
_symmetry_group_IT_number 40
_symmetry_cell_setting 'orthorhombic'
loop_
_space_group_symop_operation_xyz
x,y,z
-x,-y,z
1/2-x,y,z
1/2+x,-y,z
x,1/2+y,1/2+z
-x,1/2-y,1/2+z
1/2-x,1/2+y,1/2+z
1/2+x,1/2-y,1/2+z
loop_
_atom_site_type_symbol
_atom_site_label
_atom_site_fract_x
_atom_site_fract_y
_atom_site_fract_z
Si Si1 0.930419 0.404843 0.457960
Si Si2 0.069156 0.724161 0.988589
Si Si3 0.931408 0.094293 0.680764
Si Si4 0.069439 0.904538 0.410142
Si Si5 0.070411 0.905475 0.295006
Si Si6 0.067999 0.404213 0.067867
Si Si7 0.931536 0.725820 0.265125
Si Si8 0.569760 0.404813 0.342821
O O1 0.750000 0.404966 0.465361
O O2 0.958267 0.391544 0.400164
O O3 0.000000 0.500000 0.470960
O O4 0.006743 0.323568 0.485551
O O5 0.250000 0.723379 0.989377
O O6 0.008272 0.671127 0.941615
O O7 0.002330 0.670641 0.034082
O O8 0.750000 0.087059 0.683315
O O9 0.971040 0.110820 0.624531
O O10 0.978893 0.171329 0.717284
O O11 0.000000 0.000000 0.695467
O O12 0.250000 0.904363 0.418742
O O13 0.042626 0.891636 0.352766
O O14 0.000000 0.000000 0.423453
O O15 0.250000 0.906986 0.287832
O O16 0.996638 0.824080 0.267098
O O17 0.000000 0.000000 0.281920
O O18 0.250000 0.406102 0.062696
O O19 0.000000 0.500000 0.054227
O O20 0.750000 0.728365 0.267301
O O21 0.994751 0.671062 0.310835
O O22 0.500000 0.500000 0.329375
O O23 0.750000 0.405591 0.335016
#
# Coordination Sequence:
#
# PCOD9363649 Si02
#       8
#     8   8   8   8   8   8   8   8
#     4  10  21  37  54  74 103 139 177 216 256 299
#     4  12  23  34  52  78 105 136 174 212 256 308
#     4   9  20  36  55  79 106 136 168 207 255 307
#     4  10  20  34  51  74 105 139 175 213 255 304
#     4  10  21  36  53  74 102 138 177 216 257 301
#     4  10  20  37  57  78 106 136 168 209 258 309
#     4  11  21  33  52  78 106 137 174 213 256 306
#     4  10  20  33  50  75 107 141 176 212 253 302
#
# _framework density 17.380143
#
# number of rings (size 3 to 8) (size 9 to 14) (size 15 to 20)
#    0.000    1.750    0.000    4.875    0.000    8.500 
#    0.000    0.000    0.000    0.750    0.000    3.500 
#    0.000    0.000    0.000    0.000    0.000    0.000 
#
# Total GULP energy -178837.377345 kJ/mol
# GULP energy per Si atom -5588.668042 kJ/mol
# Density = 1.734058 g / cm^3
# Si number density = 17.380143 Si / 1000 Ang^3
#
#
#
# Elastic Constant Matrix: (Units=GPa)
#
#
# Indices 1 2 3 4 5 6 
#
# 1 81.5326 73.8010 51.5732 0.0000 0.0000 0.0000
# 2 73.8010 183.7333 80.1902 0.0000 0.0000 0.0000
# 3 51.5732 80.1902 66.4843 0.0000 0.0000 0.0000
# 4 0.0000 0.0000 0.0000 23.0323 0.0000 0.0000
# 5 0.0000 0.0000 0.0000 0.0000 31.7282 0.0000
# 6 0.0000 0.0000 0.0000 0.0000 0.0000 36.5970
#
#
#
# Elastic Compliance Matrix: (Units=1/GPa)
#
#
# Indices 1 2 3 4 5 6 
#
# 1 0.025012 -0.003333 -0.015382 0.000000 0.000000 0.000000
# 2 -0.003333 0.011937 -0.011812 0.000000 0.000000 0.000000
# 3 -0.015382 -0.011812 0.041220 0.000000 0.000000 0.000000
# 4 0.000000 0.000000 0.000000 0.043417 0.000000 0.000000
# 5 0.000000 0.000000 0.000000 0.000000 0.031518 0.000000
# 6 0.000000 0.000000 0.000000 0.000000 0.000000 0.027325
#
#
# Mechanical properties :
#
#
# Convention : Reuss Voigt Hill
#
# Bulk Modulus (GPa) = 58.42889 82.54211 70.48550
# Shear Modulus (GPa) = 20.22752 26.68389 23.45570
#
# Velocity S-wave (km/s) = 3.41520 3.92255 3.67763
# Velocity P-wave (km/s) = 7.01731 8.25291 7.66006
#
# Compressibility (1/GPa) = 0.01711482
#
# Stress axis : x y z
#
# Youngs Moduli (GPa) = 39.98092 83.77367 24.25991
#
# Poissons Ratio (x) = 0.27924 0.37316
# Poissons Ratio (y) = 0.13327 0.28656
# Poissons Ratio (z) = 0.61498 0.98954
#
# Static dielectric constant tensor:
#      x y z
#    x 1.574980 0.000000 0.000000 
#    y 0.000000 1.570490 0.000000 
#    z 0.000000 0.000000 1.588570 
# 
# From -- ./inp_files/24236.got.cif
#   From: 2010.05.17/outbox.cif.g08.bks.cpg/sg40_13_cif.got.tgz:24236.got - 2010.06.03 18:35:42.
