data_PCOD9363118
_publ_section_title
;
Structure prediction by ZEFSAII (Michael W. Deem and Ramdas Pophale) SiO2 
 PCOD9363118
Probable space group: A M A 2
;
_chemical_formula_sum "Si O2"
_cell_formula_units_Z 56
_cell_length_a 19.413413
_cell_length_b 23.867929
_cell_length_c 5.379432
_cell_angle_alpha 90.000000
_cell_angle_beta 90.000000
_cell_angle_gamma 90.000000
_cell_volume 2492.602654
_symmetry_space_group_name_H-M "A M A 2"
_symmetry_group_IT_number 40
_symmetry_cell_setting 'orthorhombic'
loop_
_space_group_symop_operation_xyz
x,y,z
-x,-y,z
1/2-x,y,z
1/2+x,-y,z
x,1/2+y,1/2+z
-x,1/2-y,1/2+z
1/2-x,1/2+y,1/2+z
1/2+x,1/2-y,1/2+z
loop_
_atom_site_type_symbol
_atom_site_label
_atom_site_fract_x
_atom_site_fract_y
_atom_site_fract_z
Si Si1 0.640014 0.403097 0.378100
Si Si2 0.579356 0.489399 0.676236
Si Si3 0.126924 0.123520 0.376424
Si Si4 0.092831 0.891253 0.364129
Si Si5 0.014145 0.853996 0.861442
Si Si6 0.830141 0.218289 0.362227
Si Si7 0.909458 0.754609 0.361368
O O1 0.625395 0.468076 0.443776
O O2 0.671037 0.385369 0.120947
O O3 0.632639 0.242041 0.608687
O O4 0.670769 0.376681 0.625196
O O5 0.500000 0.500000 0.604858
O O6 0.607044 0.543489 0.817266
O O7 0.583065 0.433983 0.849284
O O8 0.080687 0.178994 0.377908
O O9 0.063525 0.124628 0.863798
O O10 0.052840 0.880176 0.622552
O O11 0.156850 0.848738 0.370160
O O12 0.050250 0.873408 0.116957
O O13 0.024919 0.786684 0.852578
O O14 0.750000 0.231928 0.362581
O O15 0.865770 0.239371 0.107881
#
# Coordination Sequence:
#
# PCOD9363118 Si02
#       7
#     8   8   8   8   8   8   8
#     4  10  20  31  47  76 112 154 195 207 251 314
#     4  10  20  33  53  76 118 158 192 214 260 321
#     4  10  22  33  50  80 108 153 185 223 258 321
#     4  10  20  33  54  82 109 142 189 234 273 328
#     4  10  19  33  50  78 109 153 184 227 264 314
#     4  10  21  39  64  84 101 135 180 241 306 348
#     4  10  21  37  57  81 115 134 181 233 290 335
#
# _framework density 22.466477999999999
#
# number of rings (size 3 to 8) (size 9 to 14) (size 15 to 20)
#    0.857    1.143    1.429    3.000    2.000    1.714 
#    0.000    0.000    0.000    1.714    0.000    0.000 
#    0.000    0.000    0.000    0.000    0.000    0.000 
#
# Total GULP energy -156281.792422 kJ/mol
# GULP energy per Si atom -5581.492586 kJ/mol
# Density = 2.241534 g / cm^3
# Si number density = 22.466478 Si / 1000 Ang^3
#
#
#
# Elastic Constant Matrix: (Units=GPa)
#
#
# Indices 1 2 3 4 5 6 
#
# 1 66.0926 13.6801 20.4944 0.0000 0.0000 0.0000
# 2 13.6801 189.6923 34.1861 0.0000 0.0000 0.0000
# 3 20.4944 34.1861 193.0492 0.0000 0.0000 0.0000
# 4 0.0000 0.0000 0.0000 32.6610 0.0000 0.0000
# 5 0.0000 0.0000 0.0000 0.0000 3.2209 0.0000
# 6 0.0000 0.0000 0.0000 0.0000 0.0000 -4.8276
#
#
#
# Elastic Compliance Matrix: (Units=1/GPa)
#
#
# Indices 1 2 3 4 5 6 
#
# 1 0.015781 -0.000864 -0.001522 0.000000 0.000000 0.000000
# 2 -0.000864 0.005493 -0.000881 0.000000 0.000000 0.000000
# 3 -0.001522 -0.000881 0.005498 0.000000 0.000000 0.000000
# 4 0.000000 0.000000 0.000000 0.030618 0.000000 0.000000
# 5 0.000000 0.000000 0.000000 0.000000 0.310475 0.000000
# 6 0.000000 0.000000 0.000000 0.000000 0.000000 -0.207143
#
#
# Mechanical properties :
#
#
# Convention : Reuss Voigt Hill
#
# Bulk Modulus (GPa) = 49.41365 65.06171 57.23768
# Shear Modulus (GPa) = 28.73534 31.57576 30.15555
#
# Velocity S-wave (km/s) = 3.58024 3.75302 3.66764
# Velocity P-wave (km/s) = 6.25563 6.91393 6.59300
#
# Compressibility (1/GPa) = 0.02023732
#
# Stress axis : x y z
#
# Youngs Moduli (GPa) = 63.36677 182.05794 181.89571
#
# Poissons Ratio (x) = 0.15725 0.27692
# Poissons Ratio (y) = 0.05473 0.16025
# Poissons Ratio (z) = 0.09647 0.16039
#
# Static dielectric constant tensor:
#      x y z
#    x 1.753620 0.000000 0.000000 
#    y 0.000000 1.859560 0.000000 
#    z 0.000000 0.000000 1.962700 
# 
# From -- ./inp_files/2792.got.cif
#   From: 2010.05.17/outbox.cif.g08.bks.cpg/sg40_2_cif.got.tgz:2792.got - 2010.06.03 18:35:42.
