data_PCOD9363803
_publ_section_title
;
Structure prediction by ZEFSAII (Michael W. Deem and Ramdas Pophale) SiO2 
 PCOD9363803
Probable space group: A M A 2
;
_chemical_formula_sum "Si O2"
_cell_formula_units_Z 48
_cell_length_a 8.619171
_cell_length_b 14.062736
_cell_length_c 24.283490
_cell_angle_alpha 90.000000
_cell_angle_beta 90.000000
_cell_angle_gamma 90.000000
_cell_volume 2943.380607
_symmetry_space_group_name_H-M "A M A 2"
_symmetry_group_IT_number 40
_symmetry_cell_setting 'orthorhombic'
loop_
_space_group_symop_operation_xyz
x,y,z
-x,-y,z
1/2-x,y,z
1/2+x,-y,z
x,1/2+y,1/2+z
-x,1/2-y,1/2+z
1/2-x,1/2+y,1/2+z
1/2+x,1/2-y,1/2+z
loop_
_atom_site_type_symbol
_atom_site_label
_atom_site_fract_x
_atom_site_fract_y
_atom_site_fract_z
Si Si1 0.064429 0.605811 0.863580
Si Si2 0.935775 0.395382 0.649588
Si Si3 0.064090 0.103930 0.696926
Si Si4 0.436938 0.715767 0.087438
Si Si5 0.435660 0.893912 0.483917
Si Si6 0.436995 0.793445 0.257646
O O1 0.250000 0.602620 0.865457
O O2 0.000000 0.500000 0.851600
O O3 0.998523 0.632796 0.923488
O O4 0.005969 0.674277 0.815462
O O5 0.750000 0.395631 0.650611
O O6 0.000000 0.500000 0.637682
O O7 0.997373 0.317524 0.606155
O O8 0.999961 0.361019 0.708958
O O9 0.250000 0.099383 0.697226
O O10 0.017198 0.142768 0.636560
O O11 0.018074 0.186340 0.739840
O O12 0.000000 0.000000 0.708081
O O13 0.250000 0.719926 0.085604
O O14 0.503632 0.676902 0.030585
O O15 0.250000 0.897063 0.483275
O O16 0.500000 0.000000 0.495729
O O17 0.250000 0.799949 0.258513
#
# Coordination Sequence:
#
# PCOD9363803 Si02
#       6
#     8   8   8   8   8   8
#     4  11  21  34  52  75 101 133 168 208 253 302
#     4  11  21  34  52  76 103 135 170 208 252 302
#     4   9  19  32  50  73 101 132 164 202 246 292
#     4  10  20  35  52  75 104 135 169 209 252 299
#     4  11  21  34  52  76 104 136 169 207 252 302
#     4  10  20  35  51  73 103 135 168 208 253 301
#
# _framework density 16.307777999999999
#
# number of rings (size 3 to 8) (size 9 to 14) (size 15 to 20)
#    0.000    1.667    0.000    8.500    0.000    5.333 
#    0.000    0.000    0.000    1.000    0.000    4.667 
#    0.000    0.000    0.000    0.000    0.000    0.000 
#
# Total GULP energy -134055.266054 kJ/mol
# GULP energy per Si atom -5585.636086 kJ/mol
# Density = 1.627066 g / cm^3
# Si number density = 16.307778 Si / 1000 Ang^3
#
#
#
# Elastic Constant Matrix: (Units=GPa)
#
#
# Indices 1 2 3 4 5 6 
#
# 1 132.3959 57.7077 59.6659 0.0000 0.0000 0.0000
# 2 57.7077 134.1748 95.3754 0.0000 0.0000 0.0000
# 3 59.6659 95.3754 133.1095 0.0000 0.0000 0.0000
# 4 0.0000 0.0000 0.0000 20.6336 0.0000 0.0000
# 5 0.0000 0.0000 0.0000 0.0000 29.1908 0.0000
# 6 0.0000 0.0000 0.0000 0.0000 0.0000 29.4390
#
#
#
# Elastic Compliance Matrix: (Units=1/GPa)
#
#
# Indices 1 2 3 4 5 6 
#
# 1 0.009780 -0.002222 -0.002792 0.000000 0.000000 0.000000
# 2 -0.002222 0.015694 -0.010249 0.000000 0.000000 0.000000
# 3 -0.002792 -0.010249 0.016108 0.000000 0.000000 0.000000
# 4 0.000000 0.000000 0.000000 0.048465 0.000000 0.000000
# 5 0.000000 0.000000 0.000000 0.000000 0.034257 0.000000
# 6 0.000000 0.000000 0.000000 0.000000 0.000000 0.033969
#
#
# Mechanical properties :
#
#
# Convention : Reuss Voigt Hill
#
# Bulk Modulus (GPa) = 90.44824 91.68647 91.06735
# Shear Modulus (GPa) = 25.97644 28.31477 27.14560
#
# Velocity S-wave (km/s) = 3.99543 4.17138 4.08435
# Velocity P-wave (km/s) = 8.76745 8.91881 8.84346
#
# Compressibility (1/GPa) = 0.01105605
#
# Stress axis : x y z
#
# Youngs Moduli (GPa) = 102.25335 63.71934 62.08209
#
# Poissons Ratio (x) = 0.14156 0.17332
# Poissons Ratio (y) = 0.22717 0.63628
# Poissons Ratio (z) = 0.28548 0.65306
#
# Static dielectric constant tensor:
#      x y z
#    x 1.543960 0.000000 0.000000 
#    y 0.000000 1.532620 0.000000 
#    z 0.000000 0.000000 1.531440 
# 
# From -- ./inp_files/23998.got.cif
#   From: 2010.05.17/outbox.cif.g08.bks.cpg/sg40_12_cif.got.tgz:23998.got - 2010.06.03 18:35:42.
