data_PCOD9363860
_publ_section_title
;
Structure prediction by ZEFSAII (Michael W. Deem and Ramdas Pophale) SiO2 
 PCOD9363860
Probable space group: A M A 2
;
_chemical_formula_sum "Si O2"
_cell_formula_units_Z 64
_cell_length_a 14.414418
_cell_length_b 9.861179
_cell_length_c 23.176590
_cell_angle_alpha 90.000000
_cell_angle_beta 90.000000
_cell_angle_gamma 90.000000
_cell_volume 3294.393650
_symmetry_space_group_name_H-M "A M A 2"
_symmetry_group_IT_number 40
_symmetry_cell_setting 'orthorhombic'
loop_
_space_group_symop_operation_xyz
x,y,z
-x,-y,z
1/2-x,y,z
1/2+x,-y,z
x,1/2+y,1/2+z
-x,1/2-y,1/2+z
1/2-x,1/2+y,1/2+z
1/2+x,1/2-y,1/2+z
loop_
_atom_site_type_symbol
_atom_site_label
_atom_site_fract_x
_atom_site_fract_y
_atom_site_fract_z
Si Si1 0.933799 0.875595 0.721760
Si Si2 0.066201 0.124405 0.200430
Si Si3 0.644993 0.844156 0.603554
Si Si4 0.360007 0.395749 0.026455
Si Si5 0.144993 0.655844 0.818636
Si Si6 0.025076 0.649222 0.573047
Si Si7 0.360007 0.895749 0.395735
Si Si8 0.025076 0.149222 0.849144
O O1 0.856993 0.868874 0.672552
O O2 0.915769 0.877286 0.790028
O O3 0.000000 0.750000 0.711095
O O4 0.000000 0.000000 0.708296
O O5 0.143007 0.131126 0.249639
O O6 0.084231 0.122714 0.132162
O O7 0.000000 0.000000 0.213895
O O8 0.750000 0.810077 0.585403
O O9 0.570820 0.727359 0.588915
O O10 0.616913 0.983520 0.571073
O O11 0.250000 0.368367 0.032928
O O12 0.416964 0.258317 0.036940
O O13 0.376509 0.444472 0.961095
O O14 0.250000 0.689923 0.836788
O O15 0.116913 0.516480 0.851117
O O16 0.070820 0.772640 0.833275
O O17 0.000000 0.500000 0.549047
O O18 0.250000 0.868367 0.389263
O O19 0.416964 0.758317 0.385250
O O20 0.000000 0.000000 0.873143
#
# Coordination Sequence:
#
# PCOD9363860 Si02
#       8
#     8   8   8   8   8   8   8   8
#     4   9  17  32  51  75 109 145 182 224 272 326
#     4   9  17  32  51  75 109 145 182 224 272 326
#     4  10  20  35  57  83 111 149 195 235 274 327
#     4  10  22  40  61  84 110 146 193 237 277 328
#     4  10  20  35  57  83 111 149 195 235 274 327
#     4  10  21  36  56  83 116 149 182 229 287 340
#     4  10  22  40  61  84 110 146 193 237 277 328
#     4  10  21  36  56  83 116 149 182 229 287 340
#
# _framework density 19.426943000000001
#
# number of rings (size 3 to 8) (size 9 to 14) (size 15 to 20)
#    0.000    2.250    0.000    3.750    0.000    4.500 
#    0.000   15.000    0.000    3.000    0.000    0.000 
#    0.000    0.000    0.000    0.000    0.000    0.000 
#
# Total GULP energy -178293.238773 kJ/mol
# GULP energy per Si atom -5571.663712 kJ/mol
# Density = 1.938273 g / cm^3
# Si number density = 19.426943 Si / 1000 Ang^3
#
#
#
# Elastic Constant Matrix: (Units=GPa)
#
#
# Indices 1 2 3 4 5 6 
#
# 1 65.5428 33.3832 32.8859 0.0000 0.0000 0.0000
# 2 33.3832 135.0266 25.7710 0.0000 0.0000 0.0000
# 3 32.8859 25.7710 64.0735 0.0000 0.0000 0.0000
# 4 0.0000 0.0000 0.0000 27.2943 0.0000 0.0000
# 5 0.0000 0.0000 0.0000 0.0000 28.2255 0.0000
# 6 0.0000 0.0000 0.0000 0.0000 0.0000 17.3676
#
#
#
# Elastic Compliance Matrix: (Units=1/GPa)
#
#
# Indices 1 2 3 4 5 6 
#
# 1 0.022024 -0.003561 -0.009872 0.000000 0.000000 0.000000
# 2 -0.003561 0.008598 -0.001630 0.000000 0.000000 0.000000
# 3 -0.009872 -0.001630 0.021329 0.000000 0.000000 0.000000
# 4 0.000000 0.000000 0.000000 0.036638 0.000000 0.000000
# 5 0.000000 0.000000 0.000000 0.000000 0.035429 0.000000
# 6 0.000000 0.000000 0.000000 0.000000 0.000000 0.057579
#
#
# Mechanical properties :
#
#
# Convention : Reuss Voigt Hill
#
# Bulk Modulus (GPa) = 45.81879 49.85812 47.83845
# Shear Modulus (GPa) = 22.83138 26.08434 24.45786
#
# Velocity S-wave (km/s) = 3.43190 3.66825 3.55204
# Velocity P-wave (km/s) = 6.27219 6.60769 6.44212
#
# Compressibility (1/GPa) = 0.02182511
#
# Stress axis : x y z
#
# Youngs Moduli (GPa) = 45.40510 116.31275 46.88360
#
# Poissons Ratio (x) = 0.41419 0.46281
# Poissons Ratio (y) = 0.16169 0.07643
# Poissons Ratio (z) = 0.44822 0.18963
#
# Static dielectric constant tensor:
#      x y z
#    x 1.658040 0.000000 0.000000 
#    y 0.000000 1.648930 0.000000 
#    z 0.000000 0.000000 1.739290 
# 
# From -- ./inp_files/24809.got.cif
#   From: 2010.05.17/outbox.cif.g08.bks.cpg/sg40_13_cif.got.tgz:24809.got - 2010.06.03 18:35:42.
