data_PCOD9363880
_publ_section_title
;
Structure prediction by ZEFSAII (Michael W. Deem and Ramdas Pophale) SiO2 
 PCOD9363880
Probable space group: A M A 2
;
_chemical_formula_sum "Si O2"
_cell_formula_units_Z 48
_cell_length_a 8.043287
_cell_length_b 23.448298
_cell_length_c 11.970259
_cell_angle_alpha 90.000000
_cell_angle_beta 90.000000
_cell_angle_gamma 90.000000
_cell_volume 2257.607492
_symmetry_space_group_name_H-M "A M A 2"
_symmetry_group_IT_number 40
_symmetry_cell_setting 'orthorhombic'
loop_
_space_group_symop_operation_xyz
x,y,z
-x,-y,z
1/2-x,y,z
1/2+x,-y,z
x,1/2+y,1/2+z
-x,1/2-y,1/2+z
1/2-x,1/2+y,1/2+z
1/2+x,1/2-y,1/2+z
loop_
_atom_site_type_symbol
_atom_site_label
_atom_site_fract_x
_atom_site_fract_y
_atom_site_fract_z
Si Si1 0.049432 0.565384 0.681300
Si Si2 0.438909 0.149531 0.989905
Si Si3 0.446410 0.266982 0.306163
Si Si4 0.059440 0.936020 0.814283
Si Si5 0.952849 0.355957 0.874023
Si Si6 0.053826 0.641154 0.129136
O O1 0.250000 0.566685 0.673638
O O2 0.988763 0.614094 0.594216
O O3 0.997487 0.588627 0.803079
O O4 0.000000 0.500000 0.658351
O O5 0.250000 0.166825 0.017036
O O6 0.525203 0.202224 0.926621
O O7 0.443715 0.101707 0.893330
O O8 0.250000 0.267691 0.284597
O O9 0.507132 0.202340 0.313932
O O10 0.527994 0.303279 0.206880
O O11 0.250000 0.930331 0.852347
O O12 0.041306 0.909183 0.692312
O O13 0.000000 0.000000 0.817283
O O14 0.750000 0.354607 0.874102
O O15 0.005703 0.353422 0.002429
O O16 0.250000 0.628098 0.127668
#
# Coordination Sequence:
#
# PCOD9363880 Si02
#       6
#     8   8   8   8   8   8
#     4  10  22  40  59  83 116 156 195 237 288 342
#     4  10  20  35  58  86 116 149 189 237 287 339
#     4  10  20  36  59  85 115 148 189 237 291 345
#     4  11  21  35  56  82 113 147 186 233 284 335
#     4   9  21  39  58  81 115 154 187 234 292 343
#     4  10  20  37  57  81 112 146 188 234 283 340
#
# _framework density 21.261444999999998
#
# number of rings (size 3 to 8) (size 9 to 14) (size 15 to 20)
#    0.000    2.000    0.000    5.500    2.333    3.333 
#    0.000    7.500    0.000    0.000    0.000    0.000 
#    0.000    0.000    0.000    0.000    0.000    0.000 
#
# Total GULP energy -133956.044160 kJ/mol
# GULP energy per Si atom -5581.501840 kJ/mol
# Density = 2.121305 g / cm^3
# Si number density = 21.261445 Si / 1000 Ang^3
#
#
#
# Elastic Constant Matrix: (Units=GPa)
#
#
# Indices 1 2 3 4 5 6 
#
# 1 42.5693 -7.5606 -3.7267 0.0000 0.0000 0.0000
# 2 -7.5606 61.2872 5.8499 0.0000 0.0000 0.0000
# 3 -3.7267 5.8499 93.9133 0.0000 0.0000 0.0000
# 4 0.0000 0.0000 0.0000 12.3791 0.0000 0.0000
# 5 0.0000 0.0000 0.0000 0.0000 16.8829 0.0000
# 6 0.0000 0.0000 0.0000 0.0000 0.0000 21.1681
#
#
#
# Elastic Compliance Matrix: (Units=1/GPa)
#
#
# Indices 1 2 3 4 5 6 
#
# 1 0.024073 0.002896 0.000775 0.000000 0.000000 0.000000
# 2 0.002896 0.016763 -0.000929 0.000000 0.000000 0.000000
# 3 0.000775 -0.000929 0.010737 0.000000 0.000000 0.000000
# 4 0.000000 0.000000 0.000000 0.080781 0.000000 0.000000
# 5 0.000000 0.000000 0.000000 0.000000 0.059232 0.000000
# 6 0.000000 0.000000 0.000000 0.000000 0.000000 0.047241
#
#
# Mechanical properties :
#
#
# Convention : Reuss Voigt Hill
#
# Bulk Modulus (GPa) = 17.52678 20.76610 19.14644
# Shear Modulus (GPa) = 19.81279 23.63315 21.72297
#
# Velocity S-wave (km/s) = 3.05596 3.33761 3.19988
# Velocity P-wave (km/s) = 4.55117 4.96398 4.76205
#
# Compressibility (1/GPa) = 0.05705556
#
# Stress axis : x y z
#
# Youngs Moduli (GPa) = 41.53982 59.65676 93.13806
#
# Poissons Ratio (x) = -0.17275 -0.07217
# Poissons Ratio (y) = -0.12029 0.08655
# Poissons Ratio (z) = -0.03219 0.05544
#
# Static dielectric constant tensor:
#      x y z
#    x 1.756750 0.000000 0.000000 
#    y 0.000000 1.745020 0.000000 
#    z 0.000000 0.000000 1.797420 
# 
# From -- ./inp_files/10253.got.cif
#   From: 2010.05.17/outbox.cif.g08.bks.cpg/sg40_6_cif.got.tgz:10253.got - 2010.06.03 18:35:42.
