data_PCOD9363153
_publ_section_title
;
Structure prediction by ZEFSAII (Michael W. Deem and Ramdas Pophale) SiO2 
 PCOD9363153
Probable space group: A M A 2
;
_chemical_formula_sum "Si O2"
_cell_formula_units_Z 48
_cell_length_a 16.047569
_cell_length_b 9.134700
_cell_length_c 16.592409
_cell_angle_alpha 90.000000
_cell_angle_beta 90.000000
_cell_angle_gamma 90.000000
_cell_volume 2432.276731
_symmetry_space_group_name_H-M "A M A 2"
_symmetry_group_IT_number 40
_symmetry_cell_setting 'orthorhombic'
loop_
_space_group_symop_operation_xyz
x,y,z
-x,-y,z
1/2-x,y,z
1/2+x,-y,z
x,1/2+y,1/2+z
-x,1/2-y,1/2+z
1/2-x,1/2+y,1/2+z
1/2+x,1/2-y,1/2+z
loop_
_atom_site_type_symbol
_atom_site_label
_atom_site_fract_x
_atom_site_fract_y
_atom_site_fract_z
Si Si1 0.845565 0.823267 0.482610
Si Si2 0.095805 0.451169 0.554238
Si Si3 0.591848 0.571466 0.890993
Si Si4 0.847785 0.389733 0.394566
Si Si5 0.348612 0.826650 0.806866
Si Si6 0.595902 0.447980 0.725271
O O1 0.750000 0.803249 0.505415
O O2 0.898731 0.723872 0.542484
O O3 0.858761 0.753435 0.393539
O O4 0.864533 0.992759 0.466622
O O5 0.142810 0.526833 0.479685
O O6 0.131665 0.503338 0.639772
O O7 0.000000 0.500000 0.548222
O O8 0.500000 0.500000 0.891072
O O9 0.596339 0.745175 0.895986
O O10 0.632459 0.526620 0.804927
O O11 0.750000 0.352122 0.383294
O O12 0.873324 0.506293 0.325386
O O13 0.250000 0.824682 0.787922
O O14 0.395725 0.724886 0.743084
O O15 0.500000 0.500000 0.722233
#
# Coordination Sequence:
#
# PCOD9363153 Si02
#       6
#     8   8   8   8   8   8
#     4   9  17  31  50  74 102 136 174 214 259 315
#     4  10  19  33  53  77 106 142 180 219 265 325
#     4  10  19  34  55  79 106 139 180 225 274 326
#     4  10  20  35  55  81 107 139 184 232 276 328
#     4   8  16  31  52  74 101 137 177 218 266 321
#     4   9  19  34  52  77 107 139 178 220 271 329
#
# _framework density 19.734596
#
# number of rings (size 3 to 8) (size 9 to 14) (size 15 to 20)
#    0.000    2.667    0.000    3.000    0.000    3.333 
#    0.000    1.667    0.000    8.000    0.000    0.000 
#    0.000    0.000    0.000    0.000    0.000    0.000 
#
# Total GULP energy -133696.846136 kJ/mol
# GULP energy per Si atom -5570.701922 kJ/mol
# Density = 1.968968 g / cm^3
# Si number density = 19.734596 Si / 1000 Ang^3
#
#
#
# Elastic Constant Matrix: (Units=GPa)
#
#
# Indices 1 2 3 4 5 6 
#
# 1 50.3779 27.0106 9.3043 0.0000 0.0000 0.0000
# 2 27.0106 151.2401 43.2975 0.0000 0.0000 0.0000
# 3 9.3043 43.2975 82.1984 0.0000 0.0000 0.0000
# 4 0.0000 0.0000 0.0000 11.0970 0.0000 0.0000
# 5 0.0000 0.0000 0.0000 0.0000 21.3629 0.0000
# 6 0.0000 0.0000 0.0000 0.0000 0.0000 25.8270
#
#
#
# Elastic Compliance Matrix: (Units=1/GPa)
#
#
# Indices 1 2 3 4 5 6 
#
# 1 0.021969 -0.003782 -0.000495 0.000000 0.000000 0.000000
# 2 -0.003782 0.008437 -0.004016 0.000000 0.000000 0.000000
# 3 -0.000495 -0.004016 0.014337 0.000000 0.000000 0.000000
# 4 0.000000 0.000000 0.000000 0.090114 0.000000 0.000000
# 5 0.000000 0.000000 0.000000 0.000000 0.046810 0.000000
# 6 0.000000 0.000000 0.000000 0.000000 0.000000 0.038719
#
#
# Mechanical properties :
#
#
# Convention : Reuss Voigt Hill
#
# Bulk Modulus (GPa) = 35.51393 49.22679 42.37036
# Shear Modulus (GPa) = 20.29565 25.27099 22.78332
#
# Velocity S-wave (km/s) = 3.21039 3.58235 3.40146
# Velocity P-wave (km/s) = 5.63711 6.48919 6.07810
#
# Compressibility (1/GPa) = 0.02815797
#
# Stress axis : x y z
#
# Youngs Moduli (GPa) = 45.51853 118.52282 69.74887
#
# Poissons Ratio (x) = 0.44825 0.03450
# Poissons Ratio (y) = 0.17215 0.28012
# Poissons Ratio (z) = 0.02251 0.47600
#
# Static dielectric constant tensor:
#      x y z
#    x 1.693420 0.000000 0.000000 
#    y 0.000000 1.750760 0.000000 
#    z 0.000000 0.000000 1.713490 
# 
# From -- ./inp_files/18076.got.cif
#   From: 2010.05.17/outbox.cif.g08.bks.cpg/sg40_10_cif.got.tgz:18076.got - 2010.06.03 18:35:42.
