data_PCOD9363498
_publ_section_title
;
Structure prediction by ZEFSAII (Michael W. Deem and Ramdas Pophale) SiO2 
 PCOD9363498
Probable space group: A M A 2
;
_chemical_formula_sum "Si O2"
_cell_formula_units_Z 64
_cell_length_a 21.663916
_cell_length_b 11.825255
_cell_length_c 11.859273
_cell_angle_alpha 90.000000
_cell_angle_beta 90.000000
_cell_angle_gamma 90.000000
_cell_volume 3038.124342
_symmetry_space_group_name_H-M "A M A 2"
_symmetry_group_IT_number 40
_symmetry_cell_setting 'orthorhombic'
loop_
_space_group_symop_operation_xyz
x,y,z
-x,-y,z
1/2-x,y,z
1/2+x,-y,z
x,1/2+y,1/2+z
-x,1/2-y,1/2+z
1/2-x,1/2+y,1/2+z
1/2+x,1/2-y,1/2+z
loop_
_atom_site_type_symbol
_atom_site_label
_atom_site_fract_x
_atom_site_fract_y
_atom_site_fract_z
Si Si1 0.570385 0.508968 0.521250
Si Si2 0.484387 0.123017 0.632339
Si Si3 0.177307 0.310085 0.886900
Si Si4 0.822484 0.605551 0.126602
Si Si5 0.480313 0.621526 0.867032
Si Si6 0.084955 0.309093 0.716018
Si Si7 0.675359 0.461612 0.347664
Si Si8 0.403774 0.204069 0.182309
O O1 0.500000 0.500000 0.474748
O O2 0.568049 0.612094 0.610806
O O3 0.624917 0.521248 0.429632
O O4 0.587034 0.397113 0.594181
O O5 0.477129 0.117033 0.498768
O O6 0.422119 0.181750 0.674201
O O7 0.542342 0.204369 0.657049
O O8 0.500000 0.000000 0.678259
O O9 0.250000 0.325888 0.885989
O O10 0.146743 0.353255 0.772231
O O11 0.167010 0.173178 0.876445
O O12 0.151551 0.376795 0.997707
O O13 0.750000 0.593463 0.111964
O O14 0.838372 0.511475 0.221365
O O15 0.840743 0.727925 0.176238
O O16 0.500000 0.500000 0.820528
O O17 0.536903 0.694393 0.820741
O O18 0.418409 0.658749 0.806357
O O19 0.750000 0.483615 0.366922
#
# Coordination Sequence:
#
# PCOD9363498 Si02
#       8
#     8   8   8   8   8   8   8   8
#     4  12  22  41  64 101 137 176 217 279 349 412
#     4  10  23  37  57  90 127 166 216 265 325 403
#     4  10  22  43  66  90 126 174 226 286 344 408
#     4  10  22  41  65  92 123 170 227 281 338 408
#     4  10  19  37  57  82 125 168 201 250 320 401
#     4  11  22  39  62  92 128 171 211 269 335 411
#     4  10  24  44  69  96 131 177 234 289 340 416
#     4  11  20  37  61  88 122 170 213 266 334 408
#
# _framework density 21.065628
#
# number of rings (size 3 to 8) (size 9 to 14) (size 15 to 20)
#    0.000    1.500    5.000    0.750    3.500    0.500 
#    2.250    0.000    0.000    0.000    0.000    0.000 
#    0.000    0.000    0.000    0.000    0.000    0.000 
#
# Total GULP energy -178266.452297 kJ/mol
# GULP energy per Si atom -5570.826634 kJ/mol
# Density = 2.101768 g / cm^3
# Si number density = 21.065628 Si / 1000 Ang^3
#
#
#
# Elastic Constant Matrix: (Units=GPa)
#
#
# Indices 1 2 3 4 5 6 
#
# 1 52.0174 22.3093 54.2874 0.0000 0.0000 0.0000
# 2 22.3093 87.0493 36.8322 0.0000 0.0000 0.0000
# 3 54.2874 36.8322 108.3612 0.0000 0.0000 0.0000
# 4 0.0000 0.0000 0.0000 19.1936 0.0000 0.0000
# 5 0.0000 0.0000 0.0000 0.0000 32.6167 0.0000
# 6 0.0000 0.0000 0.0000 0.0000 0.0000 24.7592
#
#
#
# Elastic Compliance Matrix: (Units=1/GPa)
#
#
# Indices 1 2 3 4 5 6 
#
# 1 0.040616 -0.002102 -0.019634 0.000000 0.000000 0.000000
# 2 -0.002102 0.013526 -0.003545 0.000000 0.000000 0.000000
# 3 -0.019634 -0.003545 0.020269 0.000000 0.000000 0.000000
# 4 0.000000 0.000000 0.000000 0.052101 0.000000 0.000000
# 5 0.000000 0.000000 0.000000 0.000000 0.030659 0.000000
# 6 0.000000 0.000000 0.000000 0.000000 0.000000 0.040389
#
#
# Mechanical properties :
#
#
# Convention : Reuss Voigt Hill
#
# Bulk Modulus (GPa) = 41.92601 52.69840 47.31220
# Shear Modulus (GPa) = 19.52577 24.24717 21.88647
#
# Velocity S-wave (km/s) = 3.04781 3.39636 3.22680
# Velocity P-wave (km/s) = 5.68606 6.36011 6.03251
#
# Compressibility (1/GPa) = 0.02385154
#
# Stress axis : x y z
#
# Youngs Moduli (GPa) = 24.62061 73.93064 49.33541
#
# Poissons Ratio (x) = 0.15540 0.96864
# Poissons Ratio (y) = 0.05175 0.17487
# Poissons Ratio (z) = 0.48340 0.26205
#
# Static dielectric constant tensor:
#      x y z
#    x 1.869810 0.000000 0.000000 
#    y 0.000000 1.884770 0.000000 
#    z 0.000000 0.000000 1.783470 
# 
# From -- ./inp_files/14025.got.cif
#   From: 2010.05.17/outbox.cif.g08.bks.cpg/sg40_8_cif.got.tgz:14025.got - 2010.06.03 18:35:42.
