data_PCOD9363254
_publ_section_title
;
Structure prediction by ZEFSAII (Michael W. Deem and Ramdas Pophale) SiO2 
 PCOD9363254
Probable space group: A M A 2
;
_chemical_formula_sum "Si O2"
_cell_formula_units_Z 52
_cell_length_a 15.709332
_cell_length_b 9.806922
_cell_length_c 17.038978
_cell_angle_alpha 90.000000
_cell_angle_beta 90.000000
_cell_angle_gamma 90.000000
_cell_volume 2625.028249
_symmetry_space_group_name_H-M "A M A 2"
_symmetry_group_IT_number 40
_symmetry_cell_setting 'orthorhombic'
loop_
_space_group_symop_operation_xyz
x,y,z
-x,-y,z
1/2-x,y,z
1/2+x,-y,z
x,1/2+y,1/2+z
-x,1/2-y,1/2+z
1/2-x,1/2+y,1/2+z
1/2+x,1/2-y,1/2+z
loop_
_atom_site_type_symbol
_atom_site_label
_atom_site_fract_x
_atom_site_fract_y
_atom_site_fract_z
Si Si1 0.848470 0.689405 0.401180
Si Si2 0.578631 0.838157 0.741699
Si Si3 0.649424 0.997526 0.451763
Si Si4 0.000000 0.000000 0.883785
Si Si5 0.652225 0.055832 0.621350
Si Si6 0.651780 0.065112 0.282404
Si Si7 0.897213 0.785736 0.224948
O O1 0.750000 0.640133 0.410123
O O2 0.856228 0.834010 0.445275
O O3 0.926099 0.589366 0.425108
O O4 0.863297 0.726578 0.308769
O O5 0.554825 0.903887 0.825349
O O6 0.605245 0.956581 0.682457
O O7 0.645714 0.717437 0.751270
O O8 0.493616 0.761843 0.715182
O O9 0.750000 0.035120 0.451974
O O10 0.613719 0.047896 0.534300
O O11 0.613077 0.057536 0.370557
O O12 0.750000 0.007851 0.617421
O O13 0.650978 0.207581 0.656170
O O14 0.750000 0.021865 0.288155
O O15 0.609677 0.947727 0.230307
#
# Coordination Sequence:
#
# PCOD9363254 Si02
#       7
#     8   8   8   4   8   8   8
#     4   9  16  32  55  79 111 150 191 241 285 336
#     4  11  20  34  52  84 115 141 187 239 277 333
#     4   8  18  34  56  84 110 143 192 232 282 345
#     4  10  20  32  54  84 118 144 202 238 282 348
#     4  11  19  33  59  84 110 147 190 235 282 342
#     4  10  20  36  59  83 109 145 186 232 286 341
#     4  10  19  34  53  81 113 149 186 230 282 344
#
# _framework density 19.809311999999998
#
# number of rings (size 3 to 8) (size 9 to 14) (size 15 to 20)
#    0.000    2.154    3.077    3.231    0.000    0.615 
#    0.000    9.231    6.769    0.000    0.000    0.000 
#    0.000    0.000    0.000    0.000    0.000    0.000 
#
# Total GULP energy -144944.010868 kJ/mol
# GULP energy per Si atom -5574.769649 kJ/mol
# Density = 1.976423 g / cm^3
# Si number density = 19.809312 Si / 1000 Ang^3
#
#
#
# Elastic Constant Matrix: (Units=GPa)
#
#
# Indices 1 2 3 4 5 6 
#
# 1 47.0246 -1.3014 3.8544 0.0000 0.0000 0.0000
# 2 -1.3014 85.0753 33.4458 0.0000 0.0000 0.0000
# 3 3.8544 33.4458 73.4293 0.0000 0.0000 0.0000
# 4 0.0000 0.0000 0.0000 19.8283 0.0000 0.0000
# 5 0.0000 0.0000 0.0000 0.0000 -18.2777 0.0000
# 6 0.0000 0.0000 0.0000 0.0000 0.0000 12.6893
#
#
#
# Elastic Compliance Matrix: (Units=1/GPa)
#
#
# Indices 1 2 3 4 5 6 
#
# 1 0.021419 0.000938 -0.001551 0.000000 0.000000 0.000000
# 2 0.000938 0.014359 -0.006590 0.000000 0.000000 0.000000
# 3 -0.001551 -0.006590 0.016701 0.000000 0.000000 0.000000
# 4 0.000000 0.000000 0.000000 0.050433 0.000000 0.000000
# 5 0.000000 0.000000 0.000000 0.000000 -0.054712 0.000000
# 6 0.000000 0.000000 0.000000 0.000000 0.000000 0.078807
#
#
# Mechanical properties :
#
#
# Convention : Reuss Voigt Hill
#
# Bulk Modulus (GPa) = 26.26574 30.83631 28.55103
# Shear Modulus (GPa) = 32.44541 14.15000 23.29771
#
# Velocity S-wave (km/s) = 4.05147 2.67556 3.43315
# Velocity P-wave (km/s) = 5.93076 5.01450 5.49177
#
# Compressibility (1/GPa) = 0.03807241
#
# Stress axis : x y z
#
# Youngs Moduli (GPa) = 46.68849 69.64172 59.87516
#
# Poissons Ratio (x) = -0.06529 0.09289
# Poissons Ratio (y) = -0.04377 0.39455
# Poissons Ratio (z) = 0.07243 0.45891
#
# Static dielectric constant tensor:
#      x y z
#    x 1.802600 0.000000 0.000000 
#    y 0.000000 1.690610 0.000000 
#    z 0.000000 0.000000 1.720820 
# 
# From -- ./inp_files/21055.got.cif
#   From: 2010.05.17/outbox.cif.g08.bks.cpg/sg40_11_cif.got.tgz:21055.got - 2010.06.03 18:35:42.
