data_PCOD9363135
_publ_section_title
;
Structure prediction by ZEFSAII (Michael W. Deem and Ramdas Pophale) SiO2 
 PCOD9363135
Probable space group: A M A 2
;
_chemical_formula_sum "Si O2"
_cell_formula_units_Z 64
_cell_length_a 8.508638
_cell_length_b 14.758619
_cell_length_c 29.168260
_cell_angle_alpha 90.000000
_cell_angle_beta 90.000000
_cell_angle_gamma 90.000000
_cell_volume 3662.826022
_symmetry_space_group_name_H-M "A M A 2"
_symmetry_group_IT_number 40
_symmetry_cell_setting 'orthorhombic'
loop_
_space_group_symop_operation_xyz
x,y,z
-x,-y,z
1/2-x,y,z
1/2+x,-y,z
x,1/2+y,1/2+z
-x,1/2-y,1/2+z
1/2-x,1/2+y,1/2+z
1/2+x,1/2-y,1/2+z
loop_
_atom_site_type_symbol
_atom_site_label
_atom_site_fract_x
_atom_site_fract_y
_atom_site_fract_z
Si Si1 0.561307 0.397798 0.928300
Si Si2 0.928860 0.144380 0.714183
Si Si3 0.440375 0.211161 0.338935
Si Si4 0.941766 0.207267 0.617821
Si Si5 0.066071 0.595544 0.308923
Si Si6 0.928497 0.354947 0.744922
Si Si7 0.559326 0.406392 0.648136
Si Si8 0.438782 0.397925 0.027536
O O1 0.500000 0.500000 0.920833
O O2 0.750000 0.400357 0.929363
O O3 0.510463 0.333111 0.886701
O O4 0.499915 0.366999 0.977931
O O5 0.750000 0.107799 0.715142
O O6 0.991792 0.148305 0.662303
O O7 0.917954 0.250226 0.728635
O O8 0.028942 0.100657 0.754412
O O9 0.250000 0.209128 0.336338
O O10 0.490740 0.314862 0.331368
O O11 0.501022 0.151770 0.295413
O O12 0.750000 0.206172 0.619748
O O13 0.989357 0.312153 0.624306
O O14 0.991318 0.163891 0.570019
O O15 0.250000 0.599097 0.316256
O O16 0.000000 0.500000 0.326266
O O17 0.750000 0.390515 0.749762
O O18 0.003385 0.401700 0.700781
O O19 0.500000 0.500000 0.626983
O O20 0.750000 0.406309 0.649637
O O21 0.500000 0.500000 0.034384
O O22 0.250000 0.399440 0.026585
#
# Coordination Sequence:
#
# PCOD9363135 Si02
#       8
#     8   8   8   8   8   8   8   8
#     4  10  20  34  53  76 101 127 157 198 249 301
#     4   8  14  29  48  65  90 125 164 200 236 279
#     4   9  18  34  53  71  95 130 167 202 242 287
#     4   8  16  31  51  70  94 131 166 198 242 294
#     4  11  21  32  48  72 102 134 167 202 241 288
#     4   7  12  25  44  62  86 121 154 186 226 272
#     4   9  16  28  45  67  95 127 161 192 228 274
#     4  10  19  33  52  73  96 123 158 200 248 299
#
# _framework density 17.472847000000002
#
# number of rings (size 3 to 8) (size 9 to 14) (size 15 to 20)
#    0.000    3.000    0.000    4.875    0.000    2.000 
#    0.000    9.375    0.000    0.750    0.000    3.500 
#    0.000    0.000    0.000    0.000    0.000    0.000 
#
# Total GULP energy -178195.930117 kJ/mol
# GULP energy per Si atom -5568.622816 kJ/mol
# Density = 1.743308 g / cm^3
# Si number density = 17.472847 Si / 1000 Ang^3
#
#
#
# Elastic Constant Matrix: (Units=GPa)
#
#
# Indices 1 2 3 4 5 6 
#
# 1 26.5936 10.7066 21.6476 0.0000 0.0000 0.0000
# 2 10.7066 75.4592 63.6578 0.0000 0.0000 0.0000
# 3 21.6476 63.6578 151.1368 0.0000 0.0000 0.0000
# 4 0.0000 0.0000 0.0000 22.8906 0.0000 0.0000
# 5 0.0000 0.0000 0.0000 0.0000 17.8796 0.0000
# 6 0.0000 0.0000 0.0000 0.0000 0.0000 17.8428
#
#
#
# Elastic Compliance Matrix: (Units=1/GPa)
#
#
# Indices 1 2 3 4 5 6 
#
# 1 0.042660 -0.001393 -0.005523 0.000000 0.000000 0.000000
# 2 -0.001393 0.020602 -0.008478 0.000000 0.000000 0.000000
# 3 -0.005523 -0.008478 0.010978 0.000000 0.000000 0.000000
# 4 0.000000 0.000000 0.000000 0.043686 0.000000 0.000000
# 5 0.000000 0.000000 0.000000 0.000000 0.055930 0.000000
# 6 0.000000 0.000000 0.000000 0.000000 0.000000 0.056045
#
#
# Mechanical properties :
#
#
# Convention : Reuss Voigt Hill
#
# Bulk Modulus (GPa) = 23.01422 49.46818 36.24120
# Shear Modulus (GPa) = 18.17033 22.20110 20.18572
#
# Velocity S-wave (km/s) = 3.22827 3.56842 3.40260
# Velocity P-wave (km/s) = 5.20535 6.73432 6.01859
#
# Compressibility (1/GPa) = 0.04345140
#
# Stress axis : x y z
#
# Youngs Moduli (GPa) = 23.44111 48.53953 91.08766
#
# Poissons Ratio (x) = 0.06763 0.50312
# Poissons Ratio (y) = 0.03266 0.77222
# Poissons Ratio (z) = 0.12948 0.41151
#
# Static dielectric constant tensor:
#      x y z
#    x 1.604260 0.000000 0.000000 
#    y 0.000000 1.599320 0.000000 
#    z 0.000000 0.000000 1.617310 
# 
# From -- ./inp_files/26489.got.cif
#   From: 2010.05.17/outbox.cif.g08.bks.cpg/sg40_14_cif.got.tgz:26489.got - 2010.06.03 18:35:42.
