data_PCOD9363943
_publ_section_title
;
Structure prediction by ZEFSAII (Michael W. Deem and Ramdas Pophale) SiO2 
 PCOD9363943
Probable space group: A M A 2
;
_chemical_formula_sum "Si O2"
_cell_formula_units_Z 48
_cell_length_a 18.810022
_cell_length_b 14.145668
_cell_length_c 7.324806
_cell_angle_alpha 90.000000
_cell_angle_beta 90.000000
_cell_angle_gamma 90.000000
_cell_volume 1948.986770
_symmetry_space_group_name_H-M "A M A 2"
_symmetry_group_IT_number 40
_symmetry_cell_setting 'orthorhombic'
loop_
_space_group_symop_operation_xyz
x,y,z
-x,-y,z
1/2-x,y,z
1/2+x,-y,z
x,1/2+y,1/2+z
-x,1/2-y,1/2+z
1/2-x,1/2+y,1/2+z
1/2+x,1/2-y,1/2+z
loop_
_atom_site_type_symbol
_atom_site_label
_atom_site_fract_x
_atom_site_fract_y
_atom_site_fract_z
Si Si1 0.087230 0.159193 0.917140
Si Si2 0.672920 0.228220 0.956861
Si Si3 0.825470 0.185087 0.535665
Si Si4 0.067467 0.945517 0.421444
Si Si5 0.530648 0.774574 0.310085
Si Si6 0.834099 0.010270 0.084821
O O1 0.148708 0.237875 0.886690
O O2 0.014141 0.176447 0.808230
O O3 0.125308 0.059131 0.942631
O O4 0.061314 0.197615 0.114926
O O5 0.750000 0.266757 0.024114
O O6 0.681221 0.227047 0.736474
O O7 0.594130 0.275040 0.960833
O O8 0.665957 0.120012 0.024783
O O9 0.750000 0.148006 0.470683
O O10 0.877184 0.097052 0.560395
O O11 0.028501 0.853921 0.339464
O O12 0.115926 0.995534 0.266408
O O13 0.000000 0.000000 0.495109
O O14 0.750000 0.982750 0.107614
#
# Coordination Sequence:
#
# PCOD9363943 Si02
#       6
#     8   8   8   8   8   8
#     4  10  20  36  58  85 113 149 193 232 288 342
#     4   9  20  37  57  82 113 152 193 233 285 343
#     4   9  19  38  57  76 111 151 188 229 284 348
#     4  11  21  36  55  86 115 146 192 237 285 342
#     4  10  20  36  56  81 116 151 189 239 282 342
#     4  11  22  38  62  89 117 149 191 244 292 340
#
# _framework density 24.62818
#
# number of rings (size 3 to 8) (size 9 to 14) (size 15 to 20)
#    0.000    2.000    1.667    2.000    0.000    0.667 
#    9.000    0.000    0.000    1.000    0.000    0.000 
#    0.000    0.000    0.000    0.000    0.000    0.000 
#
# Total GULP energy -133681.026368 kJ/mol
# GULP energy per Si atom -5570.042765 kJ/mol
# Density = 2.457212 g / cm^3
# Si number density = 24.628180 Si / 1000 Ang^3
#
#
#
# Elastic Constant Matrix: (Units=GPa)
#
#
# Indices 1 2 3 4 5 6 
#
# 1 182.1139 28.9296 18.3240 0.0000 0.0000 0.0000
# 2 28.9296 48.1161 -1.6376 0.0000 0.0000 0.0000
# 3 18.3240 -1.6376 23.8285 0.0000 0.0000 0.0000
# 4 0.0000 0.0000 0.0000 28.0765 0.0000 0.0000
# 5 0.0000 0.0000 0.0000 0.0000 29.5162 0.0000
# 6 0.0000 0.0000 0.0000 0.0000 0.0000 23.5306
#
#
#
# Elastic Compliance Matrix: (Units=1/GPa)
#
#
# Indices 1 2 3 4 5 6 
#
# 1 0.006710 -0.004220 -0.005450 0.000000 0.000000 0.000000
# 2 -0.004220 0.023486 0.004859 0.000000 0.000000 0.000000
# 3 -0.005450 0.004859 0.046491 0.000000 0.000000 0.000000
# 4 0.000000 0.000000 0.000000 0.035617 0.000000 0.000000
# 5 0.000000 0.000000 0.000000 0.000000 0.033880 0.000000
# 6 0.000000 0.000000 0.000000 0.000000 0.000000 0.042498
#
#
# Mechanical properties :
#
#
# Convention : Reuss Voigt Hill
#
# Bulk Modulus (GPa) = 14.91079 38.36562 26.63821
# Shear Modulus (GPa) = 22.65959 30.12084 26.39022
#
# Velocity S-wave (km/s) = 3.03655 3.50097 3.27700
# Velocity P-wave (km/s) = 4.28506 5.65280 5.01577
#
# Compressibility (1/GPa) = 0.06706551
#
# Stress axis : x y z
#
# Youngs Moduli (GPa) = 149.03740 42.57945 21.50942
#
# Poissons Ratio (x) = 0.17967 0.11722
# Poissons Ratio (y) = 0.62889 -0.10451
# Poissons Ratio (z) = 0.81221 -0.20689
#
# Static dielectric constant tensor:
#      x y z
#    x 2.208170 0.000000 0.000000 
#    y 0.000000 2.034310 0.000000 
#    z 0.000000 0.000000 2.035970 
# 
# From -- ./inp_files/7442.got.cif
#   From: 2010.05.17/outbox.cif.g08.bks.cpg/sg40_4_cif.got.tgz:7442.got - 2010.06.03 18:35:42.
