data_PCOD9363550
_publ_section_title
;
Structure prediction by ZEFSAII (Michael W. Deem and Ramdas Pophale) SiO2 
 PCOD9363550
Probable space group: A M A 2
;
_chemical_formula_sum "Si O2"
_cell_formula_units_Z 64
_cell_length_a 16.993143
_cell_length_b 11.178402
_cell_length_c 14.852884
_cell_angle_alpha 90.000000
_cell_angle_beta 90.000000
_cell_angle_gamma 90.000000
_cell_volume 2821.397162
_symmetry_space_group_name_H-M "A M A 2"
_symmetry_group_IT_number 40
_symmetry_cell_setting 'orthorhombic'
loop_
_space_group_symop_operation_xyz
x,y,z
-x,-y,z
1/2-x,y,z
1/2+x,-y,z
x,1/2+y,1/2+z
-x,1/2-y,1/2+z
1/2-x,1/2+y,1/2+z
1/2+x,1/2-y,1/2+z
loop_
_atom_site_type_symbol
_atom_site_label
_atom_site_fract_x
_atom_site_fract_y
_atom_site_fract_z
Si Si1 0.542473 0.336951 0.585550
Si Si2 0.124030 0.761831 0.128787
Si Si3 0.428070 0.907958 0.484270
Si Si4 0.067022 0.775096 0.762988
Si Si5 0.162765 0.563479 0.449518
Si Si6 0.886521 0.732062 0.814525
Si Si7 0.333814 0.284897 0.425100
Si Si8 0.844074 0.513408 0.156937
O O1 0.451403 0.347638 0.611105
O O2 0.539658 0.213296 0.529429
O O3 0.583537 0.315899 0.681330
O O4 0.592647 0.419519 0.520551
O O5 0.157707 0.806985 0.223775
O O6 0.119914 0.619955 0.153758
O O7 0.162667 0.760037 0.030888
O O8 0.397378 0.873920 0.386101
O O9 0.500000 0.000000 0.482967
O O10 0.359775 0.943938 0.554268
O O11 0.101419 0.735516 0.858534
O O12 0.973668 0.775323 0.781710
O O13 0.106196 0.898140 0.723332
O O14 0.250000 0.584343 0.489720
O O15 0.151305 0.657939 0.369117
O O16 0.160377 0.428218 0.416315
O O17 0.250000 0.243877 0.389672
O O18 0.750000 0.512735 0.177590
#
# Coordination Sequence:
#
# PCOD9363550 Si02
#       8
#     8   8   8   8   8   8   8   8
#     4   9  20  37  62  88 116 158 202 257 309 371
#     4  11  22  40  59  90 124 162 211 256 314 385
#     4  10  19  38  64  90 125 156 203 259 317 383
#     4  10  22  38  61  92 121 152 206 252 307 373
#     4  10  22  40  61  86 119 160 209 259 314 380
#     4  10  23  39  62  92 117 163 206 261 313 377
#     4  11  23  38  57  85 125 163 199 256 316 370
#     4  11  23  39  66  96 127 169 212 266 324 382
#
# _framework density 22.683797999999999
#
# number of rings (size 3 to 8) (size 9 to 14) (size 15 to 20)
#    0.000    1.750    1.250    3.000    0.000   11.000 
#    4.500    0.000    0.000    1.500    0.000    0.000 
#    0.000    0.000    0.000    0.000    0.000    0.000 
#
# Total GULP energy -178421.085602 kJ/mol
# GULP energy per Si atom -5575.658925 kJ/mol
# Density = 2.263217 g / cm^3
# Si number density = 22.683798 Si / 1000 Ang^3
#
#
#
# Elastic Constant Matrix: (Units=GPa)
#
#
# Indices 1 2 3 4 5 6 
#
# 1 94.2020 6.9000 32.9907 0.0000 0.0000 0.0000
# 2 6.9000 19.0479 18.5398 0.0000 0.0000 0.0000
# 3 32.9907 18.5398 145.3768 0.0000 0.0000 0.0000
# 4 0.0000 0.0000 0.0000 15.5559 0.0000 0.0000
# 5 0.0000 0.0000 0.0000 0.0000 -13.9494 0.0000
# 6 0.0000 0.0000 0.0000 0.0000 0.0000 13.1191
#
#
#
# Elastic Compliance Matrix: (Units=1/GPa)
#
#
# Indices 1 2 3 4 5 6 
#
# 1 0.011590 -0.001871 -0.002392 0.000000 0.000000 0.000000
# 2 -0.001871 0.060241 -0.007258 0.000000 0.000000 0.000000
# 3 -0.002392 -0.007258 0.008347 0.000000 0.000000 0.000000
# 4 0.000000 0.000000 0.000000 0.064284 0.000000 0.000000
# 5 0.000000 0.000000 0.000000 0.000000 -0.071688 0.000000
# 6 0.000000 0.000000 0.000000 0.000000 0.000000 0.076225
#
#
# Mechanical properties :
#
#
# Convention : Reuss Voigt Hill
#
# Bulk Modulus (GPa) = 17.50154 41.72085 29.61120
# Shear Modulus (GPa) = 26.16622 16.29154 21.22888
#
# Velocity S-wave (km/s) = 3.40004 2.68284 3.06250
# Velocity P-wave (km/s) = 4.81101 5.29425 5.05841
#
# Compressibility (1/GPa) = 0.05713784
#
# Stress axis : x y z
#
# Youngs Moduli (GPa) = 86.28076 16.59991 119.80333
#
# Poissons Ratio (x) = 0.03105 0.28652
# Poissons Ratio (y) = 0.16140 0.86953
# Poissons Ratio (z) = 0.20635 0.12048
#
# Static dielectric constant tensor:
#      x y z
#    x 1.909090 0.000000 0.000000 
#    y 0.000000 1.855830 0.000000 
#    z 0.000000 0.000000 1.878510 
# 
# From -- ./inp_files/17856.got.cif
#   From: 2010.05.17/outbox.cif.g08.bks.cpg/sg40_9_cif.got.tgz:17856.got - 2010.06.03 18:35:42.
