data_PCOD9363271
_publ_section_title
;
Structure prediction by ZEFSAII (Michael W. Deem and Ramdas Pophale) SiO2 
 PCOD9363271
Probable space group: A M A 2
;
_chemical_formula_sum "Si O2"
_cell_formula_units_Z 40
_cell_length_a 15.524915
_cell_length_b 13.521243
_cell_length_c 10.004232
_cell_angle_alpha 90.000000
_cell_angle_beta 90.000000
_cell_angle_gamma 90.000000
_cell_volume 2100.049848
_symmetry_space_group_name_H-M "A M A 2"
_symmetry_group_IT_number 40
_symmetry_cell_setting 'orthorhombic'
loop_
_space_group_symop_operation_xyz
x,y,z
-x,-y,z
1/2-x,y,z
1/2+x,-y,z
x,1/2+y,1/2+z
-x,1/2-y,1/2+z
1/2-x,1/2+y,1/2+z
1/2+x,1/2-y,1/2+z
loop_
_atom_site_type_symbol
_atom_site_label
_atom_site_fract_x
_atom_site_fract_y
_atom_site_fract_z
Si Si1 0.979478 0.194755 0.721420
Si Si2 0.589227 0.561332 0.995560
Si Si3 0.655919 0.879763 0.643974
Si Si4 0.562931 0.592472 0.702188
Si Si5 0.652460 0.685119 0.461906
O O1 0.933480 0.155040 0.587131
O O2 0.916472 0.177538 0.844631
O O3 0.070803 0.136504 0.733101
O O4 0.004218 0.309286 0.711419
O O5 0.500000 0.500000 0.984047
O O6 0.650278 0.486160 0.073986
O O7 0.612760 0.584973 0.843575
O O8 0.750000 0.866918 0.708528
O O9 0.647989 0.794035 0.530816
O O10 0.500000 0.500000 0.683110
O O11 0.626758 0.609802 0.579360
O O12 0.750000 0.669412 0.415027
#
# Coordination Sequence:
#
# PCOD9363271 Si02
#       5
#     8   8   8   8   8
#     4  10  19  35  56  81 114 147 180 226 279 333
#     4   9  18  33  55  80 105 142 187 222 263 323
#     4   9  19  36  59  83 108 144 189 232 275 327
#     4  10  19  34  55  79 108 149 188 224 271 327
#     4  10  21  36  55  81 112 144 180 230 287 330
#
# _framework density 19.047166000000001
#
# number of rings (size 3 to 8) (size 9 to 14) (size 15 to 20)
#    0.000    2.400    0.000    4.800    0.000    4.000 
#    0.000    1.000    0.000    9.600    0.000    0.000 
#    0.000    0.000    0.000    0.000    0.000    0.000 
#
# Total GULP energy -111541.630313 kJ/mol
# GULP energy per Si atom -5577.081516 kJ/mol
# Density = 1.900381 g / cm^3
# Si number density = 19.047166 Si / 1000 Ang^3
#
#
#
# Elastic Constant Matrix: (Units=GPa)
#
#
# Indices 1 2 3 4 5 6 
#
# 1 146.2570 23.0075 55.3758 0.0000 0.0000 0.0000
# 2 23.0075 93.2369 20.2444 0.0000 0.0000 0.0000
# 3 55.3758 20.2444 62.9999 0.0000 0.0000 0.0000
# 4 0.0000 0.0000 0.0000 12.6295 0.0000 0.0000
# 5 0.0000 0.0000 0.0000 0.0000 16.8051 0.0000
# 6 0.0000 0.0000 0.0000 0.0000 0.0000 8.3749
#
#
#
# Elastic Compliance Matrix: (Units=1/GPa)
#
#
# Indices 1 2 3 4 5 6 
#
# 1 0.010281 -0.000618 -0.008838 0.000000 0.000000 0.000000
# 2 -0.000618 0.011567 -0.003174 0.000000 0.000000 0.000000
# 3 -0.008838 -0.003174 0.024661 0.000000 0.000000 0.000000
# 4 0.000000 0.000000 0.000000 0.079180 0.000000 0.000000
# 5 0.000000 0.000000 0.000000 0.000000 0.059506 0.000000
# 6 0.000000 0.000000 0.000000 0.000000 0.000000 0.119404
#
#
# Mechanical properties :
#
#
# Convention : Reuss Voigt Hill
#
# Bulk Modulus (GPa) = 47.05971 55.52769 51.29370
# Shear Modulus (GPa) = 14.83937 21.15297 17.99617
#
# Velocity S-wave (km/s) = 2.79424 3.33612 3.07713
# Velocity P-wave (km/s) = 5.93051 6.63744 6.29391
#
# Compressibility (1/GPa) = 0.02124960
#
# Stress axis : x y z
#
# Youngs Moduli (GPa) = 97.26944 86.45303 40.54930
#
# Poissons Ratio (x) = 0.05342 0.35837
# Poissons Ratio (y) = 0.06010 0.12870
# Poissons Ratio (z) = 0.85967 0.27438
#
# Static dielectric constant tensor:
#      x y z
#    x 1.682800 0.000000 0.000000 
#    y 0.000000 1.672760 0.000000 
#    z 0.000000 0.000000 1.669110 
# 
# From -- ./inp_files/6146.got.cif
#   From: 2010.05.17/outbox.cif.g08.bks.cpg/sg40_4_cif.got.tgz:6146.got - 2010.06.03 18:35:42.
