data_PCOD9363870
_publ_section_title
;
Structure prediction by ZEFSAII (Michael W. Deem and Ramdas Pophale) SiO2 
 PCOD9363870
Probable space group: A M A 2
;
_chemical_formula_sum "Si O2"
_cell_formula_units_Z 56
_cell_length_a 21.492694
_cell_length_b 4.967717
_cell_length_c 27.995864
_cell_angle_alpha 90.000000
_cell_angle_beta 90.000000
_cell_angle_gamma 90.000000
_cell_volume 2989.107799
_symmetry_space_group_name_H-M "A M A 2"
_symmetry_group_IT_number 40
_symmetry_cell_setting 'orthorhombic'
loop_
_space_group_symop_operation_xyz
x,y,z
-x,-y,z
1/2-x,y,z
1/2+x,-y,z
x,1/2+y,1/2+z
-x,1/2-y,1/2+z
1/2-x,1/2+y,1/2+z
1/2+x,1/2-y,1/2+z
loop_
_atom_site_type_symbol
_atom_site_label
_atom_site_fract_x
_atom_site_fract_y
_atom_site_fract_z
Si Si1 0.074683 0.477967 0.514660
Si Si2 0.045745 0.243629 0.917860
Si Si3 0.546748 0.746147 0.814217
Si Si4 0.250000 0.081033 0.186959
Si Si5 0.750000 0.916125 0.618075
Si Si6 0.121175 0.886444 0.219866
Si Si7 0.432327 0.401320 0.170531
Si Si8 0.119794 0.466344 0.068013
O O1 0.082576 0.619044 0.462652
O O2 0.094888 0.175155 0.527901
O O3 0.000000 0.500000 0.523724
O O4 0.115481 0.665494 0.548493
O O5 0.079215 0.269933 0.866713
O O6 0.000000 0.500000 0.929315
O O7 0.000000 0.000000 0.906507
O O8 0.500000 0.500000 0.815630
O O9 0.593872 0.684406 0.771507
O O10 0.500000 0.000000 0.805741
O O11 0.250000 0.369280 0.161532
O O12 0.250000 0.875543 0.142147
O O13 0.189084 0.015354 0.217668
O O14 0.811887 0.958711 0.586577
O O15 0.118091 0.602732 0.192912
O O16 0.079803 0.101499 0.189691
O O17 0.500000 0.500000 0.186300
O O18 0.424831 0.450724 0.114257
#
# Coordination Sequence:
#
# PCOD9363870 Si02
#       8
#     8   8   8   4   4   8   8   8
#     4  11  21  36  58  88 115 143 184 233 294 345
#     4   9  18  34  56  84 119 151 179 227 290 362
#     4  10  20  35  57  87 118 147 186 233 294 350
#     4  12  22  42  58  74 110 156 206 230 270 332
#     4  12  24  44  56  74 108 158 206 230 272 332
#     4  12  22  37  57  81 112 153 191 235 274 340
#     4  12  23  36  54  83 116 145 180 236 298 337
#     4  12  23  38  57  79 113 151 193 236 273 342
#
# _framework density 18.734688999999999
#
# number of rings (size 3 to 8) (size 9 to 14) (size 15 to 20)
#    0.000    0.857    2.857    7.286    0.000    0.000 
#    0.000    0.000    0.000    1.714    0.000    0.000 
#    0.000    0.000    0.000    0.000    0.000    0.000 
#
# Total GULP energy -156084.045153 kJ/mol
# GULP energy per Si atom -5574.430184 kJ/mol
# Density = 1.869205 g / cm^3
# Si number density = 18.734689 Si / 1000 Ang^3
#
#
#
# Elastic Constant Matrix: (Units=GPa)
#
#
# Indices 1 2 3 4 5 6 
#
# 1 83.7585 3.3916 20.4423 0.0000 0.0000 0.0000
# 2 3.3916 96.8954 9.2971 0.0000 0.0000 0.0000
# 3 20.4423 9.2971 113.8325 0.0000 0.0000 0.0000
# 4 0.0000 0.0000 0.0000 24.4910 0.0000 0.0000
# 5 0.0000 0.0000 0.0000 0.0000 10.4635 0.0000
# 6 0.0000 0.0000 0.0000 0.0000 0.0000 23.3944
#
#
#
# Elastic Compliance Matrix: (Units=1/GPa)
#
#
# Indices 1 2 3 4 5 6 
#
# 1 0.012491 -0.000224 -0.002225 0.000000 0.000000 0.000000
# 2 -0.000224 0.010406 -0.000810 0.000000 0.000000 0.000000
# 3 -0.002225 -0.000810 0.009251 0.000000 0.000000 0.000000
# 4 0.000000 0.000000 0.000000 0.040831 0.000000 0.000000
# 5 0.000000 0.000000 0.000000 0.000000 0.095570 0.000000
# 6 0.000000 0.000000 0.000000 0.000000 0.000000 0.042745
#
#
# Mechanical properties :
#
#
# Convention : Reuss Voigt Hill
#
# Bulk Modulus (GPa) = 39.01542 40.08315 39.54928
# Shear Modulus (GPa) = 22.08920 29.09348 25.59134
#
# Velocity S-wave (km/s) = 3.43746 3.94499 3.69994
# Velocity P-wave (km/s) = 6.05188 6.49555 6.27764
#
# Compressibility (1/GPa) = 0.02563089
#
# Stress axis : x y z
#
# Youngs Moduli (GPa) = 80.05658 96.09900 108.10203
#
# Poissons Ratio (x) = 0.02150 0.24052
# Poissons Ratio (y) = 0.01791 0.08753
# Poissons Ratio (z) = 0.17812 0.07781
#
# Static dielectric constant tensor:
#      x y z
#    x 1.651490 0.000000 0.000000 
#    y 0.000000 1.642510 0.000000 
#    z 0.000000 0.000000 1.802740 
# 
# From -- ./inp_files/25837.got.cif
#   From: 2010.05.17/outbox.cif.g08.bks.cpg/sg40_13_cif.got.tgz:25837.got - 2010.06.03 18:35:42.
