data_PCOD9363189
_publ_section_title
;
Structure prediction by ZEFSAII (Michael W. Deem and Ramdas Pophale) SiO2 
 PCOD9363189
Probable space group: A M A 2
;
_chemical_formula_sum "Si O2"
_cell_formula_units_Z 64
_cell_length_a 8.270493
_cell_length_b 17.657273
_cell_length_c 21.053955
_cell_angle_alpha 90.000000
_cell_angle_beta 90.000000
_cell_angle_gamma 90.000000
_cell_volume 3074.600691
_symmetry_space_group_name_H-M "A M A 2"
_symmetry_group_IT_number 40
_symmetry_cell_setting 'orthorhombic'
loop_
_space_group_symop_operation_xyz
x,y,z
-x,-y,z
1/2-x,y,z
1/2+x,-y,z
x,1/2+y,1/2+z
-x,1/2-y,1/2+z
1/2-x,1/2+y,1/2+z
1/2+x,1/2-y,1/2+z
loop_
_atom_site_type_symbol
_atom_site_label
_atom_site_fract_x
_atom_site_fract_y
_atom_site_fract_z
Si Si1 0.561990 0.289137 0.180630
Si Si2 0.060575 0.612844 0.545584
Si Si3 0.058690 0.616938 0.407333
Si Si4 0.937457 0.203151 0.545489
Si Si5 0.942553 0.880094 0.182050
Si Si6 0.059085 0.213094 0.410784
Si Si7 0.561354 0.581467 0.270377
Si Si8 0.945075 0.420492 0.818803
O O1 0.750000 0.269640 0.179343
O O2 0.511513 0.322577 0.112094
O O3 0.466348 0.210480 0.188669
O O4 0.526442 0.349316 0.235439
O O5 0.250000 0.590897 0.544721
O O6 0.992662 0.590913 0.476577
O O7 0.055577 0.704711 0.546817
O O8 0.987801 0.591920 0.614192
O O9 0.250000 0.600129 0.403527
O O10 0.034531 0.707847 0.405099
O O11 0.970980 0.585395 0.345745
O O12 0.750000 0.181473 0.541287
O O13 0.029626 0.181180 0.481533
O O14 0.750000 0.893980 0.179456
O O15 0.009523 0.914819 0.246706
O O16 0.250000 0.228519 0.401875
O O17 0.003210 0.151891 0.359466
O O18 0.500000 0.500000 0.247296
O O19 0.750000 0.589365 0.257766
O O20 0.750000 0.418464 0.816944
O O21 0.000000 0.500000 0.847151
#
# Coordination Sequence:
#
# PCOD9363189 Si02
#       8
#     8   8   8   8   8   8   8   8
#     4  11  21  35  58  87 112 139 176 222 271 329
#     4   7  13  27  51  79 108 136 169 213 264 317
#     4  10  19  34  57  85 111 142 180 221 272 331
#     4   9  17  32  54  81 110 142 177 223 274 321
#     4   9  17  34  57  82 110 144 181 222 271 322
#     4  10  19  33  54  83 112 143 183 229 276 327
#     4  12  25  41  57  77 108 146 184 227 274 326
#     4  10  22  36  52  74 107 146 185 227 272 319
#
# _framework density 20.815712000000001
#
# number of rings (size 3 to 8) (size 9 to 14) (size 15 to 20)
#    0.000    2.250    0.000    5.625    0.000    2.500 
#    0.000    1.875    0.000    3.000    0.000    0.000 
#    0.000    0.000    0.000    0.000    0.000    0.000 
#
# Total GULP energy -178615.174008 kJ/mol
# GULP energy per Si atom -5581.724188 kJ/mol
# Density = 2.076833 g / cm^3
# Si number density = 20.815712 Si / 1000 Ang^3
#
#
#
# Elastic Constant Matrix: (Units=GPa)
#
#
# Indices 1 2 3 4 5 6 
#
# 1 24.5135 -19.8628 -3.8289 0.0000 0.0000 0.0000
# 2 -19.8628 59.0070 25.8793 0.0000 0.0000 0.0000
# 3 -3.8289 25.8793 94.1899 0.0000 0.0000 0.0000
# 4 0.0000 0.0000 0.0000 -87.4927 0.0000 0.0000
# 5 0.0000 0.0000 0.0000 0.0000 38.4035 0.0000
# 6 0.0000 0.0000 0.0000 0.0000 0.0000 13.9151
#
#
#
# Elastic Compliance Matrix: (Units=1/GPa)
#
#
# Indices 1 2 3 4 5 6 
#
# 1 0.057014 0.020666 -0.003360 0.000000 0.000000 0.000000
# 2 0.020666 0.026760 -0.006512 0.000000 0.000000 0.000000
# 3 -0.003360 -0.006512 0.012270 0.000000 0.000000 0.000000
# 4 0.000000 0.000000 0.000000 -0.011430 0.000000 0.000000
# 5 0.000000 0.000000 0.000000 0.000000 0.026039 0.000000
# 6 0.000000 0.000000 0.000000 0.000000 0.000000 0.071864
#
#
# Mechanical properties :
#
#
# Convention : Reuss Voigt Hill
#
# Bulk Modulus (GPa) = 8.50127 20.23173 14.36650
# Shear Modulus (GPa) = 24.98235 4.66670 14.82452
#
# Velocity S-wave (km/s) = 3.46810 1.49893 2.67156
# Velocity P-wave (km/s) = 4.48664 3.56879 4.05377
#
# Compressibility (1/GPa) = 0.11762943
#
# Stress axis : x y z
#
# Youngs Moduli (GPa) = 17.53954 37.36946 81.50254
#
# Poissons Ratio (x) = -0.77227 0.27388
# Poissons Ratio (y) = -0.36247 0.53077
# Poissons Ratio (z) = 0.05894 0.24336
#
# Static dielectric constant tensor:
#      x y z
#    x 1.706480 0.000000 0.000000 
#    y 0.000000 1.797360 0.000000 
#    z 0.000000 0.000000 1.795940 
# 
# From -- ./inp_files/22402.got.cif
#   From: 2010.05.17/outbox.cif.g08.bks.cpg/sg40_12_cif.got.tgz:22402.got - 2010.06.03 18:35:42.
