data_PCOD9363116
_publ_section_title
;
Structure prediction by ZEFSAII (Michael W. Deem and Ramdas Pophale) SiO2 
 PCOD9363116
Probable space group: A M A 2
;
_chemical_formula_sum "Si O2"
_cell_formula_units_Z 48
_cell_length_a 8.584007
_cell_length_b 14.087550
_cell_length_c 24.290332
_cell_angle_alpha 90.000000
_cell_angle_beta 90.000000
_cell_angle_gamma 90.000000
_cell_volume 2937.372228
_symmetry_space_group_name_H-M "A M A 2"
_symmetry_group_IT_number 40
_symmetry_cell_setting 'orthorhombic'
loop_
_space_group_symop_operation_xyz
x,y,z
-x,-y,z
1/2-x,y,z
1/2+x,-y,z
x,1/2+y,1/2+z
-x,1/2-y,1/2+z
1/2-x,1/2+y,1/2+z
1/2+x,1/2-y,1/2+z
loop_
_atom_site_type_symbol
_atom_site_label
_atom_site_fract_x
_atom_site_fract_y
_atom_site_fract_z
Si Si1 0.937630 0.280575 0.119450
Si Si2 0.436037 0.604869 0.682001
Si Si3 0.062548 0.105744 0.387669
Si Si4 0.935995 0.718747 0.786133
Si Si5 0.563660 0.605126 0.223477
Si Si6 0.562562 0.395360 0.013747
O O1 0.750000 0.274419 0.121943
O O2 0.986246 0.320564 0.060073
O O3 0.009447 0.179540 0.135756
O O4 0.994619 0.353786 0.166347
O O5 0.500000 0.500000 0.672070
O O6 0.250000 0.604221 0.685808
O O7 0.505225 0.646006 0.739025
O O8 0.250000 0.105568 0.383801
O O9 0.016108 0.127184 0.450941
O O10 0.992765 0.179145 0.344360
O O11 0.000000 0.000000 0.375004
O O12 0.750000 0.724237 0.783892
O O13 0.008129 0.820085 0.769584
O O14 0.500000 0.500000 0.233231
O O15 0.750000 0.604908 0.220261
O O16 0.500000 0.500000 0.027424
O O17 0.750000 0.399615 0.014783
#
# Coordination Sequence:
#
# PCOD9363116 Si02
#       6
#     8   8   8   8   8   8
#     4  10  19  33  51  75 102 131 164 202 243 290
#     4  11  21  34  51  73  99 131 164 202 246 293
#     4  10  19  33  50  73 101 132 165 202 244 291
#     4  11  21  34  51  74 100 130 164 203 245 292
#     4  11  21  34  51  74 101 132 164 201 244 291
#     4   9  19  32  50  73 101 132 164 200 242 287
#
# _framework density 16.341137
#
# number of rings (size 3 to 8) (size 9 to 14) (size 15 to 20)
#    0.000    1.667    0.000    8.500    0.000    3.333 
#    0.000    0.000    0.000    1.000    0.000    4.667 
#    0.000    0.000    0.000    0.000    0.000    0.000 
#
# Total GULP energy -134038.906715 kJ/mol
# GULP energy per Si atom -5584.954446 kJ/mol
# Density = 1.630394 g / cm^3
# Si number density = 16.341137 Si / 1000 Ang^3
#
#
#
# Elastic Constant Matrix: (Units=GPa)
#
#
# Indices 1 2 3 4 5 6 
#
# 1 94.4966 37.1123 21.7528 0.0000 0.0000 0.0000
# 2 37.1123 140.5568 70.0455 0.0000 0.0000 0.0000
# 3 21.7528 70.0455 84.7976 0.0000 0.0000 0.0000
# 4 0.0000 0.0000 0.0000 21.1840 0.0000 0.0000
# 5 0.0000 0.0000 0.0000 0.0000 26.4450 0.0000
# 6 0.0000 0.0000 0.0000 0.0000 0.0000 30.5039
#
#
#
# Elastic Compliance Matrix: (Units=1/GPa)
#
#
# Indices 1 2 3 4 5 6 
#
# 1 0.011836 -0.002740 -0.000773 0.000000 0.000000 0.000000
# 2 -0.002740 0.012727 -0.009810 0.000000 0.000000 0.000000
# 3 -0.000773 -0.009810 0.020094 0.000000 0.000000 0.000000
# 4 0.000000 0.000000 0.000000 0.047205 0.000000 0.000000
# 5 0.000000 0.000000 0.000000 0.000000 0.037814 0.000000
# 6 0.000000 0.000000 0.000000 0.000000 0.000000 0.032783
#
#
# Mechanical properties :
#
#
# Convention : Reuss Voigt Hill
#
# Bulk Modulus (GPa) = 55.51917 64.18580 59.85249
# Shear Modulus (GPa) = 25.62667 28.35594 26.99130
#
# Velocity S-wave (km/s) = 3.96439 4.17015 4.06857
# Velocity P-wave (km/s) = 7.41647 7.90891 7.66664
#
# Compressibility (1/GPa) = 0.01801180
#
# Stress axis : x y z
#
# Youngs Moduli (GPa) = 84.48476 78.57523 49.76557
#
# Poissons Ratio (x) = 0.21530 0.03847
# Poissons Ratio (y) = 0.23149 0.48819
# Poissons Ratio (z) = 0.06530 0.77080
#
# Static dielectric constant tensor:
#      x y z
#    x 1.546160 0.000000 0.000000 
#    y 0.000000 1.523690 0.000000 
#    z 0.000000 0.000000 1.549430 
# 
# From -- ./inp_files/24051.got.cif
#   From: 2010.05.17/outbox.cif.g08.bks.cpg/sg40_13_cif.got.tgz:24051.got - 2010.06.03 18:35:42.
