data_PCOD9363576
_publ_section_title
;
Structure prediction by ZEFSAII (Michael W. Deem and Ramdas Pophale) SiO2 
 PCOD9363576
Probable space group: A M A 2
;
_chemical_formula_sum "Si O2"
_cell_formula_units_Z 48
_cell_length_a 18.263477
_cell_length_b 11.244380
_cell_length_c 12.172772
_cell_angle_alpha 90.000000
_cell_angle_beta 90.000000
_cell_angle_gamma 90.000000
_cell_volume 2499.818419
_symmetry_space_group_name_H-M "A M A 2"
_symmetry_group_IT_number 40
_symmetry_cell_setting 'orthorhombic'
loop_
_space_group_symop_operation_xyz
x,y,z
-x,-y,z
1/2-x,y,z
1/2+x,-y,z
x,1/2+y,1/2+z
-x,1/2-y,1/2+z
1/2-x,1/2+y,1/2+z
1/2+x,1/2-y,1/2+z
loop_
_atom_site_type_symbol
_atom_site_label
_atom_site_fract_x
_atom_site_fract_y
_atom_site_fract_z
Si Si1 0.663734 0.585987 0.502460
Si Si2 0.583430 0.455772 0.689350
Si Si3 0.894530 0.332232 0.094421
Si Si4 0.932117 0.687061 0.123499
Si Si5 0.836166 0.999742 0.758507
Si Si6 0.086125 0.965065 0.429807
O O1 0.750000 0.608392 0.504446
O O2 0.637863 0.497116 0.595795
O O3 0.624501 0.708982 0.535674
O O4 0.646260 0.525972 0.385446
O O5 0.500000 0.500000 0.667963
O O6 0.581986 0.313410 0.680091
O O7 0.608122 0.515821 0.804090
O O8 0.852890 0.370250 0.205962
O O9 0.980666 0.333459 0.122972
O O10 0.876957 0.434705 0.005466
O O11 0.888612 0.589268 0.192632
O O12 0.908203 0.659400 0.996189
O O13 0.750000 0.025444 0.741893
O O14 0.000000 0.000000 0.428775
#
# Coordination Sequence:
#
# PCOD9363576 Si02
#       6
#     8   8   8   8   8   8
#     4  11  24  39  56  86 126 164 200 246 309 372
#     4  11  21  37  56  86 118 156 198 245 303 366
#     4  10  19  40  62  87 116 154 206 252 305 363
#     4  10  20  38  62  89 116 153 204 257 305 359
#     4  10  22  39  61  89 120 161 206 252 309 371
#     4   8  18  34  57  84 113 142 192 253 294 352
#
# _framework density 19.201394000000001
#
# number of rings (size 3 to 8) (size 9 to 14) (size 15 to 20)
#    0.000    2.000    1.667    3.000    0.000    3.333 
#    3.000    4.167    0.000    0.000    0.000    0.000 
#    0.000    0.000    0.000    0.000    0.000    0.000 
#
# Total GULP energy -133690.601137 kJ/mol
# GULP energy per Si atom -5570.441714 kJ/mol
# Density = 1.915769 g / cm^3
# Si number density = 19.201394 Si / 1000 Ang^3
#
#
#
# Elastic Constant Matrix: (Units=GPa)
#
#
# Indices 1 2 3 4 5 6 
#
# 1 39.2067 -2.3193 45.6492 0.0000 0.0000 0.0000
# 2 -2.3193 23.7770 14.3965 0.0000 0.0000 0.0000
# 3 45.6492 14.3965 150.1400 0.0000 0.0000 0.0000
# 4 0.0000 0.0000 0.0000 29.1858 0.0000 0.0000
# 5 0.0000 0.0000 0.0000 0.0000 26.3051 0.0000
# 6 0.0000 0.0000 0.0000 0.0000 0.0000 19.0080
#
#
#
# Elastic Compliance Matrix: (Units=1/GPa)
#
#
# Indices 1 2 3 4 5 6 
#
# 1 0.042872 0.012819 -0.014264 0.000000 0.000000 0.000000
# 2 0.012819 0.048482 -0.008546 0.000000 0.000000 0.000000
# 3 -0.014264 -0.008546 0.011817 0.000000 0.000000 0.000000
# 4 0.000000 0.000000 0.000000 0.034263 0.000000 0.000000
# 5 0.000000 0.000000 0.000000 0.000000 0.038015 0.000000
# 6 0.000000 0.000000 0.000000 0.000000 0.000000 0.052609
#
#
# Mechanical properties :
#
#
# Convention : Reuss Voigt Hill
#
# Bulk Modulus (GPa) = 12.02098 36.50848 24.26473
# Shear Modulus (GPa) = 18.13088 25.25961 21.69525
#
# Velocity S-wave (km/s) = 3.07620 3.63093 3.36501
# Velocity P-wave (km/s) = 4.34642 6.05251 5.26898
#
# Compressibility (1/GPa) = 0.08318791
#
# Stress axis : x y z
#
# Youngs Moduli (GPa) = 23.32509 20.62606 84.62480
#
# Poissons Ratio (x) = -0.26440 1.20711
# Poissons Ratio (y) = -0.29900 0.72323
# Poissons Ratio (z) = 0.33271 0.17628
#
# Static dielectric constant tensor:
#      x y z
#    x 1.641280 0.000000 0.000000 
#    y 0.000000 1.716610 0.000000 
#    z 0.000000 0.000000 1.716850 
# 
# From -- ./inp_files/12883.got.cif
#   From: 2010.05.17/outbox.cif.g08.bks.cpg/sg40_7_cif.got.tgz:12883.got - 2010.06.03 18:35:42.
