data_PCOD9363808
_publ_section_title
;
Structure prediction by ZEFSAII (Michael W. Deem and Ramdas Pophale) SiO2 
 PCOD9363808
Probable space group: A M A 2
;
_chemical_formula_sum "Si O2"
_cell_formula_units_Z 48
_cell_length_a 7.462527
_cell_length_b 22.102313
_cell_length_c 13.317044
_cell_angle_alpha 90.000000
_cell_angle_beta 90.000000
_cell_angle_gamma 90.000000
_cell_volume 2196.501352
_symmetry_space_group_name_H-M "A M A 2"
_symmetry_group_IT_number 40
_symmetry_cell_setting 'orthorhombic'
loop_
_space_group_symop_operation_xyz
x,y,z
-x,-y,z
1/2-x,y,z
1/2+x,-y,z
x,1/2+y,1/2+z
-x,1/2-y,1/2+z
1/2-x,1/2+y,1/2+z
1/2+x,1/2-y,1/2+z
loop_
_atom_site_type_symbol
_atom_site_label
_atom_site_fract_x
_atom_site_fract_y
_atom_site_fract_z
Si Si1 0.035670 0.432853 0.755690
Si Si2 0.964848 0.794203 0.928785
Si Si3 0.464330 0.432853 0.101877
Si Si4 0.540473 0.591366 0.536304
Si Si5 0.959528 0.091367 0.821264
Si Si6 0.469866 0.843837 0.428784
O O1 0.250000 0.425143 0.748838
O O2 0.962010 0.428435 0.642034
O O3 0.970788 0.381331 0.831080
O O4 0.000000 0.500000 0.795519
O O5 0.750000 0.793894 0.928786
O O6 0.028535 0.725694 0.928784
O O7 0.026762 0.835764 0.835135
O O8 0.026764 0.835764 0.022433
O O9 0.500000 0.500000 0.062049
O O10 0.250000 0.425142 0.108729
O O11 0.537990 0.428434 0.215533
O O12 0.529212 0.381332 0.026487
O O13 0.750000 0.574822 0.536185
O O14 0.462300 0.569483 0.428784
O O15 0.750000 0.074823 0.821383
O O16 0.250000 0.843691 0.428783
#
# Coordination Sequence:
#
# PCOD9363808 Si02
#       6
#     8   8   8   8   8   8
#     4  10  20  35  53  73 102 135 167 204 246 295
#     4   9  17  32  53  77 100 128 168 205 244 299
#     4  10  20  35  53  73 102 135 167 204 246 295
#     4   8  17  34  51  73 103 132 160 202 257 295
#     4   8  17  34  51  73 103 132 160 202 257 295
#     4   9  19  34  52  75 103 134 163 203 254 291
#
# _framework density 21.852934000000001
#
# number of rings (size 3 to 8) (size 9 to 14) (size 15 to 20)
#    1.000    2.000    0.000    0.500    0.000    3.333 
#    0.000    3.333    0.000    0.000    0.000    0.000 
#    0.000    0.000    0.000    0.000    0.000    0.000 
#
# Total GULP energy -133685.296533 kJ/mol
# GULP energy per Si atom -5570.220689 kJ/mol
# Density = 2.180320 g / cm^3
# Si number density = 21.852934 Si / 1000 Ang^3
#
#
#
# Elastic Constant Matrix: (Units=GPa)
#
#
# Indices 1 2 3 4 5 6 
#
# 1 71.5029 -16.6522 6.5276 0.0000 0.0000 0.0000
# 2 -16.6522 144.0751 36.0467 0.0000 0.0000 0.0000
# 3 6.5276 36.0467 109.2323 0.0000 0.0000 0.0000
# 4 0.0000 0.0000 0.0000 44.1494 0.0000 0.0000
# 5 0.0000 0.0000 0.0000 0.0000 -13.3401 0.0000
# 6 0.0000 0.0000 0.0000 0.0000 0.0000 19.6651
#
#
#
# Elastic Compliance Matrix: (Units=1/GPa)
#
#
# Indices 1 2 3 4 5 6 
#
# 1 0.014612 0.002079 -0.001559 0.000000 0.000000 0.000000
# 2 0.002079 0.007861 -0.002718 0.000000 0.000000 0.000000
# 3 -0.001559 -0.002718 0.010145 0.000000 0.000000 0.000000
# 4 0.000000 0.000000 0.000000 0.022650 0.000000 0.000000
# 5 0.000000 0.000000 0.000000 0.000000 -0.074962 0.000000
# 6 0.000000 0.000000 0.000000 0.000000 0.000000 0.050852
#
#
# Mechanical properties :
#
#
# Convention : Reuss Voigt Hill
#
# Bulk Modulus (GPa) = 35.43485 41.85050 38.64267
# Shear Modulus (GPa) = 111.20310 30.02075 70.61192
#
# Velocity S-wave (km/s) = 7.14125 3.71045 5.69056
# Velocity P-wave (km/s) = 9.17862 6.12774 7.80372
#
# Compressibility (1/GPa) = 0.02822081
#
# Stress axis : x y z
#
# Youngs Moduli (GPa) = 68.43707 127.20618 98.56998
#
# Poissons Ratio (x) = -0.26446 0.15370
# Poissons Ratio (y) = -0.14228 0.26796
# Poissons Ratio (z) = 0.10671 0.34580
#
# Static dielectric constant tensor:
#      x y z
#    x 1.793940 0.000000 0.000000 
#    y 0.000000 1.777440 0.000000 
#    z 0.000000 0.000000 1.814010 
# 
# From -- ./inp_files/15152.got.cif
#   From: 2010.05.17/outbox.cif.g08.bks.cpg/sg40_8_cif.got.tgz:15152.got - 2010.06.03 18:35:42.
