data_PCOD9363016
_publ_section_title
;
Structure prediction by ZEFSAII (Michael W. Deem and Ramdas Pophale) SiO2 
 PCOD9363016
Probable space group: A M A 2
;
_chemical_formula_sum "Si O2"
_cell_formula_units_Z 64
_cell_length_a 7.794488
_cell_length_b 30.380069
_cell_length_c 13.402434
_cell_angle_alpha 90.000000
_cell_angle_beta 90.000000
_cell_angle_gamma 90.000000
_cell_volume 3173.657280
_symmetry_space_group_name_H-M "A M A 2"
_symmetry_group_IT_number 40
_symmetry_cell_setting 'orthorhombic'
loop_
_space_group_symop_operation_xyz
x,y,z
-x,-y,z
1/2-x,y,z
1/2+x,-y,z
x,1/2+y,1/2+z
-x,1/2-y,1/2+z
1/2-x,1/2+y,1/2+z
1/2+x,1/2-y,1/2+z
loop_
_atom_site_type_symbol
_atom_site_label
_atom_site_fract_x
_atom_site_fract_y
_atom_site_fract_z
Si Si1 0.957224 0.879366 0.216300
Si Si2 0.541301 0.294563 0.837218
Si Si3 0.957587 0.747562 0.525686
Si Si4 0.955478 0.646048 0.493298
Si Si5 0.047257 0.551059 0.102226
Si Si6 0.052974 0.287494 0.228797
Si Si7 0.043211 0.551332 0.880222
Si Si8 0.456451 0.882606 0.777208
O O1 0.750000 0.879506 0.219439
O O2 0.020999 0.835276 0.272897
O O3 0.018503 0.919554 0.286486
O O4 0.003046 0.876407 0.099564
O O5 0.750000 0.294686 0.825999
O O6 0.468806 0.248008 0.800254
O O7 0.506900 0.289032 0.953200
O O8 0.750000 0.745705 0.537831
O O9 0.011458 0.697702 0.495848
O O10 0.047029 0.761794 0.626224
O O11 0.750000 0.647411 0.486125
O O12 0.017476 0.620764 0.393050
O O13 0.250000 0.553914 0.093077
O O14 0.000000 0.500000 0.115889
O O15 0.001538 0.579124 0.199725
O O16 0.978216 0.565026 0.991622
O O17 0.250000 0.292723 0.263366
O O18 0.981753 0.336323 0.229316
O O19 0.250000 0.555666 0.881089
O O20 0.000000 0.500000 0.867667
O O21 0.250000 0.884057 0.781247
#
# Coordination Sequence:
#
# PCOD9363016 Si02
#       8
#     8   8   8   8   8   8   8   8
#     4  10  20  35  56  80 107 143 185 223 268 327
#     4   9  17  31  51  72 103 145 181 217 266 318
#     4  10  19  32  50  72 104 145 185 225 269 317
#     4  10  20  35  53  77 110 148 186 225 270 317
#     4  10  21  39  63  88 112 139 175 222 276 330
#     4  10  19  33  51  74 105 145 185 221 267 317
#     4   9  20  38  60  85 110 138 173 219 275 329
#     4  10  21  37  56  80 112 149 187 225 271 327
#
# _framework density 20.166007
#
# number of rings (size 3 to 8) (size 9 to 14) (size 15 to 20)
#    0.000    2.250    2.500    0.375    1.750    2.000 
#    0.000    1.875    0.000    1.500    0.000    0.000 
#    0.000    0.000    0.000    0.000    0.000    0.000 
#
# Total GULP energy -178175.804073 kJ/mol
# GULP energy per Si atom -5567.993877 kJ/mol
# Density = 2.012011 g / cm^3
# Si number density = 20.166007 Si / 1000 Ang^3
#
#
#
# Elastic Constant Matrix: (Units=GPa)
#
#
# Indices 1 2 3 4 5 6 
#
# 1 26.8010 4.9090 14.5877 0.0000 0.0000 0.0000
# 2 4.9090 99.5667 85.5381 0.0000 0.0000 0.0000
# 3 14.5877 85.5381 158.8802 0.0000 0.0000 0.0000
# 4 0.0000 0.0000 0.0000 44.2508 0.0000 0.0000
# 5 0.0000 0.0000 0.0000 0.0000 20.6992 0.0000
# 6 0.0000 0.0000 0.0000 0.0000 0.0000 15.8065
#
#
#
# Elastic Compliance Matrix: (Units=1/GPa)
#
#
# Indices 1 2 3 4 5 6 
#
# 1 0.039526 0.002175 -0.004800 0.000000 0.000000 0.000000
# 2 0.002175 0.018806 -0.010325 0.000000 0.000000 0.000000
# 3 -0.004800 -0.010325 0.012293 0.000000 0.000000 0.000000
# 4 0.000000 0.000000 0.000000 0.022598 0.000000 0.000000
# 5 0.000000 0.000000 0.000000 0.000000 0.048311 0.000000
# 6 0.000000 0.000000 0.000000 0.000000 0.000000 0.063265
#
#
# Mechanical properties :
#
#
# Convention : Reuss Voigt Hill
#
# Bulk Modulus (GPa) = 22.35812 55.03528 38.69670
# Shear Modulus (GPa) = 20.35759 28.16551 24.26155
#
# Velocity S-wave (km/s) = 3.18071 3.74128 3.47232
# Velocity P-wave (km/s) = 4.95987 6.78330 5.94195
#
# Compressibility (1/GPa) = 0.04472647
#
# Stress axis : x y z
#
# Youngs Moduli (GPa) = 25.29955 53.17411 81.34493
#
# Poissons Ratio (x) = -0.11565 0.39047
# Poissons Ratio (y) = -0.05503 0.83985
# Poissons Ratio (z) = 0.12144 0.54900
#
# Static dielectric constant tensor:
#      x y z
#    x 1.763030 0.000000 0.000000 
#    y 0.000000 1.697520 0.000000 
#    z 0.000000 0.000000 1.815770 
# 
# From -- ./inp_files/10590.got.cif
#   From: 2010.05.17/outbox.cif.g08.bks.cpg/sg40_6_cif.got.tgz:10590.got - 2010.06.03 18:35:42.
