data_PCOD9363830
_publ_section_title
;
Structure prediction by ZEFSAII (Michael W. Deem and Ramdas Pophale) SiO2 
 PCOD9363830
Probable space group: A M A 2
;
_chemical_formula_sum "Si O2"
_cell_formula_units_Z 64
_cell_length_a 9.016011
_cell_length_b 29.143917
_cell_length_c 13.218952
_cell_angle_alpha 90.000000
_cell_angle_beta 90.000000
_cell_angle_gamma 90.000000
_cell_volume 3473.436630
_symmetry_space_group_name_H-M "A M A 2"
_symmetry_group_IT_number 40
_symmetry_cell_setting 'orthorhombic'
loop_
_space_group_symop_operation_xyz
x,y,z
-x,-y,z
1/2-x,y,z
1/2+x,-y,z
x,1/2+y,1/2+z
-x,1/2-y,1/2+z
1/2-x,1/2+y,1/2+z
1/2+x,1/2-y,1/2+z
loop_
_atom_site_type_symbol
_atom_site_label
_atom_site_fract_x
_atom_site_fract_y
_atom_site_fract_z
Si Si1 0.428563 0.550018 0.976860
Si Si2 0.579612 0.256713 0.351222
Si Si3 0.428416 0.621387 0.151999
Si Si4 0.925567 0.380126 0.571637
Si Si5 0.416293 0.704900 0.006831
Si Si6 0.071116 0.550200 0.749235
Si Si7 0.072594 0.355930 0.362648
Si Si8 0.913355 0.206707 0.140374
O O1 0.500000 0.500000 0.987358
O O2 0.250000 0.546305 0.979587
O O3 0.467924 0.567744 0.863234
O O4 0.471482 0.582422 0.070607
O O5 0.750000 0.268868 0.373783
O O6 0.529198 0.213082 0.417223
O O7 0.485378 0.303163 0.362295
O O8 0.567231 0.237503 0.238729
O O9 0.250000 0.619278 0.169182
O O10 0.458966 0.668940 0.092793
O O11 0.510096 0.621494 0.259388
O O12 0.750000 0.384786 0.554304
O O13 0.973194 0.417501 0.655612
O O14 0.009137 0.379991 0.463907
O O15 0.963503 0.330888 0.620742
O O16 0.250000 0.691807 0.971641
O O17 0.410368 0.755657 0.052997
O O18 0.250000 0.546492 0.746465
O O19 0.000000 0.500000 0.739161
O O20 0.250000 0.356489 0.363983
O O21 0.750000 0.184020 0.144200
#
# Coordination Sequence:
#
# PCOD9363830 Si02
#       8
#     8   8   8   8   8   8   8   8
#     4   9  19  38  64  90 118 148 181 229 288 343
#     4  11  22  37  54  76 112 154 195 237 284 336
#     4  10  21  39  61  83 115 155 192 236 287 339
#     4  11  23  38  60  86 115 151 195 236 283 346
#     4  10  20  35  55  80 113 150 192 237 279 331
#     4   9  20  39  63  91 117 147 184 229 286 344
#     4  12  24  38  57  81 115 154 196 240 285 336
#     4  10  21  36  53  79 114 151 192 235 281 329
#
# _framework density 18.425556
#
# number of rings (size 3 to 8) (size 9 to 14) (size 15 to 20)
#    0.000    1.750    2.500    1.875    1.750    3.000 
#    0.000    0.625    0.000    0.000    0.000    0.000 
#    0.000    0.000    0.000    0.000    0.000    0.000 
#
# Total GULP energy -178453.679421 kJ/mol
# GULP energy per Si atom -5576.677482 kJ/mol
# Density = 1.838362 g / cm^3
# Si number density = 18.425556 Si / 1000 Ang^3
#
#
#
# Elastic Constant Matrix: (Units=GPa)
#
#
# Indices 1 2 3 4 5 6 
#
# 1 65.7215 28.3607 57.4951 0.0000 0.0000 0.0000
# 2 28.3607 67.7267 50.7114 0.0000 0.0000 0.0000
# 3 57.4951 50.7114 126.5746 0.0000 0.0000 0.0000
# 4 0.0000 0.0000 0.0000 29.6068 0.0000 0.0000
# 5 0.0000 0.0000 0.0000 0.0000 28.6638 0.0000
# 6 0.0000 0.0000 0.0000 0.0000 0.0000 17.6374
#
#
#
# Elastic Compliance Matrix: (Units=1/GPa)
#
#
# Indices 1 2 3 4 5 6 
#
# 1 0.025637 -0.002880 -0.010491 0.000000 0.000000 0.000000
# 2 -0.002880 0.021416 -0.007272 0.000000 0.000000 0.000000
# 3 -0.010491 -0.007272 0.015580 0.000000 0.000000 0.000000
# 4 0.000000 0.000000 0.000000 0.033776 0.000000 0.000000
# 5 0.000000 0.000000 0.000000 0.000000 0.034887 0.000000
# 6 0.000000 0.000000 0.000000 0.000000 0.000000 0.056698
#
#
# Mechanical properties :
#
#
# Convention : Reuss Voigt Hill
#
# Bulk Modulus (GPa) = 46.84767 59.23971 53.04369
# Shear Modulus (GPa) = 21.15101 23.41198 22.28149
#
# Velocity S-wave (km/s) = 3.39177 3.56845 3.48123
# Velocity P-wave (km/s) = 6.38900 7.01421 6.70889
#
# Compressibility (1/GPa) = 0.02134578
#
# Stress axis : x y z
#
# Youngs Moduli (GPa) = 39.00678 46.69333 64.18644
#
# Poissons Ratio (x) = 0.13447 0.67340
# Poissons Ratio (y) = 0.11233 0.46678
# Poissons Ratio (z) = 0.40923 0.33956
#
# Static dielectric constant tensor:
#      x y z
#    x 1.650280 0.000000 0.000000 
#    y 0.000000 1.610230 0.000000 
#    z 0.000000 0.000000 1.678570 
# 
# From -- ./inp_files/10686.got.cif
#   From: 2010.05.17/outbox.cif.g08.bks.cpg/sg40_6_cif.got.tgz:10686.got - 2010.06.03 18:35:42.
