data_PCOD9363737
_publ_section_title
;
Structure prediction by ZEFSAII (Michael W. Deem and Ramdas Pophale) SiO2 
 PCOD9363737
Probable space group: A M A 2
;
_chemical_formula_sum "Si O2"
_cell_formula_units_Z 64
_cell_length_a 8.777129
_cell_length_b 21.091788
_cell_length_c 19.914638
_cell_angle_alpha 90.000000
_cell_angle_beta 90.000000
_cell_angle_gamma 90.000000
_cell_volume 3686.704213
_symmetry_space_group_name_H-M "A M A 2"
_symmetry_group_IT_number 40
_symmetry_cell_setting 'orthorhombic'
loop_
_space_group_symop_operation_xyz
x,y,z
-x,-y,z
1/2-x,y,z
1/2+x,-y,z
x,1/2+y,1/2+z
-x,1/2-y,1/2+z
1/2-x,1/2+y,1/2+z
1/2+x,1/2-y,1/2+z
loop_
_atom_site_type_symbol
_atom_site_label
_atom_site_fract_x
_atom_site_fract_y
_atom_site_fract_z
Si Si1 0.931329 0.615315 0.845850
Si Si2 0.930792 0.745610 0.498092
Si Si3 0.430934 0.566478 0.711130
Si Si4 0.432155 0.312305 0.208051
Si Si5 0.067844 0.812305 0.136861
Si Si6 0.569066 0.433522 0.133783
Si Si7 0.568671 0.115316 0.499064
Si Si8 0.430791 0.254389 0.346820
O O1 0.750000 0.608159 0.837567
O O2 0.972402 0.597290 0.922457
O O3 0.017173 0.577617 0.788073
O O4 0.976842 0.689261 0.837650
O O5 0.750000 0.761424 0.503121
O O6 0.964683 0.697144 0.557743
O O7 0.959435 0.722013 0.422456
O O8 0.023156 0.810738 0.507263
O O9 0.500000 0.500000 0.687573
O O10 0.250000 0.565390 0.707353
O O11 0.495518 0.625380 0.668843
O O12 0.250000 0.313773 0.198177
O O13 0.499999 0.250000 0.172456
O O14 0.504484 0.374620 0.176071
O O15 0.464679 0.302854 0.287169
O O16 0.250000 0.813772 0.146734
O O17 0.500000 0.500000 0.157340
O O18 0.750000 0.434610 0.137559
O O19 0.517171 0.422382 0.056841
O O20 0.750000 0.108160 0.507346
O O21 0.250000 0.238573 0.341793
#
# Coordination Sequence:
#
# PCOD9363737 Si02
#       8
#     8   8   8   8   8   8   8   8
#     4  10  20  34  54  81 113 148 187 229 274 331
#     4   9  18  33  55  83 113 146 184 227 276 328
#     4  12  25  40  57  79 111 151 191 236 283 337
#     4  11  21  35  58  86 115 148 187 232 279 332
#     4  11  21  35  58  86 115 148 187 232 279 332
#     4  12  25  40  57  79 111 151 191 236 283 337
#     4  10  20  34  54  81 113 148 187 229 274 331
#     4   9  18  33  55  83 113 146 184 227 276 328
#
# _framework density 17.359677999999999
#
# number of rings (size 3 to 8) (size 9 to 14) (size 15 to 20)
#    0.000    1.500    2.500    3.750    0.000    3.000 
#    0.000    0.000    0.000    0.750    0.000    0.000 
#    0.000    0.000    0.000    0.000    0.000    0.000 
#
# Total GULP energy -178764.768476 kJ/mol
# GULP energy per Si atom -5586.399015 kJ/mol
# Density = 1.732017 g / cm^3
# Si number density = 17.359678 Si / 1000 Ang^3
#
#
#
# Elastic Constant Matrix: (Units=GPa)
#
#
# Indices 1 2 3 4 5 6 
#
# 1 97.4264 56.5467 54.5040 0.0000 0.0000 0.0000
# 2 56.5467 125.9798 62.5085 0.0000 0.0000 0.0000
# 3 54.5040 62.5085 99.8667 0.0000 0.0000 0.0000
# 4 0.0000 0.0000 0.0000 20.3950 0.0000 0.0000
# 5 0.0000 0.0000 0.0000 0.0000 24.7407 0.0000
# 6 0.0000 0.0000 0.0000 0.0000 0.0000 29.0076
#
#
#
# Elastic Compliance Matrix: (Units=1/GPa)
#
#
# Indices 1 2 3 4 5 6 
#
# 1 0.016159 -0.004173 -0.006207 0.000000 0.000000 0.000000
# 2 -0.004173 0.012591 -0.005604 0.000000 0.000000 0.000000
# 3 -0.006207 -0.005604 0.016908 0.000000 0.000000 0.000000
# 4 0.000000 0.000000 0.000000 0.049032 0.000000 0.000000
# 5 0.000000 0.000000 0.000000 0.000000 0.040419 0.000000
# 6 0.000000 0.000000 0.000000 0.000000 0.000000 0.034474
#
#
# Mechanical properties :
#
#
# Convention : Reuss Voigt Hill
#
# Bulk Modulus (GPa) = 73.04033 74.48791 73.76412
# Shear Modulus (GPa) = 24.25852 24.80959 24.53406
#
# Velocity S-wave (km/s) = 3.74225 3.78451 3.76344
# Velocity P-wave (km/s) = 7.79991 7.88026 7.84019
#
# Compressibility (1/GPa) = 0.01369107
#
# Stress axis : x y z
#
# Youngs Moduli (GPa) = 61.88660 79.41994 59.14309
#
# Poissons Ratio (x) = 0.33144 0.36709
# Poissons Ratio (y) = 0.25827 0.33141
# Poissons Ratio (z) = 0.38411 0.44503
#
# Static dielectric constant tensor:
#      x y z
#    x 1.579200 0.000000 0.000000 
#    y 0.000000 1.558700 0.000000 
#    z 0.000000 0.000000 1.615510 
# 
# From -- ./inp_files/22434.got.cif
#   From: 2010.05.17/outbox.cif.g08.bks.cpg/sg40_12_cif.got.tgz:22434.got - 2010.06.03 18:35:42.
