data_PCOD9363512
_publ_section_title
;
Structure prediction by ZEFSAII (Michael W. Deem and Ramdas Pophale) SiO2 
 PCOD9363512
Probable space group: A M A 2
;
_chemical_formula_sum "Si O2"
_cell_formula_units_Z 48
_cell_length_a 15.780351
_cell_length_b 9.590781
_cell_length_c 15.599383
_cell_angle_alpha 90.000000
_cell_angle_beta 90.000000
_cell_angle_gamma 90.000000
_cell_volume 2360.902512
_symmetry_space_group_name_H-M "A M A 2"
_symmetry_group_IT_number 40
_symmetry_cell_setting 'orthorhombic'
loop_
_space_group_symop_operation_xyz
x,y,z
-x,-y,z
1/2-x,y,z
1/2+x,-y,z
x,1/2+y,1/2+z
-x,1/2-y,1/2+z
1/2-x,1/2+y,1/2+z
1/2+x,1/2-y,1/2+z
loop_
_atom_site_type_symbol
_atom_site_label
_atom_site_fract_x
_atom_site_fract_y
_atom_site_fract_z
Si Si1 0.622560 0.908563 0.475640
Si Si2 0.842586 0.705649 0.615105
Si Si3 0.011281 0.833186 0.248907
Si Si4 0.345886 0.785898 0.816882
Si Si5 0.064319 0.800598 0.443636
Si Si6 0.349227 0.512782 0.460111
O O1 0.662474 0.846451 0.560269
O O2 0.656004 0.837301 0.388510
O O3 0.525998 0.850733 0.479469
O O4 0.626398 0.073815 0.468463
O O5 0.750000 0.679389 0.656387
O O6 0.921298 0.710801 0.678246
O O7 0.856769 0.586938 0.542640
O O8 0.051560 0.801716 0.341524
O O9 0.919772 0.756455 0.250876
O O10 0.000000 0.000000 0.242963
O O11 0.250000 0.802535 0.782853
O O12 0.369391 0.921374 0.874889
O O13 0.093731 0.648461 0.470288
O O14 0.250000 0.552069 0.452675
#
# Coordination Sequence:
#
# PCOD9363512 Si02
#       6
#     8   8   8   8   8   8
#     4   9  18  36  60  88 119 160 202 249 302 358
#     4  10  23  40  60  89 124 161 203 252 316 373
#     4  11  22  38  59  94 121 161 203 252 318 366
#     4   9  18  37  62  89 120 158 205 252 300 363
#     4  10  19  37  61  93 119 156 212 249 299 370
#     4   9  20  37  63  94 121 160 209 259 310 363
#
# _framework density 20.331208
#
# number of rings (size 3 to 8) (size 9 to 14) (size 15 to 20)
#    0.000    2.333    3.333    1.500    2.333    8.000 
#    0.000    3.333    0.000    0.000    0.000    0.000 
#    0.000    0.000    0.000    0.000    0.000    0.000 
#
# Total GULP energy -133907.202865 kJ/mol
# GULP energy per Si atom -5579.466786 kJ/mol
# Density = 2.028493 g / cm^3
# Si number density = 20.331208 Si / 1000 Ang^3
#
#
#
# Elastic Constant Matrix: (Units=GPa)
#
#
# Indices 1 2 3 4 5 6 
#
# 1 132.0537 54.7820 58.3695 0.0000 0.0000 0.0000
# 2 54.7820 103.9060 6.6012 0.0000 0.0000 0.0000
# 3 58.3695 6.6012 53.3440 0.0000 0.0000 0.0000
# 4 0.0000 0.0000 0.0000 6.7847 0.0000 0.0000
# 5 0.0000 0.0000 0.0000 0.0000 -20.0145 0.0000
# 6 0.0000 0.0000 0.0000 0.0000 0.0000 19.1278
#
#
#
# Elastic Compliance Matrix: (Units=1/GPa)
#
#
# Indices 1 2 3 4 5 6 
#
# 1 0.021624 -0.009976 -0.022427 0.000000 0.000000 0.000000
# 2 -0.009976 0.014303 0.009146 0.000000 0.000000 0.000000
# 3 -0.022427 0.009146 0.042154 0.000000 0.000000 0.000000
# 4 0.000000 0.000000 0.000000 0.147390 0.000000 0.000000
# 5 0.000000 0.000000 0.000000 0.000000 -0.049964 0.000000
# 6 0.000000 0.000000 0.000000 0.000000 0.000000 0.052280
#
#
# Mechanical properties :
#
#
# Convention : Reuss Voigt Hill
#
# Bulk Modulus (GPa) = 31.67858 58.75657 45.21757
# Shear Modulus (GPa) = 17.55477 12.48301 15.01889
#
# Velocity S-wave (km/s) = 2.94162 2.48056 2.72087
# Velocity P-wave (km/s) = 5.21082 6.09644 5.67095
#
# Compressibility (1/GPa) = 0.03156708
#
# Stress axis : x y z
#
# Youngs Moduli (GPa) = 46.24461 69.91706 23.72248
#
# Poissons Ratio (x) = 0.69749 0.53202
# Poissons Ratio (y) = 0.46134 -0.21696
# Poissons Ratio (z) = 1.03712 -0.63946
#
# Static dielectric constant tensor:
#      x y z
#    x 1.839520 0.000000 0.000000 
#    y 0.000000 1.720490 0.000000 
#    z 0.000000 0.000000 1.700660 
# 
# From -- ./inp_files/20534.got.cif
#   From: 2010.05.17/outbox.cif.g08.bks.cpg/sg40_11_cif.got.tgz:20534.got - 2010.06.03 18:35:42.
