data_PCOD9363611
_publ_section_title
;
Structure prediction by ZEFSAII (Michael W. Deem and Ramdas Pophale) SiO2 
 PCOD9363611
Probable space group: A M A 2
;
_chemical_formula_sum "Si O2"
_cell_formula_units_Z 40
_cell_length_a 8.730090
_cell_length_b 26.386663
_cell_length_c 9.972116
_cell_angle_alpha 90.000000
_cell_angle_beta 90.000000
_cell_angle_gamma 90.000000
_cell_volume 2297.156127
_symmetry_space_group_name_H-M "A M A 2"
_symmetry_group_IT_number 40
_symmetry_cell_setting 'orthorhombic'
loop_
_space_group_symop_operation_xyz
x,y,z
-x,-y,z
1/2-x,y,z
1/2+x,-y,z
x,1/2+y,1/2+z
-x,1/2-y,1/2+z
1/2-x,1/2+y,1/2+z
1/2+x,1/2-y,1/2+z
loop_
_atom_site_type_symbol
_atom_site_label
_atom_site_fract_x
_atom_site_fract_y
_atom_site_fract_z
Si Si1 0.935268 0.283219 0.306550
Si Si2 0.934399 0.665854 0.810397
Si Si3 0.433862 0.556140 0.308442
Si Si4 0.434067 0.864051 0.604719
Si Si5 0.433691 0.637033 0.530909
O O1 0.750000 0.285856 0.294152
O O2 0.983263 0.224889 0.309779
O O3 0.976953 0.313475 0.442532
O O4 0.009090 0.314395 0.184926
O O5 0.750000 0.665602 0.807909
O O6 0.994886 0.639411 0.677028
O O7 0.982800 0.640442 0.950083
O O8 0.500000 0.500000 0.311880
O O9 0.250000 0.554939 0.302468
O O10 0.503766 0.411863 0.182521
O O11 0.478494 0.588823 0.440181
O O12 0.250000 0.866191 0.610954
O O13 0.250000 0.636977 0.542914
#
# Coordination Sequence:
#
# PCOD9363611 Si02
#       5
#     8   8   8   8   8
#     4   9  18  33  50  73 106 143 179 213 247 293
#     4  10  20  32  49  76 110 141 172 210 252 298
#     4  10  21  39  60  79  98 127 168 214 260 310
#     4  10  20  34  52  77 106 138 174 211 252 303
#     4   9  19  34  52  75 104 135 170 210 255 304
#
# _framework density 17.412835999999999
#
# number of rings (size 3 to 8) (size 9 to 14) (size 15 to 20)
#    0.000    2.400    0.000    3.600    0.000    8.000 
#    0.000    1.000    0.000    2.400    0.000    0.000 
#    0.000    0.000    0.000    0.000    0.000    0.000 
#
# Total GULP energy -111616.593353 kJ/mol
# GULP energy per Si atom -5580.829668 kJ/mol
# Density = 1.737320 g / cm^3
# Si number density = 17.412836 Si / 1000 Ang^3
#
#
#
# Elastic Constant Matrix: (Units=GPa)
#
#
# Indices 1 2 3 4 5 6 
#
# 1 31.4073 38.5776 43.4730 0.0000 0.0000 0.0000
# 2 38.5776 143.6349 89.1533 0.0000 0.0000 0.0000
# 3 43.4730 89.1533 191.3150 0.0000 0.0000 0.0000
# 4 0.0000 0.0000 0.0000 4.9555 0.0000 0.0000
# 5 0.0000 0.0000 0.0000 0.0000 29.8784 0.0000
# 6 0.0000 0.0000 0.0000 0.0000 0.0000 37.8767
#
#
#
# Elastic Compliance Matrix: (Units=1/GPa)
#
#
# Indices 1 2 3 4 5 6 
#
# 1 0.054820 -0.009837 -0.007873 0.000000 0.000000 0.000000
# 2 -0.009837 0.011561 -0.003152 0.000000 0.000000 0.000000
# 3 -0.007873 -0.003152 0.008485 0.000000 0.000000 0.000000
# 4 0.000000 0.000000 0.000000 0.201798 0.000000 0.000000
# 5 0.000000 0.000000 0.000000 0.000000 0.033469 0.000000
# 6 0.000000 0.000000 0.000000 0.000000 0.000000 0.026401
#
#
# Mechanical properties :
#
#
# Convention : Reuss Voigt Hill
#
# Bulk Modulus (GPa) = 30.17353 78.75168 54.46261
# Shear Modulus (GPa) = 12.84344 27.55233 20.19788
#
# Velocity S-wave (km/s) = 2.71880 3.98213 3.40949
# Velocity P-wave (km/s) = 5.21745 8.15276 6.84431
#
# Compressibility (1/GPa) = 0.03314163
#
# Stress axis : x y z
#
# Youngs Moduli (GPa) = 18.24160 86.50137 117.85833
#
# Poissons Ratio (x) = 0.85091 0.92788
# Poissons Ratio (y) = 0.17944 0.37148
# Poissons Ratio (z) = 0.14361 0.27265
#
# Static dielectric constant tensor:
#      x y z
#    x 1.586750 0.000000 0.000000 
#    y 0.000000 1.570700 0.000000 
#    z 0.000000 0.000000 1.582080 
# 
# From -- ./inp_files/5296.got.cif
#   From: 2010.05.17/outbox.cif.g08.bks.cpg/sg40_3_cif.got.tgz:5296.got - 2010.06.03 18:35:42.
