data_PCOD9363152
_publ_section_title
;
Structure prediction by ZEFSAII (Michael W. Deem and Ramdas Pophale) SiO2 
 PCOD9363152
Probable space group: A M A 2
;
_chemical_formula_sum "Si O2"
_cell_formula_units_Z 64
_cell_length_a 8.713845
_cell_length_b 19.091403
_cell_length_c 21.777474
_cell_angle_alpha 90.000000
_cell_angle_beta 90.000000
_cell_angle_gamma 90.000000
_cell_volume 3622.890265
_symmetry_space_group_name_H-M "A M A 2"
_symmetry_group_IT_number 40
_symmetry_cell_setting 'orthorhombic'
loop_
_space_group_symop_operation_xyz
x,y,z
-x,-y,z
1/2-x,y,z
1/2+x,-y,z
x,1/2+y,1/2+z
-x,1/2-y,1/2+z
1/2-x,1/2+y,1/2+z
1/2+x,1/2-y,1/2+z
loop_
_atom_site_type_symbol
_atom_site_label
_atom_site_fract_x
_atom_site_fract_y
_atom_site_fract_z
Si Si1 0.567934 0.329581 0.612440
Si Si2 0.431721 0.574112 0.842375
Si Si3 0.067914 0.422910 0.508609
Si Si4 0.570404 0.567897 0.707233
Si Si5 0.567321 0.925759 0.746464
Si Si6 0.931482 0.217124 0.705501
Si Si7 0.067097 0.279069 0.831341
Si Si8 0.932926 0.873652 0.882695
O O1 0.750000 0.345139 0.618597
O O2 0.510524 0.360816 0.548345
O O3 0.466775 0.370312 0.662141
O O4 0.546258 0.250959 0.638014
O O5 0.500000 0.500000 0.866886
O O6 0.250000 0.572993 0.849996
O O7 0.477462 0.574264 0.770300
O O8 0.498624 0.650080 0.860888
O O9 0.250000 0.423588 0.519616
O O10 0.000000 0.500000 0.523244
O O11 0.028399 0.405658 0.438059
O O12 0.500000 0.500000 0.675081
O O13 0.750000 0.560972 0.720404
O O14 0.750000 0.925451 0.740946
O O15 0.499606 0.860116 0.710095
O O16 0.530331 0.911078 0.818233
O O17 0.500000 0.000000 0.727597
O O18 0.750000 0.215964 0.717294
O O19 0.003264 0.261234 0.762867
O O20 0.250000 0.288106 0.825269
O O21 0.037456 0.209062 0.871091
O O22 0.750000 0.882141 0.894744
#
# Coordination Sequence:
#
# PCOD9363152 Si02
#       8
#     8   8   8   8   8   8   8   8
#     4  11  22  36  52  72 102 138 177 219 262 311
#     4  11  20  30  45  69 101 136 173 212 257 310
#     4  12  25  39  56  77 105 143 185 227 265 310
#     4  11  20  30  45  65  95 132 172 211 251 301
#     4  10  20  34  55  81 110 140 173 216 268 320
#     4  10  20  33  52  76 104 137 174 215 264 321
#     4  10  19  33  53  76 104 137 174 220 270 320
#     4   9  20  37  56  78 105 139 178 222 269 315
#
# _framework density 17.665454
#
# number of rings (size 3 to 8) (size 9 to 14) (size 15 to 20)
#    0.000    1.500    1.250    7.125    0.000    5.500 
#    0.000    0.000    0.000    0.000    0.000    0.875 
#    0.000    0.000    0.000    0.000    0.000    0.125 
#
# Total GULP energy -178476.404453 kJ/mol
# GULP energy per Si atom -5577.387639 kJ/mol
# Density = 1.762525 g / cm^3
# Si number density = 17.665454 Si / 1000 Ang^3
#
#
#
# Elastic Constant Matrix: (Units=GPa)
#
#
# Indices 1 2 3 4 5 6 
#
# 1 99.4710 53.2924 25.2763 0.0000 0.0000 0.0000
# 2 53.2924 128.4461 21.7412 0.0000 0.0000 0.0000
# 3 25.2763 21.7412 42.0005 0.0000 0.0000 0.0000
# 4 0.0000 0.0000 0.0000 10.1934 0.0000 0.0000
# 5 0.0000 0.0000 0.0000 0.0000 43.2619 0.0000
# 6 0.0000 0.0000 0.0000 0.0000 0.0000 38.1377
#
#
#
# Elastic Compliance Matrix: (Units=1/GPa)
#
#
# Indices 1 2 3 4 5 6 
#
# 1 0.014192 -0.004869 -0.006020 0.000000 0.000000 0.000000
# 2 -0.004869 0.010204 -0.002352 0.000000 0.000000 0.000000
# 3 -0.006020 -0.002352 0.028650 0.000000 0.000000 0.000000
# 4 0.000000 0.000000 0.000000 0.098103 0.000000 0.000000
# 5 0.000000 0.000000 0.000000 0.000000 0.023115 0.000000
# 6 0.000000 0.000000 0.000000 0.000000 0.000000 0.026221
#
#
# Mechanical properties :
#
#
# Convention : Reuss Voigt Hill
#
# Bulk Modulus (GPa) = 37.64630 52.28194 44.96412
# Shear Modulus (GPa) = 21.20264 29.62575 25.41419
#
# Velocity S-wave (km/s) = 3.46819 4.09962 3.79705
# Velocity P-wave (km/s) = 6.11513 7.21588 6.68819
#
# Compressibility (1/GPa) = 0.02656304
#
# Stress axis : x y z
#
# Youngs Moduli (GPa) = 70.46404 98.00459 34.90461
#
# Poissons Ratio (x) = 0.47720 0.21013
# Poissons Ratio (y) = 0.34310 0.08208
# Poissons Ratio (z) = 0.42421 0.23046
#
# Static dielectric constant tensor:
#      x y z
#    x 1.593750 0.000000 0.000000 
#    y 0.000000 1.825990 0.000000 
#    z 0.000000 0.000000 1.593700 
# 
# From -- ./inp_files/22425.got.cif
#   From: 2010.05.17/outbox.cif.g08.bks.cpg/sg40_12_cif.got.tgz:22425.got - 2010.06.03 18:35:42.
