data_PCOD9363058
_publ_section_title
;
Structure prediction by ZEFSAII (Michael W. Deem and Ramdas Pophale) SiO2 
 PCOD9363058
Probable space group: A M A 2
;
_chemical_formula_sum "Si O2"
_cell_formula_units_Z 64
_cell_length_a 14.586954
_cell_length_b 9.613710
_cell_length_c 20.981768
_cell_angle_alpha 90.000000
_cell_angle_beta 90.000000
_cell_angle_gamma 90.000000
_cell_volume 2942.372896
_symmetry_space_group_name_H-M "A M A 2"
_symmetry_group_IT_number 40
_symmetry_cell_setting 'orthorhombic'
loop_
_space_group_symop_operation_xyz
x,y,z
-x,-y,z
1/2-x,y,z
1/2+x,-y,z
x,1/2+y,1/2+z
-x,1/2-y,1/2+z
1/2-x,1/2+y,1/2+z
1/2+x,1/2-y,1/2+z
loop_
_atom_site_type_symbol
_atom_site_label
_atom_site_fract_x
_atom_site_fract_y
_atom_site_fract_z
Si Si1 0.862247 0.843098 0.070620
Si Si2 0.145831 0.161831 0.837339
Si Si3 0.862466 0.529222 0.451364
Si Si4 0.105339 0.979479 0.719914
Si Si5 0.637301 0.525996 0.831604
Si Si6 0.141219 0.153555 0.213198
Si Si7 0.859959 0.025815 0.572264
Si Si8 0.637733 0.346918 0.954520
O O1 0.750000 0.843606 0.071435
O O2 0.895315 0.876177 0.142239
O O3 0.890836 0.683525 0.058108
O O4 0.889855 0.949319 0.015756
O O5 0.250000 0.187751 0.859797
O O6 0.105740 0.059664 0.890544
O O7 0.103960 0.314926 0.831903
O O8 0.151120 0.082372 0.770174
O O9 0.750000 0.534015 0.450329
O O10 0.893708 0.688323 0.448695
O O11 0.130748 0.817628 0.728165
O O12 0.119963 0.012410 0.645392
O O13 0.000000 0.000000 0.734333
O O14 0.750000 0.526262 0.829606
O O15 0.605256 0.442363 0.769485
O O16 0.611106 0.442418 0.894933
O O17 0.250000 0.128191 0.209642
O O18 0.750000 0.028827 0.567232
O O19 0.893910 0.917651 0.520090
O O20 0.750000 0.344532 0.955103
#
# Coordination Sequence:
#
# PCOD9363058 Si02
#       8
#     8   8   8   8   8   8   8   8
#     4   8  14  25  43  69  97 126 159 197 242 289
#     4  10  19  32  52  76 102 132 168 209 251 298
#     4   9  16  26  46  77 107 130 159 205 254 297
#     4  11  22  35  51  72 101 135 172 212 255 302
#     4   9  17  29  50  81 108 131 165 209 252 295
#     4   9  17  32  54  76 101 133 168 206 250 300
#     4   9  17  31  51  72  97 130 168 208 251 300
#     4   9  16  26  45  75 106 131 159 202 251 297
#
# _framework density 21.751152000000001
#
# number of rings (size 3 to 8) (size 9 to 14) (size 15 to 20)
#    0.000    2.750    0.000    3.375    0.000    6.000 
#    0.000    4.375    0.000    9.000    0.000    0.000 
#    0.000    0.000    0.000    0.000    0.000    0.000 
#
# Total GULP energy -178691.185358 kJ/mol
# GULP energy per Si atom -5584.099542 kJ/mol
# Density = 2.170165 g / cm^3
# Si number density = 21.751152 Si / 1000 Ang^3
#
#
#
# Elastic Constant Matrix: (Units=GPa)
#
#
# Indices 1 2 3 4 5 6 
#
# 1 44.2422 6.1036 2.0631 0.0000 0.0000 0.0000
# 2 6.1036 214.5239 146.4420 0.0000 0.0000 0.0000
# 3 2.0631 146.4420 168.7377 0.0000 0.0000 0.0000
# 4 0.0000 0.0000 0.0000 42.7804 0.0000 0.0000
# 5 0.0000 0.0000 0.0000 0.0000 -16.6163 0.0000
# 6 0.0000 0.0000 0.0000 0.0000 0.0000 -1.9896
#
#
#
# Elastic Compliance Matrix: (Units=1/GPa)
#
#
# Indices 1 2 3 4 5 6 
#
# 1 0.022725 -0.001121 0.000695 0.000000 0.000000 0.000000
# 2 -0.001121 0.011493 -0.009961 0.000000 0.000000 0.000000
# 3 0.000695 -0.009961 0.014562 0.000000 0.000000 0.000000
# 4 0.000000 0.000000 0.000000 0.023375 0.000000 0.000000
# 5 0.000000 0.000000 0.000000 0.000000 -0.060182 0.000000
# 6 0.000000 0.000000 0.000000 0.000000 0.000000 -0.502622
#
#
# Mechanical properties :
#
#
# Convention : Reuss Voigt Hill
#
# Bulk Modulus (GPa) = 35.70510 81.85790 58.78150
# Shear Modulus (GPa) = -10.85683 23.02791 6.08554
#
# Velocity S-wave (km/s) = -2.23656 3.25729 1.67448
# Velocity P-wave (km/s) = 3.12750 7.20154 5.55173
#
# Compressibility (1/GPa) = 0.02800720
#
# Stress axis : x y z
#
# Youngs Moduli (GPa) = 44.00416 87.01086 68.67053
#
# Poissons Ratio (x) = 0.09754 -0.04773
# Poissons Ratio (y) = 0.04933 0.68400
# Poissons Ratio (z) = -0.03059 0.86668
#
# Static dielectric constant tensor:
#      x y z
#    x 1.766990 0.000000 0.000000 
#    y 0.000000 1.738170 0.000000 
#    z 0.000000 0.000000 1.777150 
# 
# From -- ./inp_files/23356.got.cif
#   From: 2010.05.17/outbox.cif.g08.bks.cpg/sg40_12_cif.got.tgz:23356.got - 2010.06.03 18:35:42.
