data_PCOD9363520
_publ_section_title
;
Structure prediction by ZEFSAII (Michael W. Deem and Ramdas Pophale) SiO2 
 PCOD9363520
Probable space group: A M A 2
;
_chemical_formula_sum "Si O2"
_cell_formula_units_Z 64
_cell_length_a 8.250357
_cell_length_b 31.869253
_cell_length_c 12.288249
_cell_angle_alpha 90.000000
_cell_angle_beta 90.000000
_cell_angle_gamma 90.000000
_cell_volume 3230.982667
_symmetry_space_group_name_H-M "A M A 2"
_symmetry_group_IT_number 40
_symmetry_cell_setting 'orthorhombic'
loop_
_space_group_symop_operation_xyz
x,y,z
-x,-y,z
1/2-x,y,z
1/2+x,-y,z
x,1/2+y,1/2+z
-x,1/2-y,1/2+z
1/2-x,1/2+y,1/2+z
1/2+x,1/2-y,1/2+z
loop_
_atom_site_type_symbol
_atom_site_label
_atom_site_fract_x
_atom_site_fract_y
_atom_site_fract_z
Si Si1 0.943700 0.455057 0.088550
Si Si2 0.052803 0.068717 0.827255
Si Si3 0.056127 0.874833 0.450496
Si Si4 0.944255 0.203545 0.056030
Si Si5 0.553693 0.297810 0.096955
Si Si6 0.554337 0.333425 0.329460
Si Si7 0.053943 0.874292 0.200949
Si Si8 0.943927 0.455165 0.565529
O O1 0.750000 0.454410 0.092051
O O2 0.006106 0.450269 0.213260
O O3 0.000000 0.500000 0.044526
O O4 0.998260 0.415284 0.018144
O O5 0.250000 0.066091 0.826662
O O6 0.008690 0.117722 0.829193
O O7 0.994728 0.049009 0.940489
O O8 0.250000 0.875622 0.448739
O O9 0.996926 0.875988 0.325721
O O10 0.001838 0.832320 0.510231
O O11 0.750000 0.204978 0.068937
O O12 0.005695 0.250645 0.075487
O O13 0.005219 0.167634 0.138805
O O14 0.984789 0.188988 0.934784
O O15 0.750000 0.297744 0.095455
O O16 0.501528 0.312670 0.216697
O O17 0.750000 0.331410 0.334876
O O18 0.250000 0.873011 0.201784
O O19 0.003086 0.915495 0.134448
O O20 0.750000 0.453979 0.563415
O O21 0.000000 0.500000 0.610224
#
# Coordination Sequence:
#
# PCOD9363520 Si02
#       8
#     8   8   8   8   8   8   8   8
#     4  11  22  40  63  89 122 156 194 242 296 354
#     4   9  18  35  59  88 119 152 190 234 291 349
#     4  11  24  41  62  87 117 156 203 247 293 349
#     4  10  22  39  60  89 120 155 197 244 295 347
#     4  10  22  40  62  87 122 160 195 241 300 351
#     4  10  19  37  63  88 118 157 195 239 294 350
#     4  10  23  42  60  83 118 157 197 244 294 346
#     4  11  22  38  61  89 118 152 194 240 291 352
#
# _framework density 19.808215000000001
#
# number of rings (size 3 to 8) (size 9 to 14) (size 15 to 20)
#    0.000    1.750    2.500    1.500    1.750    2.500 
#    0.000    1.875    0.000    0.000    0.000    0.000 
#    0.000    0.000    0.000    0.000    0.000    0.000 
#
# Total GULP energy -178776.819831 kJ/mol
# GULP energy per Si atom -5586.775620 kJ/mol
# Density = 1.976313 g / cm^3
# Si number density = 19.808215 Si / 1000 Ang^3
#
#
#
# Elastic Constant Matrix: (Units=GPa)
#
#
# Indices 1 2 3 4 5 6 
#
# 1 18.9622 17.4199 16.5164 0.0000 0.0000 0.0000
# 2 17.4199 198.8210 89.0468 0.0000 0.0000 0.0000
# 3 16.5164 89.0468 155.7438 0.0000 0.0000 0.0000
# 4 0.0000 0.0000 0.0000 27.9176 0.0000 0.0000
# 5 0.0000 0.0000 0.0000 0.0000 31.3228 0.0000
# 6 0.0000 0.0000 0.0000 0.0000 0.0000 27.2755
#
#
#
# Elastic Compliance Matrix: (Units=1/GPa)
#
#
# Indices 1 2 3 4 5 6 
#
# 1 0.059593 -0.003214 -0.004482 0.000000 0.000000 0.000000
# 2 -0.003214 0.006934 -0.003624 0.000000 0.000000 0.000000
# 3 -0.004482 -0.003624 0.008968 0.000000 0.000000 0.000000
# 4 0.000000 0.000000 0.000000 0.035820 0.000000 0.000000
# 5 0.000000 0.000000 0.000000 0.000000 0.031926 0.000000
# 6 0.000000 0.000000 0.000000 0.000000 0.000000 0.036663
#
#
# Mechanical properties :
#
#
# Convention : Reuss Voigt Hill
#
# Bulk Modulus (GPa) = 18.91948 68.83257 43.87603
# Shear Modulus (GPa) = 22.71054 34.00611 28.35832
#
# Velocity S-wave (km/s) = 3.38971 4.14788 3.78781
# Velocity P-wave (km/s) = 4.98921 7.60032 6.42873
#
# Compressibility (1/GPa) = 0.05285557
#
# Stress axis : x y z
#
# Youngs Moduli (GPa) = 16.78047 144.21148 111.50644
#
# Poissons Ratio (x) = 0.46347 0.49980
# Poissons Ratio (y) = 0.05393 0.40408
# Poissons Ratio (z) = 0.07521 0.52260
#
# Static dielectric constant tensor:
#      x y z
#    x 1.697230 0.000000 0.000000 
#    y 0.000000 1.676350 0.000000 
#    z 0.000000 0.000000 1.685360 
# 
# From -- ./inp_files/10617.got.cif
#   From: 2010.05.17/outbox.cif.g08.bks.cpg/sg40_6_cif.got.tgz:10617.got - 2010.06.03 18:35:42.
