data_PCOD9363351
_publ_section_title
;
Structure prediction by ZEFSAII (Michael W. Deem and Ramdas Pophale) SiO2 
 PCOD9363351
Probable space group: A M A 2
;
_chemical_formula_sum "Si O2"
_cell_formula_units_Z 64
_cell_length_a 7.884483
_cell_length_b 31.578682
_cell_length_c 14.687734
_cell_angle_alpha 90.000000
_cell_angle_beta 90.000000
_cell_angle_gamma 90.000000
_cell_volume 3656.975238
_symmetry_space_group_name_H-M "A M A 2"
_symmetry_group_IT_number 40
_symmetry_cell_setting 'orthorhombic'
loop_
_space_group_symop_operation_xyz
x,y,z
-x,-y,z
1/2-x,y,z
1/2+x,-y,z
x,1/2+y,1/2+z
-x,1/2-y,1/2+z
1/2-x,1/2+y,1/2+z
1/2+x,1/2-y,1/2+z
loop_
_atom_site_type_symbol
_atom_site_label
_atom_site_fract_x
_atom_site_fract_y
_atom_site_fract_z
Si Si1 0.455382 0.301988 0.491330
Si Si2 0.051713 0.775506 0.798663
Si Si3 0.550305 0.283391 0.092426
Si Si4 0.052364 0.819639 0.322417
Si Si5 0.547698 0.365553 0.641964
Si Si6 0.953443 0.453117 0.721124
Si Si7 0.545194 0.452848 0.930577
Si Si8 0.553399 0.366433 0.996410
O O1 0.250000 0.300188 0.490211
O O2 0.514147 0.300758 0.386656
O O3 0.517726 0.259570 0.544996
O O4 0.507101 0.343398 0.546917
O O5 0.250000 0.784812 0.786397
O O6 0.967070 0.781593 0.700929
O O7 0.029047 0.726506 0.825914
O O8 0.750000 0.283908 0.069015
O O9 0.476536 0.327511 0.053792
O O10 0.250000 0.817146 0.347268
O O11 0.035335 0.837324 0.220942
O O12 0.957836 0.850199 0.392432
O O13 0.750000 0.363893 0.655600
O O14 0.489556 0.413735 0.659606
O O15 0.750000 0.451298 0.725444
O O16 0.017577 0.448521 0.825632
O O17 0.000000 0.500000 0.688539
O O18 0.500000 0.500000 0.961893
O O19 0.750000 0.449565 0.927802
O O20 0.479898 0.413816 0.991484
O O21 0.750000 0.370459 0.024852
#
# Coordination Sequence:
#
# PCOD9363351 Si02
#       8
#     8   8   8   8   8   8   8   8
#     4  10  21  35  51  73  99 131 167 206 247 290
#     4  11  22  37  52  68 100 136 167 206 251 290
#     4  10  20  34  52  74  99 128 170 209 244 292
#     4  12  22  30  47  73 101 132 171 209 241 286
#     4  11  21  34  51  72 100 135 170 203 245 295
#     4   9  18  31  48  71  99 130 163 198 241 294
#     4   9  17  30  48  70  99 132 163 197 244 294
#     4  10  19  35  52  69 100 138 168 203 250 293
#
# _framework density 17.500800999999999
#
# number of rings (size 3 to 8) (size 9 to 14) (size 15 to 20)
#    0.000    1.750    3.750    1.875    0.000    3.000 
#    0.000    0.000    0.000    0.000    0.000    0.875 
#    0.000    2.000    0.000    0.000    0.000    0.000 
#
# Total GULP energy -178496.508984 kJ/mol
# GULP energy per Si atom -5578.015906 kJ/mol
# Density = 1.746097 g / cm^3
# Si number density = 17.500801 Si / 1000 Ang^3
#
#
#
# Elastic Constant Matrix: (Units=GPa)
#
#
# Indices 1 2 3 4 5 6 
#
# 1 24.3403 0.5352 0.3997 0.0000 0.0000 0.0000
# 2 0.5352 94.5065 12.4007 0.0000 0.0000 0.0000
# 3 0.3997 12.4007 42.9186 0.0000 0.0000 0.0000
# 4 0.0000 0.0000 0.0000 25.2891 0.0000 0.0000
# 5 0.0000 0.0000 0.0000 0.0000 22.2663 0.0000
# 6 0.0000 0.0000 0.0000 0.0000 0.0000 26.6607
#
#
#
# Elastic Compliance Matrix: (Units=1/GPa)
#
#
# Indices 1 2 3 4 5 6 
#
# 1 0.041094 -0.000190 -0.000328 0.000000 0.000000 0.000000
# 2 -0.000190 0.010999 -0.003176 0.000000 0.000000 0.000000
# 3 -0.000328 -0.003176 0.024221 0.000000 0.000000 0.000000
# 4 0.000000 0.000000 0.000000 0.039543 0.000000 0.000000
# 5 0.000000 0.000000 0.000000 0.000000 0.044911 0.000000
# 6 0.000000 0.000000 0.000000 0.000000 0.000000 0.037508
#
#
# Mechanical properties :
#
#
# Convention : Reuss Voigt Hill
#
# Bulk Modulus (GPa) = 14.50837 20.93740 17.72289
# Shear Modulus (GPa) = 21.86859 24.73855 23.30357
#
# Velocity S-wave (km/s) = 3.53877 3.76382 3.65303
# Velocity P-wave (km/s) = 5.00053 5.55681 5.28599
#
# Compressibility (1/GPa) = 0.06892571
#
# Stress axis : x y z
#
# Youngs Moduli (GPa) = 24.33469 90.91624 41.28694
#
# Poissons Ratio (x) = 0.01724 0.01354
# Poissons Ratio (y) = 0.00462 0.13114
# Poissons Ratio (z) = 0.00798 0.28878
#
# Static dielectric constant tensor:
#      x y z
#    x 1.634250 0.000000 0.000000 
#    y 0.000000 1.619690 0.000000 
#    z 0.000000 0.000000 1.588490 
# 
# From -- ./inp_files/15859.got.cif
#   From: 2010.05.17/outbox.cif.g08.bks.cpg/sg40_8_cif.got.tgz:15859.got - 2010.06.03 18:35:42.
