data_PCOD9363761
_publ_section_title
;
Structure prediction by ZEFSAII (Michael W. Deem and Ramdas Pophale) SiO2 
 PCOD9363761
Probable space group: A M A 2
;
_chemical_formula_sum "Si O2"
_cell_formula_units_Z 48
_cell_length_a 14.738539
_cell_length_b 9.740813
_cell_length_c 12.189939
_cell_angle_alpha 90.000000
_cell_angle_beta 90.000000
_cell_angle_gamma 90.000000
_cell_volume 1750.052887
_symmetry_space_group_name_H-M "A M A 2"
_symmetry_group_IT_number 40
_symmetry_cell_setting 'orthorhombic'
loop_
_space_group_symop_operation_xyz
x,y,z
-x,-y,z
1/2-x,y,z
1/2+x,-y,z
x,1/2+y,1/2+z
-x,1/2-y,1/2+z
1/2-x,1/2+y,1/2+z
1/2+x,1/2-y,1/2+z
loop_
_atom_site_type_symbol
_atom_site_label
_atom_site_fract_x
_atom_site_fract_y
_atom_site_fract_z
Si Si1 0.359568 0.173526 0.210970
Si Si2 0.855897 0.210696 0.490824
Si Si3 0.355956 0.364651 0.632850
Si Si4 0.891307 0.009534 0.901912
Si Si5 0.905637 0.923159 0.673520
Si Si6 0.856040 0.933963 0.424050
O O1 0.250000 0.192720 0.204709
O O2 0.379618 0.015543 0.177519
O O3 0.393288 0.176320 0.336517
O O4 0.395649 0.267426 0.112528
O O5 0.750000 0.174741 0.501068
O O6 0.859411 0.360150 0.440534
O O7 0.897639 0.087711 0.420199
O O8 0.250000 0.340057 0.657222
O O9 0.365109 0.386129 0.499931
O O10 0.409355 0.241618 0.692441
O O11 0.859764 0.007274 0.774423
O O12 0.000000 0.000000 0.898089
O O13 0.859708 0.913376 0.554204
O O14 0.000000 0.000000 0.658906
O O15 0.750000 0.938395 0.392308
#
# Coordination Sequence:
#
# PCOD9363761 Si02
#       6
#     8   8   8   8   8   8
#     4   8  16  33  56  85 111 141 197 251 293 354
#     4   9  18  34  59  86 112 149 199 250 299 361
#     4  10  21  40  66  91 120 164 214 261 314 381
#     4  10  22  39  62  90 122 161 209 261 318 380
#     4  11  25  40  55  88 131 164 205 256 318 381
#     4  10  20  34  56  82 114 157 195 242 304 364
#
# _framework density 27.427743
#
# number of rings (size 3 to 8) (size 9 to 14) (size 15 to 20)
#    0.000    2.333    0.000    3.000    2.333    5.333 
#    0.000    5.000    0.000    0.000    0.000    0.000 
#    0.000    0.000    0.000    0.000    0.000    0.000 
#
# Total GULP energy -134049.684335 kJ/mol
# GULP energy per Si atom -5585.403514 kJ/mol
# Density = 2.736532 g / cm^3
# Si number density = 27.427743 Si / 1000 Ang^3
#
#
#
# Elastic Constant Matrix: (Units=GPa)
#
#
# Indices 1 2 3 4 5 6 
#
# 1 73.3181 11.9177 -2.7364 0.0000 0.0000 0.0000
# 2 11.9177 58.2733 16.6866 0.0000 0.0000 0.0000
# 3 -2.7364 16.6866 181.2291 0.0000 0.0000 0.0000
# 4 0.0000 0.0000 0.0000 65.6683 0.0000 0.0000
# 5 0.0000 0.0000 0.0000 0.0000 22.5553 0.0000
# 6 0.0000 0.0000 0.0000 0.0000 0.0000 25.8125
#
#
#
# Elastic Compliance Matrix: (Units=1/GPa)
#
#
# Indices 1 2 3 4 5 6 
#
# 1 0.014151 -0.003035 0.000493 0.000000 0.000000 0.000000
# 2 -0.003035 0.018276 -0.001729 0.000000 0.000000 0.000000
# 3 0.000493 -0.001729 0.005684 0.000000 0.000000 0.000000
# 4 0.000000 0.000000 0.000000 0.015228 0.000000 0.000000
# 5 0.000000 0.000000 0.000000 0.000000 0.044336 0.000000
# 6 0.000000 0.000000 0.000000 0.000000 0.000000 0.038741
#
#
# Mechanical properties :
#
#
# Convention : Reuss Voigt Hill
#
# Bulk Modulus (GPa) = 33.81780 40.50626 37.16203
# Shear Modulus (GPa) = 32.29673 41.93739 37.11706
#
# Velocity S-wave (km/s) = 3.43522 3.91450 3.68267
# Velocity P-wave (km/s) = 5.30009 5.93561 5.62683
#
# Compressibility (1/GPa) = 0.02957022
#
# Stress axis : x y z
#
# Youngs Moduli (GPa) = 70.66649 54.71577 175.91744
#
# Poissons Ratio (x) = 0.16608 -0.08675
# Poissons Ratio (y) = 0.21449 0.30409
# Poissons Ratio (z) = -0.03485 0.09458
#
# Static dielectric constant tensor:
#      x y z
#    x 1.908990 0.000000 0.000000 
#    y 0.000000 2.308140 0.000000 
#    z 0.000000 0.000000 2.275010 
# 
# From -- ./inp_files/12878.got.cif
#   From: 2010.05.17/outbox.cif.g08.bks.cpg/sg40_7_cif.got.tgz:12878.got - 2010.06.03 18:35:42.
