data_PCOD9363524
_publ_section_title
;
Structure prediction by ZEFSAII (Michael W. Deem and Ramdas Pophale) SiO2 
 PCOD9363524
Probable space group: A M A 2
;
_chemical_formula_sum "Si O2"
_cell_formula_units_Z 64
_cell_length_a 8.887686
_cell_length_b 31.434933
_cell_length_c 12.135127
_cell_angle_alpha 90.000000
_cell_angle_beta 90.000000
_cell_angle_gamma 90.000000
_cell_volume 3390.358064
_symmetry_space_group_name_H-M "A M A 2"
_symmetry_group_IT_number 40
_symmetry_cell_setting 'orthorhombic'
loop_
_space_group_symop_operation_xyz
x,y,z
-x,-y,z
1/2-x,y,z
1/2+x,-y,z
x,1/2+y,1/2+z
-x,1/2-y,1/2+z
1/2-x,1/2+y,1/2+z
1/2+x,1/2-y,1/2+z
loop_
_atom_site_type_symbol
_atom_site_label
_atom_site_fract_x
_atom_site_fract_y
_atom_site_fract_z
Si Si1 0.930842 0.202012 0.600310
Si Si2 0.568692 0.043941 0.073201
Si Si3 0.927185 0.566902 0.326470
Si Si4 0.569240 0.127243 0.213860
Si Si5 0.571034 0.800104 0.064259
Si Si6 0.426301 0.331364 0.342313
Si Si7 0.929284 0.956247 0.596297
Si Si8 0.569305 0.372870 0.956492
O O1 0.750000 0.197626 0.586337
O O2 0.972463 0.250835 0.578932
O O3 0.966255 0.189778 0.726229
O O4 0.010906 0.168805 0.519934
O O5 0.750000 0.041652 0.074434
O O6 0.524932 0.085296 0.143711
O O7 0.500000 0.000000 0.115727
O O8 0.521551 0.050204 0.945604
O O9 0.750000 0.556470 0.312384
O O10 0.940913 0.617936 0.330264
O O11 0.016840 0.549944 0.222002
O O12 0.750000 0.128406 0.219390
O O13 0.510599 0.168665 0.149637
O O14 0.500383 0.125319 0.335221
O O15 0.750000 0.803493 0.080519
O O16 0.525309 0.814892 0.942416
O O17 0.250000 0.322393 0.366500
O O18 0.750000 0.959280 0.593147
O O19 0.975858 0.914769 0.526449
O O20 0.000000 0.000000 0.553072
O O21 0.750000 0.371900 0.949935
#
# Coordination Sequence:
#
# PCOD9363524 Si02
#       8
#     8   8   8   8   8   8   8   8
#     4  10  23  42  64  92 125 165 206 249 306 365
#     4  10  22  39  60  89 120 156 201 248 303 364
#     4  10  19  37  63  90 122 158 202 248 299 362
#     4  11  24  44  65  87 121 165 208 250 309 371
#     4  11  24  40  62  96 128 159 207 256 304 360
#     4  10  20  39  65  90 124 166 204 247 305 365
#     4  11  24  40  61  91 124 159 202 249 305 364
#     4  11  25  43  63  91 123 158 207 259 306 359
#
# _framework density 18.877061999999999
#
# number of rings (size 3 to 8) (size 9 to 14) (size 15 to 20)
#    0.000    1.500    2.500    1.875    1.750    6.500 
#    0.000    2.500    0.000    0.000    0.000    0.000 
#    0.000    0.000    0.000    0.000    0.000    0.000 
#
# Total GULP energy -178884.742902 kJ/mol
# GULP energy per Si atom -5590.148216 kJ/mol
# Density = 1.883410 g / cm^3
# Si number density = 18.877062 Si / 1000 Ang^3
#
#
#
# Elastic Constant Matrix: (Units=GPa)
#
#
# Indices 1 2 3 4 5 6 
#
# 1 43.6373 55.9198 47.8980 0.0000 0.0000 0.0000
# 2 55.9198 160.2693 81.6441 0.0000 0.0000 0.0000
# 3 47.8980 81.6441 128.9737 0.0000 0.0000 0.0000
# 4 0.0000 0.0000 0.0000 42.5952 0.0000 0.0000
# 5 0.0000 0.0000 0.0000 0.0000 -372.5903 0.0000
# 6 0.0000 0.0000 0.0000 0.0000 0.0000 30.3284
#
#
#
# Elastic Compliance Matrix: (Units=1/GPa)
#
#
# Indices 1 2 3 4 5 6 
#
# 1 0.050469 -0.011898 -0.011211 0.000000 0.000000 0.000000
# 2 -0.011898 0.012014 -0.003187 0.000000 0.000000 0.000000
# 3 -0.011211 -0.003187 0.013934 0.000000 0.000000 0.000000
# 4 0.000000 0.000000 0.000000 0.023477 0.000000 0.000000
# 5 0.000000 0.000000 0.000000 0.000000 -0.002684 0.000000
# 6 0.000000 0.000000 0.000000 0.000000 0.000000 0.032972
#
#
# Mechanical properties :
#
#
# Convention : Reuss Voigt Hill
#
# Bulk Modulus (GPa) = 41.97148 78.20043 60.08595
# Shear Modulus (GPa) = 26.21686 -50.10544 -11.94429
#
# Velocity S-wave (km/s) = 3.73073 -5.15758 -2.51816
# Velocity P-wave (km/s) = 6.39063 2.45938 4.84194
#
# Compressibility (1/GPa) = 0.02382571
#
# Stress axis : x y z
#
# Youngs Moduli (GPa) = 19.81410 83.23491 71.76463
#
# Poissons Ratio (x) = 0.99033 0.80458
# Poissons Ratio (y) = 0.23575 0.22869
# Poissons Ratio (z) = 0.22214 0.26524
#
# Static dielectric constant tensor:
#      x y z
#    x 1.637810 0.000000 0.000000 
#    y 0.000000 1.643540 0.000000 
#    z 0.000000 0.000000 1.622780 
# 
# From -- ./inp_files/10552.got.cif
#   From: 2010.05.17/outbox.cif.g08.bks.cpg/sg40_6_cif.got.tgz:10552.got - 2010.06.03 18:35:42.
