data_PCOD9363236
_publ_section_title
;
Structure prediction by ZEFSAII (Michael W. Deem and Ramdas Pophale) SiO2 
 PCOD9363236
Probable space group: A M A 2
;
_chemical_formula_sum "Si O2"
_cell_formula_units_Z 64
_cell_length_a 18.753969
_cell_length_b 12.675806
_cell_length_c 15.092562
_cell_angle_alpha 90.000000
_cell_angle_beta 90.000000
_cell_angle_gamma 90.000000
_cell_volume 3587.829085
_symmetry_space_group_name_H-M "A M A 2"
_symmetry_group_IT_number 40
_symmetry_cell_setting 'orthorhombic'
loop_
_space_group_symop_operation_xyz
x,y,z
-x,-y,z
1/2-x,y,z
1/2+x,-y,z
x,1/2+y,1/2+z
-x,1/2-y,1/2+z
1/2-x,1/2+y,1/2+z
1/2+x,1/2-y,1/2+z
loop_
_atom_site_type_symbol
_atom_site_label
_atom_site_fract_x
_atom_site_fract_y
_atom_site_fract_z
Si Si1 0.834342 0.353442 0.738750
Si Si2 0.163987 0.916074 0.281150
Si Si3 0.565973 0.716860 0.362390
Si Si4 0.915969 0.514733 0.265999
Si Si5 0.543970 0.340819 0.033564
Si Si6 0.892806 0.555816 0.978765
Si Si7 0.073903 0.213324 0.737645
Si Si8 0.170417 0.343275 0.133264
O O1 0.750000 0.349483 0.759249
O O2 0.851955 0.475990 0.727452
O O3 0.878190 0.297034 0.816998
O O4 0.848221 0.277584 0.654732
O O5 0.250000 0.903793 0.287686
O O6 0.128047 0.938064 0.376713
O O7 0.126138 0.812725 0.242519
O O8 0.590093 0.595759 0.347508
O O9 0.557038 0.747155 0.464109
O O10 0.493299 0.730046 0.304162
O O11 0.888611 0.395550 0.270234
O O12 0.881463 0.579718 0.186488
O O13 0.000000 0.500000 0.248251
O O14 0.599470 0.435700 0.012716
O O15 0.467626 0.388921 0.004612
O O16 0.548623 0.307321 0.136159
O O17 0.835242 0.622542 0.032822
O O18 0.250000 0.360604 0.167659
#
# Coordination Sequence:
#
# PCOD9363236 Si02
#       8
#     8   8   8   8   8   8   8   8
#     4   9  19  35  56  84 115 151 190 237 293 349
#     4  11  23  39  57  84 127 161 190 246 305 356
#     4  10  19  36  60  84 113 150 194 244 296 345
#     4   9  18  34  57  80 116 148 184 241 289 342
#     4  11  21  35  61  88 114 151 199 254 292 349
#     4  11  20  36  58  90 115 144 199 254 297 345
#     4  11  22  38  57  86 122 156 197 241 301 360
#     4  10  19  33  57  86 111 146 195 238 286 348
#
# _framework density 17.838083999999998
#
# number of rings (size 3 to 8) (size 9 to 14) (size 15 to 20)
#    0.000    1.750    3.750    2.625    1.750    1.000 
#    0.000    1.875    5.500    0.000    0.000    0.000 
#    0.000    0.000    0.000    0.000    0.000    0.000 
#
# Total GULP energy -178297.804050 kJ/mol
# GULP energy per Si atom -5571.806377 kJ/mol
# Density = 1.779748 g / cm^3
# Si number density = 17.838084 Si / 1000 Ang^3
#
#
#
# Elastic Constant Matrix: (Units=GPa)
#
#
# Indices 1 2 3 4 5 6 
#
# 1 34.4275 42.6691 4.5428 0.0000 0.0000 0.0000
# 2 42.6691 162.2601 42.5686 0.0000 0.0000 0.0000
# 3 4.5428 42.5686 81.2333 0.0000 0.0000 0.0000
# 4 0.0000 0.0000 0.0000 28.6607 0.0000 0.0000
# 5 0.0000 0.0000 0.0000 0.0000 16.3823 0.0000
# 6 0.0000 0.0000 0.0000 0.0000 0.0000 28.1141
#
#
#
# Elastic Compliance Matrix: (Units=1/GPa)
#
#
# Indices 1 2 3 4 5 6 
#
# 1 0.044296 -0.012751 0.004205 0.000000 0.000000 0.000000
# 2 -0.012751 0.010816 -0.004955 0.000000 0.000000 0.000000
# 3 0.004205 -0.004955 0.014672 0.000000 0.000000 0.000000
# 4 0.000000 0.000000 0.000000 0.034891 0.000000 0.000000
# 5 0.000000 0.000000 0.000000 0.000000 0.061042 0.000000
# 6 0.000000 0.000000 0.000000 0.000000 0.000000 0.035569
#
#
# Mechanical properties :
#
#
# Convention : Reuss Voigt Hill
#
# Bulk Modulus (GPa) = 23.37503 50.83132 37.10318
# Shear Modulus (GPa) = 20.61446 27.17409 23.89428
#
# Velocity S-wave (km/s) = 3.40316 3.90728 3.66390
# Velocity P-wave (km/s) = 5.34551 6.99382 6.22447
#
# Compressibility (1/GPa) = 0.04278069
#
# Stress axis : x y z
#
# Youngs Moduli (GPa) = 22.57555 92.45508 68.15916
#
# Poissons Ratio (x) = 1.17894 -0.28661
# Poissons Ratio (y) = 0.28787 0.33772
# Poissons Ratio (z) = -0.09493 0.45810
#
# Static dielectric constant tensor:
#      x y z
#    x 1.643560 0.000000 0.000000 
#    y 0.000000 1.642940 0.000000 
#    z 0.000000 0.000000 1.605450 
# 
# From -- ./inp_files/17815.got.cif
#   From: 2010.05.17/outbox.cif.g08.bks.cpg/sg40_9_cif.got.tgz:17815.got - 2010.06.03 18:35:42.
