data_PCOD9363997
_publ_section_title
;
Structure prediction by ZEFSAII (Michael W. Deem and Ramdas Pophale) SiO2 
 PCOD9363997
Probable space group: A M A 2
;
_chemical_formula_sum "Si O2"
_cell_formula_units_Z 64
_cell_length_a 8.751242
_cell_length_b 14.415517
_cell_length_c 24.841008
_cell_angle_alpha 90.000000
_cell_angle_beta 90.000000
_cell_angle_gamma 90.000000
_cell_volume 3133.784520
_symmetry_space_group_name_H-M "A M A 2"
_symmetry_group_IT_number 40
_symmetry_cell_setting 'orthorhombic'
loop_
_space_group_symop_operation_xyz
x,y,z
-x,-y,z
1/2-x,y,z
1/2+x,-y,z
x,1/2+y,1/2+z
-x,1/2-y,1/2+z
1/2-x,1/2+y,1/2+z
1/2+x,1/2-y,1/2+z
loop_
_atom_site_type_symbol
_atom_site_label
_atom_site_fract_x
_atom_site_fract_y
_atom_site_fract_z
Si Si1 0.433469 0.603988 0.423470
Si Si2 0.431127 0.278794 0.325709
Si Si3 0.566778 0.396070 0.106102
Si Si4 0.566515 0.395341 0.542038
Si Si5 0.067193 0.895592 0.496511
Si Si6 0.432944 0.896882 0.375506
Si Si7 0.066643 0.216962 0.713323
Si Si8 0.932505 0.602336 0.653808
O O1 0.500000 0.500000 0.421332
O O2 0.250000 0.600762 0.419672
O O3 0.499967 0.661096 0.374162
O O4 0.470193 0.644928 0.483075
O O5 0.250000 0.279120 0.328982
O O6 0.495474 0.175221 0.334322
O O7 0.486131 0.314171 0.267709
O O8 0.500000 0.500000 0.110073
O O9 0.750000 0.399775 0.101886
O O10 0.502049 0.352508 0.050613
O O11 0.525624 0.341777 0.160360
O O12 0.500000 0.500000 0.539888
O O13 0.750000 0.397166 0.547694
O O14 0.493368 0.358306 0.596753
O O15 0.250000 0.897571 0.501948
O O16 0.031688 0.860749 0.436417
O O17 0.000000 0.000000 0.495898
O O18 0.250000 0.899899 0.370092
O O19 0.500000 0.000000 0.369883
O O20 0.250000 0.211073 0.720228
O O21 0.026863 0.323565 0.699378
O O22 0.750000 0.595445 0.650454
O O23 0.000000 0.500000 0.662438
#
# Coordination Sequence:
#
# PCOD9363997 Si02
#       8
#     8   8   8   8   8   8   8   8
#     4  10  21  39  62  88 120 155 191 236 289 344
#     4  12  26  41  60  85 113 152 200 246 291 342
#     4  10  20  36  59  85 114 149 185 229 284 338
#     4   9  17  31  55  86 117 148 182 225 279 339
#     4   9  17  31  55  86 117 148 182 225 279 339
#     4  10  21  39  62  88 120 155 191 236 289 344
#     4  10  24  43  58  77 111 152 194 240 287 338
#     4  10  20  36  59  85 114 149 185 229 284 338
#
# _framework density 20.422591000000001
#
# number of rings (size 3 to 8) (size 9 to 14) (size 15 to 20)
#    0.000    2.000    0.000    4.875    0.000    7.000 
#    0.000    5.000    0.000    0.000    0.000    0.000 
#    0.000    0.000    0.000    0.000    0.000    0.000 
#
# Total GULP energy -178737.356488 kJ/mol
# GULP energy per Si atom -5585.542390 kJ/mol
# Density = 2.037611 g / cm^3
# Si number density = 20.422591 Si / 1000 Ang^3
#
#
#
# Elastic Constant Matrix: (Units=GPa)
#
#
# Indices 1 2 3 4 5 6 
#
# 1 67.1936 8.7600 38.0319 0.0000 0.0000 0.0000
# 2 8.7600 43.4914 10.1602 0.0000 0.0000 0.0000
# 3 38.0319 10.1602 105.5555 0.0000 0.0000 0.0000
# 4 0.0000 0.0000 0.0000 38.2015 0.0000 0.0000
# 5 0.0000 0.0000 0.0000 0.0000 37.3132 0.0000
# 6 0.0000 0.0000 0.0000 0.0000 0.0000 18.1529
#
#
#
# Elastic Compliance Matrix: (Units=1/GPa)
#
#
# Indices 1 2 3 4 5 6 
#
# 1 0.018911 -0.002268 -0.006595 0.000000 0.000000 0.000000
# 2 -0.002268 0.023794 -0.001473 0.000000 0.000000 0.000000
# 3 -0.006595 -0.001473 0.011992 0.000000 0.000000 0.000000
# 4 0.000000 0.000000 0.000000 0.026177 0.000000 0.000000
# 5 0.000000 0.000000 0.000000 0.000000 0.026800 0.000000
# 6 0.000000 0.000000 0.000000 0.000000 0.000000 0.055088
#
#
# Mechanical properties :
#
#
# Convention : Reuss Voigt Hill
#
# Bulk Modulus (GPa) = 29.39136 36.68273 33.03705
# Shear Modulus (GPa) = 25.67047 29.35274 27.51161
#
# Velocity S-wave (km/s) = 3.54922 3.79525 3.67429
# Velocity P-wave (km/s) = 5.58737 6.09967 5.84914
#
# Compressibility (1/GPa) = 0.03402360
#
# Stress axis : x y z
#
# Youngs Moduli (GPa) = 52.87897 42.02732 83.39021
#
# Poissons Ratio (x) = 0.09533 0.54999
# Poissons Ratio (y) = 0.11994 0.12283
# Poissons Ratio (z) = 0.34876 0.06191
#
# Static dielectric constant tensor:
#      x y z
#    x 1.675540 0.000000 0.000000 
#    y 0.000000 1.516990 0.000000 
#    z 0.000000 0.000000 1.743140 
# 
# From -- ./inp_files/24238.got.cif
#   From: 2010.05.17/outbox.cif.g08.bks.cpg/sg40_13_cif.got.tgz:24238.got - 2010.06.03 18:35:42.
