data_PCOD9363919
_publ_section_title
;
Structure prediction by ZEFSAII (Michael W. Deem and Ramdas Pophale) SiO2 
 PCOD9363919
Probable space group: A M A 2
;
_chemical_formula_sum "Si O2"
_cell_formula_units_Z 64
_cell_length_a 14.251545
_cell_length_b 11.171817
_cell_length_c 17.224415
_cell_angle_alpha 90.000000
_cell_angle_beta 90.000000
_cell_angle_gamma 90.000000
_cell_volume 2742.396477
_symmetry_space_group_name_H-M "A M A 2"
_symmetry_group_IT_number 40
_symmetry_cell_setting 'orthorhombic'
loop_
_space_group_symop_operation_xyz
x,y,z
-x,-y,z
1/2-x,y,z
1/2+x,-y,z
x,1/2+y,1/2+z
-x,1/2-y,1/2+z
1/2-x,1/2+y,1/2+z
1/2+x,1/2-y,1/2+z
loop_
_atom_site_type_symbol
_atom_site_label
_atom_site_fract_x
_atom_site_fract_y
_atom_site_fract_z
Si Si1 0.143112 0.768073 0.633890
Si Si2 0.507028 0.631279 0.244032
Si Si3 0.136123 0.738197 0.137942
Si Si4 0.388103 0.993804 0.954946
Si Si5 0.854794 0.748502 0.361483
Si Si6 0.355416 0.004407 0.136784
Si Si7 0.148974 0.257677 0.946515
Si Si8 0.959385 0.370951 0.982284
O O1 0.250000 0.785834 0.659862
O O2 0.075844 0.867835 0.668779
O O3 0.105316 0.635171 0.655480
O O4 0.148150 0.765777 0.540821
O O5 0.500000 0.500000 0.280260
O O6 0.406034 0.665642 0.210305
O O7 0.564272 0.720975 0.299119
O O8 0.250000 0.730217 0.128907
O O9 0.107259 0.874905 0.158081
O O10 0.082717 0.696288 0.058568
O O11 0.354849 0.119676 0.919905
O O12 0.500000 0.000000 0.960088
O O13 0.357050 0.873003 0.913539
O O14 0.353046 0.995399 0.043350
O O15 0.750000 0.761592 0.329356
O O16 0.878006 0.859257 0.418044
O O17 0.250000 0.009411 0.167609
O O18 0.250000 0.309000 0.920417
O O19 0.046812 0.312530 0.934747
O O20 0.000000 0.500000 0.003803
#
# Coordination Sequence:
#
# PCOD9363919 Si02
#       8
#     8   8   8   8   8   8   8   8
#     4   9  19  37  62  96 135 173 223 279 340 408
#     4  12  27  45  63  99 138 186 238 284 351 428
#     4  11  23  43  71 102 140 181 229 291 352 416
#     4  11  18  34  64 100 136 164 217 283 341 407
#     4  12  26  47  73  97 135 187 237 294 359 431
#     4   9  18  34  62 100 129 164 219 280 340 395
#     4  10  20  35  64 102 134 168 213 284 351 399
#     4  12  25  45  69 105 141 181 238 290 354 430
#
# _framework density 23.337251999999999
#
# number of rings (size 3 to 8) (size 9 to 14) (size 15 to 20)
#    0.000    1.250    3.750    3.375    1.750    2.000 
#    2.250    0.625    0.000    0.000    0.000    0.000 
#    0.000    0.000    0.000    0.000    0.000    0.000 
#
# Total GULP energy -178482.042152 kJ/mol
# GULP energy per Si atom -5577.563817 kJ/mol
# Density = 2.328414 g / cm^3
# Si number density = 23.337252 Si / 1000 Ang^3
#
#
#
# Elastic Constant Matrix: (Units=GPa)
#
#
# Indices 1 2 3 4 5 6 
#
# 1 161.6032 10.7076 11.3471 0.0000 0.0000 0.0000
# 2 10.7076 53.5949 -1.3067 0.0000 0.0000 0.0000
# 3 11.3471 -1.3067 54.3892 0.0000 0.0000 0.0000
# 4 0.0000 0.0000 0.0000 26.3395 0.0000 0.0000
# 5 0.0000 0.0000 0.0000 0.0000 15.4376 0.0000
# 6 0.0000 0.0000 0.0000 0.0000 0.0000 29.0492
#
#
#
# Elastic Compliance Matrix: (Units=1/GPa)
#
#
# Indices 1 2 3 4 5 6 
#
# 1 0.006370 -0.001306 -0.001360 0.000000 0.000000 0.000000
# 2 -0.001306 0.018937 0.000727 0.000000 0.000000 0.000000
# 3 -0.001360 0.000727 0.018687 0.000000 0.000000 0.000000
# 4 0.000000 0.000000 0.000000 0.037966 0.000000 0.000000
# 5 0.000000 0.000000 0.000000 0.000000 0.064777 0.000000
# 6 0.000000 0.000000 0.000000 0.000000 0.000000 0.034424
#
#
# Mechanical properties :
#
#
# Convention : Reuss Voigt Hill
#
# Bulk Modulus (GPa) = 24.92713 34.56480 29.74596
# Shear Modulus (GPa) = 25.20020 30.75457 27.97738
#
# Velocity S-wave (km/s) = 3.28964 3.63413 3.46617
# Velocity P-wave (km/s) = 5.01332 5.69670 5.36590
#
# Compressibility (1/GPa) = 0.04011693
#
# Stress axis : x y z
#
# Youngs Moduli (GPa) = 156.98500 52.80632 53.51235
#
# Poissons Ratio (x) = 0.06896 0.07279
# Poissons Ratio (y) = 0.20499 -0.03893
# Poissons Ratio (z) = 0.21355 -0.03841
#
# Static dielectric constant tensor:
#      x y z
#    x 1.921400 0.000000 0.000000 
#    y 0.000000 1.914310 0.000000 
#    z 0.000000 0.000000 1.897690 
# 
# From -- ./inp_files/20805.got.cif
#   From: 2010.05.17/outbox.cif.g08.bks.cpg/sg40_11_cif.got.tgz:20805.got - 2010.06.03 18:35:42.
