data_PCOD9363160
_publ_section_title
;
Structure prediction by ZEFSAII (Michael W. Deem and Ramdas Pophale) SiO2 
 PCOD9363160
Probable space group: A M A 2
;
_chemical_formula_sum "Si O2"
_cell_formula_units_Z 56
_cell_length_a 8.640224
_cell_length_b 24.347737
_cell_length_c 14.034978
_cell_angle_alpha 90.000000
_cell_angle_beta 90.000000
_cell_angle_gamma 90.000000
_cell_volume 2952.536940
_symmetry_space_group_name_H-M "A M A 2"
_symmetry_group_IT_number 40
_symmetry_cell_setting 'orthorhombic'
loop_
_space_group_symop_operation_xyz
x,y,z
-x,-y,z
1/2-x,y,z
1/2+x,-y,z
x,1/2+y,1/2+z
-x,1/2-y,1/2+z
1/2-x,1/2+y,1/2+z
1/2+x,1/2-y,1/2+z
loop_
_atom_site_type_symbol
_atom_site_label
_atom_site_fract_x
_atom_site_fract_y
_atom_site_fract_z
Si Si1 0.436108 0.271574 0.617140
Si Si2 0.436514 0.060819 0.409727
Si Si3 0.935909 0.166129 0.928551
Si Si4 0.435505 0.560713 0.532607
Si Si5 0.565800 0.060310 0.618140
Si Si6 0.435641 0.125265 0.223791
Si Si7 0.064562 0.663314 0.221960
O O1 0.250000 0.271899 0.616951
O O2 0.486296 0.292225 0.512740
O O3 0.492238 0.317301 0.691957
O O4 0.486907 0.211444 0.649738
O O5 0.250000 0.058961 0.413286
O O6 0.500120 0.075733 0.513692
O O7 0.484957 0.101994 0.325861
O O8 0.500000 0.000000 0.387709
O O9 0.750000 0.167681 0.920622
O O10 0.012215 0.178905 0.827892
O O11 0.989284 0.105855 0.963364
O O12 0.500000 0.500000 0.517109
O O13 0.250000 0.561396 0.521303
O O14 0.472843 0.581671 0.639908
O O15 0.750000 0.057379 0.614015
O O16 0.510518 0.105951 0.691924
O O17 0.500000 0.000000 0.641092
O O18 0.250000 0.131355 0.225218
O O19 0.250000 0.658427 0.217786
#
# Coordination Sequence:
#
# PCOD9363160 Si02
#       7
#     8   8   8   8   8   8   8
#     4   9  21  39  59  82 113 147 184 229 277 326
#     4  10  19  33  53  81 115 152 189 232 279 328
#     4  10  21  39  59  83 112 146 186 230 275 327
#     4  10  19  33  53  81 114 151 190 233 280 330
#     4  11  23  40  60  84 112 146 185 230 277 329
#     4   9  19  33  53  81 115 151 190 232 278 327
#     4  11  23  41  62  86 113 145 182 226 276 329
#
# _framework density 18.966740000000001
#
# number of rings (size 3 to 8) (size 9 to 14) (size 15 to 20)
#    0.000    2.000    0.000    4.286    0.000    5.143 
#    0.000    7.143    0.000    0.000    0.000    0.000 
#    0.000    0.000    0.000    0.000    0.000    0.000 
#
# Total GULP energy -156403.117229 kJ/mol
# GULP energy per Si atom -5585.825615 kJ/mol
# Density = 1.892357 g / cm^3
# Si number density = 18.966740 Si / 1000 Ang^3
#
#
#
# Elastic Constant Matrix: (Units=GPa)
#
#
# Indices 1 2 3 4 5 6 
#
# 1 65.5214 25.5121 28.0052 0.0000 0.0000 0.0000
# 2 25.5121 85.5540 55.1109 0.0000 0.0000 0.0000
# 3 28.0052 55.1109 92.2173 0.0000 0.0000 0.0000
# 4 0.0000 0.0000 0.0000 18.5786 0.0000 0.0000
# 5 0.0000 0.0000 0.0000 0.0000 21.9994 0.0000
# 6 0.0000 0.0000 0.0000 0.0000 0.0000 22.0055
#
#
#
# Elastic Compliance Matrix: (Units=1/GPa)
#
#
# Indices 1 2 3 4 5 6 
#
# 1 0.018001 -0.003002 -0.003672 0.000000 0.000000 0.000000
# 2 -0.003002 0.019505 -0.010745 0.000000 0.000000 0.000000
# 3 -0.003672 -0.010745 0.018381 0.000000 0.000000 0.000000
# 4 0.000000 0.000000 0.000000 0.053825 0.000000 0.000000
# 5 0.000000 0.000000 0.000000 0.000000 0.045456 0.000000
# 6 0.000000 0.000000 0.000000 0.000000 0.000000 0.045443
#
#
# Mechanical properties :
#
#
# Convention : Reuss Voigt Hill
#
# Bulk Modulus (GPa) = 47.51156 51.17210 49.34183
# Shear Modulus (GPa) = 20.62140 21.49433 21.05786
#
# Velocity S-wave (km/s) = 3.30091 3.37005 3.33566
# Velocity P-wave (km/s) = 6.29542 6.49473 6.39585
#
# Compressibility (1/GPa) = 0.02104751
#
# Stress axis : x y z
#
# Youngs Moduli (GPa) = 55.55297 51.26797 54.40485
#
# Poissons Ratio (x) = 0.15391 0.19980
# Poissons Ratio (y) = 0.16678 0.58458
# Poissons Ratio (z) = 0.20402 0.55088
#
# Static dielectric constant tensor:
#      x y z
#    x 1.637170 0.000000 0.000000 
#    y 0.000000 1.635270 0.000000 
#    z 0.000000 0.000000 1.656630 
# 
# From -- ./inp_files/15357.got.cif
#   From: 2010.05.17/outbox.cif.g08.bks.cpg/sg40_8_cif.got.tgz:15357.got - 2010.06.03 18:35:42.
