data_PCOD9363646
_publ_section_title
;
Structure prediction by ZEFSAII (Michael W. Deem and Ramdas Pophale) SiO2 
 PCOD9363646
Probable space group: A M A 2
;
_chemical_formula_sum "Si O2"
_cell_formula_units_Z 64
_cell_length_a 8.884147
_cell_length_b 23.698354
_cell_length_c 19.541703
_cell_angle_alpha 90.000000
_cell_angle_beta 90.000000
_cell_angle_gamma 90.000000
_cell_volume 4114.303517
_symmetry_space_group_name_H-M "A M A 2"
_symmetry_group_IT_number 40
_symmetry_cell_setting 'orthorhombic'
loop_
_space_group_symop_operation_xyz
x,y,z
-x,-y,z
1/2-x,y,z
1/2+x,-y,z
x,1/2+y,1/2+z
-x,1/2-y,1/2+z
1/2-x,1/2+y,1/2+z
1/2+x,1/2-y,1/2+z
loop_
_atom_site_type_symbol
_atom_site_label
_atom_site_fract_x
_atom_site_fract_y
_atom_site_fract_z
Si Si1 0.070200 0.341614 0.022380
Si Si2 0.429323 0.061564 0.608785
Si Si3 0.069962 0.939141 0.886038
Si Si4 0.930204 0.774812 0.099743
Si Si5 0.569040 0.379742 0.253196
Si Si6 0.569778 0.727647 0.891377
Si Si7 0.070918 0.831349 0.974532
Si Si8 0.930513 0.245640 0.751857
O O1 0.250000 0.350001 0.026811
O O2 0.032682 0.287542 0.070136
O O3 0.987664 0.396124 0.050585
O O4 0.032954 0.321675 0.945541
O O5 0.250000 0.057364 0.605886
O O6 0.470031 0.089273 0.682122
O O7 0.500000 0.000000 0.602849
O O8 0.250000 0.943614 0.878022
O O9 0.038388 0.893271 0.945225
O O10 0.999472 0.914096 0.816494
O O11 0.000000 0.000000 0.900322
O O12 0.750000 0.781836 0.091933
O O13 0.968457 0.774923 0.179660
O O14 0.013056 0.818971 0.050847
O O15 0.750000 0.376924 0.259390
O O16 0.501544 0.316899 0.252630
O O17 0.750000 0.731041 0.885179
O O18 0.510308 0.785397 0.926091
O O19 0.493993 0.722373 0.817813
O O20 0.250000 0.821998 0.970498
O O21 0.750000 0.240414 0.756049
#
# Coordination Sequence:
#
# PCOD9363646 Si02
#       8
#     8   8   8   8   8   8   8   8
#     4   9  18  34  51  70  98 131 166 207 250 296
#     4  11  23  35  50  72  98 134 175 211 250 295
#     4  11  23  36  51  72  99 136 175 213 251 294
#     4   9  19  33  51  73 100 133 165 204 255 300
#     4  11  22  34  49  72 101 137 175 210 247 294
#     4  10  20  33  51  74 101 133 166 204 255 303
#     4  10  20  33  50  73  99 130 169 211 252 295
#     4  11  20  32  51  76 104 136 169 206 251 302
#
# _framework density 15.555488
#
# number of rings (size 3 to 8) (size 9 to 14) (size 15 to 20)
#    0.000    1.750    2.500    3.375    0.000    7.500 
#    0.000    0.000    0.000    0.000    0.000    0.875 
#    0.000    4.000    0.000    0.000    0.000    0.000 
#
# Total GULP energy -178657.685739 kJ/mol
# GULP energy per Si atom -5583.052679 kJ/mol
# Density = 1.552008 g / cm^3
# Si number density = 15.555488 Si / 1000 Ang^3
#
#
#
# Elastic Constant Matrix: (Units=GPa)
#
#
# Indices 1 2 3 4 5 6 
#
# 1 55.7386 48.3258 57.2549 0.0000 0.0000 0.0000
# 2 48.3258 92.0716 67.6711 0.0000 0.0000 0.0000
# 3 57.2549 67.6711 141.1931 0.0000 0.0000 0.0000
# 4 0.0000 0.0000 0.0000 16.9163 0.0000 0.0000
# 5 0.0000 0.0000 0.0000 0.0000 29.2774 0.0000
# 6 0.0000 0.0000 0.0000 0.0000 0.0000 25.4202
#
#
#
# Elastic Compliance Matrix: (Units=1/GPa)
#
#
# Indices 1 2 3 4 5 6 
#
# 1 0.039670 -0.013892 -0.009428 0.000000 0.000000 0.000000
# 2 -0.013892 0.021633 -0.004735 0.000000 0.000000 0.000000
# 3 -0.009428 -0.004735 0.013175 0.000000 0.000000 0.000000
# 4 0.000000 0.000000 0.000000 0.059115 0.000000 0.000000
# 5 0.000000 0.000000 0.000000 0.000000 0.034156 0.000000
# 6 0.000000 0.000000 0.000000 0.000000 0.000000 0.039339
#
#
# Mechanical properties :
#
#
# Convention : Reuss Voigt Hill
#
# Bulk Modulus (GPa) = 54.44398 70.61190 62.52794
# Shear Modulus (GPa) = 18.56522 22.03954 20.30238
#
# Velocity S-wave (km/s) = 3.45843 3.76817 3.61662
# Velocity P-wave (km/s) = 7.14307 8.02647 7.59762
#
# Compressibility (1/GPa) = 0.01836750
#
# Stress axis : x y z
#
# Youngs Moduli (GPa) = 25.20771 46.22641 75.90097
#
# Poissons Ratio (x) = 0.64218 0.71563
# Poissons Ratio (y) = 0.35019 0.35937
# Poissons Ratio (z) = 0.23767 0.21887
#
# Static dielectric constant tensor:
#      x y z
#    x 1.518340 0.000000 0.000000 
#    y 0.000000 1.486540 0.000000 
#    z 0.000000 0.000000 1.525230 
# 
# From -- ./inp_files/19735.got.cif
#   From: 2010.05.17/outbox.cif.g08.bks.cpg/sg40_10_cif.got.tgz:19735.got - 2010.06.03 18:35:42.
