data_PCOD9363542
_publ_section_title
;
Structure prediction by ZEFSAII (Michael W. Deem and Ramdas Pophale) SiO2 
 PCOD9363542
Probable space group: A M A 2
;
_chemical_formula_sum "Si O2"
_cell_formula_units_Z 64
_cell_length_a 17.810262
_cell_length_b 13.395347
_cell_length_c 14.497882
_cell_angle_alpha 90.000000
_cell_angle_beta 90.000000
_cell_angle_gamma 90.000000
_cell_volume 3458.826974
_symmetry_space_group_name_H-M "A M A 2"
_symmetry_group_IT_number 40
_symmetry_cell_setting 'orthorhombic'
loop_
_space_group_symop_operation_xyz
x,y,z
-x,-y,z
1/2-x,y,z
1/2+x,-y,z
x,1/2+y,1/2+z
-x,1/2-y,1/2+z
1/2-x,1/2+y,1/2+z
1/2+x,1/2-y,1/2+z
loop_
_atom_site_type_symbol
_atom_site_label
_atom_site_fract_x
_atom_site_fract_y
_atom_site_fract_z
Si Si1 0.661621 0.799375 0.250000
Si Si2 0.904350 0.890207 0.639712
Si Si3 0.394174 0.718260 0.948191
Si Si4 0.839840 0.054915 0.958863
Si Si5 0.938974 0.253784 0.475053
Si Si6 0.661652 0.870841 0.834700
Si Si7 0.570379 0.434553 0.610502
Si Si8 0.083764 0.374290 0.143000
O O1 0.750000 0.799249 0.229170
O O2 0.647826 0.819923 0.357606
O O3 0.616947 0.880520 0.189994
O O4 0.626178 0.692345 0.219127
O O5 0.879274 0.838935 0.544235
O O6 0.859470 0.854986 0.729002
O O7 0.993193 0.867365 0.654609
O O8 0.895948 0.009891 0.638938
O O9 0.372257 0.834551 0.953546
O O10 0.483980 0.711752 0.934462
O O11 0.750000 0.060407 0.964281
O O12 0.859250 0.982240 0.872289
O O13 0.874558 0.000989 0.047952
O O14 0.884317 0.294738 0.397650
O O15 0.958931 0.347185 0.542086
O O16 0.900590 0.175256 0.543540
O O17 0.750000 0.859390 0.849590
O O18 0.500000 0.500000 0.642585
#
# Coordination Sequence:
#
# PCOD9363542 Si02
#       8
#     8   8   8   8   8   8   8   8
#     4  11  23  38  59  88 118 152 194 239 292 349
#     4  10  21  38  58  86 116 151 198 240 286 340
#     4  11  21  36  57  84 117 153 191 240 284 342
#     4  10  20  35  58  85 115 148 187 236 293 347
#     4   9  19  36  60  85 111 145 196 239 287 342
#     4  10  21  35  56  86 117 150 189 238 294 347
#     4  10  19  38  61  87 110 148 192 241 289 342
#     4   9  20  39  61  83 111 152 197 240 285 343
#
# _framework density 18.503384
#
# number of rings (size 3 to 8) (size 9 to 14) (size 15 to 20)
#    0.000    2.000    1.250    2.250    0.000    6.500 
#    4.500    0.000    0.000    1.500    0.000    0.000 
#    0.000    0.000    0.000    0.000    0.000    0.000 
#
# Total GULP energy -178622.100121 kJ/mol
# GULP energy per Si atom -5581.940629 kJ/mol
# Density = 1.846127 g / cm^3
# Si number density = 18.503384 Si / 1000 Ang^3
#
#
#
# Elastic Constant Matrix: (Units=GPa)
#
#
# Indices 1 2 3 4 5 6 
#
# 1 66.0484 29.1730 57.2553 0.0000 0.0000 0.0000
# 2 29.1730 52.0606 55.1707 0.0000 0.0000 0.0000
# 3 57.2553 55.1707 118.1462 0.0000 0.0000 0.0000
# 4 0.0000 0.0000 0.0000 17.5342 0.0000 0.0000
# 5 0.0000 0.0000 0.0000 0.0000 10.6824 0.0000
# 6 0.0000 0.0000 0.0000 0.0000 0.0000 6.0665
#
#
#
# Elastic Compliance Matrix: (Units=1/GPa)
#
#
# Indices 1 2 3 4 5 6 
#
# 1 0.026263 -0.002433 -0.011591 0.000000 0.000000 0.000000
# 2 -0.002433 0.038252 -0.016683 0.000000 0.000000 0.000000
# 3 -0.011591 -0.016683 0.021872 0.000000 0.000000 0.000000
# 4 0.000000 0.000000 0.000000 0.057031 0.000000 0.000000
# 5 0.000000 0.000000 0.000000 0.000000 0.093612 0.000000
# 6 0.000000 0.000000 0.000000 0.000000 0.000000 0.164839
#
#
# Mechanical properties :
#
#
# Convention : Reuss Voigt Hill
#
# Bulk Modulus (GPa) = 40.04575 57.71702 48.88138
# Shear Modulus (GPa) = 10.60201 13.16704 11.88453
#
# Velocity S-wave (km/s) = 2.39629 2.67048 2.53709
# Velocity P-wave (km/s) = 5.41716 6.38506 5.92092
#
# Compressibility (1/GPa) = 0.02497144
#
# Stress axis : x y z
#
# Youngs Moduli (GPa) = 38.07596 26.14255 45.72066
#
# Poissons Ratio (x) = 0.06361 0.52996
# Poissons Ratio (y) = 0.09265 0.76277
# Poissons Ratio (z) = 0.44135 0.43614
#
# Static dielectric constant tensor:
#      x y z
#    x 1.628760 0.000000 0.000000 
#    y 0.000000 1.661270 0.000000 
#    z 0.000000 0.000000 1.632670 
# 
# From -- ./inp_files/17853.got.cif
#   From: 2010.05.17/outbox.cif.g08.bks.cpg/sg40_9_cif.got.tgz:17853.got - 2010.06.03 18:35:42.
