data_PCOD9363246
_publ_section_title
;
Structure prediction by ZEFSAII (Michael W. Deem and Ramdas Pophale) SiO2 
 PCOD9363246
Probable space group: A M A 2
;
_chemical_formula_sum "Si O2"
_cell_formula_units_Z 64
_cell_length_a 8.617522
_cell_length_b 23.889817
_cell_length_c 19.644231
_cell_angle_alpha 90.000000
_cell_angle_beta 90.000000
_cell_angle_gamma 90.000000
_cell_volume 4044.177943
_symmetry_space_group_name_H-M "A M A 2"
_symmetry_group_IT_number 40
_symmetry_cell_setting 'orthorhombic'
loop_
_space_group_symop_operation_xyz
x,y,z
-x,-y,z
1/2-x,y,z
1/2+x,-y,z
x,1/2+y,1/2+z
-x,1/2-y,1/2+z
1/2-x,1/2+y,1/2+z
1/2+x,1/2-y,1/2+z
loop_
_atom_site_type_symbol
_atom_site_label
_atom_site_fract_x
_atom_site_fract_y
_atom_site_fract_z
Si Si1 0.937674 0.234989 0.697090
Si Si2 0.563266 0.120454 0.343572
Si Si3 0.062808 0.438230 0.985296
Si Si4 0.935196 0.937421 0.207130
Si Si5 0.061901 0.833914 0.570834
Si Si6 0.935934 0.278788 0.490561
Si Si7 0.563973 0.753312 0.349763
Si Si8 0.065194 0.341914 0.616444
O O1 0.750000 0.240710 0.692820
O O2 0.985349 0.184873 0.646502
O O3 0.979364 0.228717 0.775824
O O4 0.008929 0.291723 0.666219
O O5 0.750000 0.123302 0.339857
O O6 0.519849 0.084904 0.410491
O O7 0.498587 0.091279 0.276096
O O8 0.498194 0.183064 0.350785
O O9 0.250000 0.439802 0.987738
O O10 0.000000 0.500000 0.996575
O O11 0.006328 0.392322 0.040140
O O12 0.750000 0.938338 0.209558
O O13 0.991986 0.898629 0.145157
O O14 0.000000 0.000000 0.202116
O O15 0.250000 0.836105 0.570172
O O16 0.018590 0.782154 0.521631
O O17 0.750000 0.282518 0.493271
O O18 0.994242 0.279643 0.413560
O O19 0.007668 0.324183 0.541584
O O20 0.750000 0.754151 0.355067
O O21 0.250000 0.345385 0.618330
#
# Coordination Sequence:
#
# PCOD9363246 Si02
#       8
#     8   8   8   8   8   8   8   8
#     4   9  18  32  51  72  99 133 167 207 258 309
#     4  11  21  34  49  70 102 140 177 212 251 299
#     4  10  20  33  48  68  95 133 173 209 248 295
#     4  12  24  38  53  73 101 139 179 216 256 303
#     4   8  15  31  49  66  91 128 167 202 248 302
#     4  10  19  34  53  71  99 135 169 208 257 310
#     4  11  20  30  49  78 105 132 169 211 255 308
#     4  11  21  34  52  76 102 131 170 214 258 308
#
# _framework density 15.825219000000001
#
# number of rings (size 3 to 8) (size 9 to 14) (size 15 to 20)
#    0.000    1.750    2.500    4.500    0.000    2.500 
#    0.000    0.625    0.000    0.000    0.000    0.875 
#    0.000    4.000    0.000    0.000    0.000    0.000 
#
# Total GULP energy -178620.895436 kJ/mol
# GULP energy per Si atom -5581.902982 kJ/mol
# Density = 1.578920 g / cm^3
# Si number density = 15.825219 Si / 1000 Ang^3
#
#
#
# Elastic Constant Matrix: (Units=GPa)
#
#
# Indices 1 2 3 4 5 6 
#
# 1 48.2742 21.9253 35.2528 0.0000 0.0000 0.0000
# 2 21.9253 85.2851 58.4367 0.0000 0.0000 0.0000
# 3 35.2528 58.4367 131.6927 0.0000 0.0000 0.0000
# 4 0.0000 0.0000 0.0000 19.3803 0.0000 0.0000
# 5 0.0000 0.0000 0.0000 0.0000 23.0509 0.0000
# 6 0.0000 0.0000 0.0000 0.0000 0.0000 22.3827
#
#
#
# Elastic Compliance Matrix: (Units=1/GPa)
#
#
# Indices 1 2 3 4 5 6 
#
# 1 0.026197 -0.002773 -0.005782 0.000000 0.000000 0.000000
# 2 -0.002773 0.017141 -0.006864 0.000000 0.000000 0.000000
# 3 -0.005782 -0.006864 0.012187 0.000000 0.000000 0.000000
# 4 0.000000 0.000000 0.000000 0.051599 0.000000 0.000000
# 5 0.000000 0.000000 0.000000 0.000000 0.043382 0.000000
# 6 0.000000 0.000000 0.000000 0.000000 0.000000 0.044677
#
#
# Mechanical properties :
#
#
# Convention : Reuss Voigt Hill
#
# Bulk Modulus (GPa) = 40.50671 55.16462 47.83566
# Shear Modulus (GPa) = 21.34465 22.93861 22.14163
#
# Velocity S-wave (km/s) = 3.67655 3.81136 3.74456
# Velocity P-wave (km/s) = 6.60867 7.36905 6.99920
#
# Compressibility (1/GPa) = 0.02468727
#
# Stress axis : x y z
#
# Youngs Moduli (GPa) = 38.17245 58.33850 82.05421
#
# Poissons Ratio (x) = 0.16176 0.47446
# Poissons Ratio (y) = 0.10584 0.56322
# Poissons Ratio (z) = 0.22072 0.40043
#
# Static dielectric constant tensor:
#      x y z
#    x 1.533440 0.000000 0.000000 
#    y 0.000000 1.503120 0.000000 
#    z 0.000000 0.000000 1.540190 
# 
# From -- ./inp_files/19738.got.cif
#   From: 2010.05.17/outbox.cif.g08.bks.cpg/sg40_10_cif.got.tgz:19738.got - 2010.06.03 18:35:42.
