data_PCOD9363896
_publ_section_title
;
Structure prediction by ZEFSAII (Michael W. Deem and Ramdas Pophale) SiO2 
 PCOD9363896
Probable space group: A M A 2
;
_chemical_formula_sum "Si O2"
_cell_formula_units_Z 48
_cell_length_a 13.928776
_cell_length_b 23.206699
_cell_length_c 8.143283
_cell_angle_alpha 90.000000
_cell_angle_beta 90.000000
_cell_angle_gamma 90.000000
_cell_volume 2632.242224
_symmetry_space_group_name_H-M "A M A 2"
_symmetry_group_IT_number 40
_symmetry_cell_setting 'orthorhombic'
loop_
_space_group_symop_operation_xyz
x,y,z
-x,-y,z
1/2-x,y,z
1/2+x,-y,z
x,1/2+y,1/2+z
-x,1/2-y,1/2+z
1/2-x,1/2+y,1/2+z
1/2+x,1/2-y,1/2+z
loop_
_atom_site_type_symbol
_atom_site_label
_atom_site_fract_x
_atom_site_fract_y
_atom_site_fract_z
Si Si1 0.634663 0.415368 0.295240
Si Si2 0.483600 0.186207 0.292267
Si Si3 0.134663 0.584632 0.659531
Si Si4 0.133888 0.511762 0.977385
Si Si5 0.135806 0.877603 0.477385
Si Si6 0.516400 0.813793 0.662504
O O1 0.750000 0.408812 0.284751
O O2 0.612297 0.438571 0.477385
O O3 0.603258 0.455412 0.143032
O O4 0.583621 0.353959 0.271344
O O5 0.416379 0.146041 0.183426
O O6 0.585121 0.153813 0.323268
O O7 0.441044 0.188622 0.477385
O O8 0.500000 0.250000 0.227385
O O9 0.250000 0.591188 0.670019
O O10 0.103258 0.544588 0.811738
O O11 0.250000 0.513284 0.977385
O O12 0.108011 0.444736 0.977385
O O13 0.250000 0.872052 0.477385
O O14 0.085121 0.846187 0.631502
#
# Coordination Sequence:
#
# PCOD9363896 Si02
#       6
#     8   8   8   8   8   8
#     4  10  20  35  59  89 120 154 193 244 297 344
#     4  10  21  36  56  82 120 152 198 243 282 348
#     4  10  20  35  59  89 120 154 193 244 297 344
#     4   9  17  37  61  86 117 153 198 239 290 359
#     4   9  21  39  62  82 117 164 189 238 307 343
#     4  10  21  36  56  82 120 152 198 243 282 348
#
# _framework density 18.235403999999999
#
# number of rings (size 3 to 8) (size 9 to 14) (size 15 to 20)
#    1.000    1.333    1.667    1.000    0.000    4.000 
#    0.000    5.000    0.000    7.000    0.000    0.000 
#    0.000    0.000    0.000    0.000    0.000    0.000 
#
# Total GULP energy -133693.702538 kJ/mol
# GULP energy per Si atom -5570.570939 kJ/mol
# Density = 1.819390 g / cm^3
# Si number density = 18.235404 Si / 1000 Ang^3
#
#
#
# Elastic Constant Matrix: (Units=GPa)
#
#
# Indices 1 2 3 4 5 6 
#
# 1 68.5006 37.6018 39.5285 0.0000 0.0000 0.0000
# 2 37.6018 157.8397 63.8801 0.0000 0.0000 0.0000
# 3 39.5285 63.8801 134.0989 0.0000 0.0000 0.0000
# 4 0.0000 0.0000 0.0000 31.3069 0.0000 0.0000
# 5 0.0000 0.0000 0.0000 0.0000 17.4721 0.0000
# 6 0.0000 0.0000 0.0000 0.0000 0.0000 50.6907
#
#
#
# Elastic Compliance Matrix: (Units=1/GPa)
#
#
# Indices 1 2 3 4 5 6 
#
# 1 0.018490 -0.002724 -0.004153 0.000000 0.000000 0.000000
# 2 -0.002724 0.008250 -0.003127 0.000000 0.000000 0.000000
# 3 -0.004153 -0.003127 0.010171 0.000000 0.000000 0.000000
# 4 0.000000 0.000000 0.000000 0.031942 0.000000 0.000000
# 5 0.000000 0.000000 0.000000 0.000000 0.057234 0.000000
# 6 0.000000 0.000000 0.000000 0.000000 0.000000 0.019727
#
#
# Mechanical properties :
#
#
# Convention : Reuss Voigt Hill
#
# Bulk Modulus (GPa) = 59.16008 71.38445 65.27227
# Shear Modulus (GPa) = 29.16191 34.52253 31.84222
#
# Velocity S-wave (km/s) = 4.00333 4.35577 4.18326
# Velocity P-wave (km/s) = 7.34042 8.03293 7.69447
#
# Compressibility (1/GPa) = 0.01690329
#
# Stress axis : x y z
#
# Youngs Moduli (GPa) = 54.08304 121.21087 98.32007
#
# Poissons Ratio (x) = 0.33021 0.40829
# Poissons Ratio (y) = 0.14733 0.30745
# Poissons Ratio (z) = 0.22459 0.37903
#
# Static dielectric constant tensor:
#      x y z
#    x 1.634750 0.000000 0.000000 
#    y 0.000000 1.597570 0.000000 
#    z 0.000000 0.000000 1.651640 
# 
# From -- ./inp_files/6789.got.cif
#   From: 2010.05.17/outbox.cif.g08.bks.cpg/sg40_4_cif.got.tgz:6789.got - 2010.06.03 18:35:42.
