data_PCOD9363316
_publ_section_title
;
Structure prediction by ZEFSAII (Michael W. Deem and Ramdas Pophale) SiO2 
 PCOD9363316
Probable space group: A M A 2
;
_chemical_formula_sum "Si O2"
_cell_formula_units_Z 64
_cell_length_a 8.912395
_cell_length_b 28.684924
_cell_length_c 12.795856
_cell_angle_alpha 90.000000
_cell_angle_beta 90.000000
_cell_angle_gamma 90.000000
_cell_volume 3271.278158
_symmetry_space_group_name_H-M "A M A 2"
_symmetry_group_IT_number 40
_symmetry_cell_setting 'orthorhombic'
loop_
_space_group_symop_operation_xyz
x,y,z
-x,-y,z
1/2-x,y,z
1/2+x,-y,z
x,1/2+y,1/2+z
-x,1/2-y,1/2+z
1/2-x,1/2+y,1/2+z
1/2+x,1/2-y,1/2+z
loop_
_atom_site_type_symbol
_atom_site_label
_atom_site_fract_x
_atom_site_fract_y
_atom_site_fract_z
Si Si1 0.422401 0.165561 0.543950
Si Si2 0.569177 0.948867 0.046744
Si Si3 0.929491 0.121337 0.878681
Si Si4 0.070589 0.454783 0.209943
Si Si5 0.429703 0.590145 0.774865
Si Si6 0.073432 0.206916 0.772525
Si Si7 0.576249 0.302983 0.816384
Si Si8 0.574187 0.572380 0.986910
O O1 0.250000 0.146172 0.545947
O O2 0.452943 0.188720 0.654578
O O3 0.426829 0.198443 0.442752
O O4 0.541733 0.125939 0.517199
O O5 0.750000 0.950993 0.036696
O O6 0.530217 0.933649 0.165627
O O7 0.500000 0.000000 0.025129
O O8 0.505121 0.908465 0.971138
O O9 0.750000 0.122008 0.893162
O O10 0.965818 0.091274 0.774497
O O11 0.989525 0.172957 0.854332
O O12 0.250000 0.459129 0.207924
O O13 0.000000 0.500000 0.262477
O O14 0.012958 0.451802 0.091319
O O15 0.250000 0.589909 0.784860
O O16 0.474825 0.645064 0.781273
O O17 0.496211 0.564516 0.876241
O O18 0.250000 0.203864 0.793609
O O19 0.018941 0.259907 0.776954
O O20 0.750000 0.297974 0.783138
O O21 0.750000 0.563018 0.977106
#
# Coordination Sequence:
#
# PCOD9363316 Si02
#       8
#     8   8   8   8   8   8   8   8
#     4   9  19  36  56  78 111 153 192 237 297 357
#     4  11  24  43  65  91 124 165 213 261 313 373
#     4  11  23  41  61  85 119 158 203 253 307 364
#     4  10  22  36  54  83 115 147 186 234 289 348
#     4   9  21  41  62  85 119 159 201 249 304 362
#     4  11  22  36  58  88 118 155 203 252 307 371
#     4   9  19  37  58  83 115 156 200 249 307 363
#     4  10  19  34  57  85 113 145 190 239 292 354
#
# _framework density 19.564218
#
# number of rings (size 3 to 8) (size 9 to 14) (size 15 to 20)
#    0.000    2.000    1.250    2.625    0.000    8.000 
#    0.000    5.000    0.000    0.000    0.000    0.000 
#    0.000    0.000    0.000    0.000    0.000    0.000 
#
# Total GULP energy -178532.946204 kJ/mol
# GULP energy per Si atom -5579.154569 kJ/mol
# Density = 1.951969 g / cm^3
# Si number density = 19.564218 Si / 1000 Ang^3
#
#
#
# Elastic Constant Matrix: (Units=GPa)
#
#
# Indices 1 2 3 4 5 6 
#
# 1 23.2496 14.9338 29.4877 0.0000 0.0000 0.0000
# 2 14.9338 51.3924 13.4437 0.0000 0.0000 0.0000
# 3 29.4877 13.4437 97.5153 0.0000 0.0000 0.0000
# 4 0.0000 0.0000 0.0000 17.7901 0.0000 0.0000
# 5 0.0000 0.0000 0.0000 0.0000 33.0637 0.0000
# 6 0.0000 0.0000 0.0000 0.0000 0.0000 25.7523
#
#
#
# Elastic Compliance Matrix: (Units=1/GPa)
#
#
# Indices 1 2 3 4 5 6 
#
# 1 0.083694 -0.018362 -0.022777 0.000000 0.000000 0.000000
# 2 -0.018362 0.024215 0.002214 0.000000 0.000000 0.000000
# 3 -0.022777 0.002214 0.016837 0.000000 0.000000 0.000000
# 4 0.000000 0.000000 0.000000 0.056211 0.000000 0.000000
# 5 0.000000 0.000000 0.000000 0.000000 0.030245 0.000000
# 6 0.000000 0.000000 0.000000 0.000000 0.000000 0.038831
#
#
# Mechanical properties :
#
#
# Convention : Reuss Voigt Hill
#
# Bulk Modulus (GPa) = 21.32358 31.98751 26.65555
# Shear Modulus (GPa) = 14.55548 22.94071 18.74809
#
# Velocity S-wave (km/s) = 2.73057 3.42802 3.09898
# Velocity P-wave (km/s) = 4.56774 5.66162 5.14384
#
# Compressibility (1/GPa) = 0.04689643
#
# Stress axis : x y z
#
# Youngs Moduli (GPa) = 11.94834 41.29749 59.39295
#
# Poissons Ratio (x) = 0.75830 1.35278
# Poissons Ratio (y) = 0.21939 -0.13150
# Poissons Ratio (z) = 0.27214 -0.09144
#
# Static dielectric constant tensor:
#      x y z
#    x 1.661110 0.000000 0.000000 
#    y 0.000000 1.690110 0.000000 
#    z 0.000000 0.000000 1.699080 
# 
# From -- ./inp_files/10641.got.cif
#   From: 2010.05.17/outbox.cif.g08.bks.cpg/sg40_6_cif.got.tgz:10641.got - 2010.06.03 18:35:42.
