data_PCOD9363999
_publ_section_title
;
Structure prediction by ZEFSAII (Michael W. Deem and Ramdas Pophale) SiO2 
 PCOD9363999
Probable space group: A M A 2
;
_chemical_formula_sum "Si O2"
_cell_formula_units_Z 48
_cell_length_a 24.067887
_cell_length_b 9.002701
_cell_length_c 10.739037
_cell_angle_alpha 90.000000
_cell_angle_beta 90.000000
_cell_angle_gamma 90.000000
_cell_volume 2326.891478
_symmetry_space_group_name_H-M "A M A 2"
_symmetry_group_IT_number 40
_symmetry_cell_setting 'orthorhombic'
loop_
_space_group_symop_operation_xyz
x,y,z
-x,-y,z
1/2-x,y,z
1/2+x,-y,z
x,1/2+y,1/2+z
-x,1/2-y,1/2+z
1/2-x,1/2+y,1/2+z
1/2+x,1/2-y,1/2+z
loop_
_atom_site_type_symbol
_atom_site_label
_atom_site_fract_x
_atom_site_fract_y
_atom_site_fract_z
Si Si1 0.992888 0.176271 0.069810
Si Si2 0.030293 0.158865 0.811388
Si Si3 0.688279 0.138093 0.756851
Si Si4 0.184295 0.910629 0.484308
Si Si5 0.631104 0.271299 0.993019
Si Si6 0.159188 0.697574 0.256124
O O1 0.001396 0.250424 0.203809
O O2 0.931436 0.222638 0.023308
O O3 0.000000 0.000000 0.085981
O O4 0.970228 0.776173 0.951388
O O5 0.094209 0.154027 0.770704
O O6 0.000000 0.000000 0.817832
O O7 0.750000 0.199521 0.778235
O O8 0.671203 0.172218 0.614777
O O9 0.689694 0.959358 0.761816
O O10 0.649662 0.194438 0.866433
O O11 0.250000 0.954234 0.491542
O O12 0.144427 0.053857 0.477261
O O13 0.176177 0.806791 0.365608
O O14 0.665242 0.231198 0.118909
#
# Coordination Sequence:
#
# PCOD9363999 Si02
#       6
#     8   8   8   8   8   8
#     4  10  22  38  58  86 117 150 192 239 287 344
#     4  10  22  39  59  84 116 152 190 237 289 343
#     4  10  20  36  59  85 115 151 191 237 288 343
#     4  10  22  39  59  86 117 151 194 238 285 345
#     4  10  22  39  58  85 118 154 193 238 290 342
#     4  10  22  39  59  86 117 152 192 239 291 341
#
# _framework density 20.62838
#
# number of rings (size 3 to 8) (size 9 to 14) (size 15 to 20)
#    0.000    2.000    0.000    3.000    0.000   12.000 
#    0.000    0.000    0.000    0.000    0.000    0.000 
#    0.000    0.000    0.000    0.000    0.000    0.000 
#
# Total GULP energy -133912.915874 kJ/mol
# GULP energy per Si atom -5579.704828 kJ/mol
# Density = 2.058143 g / cm^3
# Si number density = 20.628380 Si / 1000 Ang^3
#
#
#
# Elastic Constant Matrix: (Units=GPa)
#
#
# Indices 1 2 3 4 5 6 
#
# 1 42.5305 3.6236 -4.8708 0.0000 0.0000 0.0000
# 2 3.6236 36.1313 36.2628 0.0000 0.0000 0.0000
# 3 -4.8708 36.2628 131.0114 0.0000 0.0000 0.0000
# 4 0.0000 0.0000 0.0000 18.1665 0.0000 0.0000
# 5 0.0000 0.0000 0.0000 0.0000 55.5426 0.0000
# 6 0.0000 0.0000 0.0000 0.0000 0.0000 2.7767
#
#
#
# Elastic Compliance Matrix: (Units=1/GPa)
#
#
# Indices 1 2 3 4 5 6 
#
# 1 0.024153 -0.004602 0.002172 0.000000 0.000000 0.000000
# 2 -0.004602 0.039200 -0.011021 0.000000 0.000000 0.000000
# 3 0.002172 -0.011021 0.010764 0.000000 0.000000 0.000000
# 4 0.000000 0.000000 0.000000 0.055046 0.000000 0.000000
# 5 0.000000 0.000000 0.000000 0.000000 0.018004 0.000000
# 6 0.000000 0.000000 0.000000 0.000000 0.000000 0.360138
#
#
# Mechanical properties :
#
#
# Convention : Reuss Voigt Hill
#
# Bulk Modulus (GPa) = 21.17996 31.07827 26.12911
# Shear Modulus (GPa) = 9.09178 26.94101 18.01640
#
# Velocity S-wave (km/s) = 2.10166 3.61781 2.95851
# Velocity P-wave (km/s) = 4.02231 5.70525 4.93603
#
# Compressibility (1/GPa) = 0.04721445
#
# Stress axis : x y z
#
# Youngs Moduli (GPa) = 41.40211 25.51034 92.90007
#
# Poissons Ratio (x) = 0.11740 -0.20176
# Poissons Ratio (y) = 0.19053 1.02388
# Poissons Ratio (z) = -0.08992 0.28116
#
# Static dielectric constant tensor:
#      x y z
#    x 1.598030 0.000000 0.000000 
#    y 0.000000 1.705280 0.000000 
#    z 0.000000 0.000000 1.773890 
# 
# From -- ./inp_files/9318.got.cif
#   From: 2010.05.17/outbox.cif.g08.bks.cpg/sg40_5_cif.got.tgz:9318.got - 2010.06.03 18:35:42.
