data_PCOD9363357
_publ_section_title
;
Structure prediction by ZEFSAII (Michael W. Deem and Ramdas Pophale) SiO2 
 PCOD9363357
Probable space group: A M A 2
;
_chemical_formula_sum "Si O2"
_cell_formula_units_Z 48
_cell_length_a 22.172379
_cell_length_b 6.964220
_cell_length_c 13.547009
_cell_angle_alpha 90.000000
_cell_angle_beta 90.000000
_cell_angle_gamma 90.000000
_cell_volume 2091.838707
_symmetry_space_group_name_H-M "A M A 2"
_symmetry_group_IT_number 40
_symmetry_cell_setting 'orthorhombic'
loop_
_space_group_symop_operation_xyz
x,y,z
-x,-y,z
1/2-x,y,z
1/2+x,-y,z
x,1/2+y,1/2+z
-x,1/2-y,1/2+z
1/2-x,1/2+y,1/2+z
1/2+x,1/2-y,1/2+z
loop_
_atom_site_type_symbol
_atom_site_label
_atom_site_fract_x
_atom_site_fract_y
_atom_site_fract_z
Si Si1 0.815400 0.826171 0.295890
Si Si2 0.432958 0.202816 0.859517
Si Si3 0.940691 0.742468 0.292291
Si Si4 0.184095 0.916059 0.098333
Si Si5 0.937689 0.880768 0.072199
Si Si6 0.315993 0.127919 0.753445
O O1 0.750000 0.853686 0.348105
O O2 0.882875 0.849717 0.340714
O O3 0.817839 0.600346 0.265402
O O4 0.812535 0.952361 0.196901
O O5 0.489878 0.299992 0.808068
O O6 0.367561 0.234484 0.814146
O O7 0.438881 0.973420 0.835526
O O8 0.439061 0.245875 0.974343
O O9 0.931274 0.765688 0.174370
O O10 0.250000 0.937678 0.047195
O O11 0.178320 0.700779 0.140943
O O12 0.121359 0.984888 0.052631
O O13 0.000000 0.000000 0.076108
O O14 0.250000 0.189667 0.788568
#
# Coordination Sequence:
#
# PCOD9363357 Si02
#       6
#     8   8   8   8   8   8
#     4   8  15  29  52  78 106 146 186 226 290 343
#     4  10  19  35  55  80 112 149 194 238 287 354
#     4   9  18  33  54  75 111 148 179 241 289 328
#     4   9  18  32  53  84 114 145 193 241 286 350
#     4  11  20  33  58  83 112 154 193 238 296 350
#     4   9  17  31  54  79 110 152 187 234 296 343
#
# _framework density 22.94632
#
# number of rings (size 3 to 8) (size 9 to 14) (size 15 to 20)
#    0.000    2.667    1.667    1.000    0.000    0.667 
#    0.000    0.000   18.333   10.000    0.000   44.333 
#    0.000    0.000    0.000    0.000    0.000    0.000 
#
# Total GULP energy -133611.388481 kJ/mol
# GULP energy per Si atom -5567.141187 kJ/mol
# Density = 2.289409 g / cm^3
# Si number density = 22.946320 Si / 1000 Ang^3
#
#
#
# Elastic Constant Matrix: (Units=GPa)
#
#
# Indices 1 2 3 4 5 6 
#
# 1 218.3492 -12.1864 29.1783 0.0000 0.0000 0.0000
# 2 -12.1864 71.6493 -2.0828 0.0000 0.0000 0.0000
# 3 29.1783 -2.0828 78.6427 0.0000 0.0000 0.0000
# 4 0.0000 0.0000 0.0000 19.4828 0.0000 0.0000
# 5 0.0000 0.0000 0.0000 0.0000 -34.9883 0.0000
# 6 0.0000 0.0000 0.0000 0.0000 0.0000 16.2876
#
#
#
# Elastic Compliance Matrix: (Units=1/GPa)
#
#
# Indices 1 2 3 4 5 6 
#
# 1 0.004861 0.000775 -0.001783 0.000000 0.000000 0.000000
# 2 0.000775 0.014091 0.000086 0.000000 0.000000 0.000000
# 3 -0.001783 0.000086 0.013380 0.000000 0.000000 0.000000
# 4 0.000000 0.000000 0.000000 0.051327 0.000000 0.000000
# 5 0.000000 0.000000 0.000000 0.000000 -0.028581 0.000000
# 6 0.000000 0.000000 0.000000 0.000000 0.000000 0.061397
#
#
# Mechanical properties :
#
#
# Convention : Reuss Voigt Hill
#
# Bulk Modulus (GPa) = 32.80073 44.27327 38.53700
# Shear Modulus (GPa) = 38.91581 23.73855 31.32718
#
# Velocity S-wave (km/s) = 4.12266 3.21989 3.69892
# Velocity P-wave (km/s) = 6.08172 5.75845 5.92229
#
# Compressibility (1/GPa) = 0.03048713
#
# Stress axis : x y z
#
# Youngs Moduli (GPa) = 205.70376 70.96640 74.74070
#
# Poissons Ratio (x) = -0.05500 0.13327
# Poissons Ratio (y) = -0.15942 -0.00640
# Poissons Ratio (z) = 0.36680 -0.00608
#
# Static dielectric constant tensor:
#      x y z
#    x 2.004680 0.000000 0.000000 
#    y 0.000000 1.906010 0.000000 
#    z 0.000000 0.000000 1.810500 
# 
# From -- ./inp_files/18409.got.cif
#   From: 2010.05.17/outbox.cif.g08.bks.cpg/sg40_10_cif.got.tgz:18409.got - 2010.06.03 18:35:42.
