data_PCOD9363082
_publ_section_title
;
Structure prediction by ZEFSAII (Michael W. Deem and Ramdas Pophale) SiO2 
 PCOD9363082
Probable space group: A M A 2
;
_chemical_formula_sum "Si O2"
_cell_formula_units_Z 64
_cell_length_a 8.585727
_cell_length_b 33.529418
_cell_length_c 12.178134
_cell_angle_alpha 90.000000
_cell_angle_beta 90.000000
_cell_angle_gamma 90.000000
_cell_volume 3505.773377
_symmetry_space_group_name_H-M "A M A 2"
_symmetry_group_IT_number 40
_symmetry_cell_setting 'orthorhombic'
loop_
_space_group_symop_operation_xyz
x,y,z
-x,-y,z
1/2-x,y,z
1/2+x,-y,z
x,1/2+y,1/2+z
-x,1/2-y,1/2+z
1/2-x,1/2+y,1/2+z
1/2+x,1/2-y,1/2+z
loop_
_atom_site_type_symbol
_atom_site_label
_atom_site_fract_x
_atom_site_fract_y
_atom_site_fract_z
Si Si1 0.434770 0.544008 0.550150
Si Si2 0.436611 0.623672 0.923078
Si Si3 0.561527 0.455134 0.797606
Si Si4 0.561518 0.146791 0.661442
Si Si5 0.559641 0.226810 0.791891
Si Si6 0.062922 0.814518 0.244574
Si Si7 0.572055 0.100664 0.868919
Si Si8 0.571238 0.683208 0.501476
O O1 0.500000 0.500000 0.534223
O O2 0.250000 0.542819 0.554312
O O3 0.488576 0.556966 0.672920
O O4 0.484829 0.570654 0.448069
O O5 0.250000 0.623233 0.929230
O O6 0.488804 0.579682 0.881192
O O7 0.488413 0.655963 0.832743
O O8 0.502668 0.636612 0.040913
O O9 0.500000 0.500000 0.818977
O O10 0.750000 0.456784 0.799912
O O11 0.750000 0.146041 0.663202
O O12 0.517192 0.190644 0.708622
O O13 0.507586 0.113481 0.750144
O O14 0.750000 0.229261 0.792070
O O15 0.485466 0.268856 0.763898
O O16 0.504192 0.214364 0.914342
O O17 0.250000 0.819305 0.251095
O O18 0.002737 0.823372 0.121135
O O19 0.750000 0.086525 0.855190
O O20 0.575811 0.142098 0.935597
O O21 0.750000 0.696188 0.521029
#
# Coordination Sequence:
#
# PCOD9363082 Si02
#       8
#     8   8   8   8   8   8   8   8
#     4  10  19  32  53  82 113 140 174 221 272 329
#     4  11  23  38  56  81 113 149 188 231 281 333
#     4   9  20  37  57  83 113 146 183 228 282 334
#     4   9  20  38  58  79 108 146 188 229 275 330
#     4   9  19  37  56  76 106 142 178 225 280 325
#     4  11  22  34  53  82 109 139 183 226 271 330
#     4   9  17  34  57  77 102 139 177 218 269 323
#     4   8  17  34  54  74 100 135 173 214 266 324
#
# _framework density 18.255600999999999
#
# number of rings (size 3 to 8) (size 9 to 14) (size 15 to 20)
#    0.000    2.500    0.000    3.375    1.750    2.500 
#    0.000    3.750    0.000    1.500    0.000    0.000 
#    0.000    0.000    0.000    0.000    0.000    0.000 
#
# Total GULP energy -178343.817709 kJ/mol
# GULP energy per Si atom -5573.244303 kJ/mol
# Density = 1.821405 g / cm^3
# Si number density = 18.255601 Si / 1000 Ang^3
#
#
#
# Elastic Constant Matrix: (Units=GPa)
#
#
# Indices 1 2 3 4 5 6 
#
# 1 16.6290 12.2423 16.7471 0.0000 0.0000 0.0000
# 2 12.2423 76.5891 60.0179 0.0000 0.0000 0.0000
# 3 16.7471 60.0179 161.8856 0.0000 0.0000 0.0000
# 4 0.0000 0.0000 0.0000 20.6868 0.0000 0.0000
# 5 0.0000 0.0000 0.0000 0.0000 7.3335 0.0000
# 6 0.0000 0.0000 0.0000 0.0000 0.0000 28.8440
#
#
#
# Elastic Compliance Matrix: (Units=1/GPa)
#
#
# Indices 1 2 3 4 5 6 
#
# 1 0.070291 -0.007805 -0.004378 0.000000 0.000000 0.000000
# 2 -0.007805 0.019270 -0.006337 0.000000 0.000000 0.000000
# 3 -0.004378 -0.006337 0.008979 0.000000 0.000000 0.000000
# 4 0.000000 0.000000 0.000000 0.048340 0.000000 0.000000
# 5 0.000000 0.000000 0.000000 0.000000 0.136361 0.000000
# 6 0.000000 0.000000 0.000000 0.000000 0.000000 0.034669
#
#
# Mechanical properties :
#
#
# Convention : Reuss Voigt Hill
#
# Bulk Modulus (GPa) = 16.25990 48.12425 32.19208
# Shear Modulus (GPa) = 13.31737 22.44596 17.88166
#
# Velocity S-wave (km/s) = 2.70385 3.51028 3.13312
# Velocity P-wave (km/s) = 4.32133 6.54584 5.54625
#
# Compressibility (1/GPa) = 0.06150097
#
# Stress axis : x y z
#
# Youngs Moduli (GPa) = 14.22663 51.89430 111.36567
#
# Poissons Ratio (x) = 0.40502 0.48756
# Poissons Ratio (y) = 0.11103 0.70570
# Poissons Ratio (z) = 0.06228 0.32884
#
# Static dielectric constant tensor:
#      x y z
#    x 1.631650 0.000000 0.000000 
#    y 0.000000 1.614810 0.000000 
#    z 0.000000 0.000000 1.655090 
# 
# From -- ./inp_files/10597.got.cif
#   From: 2010.05.17/outbox.cif.g08.bks.cpg/sg40_6_cif.got.tgz:10597.got - 2010.06.03 18:35:42.
