data_PCOD9363488
_publ_section_title
;
Structure prediction by ZEFSAII (Michael W. Deem and Ramdas Pophale) SiO2 
 PCOD9363488
Probable space group: A M A 2
;
_chemical_formula_sum "Si O2"
_cell_formula_units_Z 64
_cell_length_a 16.493735
_cell_length_b 16.361146
_cell_length_c 10.797113
_cell_angle_alpha 90.000000
_cell_angle_beta 90.000000
_cell_angle_gamma 90.000000
_cell_volume 2913.670114
_symmetry_space_group_name_H-M "A M A 2"
_symmetry_group_IT_number 40
_symmetry_cell_setting 'orthorhombic'
loop_
_space_group_symop_operation_xyz
x,y,z
-x,-y,z
1/2-x,y,z
1/2+x,-y,z
x,1/2+y,1/2+z
-x,1/2-y,1/2+z
1/2-x,1/2+y,1/2+z
1/2+x,1/2-y,1/2+z
loop_
_atom_site_type_symbol
_atom_site_label
_atom_site_fract_x
_atom_site_fract_y
_atom_site_fract_z
Si Si1 0.663609 0.815199 0.190770
Si Si2 0.118145 0.317445 0.992580
Si Si3 0.431182 0.596023 0.870039
Si Si4 0.117447 0.926475 0.286108
Si Si5 0.842805 0.611249 0.500575
Si Si6 0.500525 0.591500 0.135671
Si Si7 0.994184 0.318848 0.379330
Si Si8 0.160125 0.576363 0.459453
O O1 0.750000 0.810698 0.252876
O O2 0.600066 0.823643 0.299882
O O3 0.658400 0.894923 0.102635
O O4 0.657893 0.742526 0.091295
O O5 0.158679 0.358713 0.874302
O O6 0.043866 0.263156 0.937068
O O7 0.086247 0.394653 0.069087
O O8 0.373054 0.520089 0.831054
O O9 0.520504 0.583354 0.810857
O O10 0.439327 0.596865 0.018767
O O11 0.139972 0.905766 0.145998
O O12 0.750000 0.643858 0.485231
O O13 0.919648 0.658306 0.441441
O O14 0.843367 0.520176 0.443041
O O15 0.500000 0.500000 0.189834
O O16 0.496713 0.665999 0.231875
O O17 0.921250 0.383352 0.409100
O O18 0.250000 0.604973 0.412913
#
# Coordination Sequence:
#
# PCOD9363488 Si02
#       8
#     8   8   8   8   8   8   8   8
#     4  10  20  36  59  91 131 169 209 265 333 395
#     4  10  23  39  63  94 125 170 218 275 331 399
#     4  10  19  36  64  92 124 166 219 268 330 396
#     4  10  19  36  63  93 125 164 215 277 320 389
#     4  11  22  36  62  99 135 176 223 272 328 403
#     4  11  22  41  63  93 123 168 220 269 329 404
#     4  11  24  38  66  93 132 173 220 276 340 392
#     4   9  18  35  60  94 129 168 217 269 327 391
#
# _framework density 21.965423999999999
#
# number of rings (size 3 to 8) (size 9 to 14) (size 15 to 20)
#    0.000    1.750    3.750    2.625    7.000    0.500 
#    0.000    1.250    0.000    2.250    0.000    0.000 
#    0.000    0.000    0.000    0.000    0.000    0.000 
#
# Total GULP energy -178202.115479 kJ/mol
# GULP energy per Si atom -5568.816109 kJ/mol
# Density = 2.191543 g / cm^3
# Si number density = 21.965424 Si / 1000 Ang^3
#
#
#
# Elastic Constant Matrix: (Units=GPa)
#
#
# Indices 1 2 3 4 5 6 
#
# 1 110.7478 16.5384 31.1583 0.0000 0.0000 0.0000
# 2 16.5384 85.8697 11.5770 0.0000 0.0000 0.0000
# 3 31.1583 11.5770 87.7244 0.0000 0.0000 0.0000
# 4 0.0000 0.0000 0.0000 33.3224 0.0000 0.0000
# 5 0.0000 0.0000 0.0000 0.0000 -3.6847 0.0000
# 6 0.0000 0.0000 0.0000 0.0000 0.0000 -13.8879
#
#
#
# Elastic Compliance Matrix: (Units=1/GPa)
#
#
# Indices 1 2 3 4 5 6 
#
# 1 0.010220 -0.001506 -0.003431 0.000000 0.000000 0.000000
# 2 -0.001506 0.012078 -0.001059 0.000000 0.000000 0.000000
# 3 -0.003431 -0.001059 0.012758 0.000000 0.000000 0.000000
# 4 0.000000 0.000000 0.000000 0.030010 0.000000 0.000000
# 5 0.000000 0.000000 0.000000 0.000000 -0.271390 0.000000
# 6 0.000000 0.000000 0.000000 0.000000 0.000000 -0.072005
#
#
# Mechanical properties :
#
#
# Convention : Reuss Voigt Hill
#
# Bulk Modulus (GPa) = 43.35808 44.76549 44.06178
# Shear Modulus (GPa) = -19.33119 18.15450 -0.58834
#
# Velocity S-wave (km/s) = -2.96982 2.87802 -0.51810
# Velocity P-wave (km/s) = 2.83237 5.60965 4.44356
#
# Compressibility (1/GPa) = 0.02306375
#
# Stress axis : x y z
#
# Youngs Moduli (GPa) = 97.85008 82.79278 78.38335
#
# Poissons Ratio (x) = 0.12466 0.26895
# Poissons Ratio (y) = 0.14733 0.08302
# Poissons Ratio (z) = 0.33574 0.08769
#
# Static dielectric constant tensor:
#      x y z
#    x 1.864210 0.000000 0.000000 
#    y 0.000000 1.886460 0.000000 
#    z 0.000000 0.000000 1.829430 
# 
# From -- ./inp_files/12460.got.cif
#   From: 2010.05.17/outbox.cif.g08.bks.cpg/sg40_7_cif.got.tgz:12460.got - 2010.06.03 18:35:42.
