data_PCOD9363887
_publ_section_title
;
Structure prediction by ZEFSAII (Michael W. Deem and Ramdas Pophale) SiO2 
 PCOD9363887
Probable space group: A M A 2
;
_chemical_formula_sum "Si O2"
_cell_formula_units_Z 64
_cell_length_a 8.871865
_cell_length_b 33.269229
_cell_length_c 11.819343
_cell_angle_alpha 90.000000
_cell_angle_beta 90.000000
_cell_angle_gamma 90.000000
_cell_volume 3488.598560
_symmetry_space_group_name_H-M "A M A 2"
_symmetry_group_IT_number 40
_symmetry_cell_setting 'orthorhombic'
loop_
_space_group_symop_operation_xyz
x,y,z
-x,-y,z
1/2-x,y,z
1/2+x,-y,z
x,1/2+y,1/2+z
-x,1/2-y,1/2+z
1/2-x,1/2+y,1/2+z
1/2+x,1/2-y,1/2+z
loop_
_atom_site_type_symbol
_atom_site_label
_atom_site_fract_x
_atom_site_fract_y
_atom_site_fract_z
Si Si1 0.930742 0.353187 0.972150
Si Si2 0.429423 0.878895 0.233613
Si Si3 0.576049 0.814056 0.072372
Si Si4 0.579445 0.827237 0.806070
Si Si5 0.069119 0.544881 0.613501
Si Si6 0.075039 0.229142 0.602290
Si Si7 0.429659 0.043924 0.855051
Si Si8 0.425412 0.395757 0.180758
O O1 0.750000 0.354978 0.964508
O O2 0.004652 0.363278 0.852599
O O3 0.969083 0.308666 0.022078
O O4 0.989913 0.385003 0.064797
O O5 0.250000 0.882625 0.240253
O O6 0.476226 0.845648 0.140857
O O7 0.500453 0.921626 0.196108
O O8 0.750000 0.819714 0.107444
O O9 0.524353 0.768453 0.091293
O O10 0.566053 0.821406 0.938431
O O11 0.750000 0.843845 0.782188
O O12 0.568539 0.787334 0.730693
O O13 0.454301 0.856891 0.759032
O O14 0.250000 0.542625 0.626683
O O15 0.037839 0.558876 0.483394
O O16 0.000000 0.500000 0.627820
O O17 0.250000 0.238877 0.576707
O O18 0.250000 0.042827 0.842997
O O19 0.501543 0.069289 0.754771
O O20 0.500000 0.000000 0.850479
O O21 0.250000 0.402761 0.160107
#
# Coordination Sequence:
#
# PCOD9363887 Si02
#       8
#     8   8   8   8   8   8   8   8
#     4  10  22  42  63  83 114 156 199 245 299 356
#     4  12  25  40  60  88 121 158 203 250 299 357
#     4  11  23  37  57  85 116 153 196 244 295 350
#     4   9  20  38  56  77 109 149 190 235 286 340
#     4  10  21  39  63  91 124 160 200 246 302 358
#     4   9  20  38  58  82 111 147 190 244 301 352
#     4  10  20  35  58  88 121 155 191 239 292 349
#     4  11  21  35  58  86 114 148 190 235 287 348
#
# _framework density 18.345475
#
# number of rings (size 3 to 8) (size 9 to 14) (size 15 to 20)
#    0.000    1.750    0.000    5.250    1.750    8.000 
#    0.000    0.625    0.000    0.000    0.000    0.000 
#    0.000    0.000    0.000    0.000    0.000    0.000 
#
# Total GULP energy -178686.928491 kJ/mol
# GULP energy per Si atom -5583.966515 kJ/mol
# Density = 1.830372 g / cm^3
# Si number density = 18.345475 Si / 1000 Ang^3
#
#
#
# Elastic Constant Matrix: (Units=GPa)
#
#
# Indices 1 2 3 4 5 6 
#
# 1 96.1178 41.2940 49.2390 0.0000 0.0000 0.0000
# 2 41.2940 71.4843 49.5325 0.0000 0.0000 0.0000
# 3 49.2390 49.5325 106.3993 0.0000 0.0000 0.0000
# 4 0.0000 0.0000 0.0000 8.6507 0.0000 0.0000
# 5 0.0000 0.0000 0.0000 0.0000 27.6910 0.0000
# 6 0.0000 0.0000 0.0000 0.0000 0.0000 34.8019
#
#
#
# Elastic Compliance Matrix: (Units=1/GPa)
#
#
# Indices 1 2 3 4 5 6 
#
# 1 0.015069 -0.005717 -0.004312 0.000000 0.000000 0.000000
# 2 -0.005717 0.022819 -0.007978 0.000000 0.000000 0.000000
# 3 -0.004312 -0.007978 0.015108 0.000000 0.000000 0.000000
# 4 0.000000 0.000000 0.000000 0.115597 0.000000 0.000000
# 5 0.000000 0.000000 0.000000 0.000000 0.036113 0.000000
# 6 0.000000 0.000000 0.000000 0.000000 0.000000 0.028734
#
#
# Mechanical properties :
#
#
# Convention : Reuss Voigt Hill
#
# Bulk Modulus (GPa) = 58.88214 61.57028 60.22621
# Shear Modulus (GPa) = 18.17426 23.15780 20.66603
#
# Velocity S-wave (km/s) = 3.15090 3.55676 3.35997
# Velocity P-wave (km/s) = 6.73821 7.10646 6.92479
#
# Compressibility (1/GPa) = 0.01698308
#
# Stress axis : x y z
#
# Youngs Moduli (GPa) = 66.36141 43.82267 66.19041
#
# Poissons Ratio (x) = 0.25053 0.28542
# Poissons Ratio (y) = 0.37938 0.52803
# Poissons Ratio (z) = 0.28616 0.34960
#
# Static dielectric constant tensor:
#      x y z
#    x 1.625760 0.000000 0.000000 
#    y 0.000000 1.616800 0.000000 
#    z 0.000000 0.000000 1.629240 
# 
# From -- ./inp_files/10580.got.cif
#   From: 2010.05.17/outbox.cif.g08.bks.cpg/sg40_6_cif.got.tgz:10580.got - 2010.06.03 18:35:42.
