data_PCOD9363995
_publ_section_title
;
Structure prediction by ZEFSAII (Michael W. Deem and Ramdas Pophale) SiO2 
 PCOD9363995
Probable space group: A M A 2
;
_chemical_formula_sum "Si O2"
_cell_formula_units_Z 60
_cell_length_a 12.759327
_cell_length_b 27.570199
_cell_length_c 9.345005
_cell_angle_alpha 90.000000
_cell_angle_beta 90.000000
_cell_angle_gamma 90.000000
_cell_volume 3287.359548
_symmetry_space_group_name_H-M "A M A 2"
_symmetry_group_IT_number 40
_symmetry_cell_setting 'orthorhombic'
loop_
_space_group_symop_operation_xyz
x,y,z
-x,-y,z
1/2-x,y,z
1/2+x,-y,z
x,1/2+y,1/2+z
-x,1/2-y,1/2+z
1/2-x,1/2+y,1/2+z
1/2+x,1/2-y,1/2+z
loop_
_atom_site_type_symbol
_atom_site_label
_atom_site_fract_x
_atom_site_fract_y
_atom_site_fract_z
Si Si1 0.370949 0.947875 0.157670
Si Si2 0.627111 0.648443 0.041137
Si Si3 0.135259 0.341430 0.536586
Si Si4 0.629428 0.924812 0.703323
Si Si5 0.000000 0.500000 0.406162
Si Si6 0.513704 0.555010 0.957312
Si Si7 0.371581 0.274738 0.800463
Si Si8 0.527465 0.329488 0.296022
O O1 0.250000 0.964802 0.189931
O O2 0.362337 0.890888 0.125589
O O3 0.452230 0.950448 0.290932
O O4 0.417490 0.974333 0.016245
O O5 0.750000 0.654150 0.067089
O O6 0.601969 0.591621 0.016844
O O7 0.596285 0.681249 0.904667
O O8 0.556188 0.667439 0.168556
O O9 0.250000 0.337378 0.463957
O O10 0.122066 0.296082 0.641373
O O11 0.038083 0.344648 0.433421
O O12 0.750000 0.940158 0.709744
O O13 0.588977 0.923170 0.537460
O O14 0.613739 0.870313 0.762907
O O15 0.558195 0.960468 0.803598
O O16 0.500000 0.500000 0.007479
O O17 0.250000 0.264886 0.832433
O O18 0.432014 0.224777 0.814714
#
# Coordination Sequence:
#
# PCOD9363995 Si02
#       8
#     8   8   8   8   4   8   8   8
#     4  11  22  39  63  89 119 153 200 253 296 350
#     4  10  21  37  59  88 118 153 206 253 295 360
#     4  10  20  36  59  87 116 149 197 250 297 348
#     4  11  25  42  59  87 125 161 200 248 301 368
#     4  12  22  44  60  94 118 158 198 244 304 368
#     4  11  22  40  61  89 120 159 204 248 304 359
#     4  10  20  36  59  84 115 159 199 244 301 357
#     4  11  21  37  59  87 120 157 195 247 307 362
#
# _framework density 18.251732000000001
#
# number of rings (size 3 to 8) (size 9 to 14) (size 15 to 20)
#    0.000    1.333    4.000    2.400    0.000    1.067 
#    0.000    0.000    0.000    0.800    0.000    0.000 
#    0.000    0.000    0.000    0.000    0.000    0.000 
#
# Total GULP energy -167014.267348 kJ/mol
# GULP energy per Si atom -5567.142245 kJ/mol
# Density = 1.821019 g / cm^3
# Si number density = 18.251732 Si / 1000 Ang^3
#
#
#
# Elastic Constant Matrix: (Units=GPa)
#
#
# Indices 1 2 3 4 5 6 
#
# 1 83.0177 29.7520 43.3123 0.0000 0.0000 0.0000
# 2 29.7520 87.7326 17.1359 0.0000 0.0000 0.0000
# 3 43.3123 17.1359 77.1795 0.0000 0.0000 0.0000
# 4 0.0000 0.0000 0.0000 13.0064 0.0000 0.0000
# 5 0.0000 0.0000 0.0000 0.0000 13.8391 0.0000
# 6 0.0000 0.0000 0.0000 0.0000 0.0000 17.4130
#
#
#
# Elastic Compliance Matrix: (Units=1/GPa)
#
#
# Indices 1 2 3 4 5 6 
#
# 1 0.018560 -0.004453 -0.009427 0.000000 0.000000 0.000000
# 2 -0.004453 0.012983 -0.000384 0.000000 0.000000 0.000000
# 3 -0.009427 -0.000384 0.018332 0.000000 0.000000 0.000000
# 4 0.000000 0.000000 0.000000 0.076885 0.000000 0.000000
# 5 0.000000 0.000000 0.000000 0.000000 0.072259 0.000000
# 6 0.000000 0.000000 0.000000 0.000000 0.000000 0.057428
#
#
# Mechanical properties :
#
#
# Convention : Reuss Voigt Hill
#
# Bulk Modulus (GPa) = 46.84192 47.59226 47.21709
# Shear Modulus (GPa) = 17.11797 19.36699 18.24248
#
# Velocity S-wave (km/s) = 3.06581 3.26099 3.16491
# Velocity P-wave (km/s) = 6.18485 6.34908 6.26750
#
# Compressibility (1/GPa) = 0.02134840
#
# Stress axis : x y z
#
# Youngs Moduli (GPa) = 53.88049 77.02230 54.54866
#
# Poissons Ratio (x) = 0.34296 0.51422
# Poissons Ratio (y) = 0.23991 0.02094
# Poissons Ratio (z) = 0.50792 0.02956
#
# Static dielectric constant tensor:
#      x y z
#    x 1.629230 0.000000 0.000000 
#    y 0.000000 1.587420 0.000000 
#    z 0.000000 0.000000 1.665390 
# 
# From -- ./inp_files/5580.got.cif
#   From: 2010.05.17/outbox.cif.g08.bks.cpg/sg40_3_cif.got.tgz:5580.got - 2010.06.03 18:35:42.
