data_PCOD9363381
_publ_section_title
;
Structure prediction by ZEFSAII (Michael W. Deem and Ramdas Pophale) SiO2 
 PCOD9363381
Probable space group: A M A 2
;
_chemical_formula_sum "Si O2"
_cell_formula_units_Z 64
_cell_length_a 8.934593
_cell_length_b 21.127537
_cell_length_c 19.990783
_cell_angle_alpha 90.000000
_cell_angle_beta 90.000000
_cell_angle_gamma 90.000000
_cell_volume 3773.579028
_symmetry_space_group_name_H-M "A M A 2"
_symmetry_group_IT_number 40
_symmetry_cell_setting 'orthorhombic'
loop_
_space_group_symop_operation_xyz
x,y,z
-x,-y,z
1/2-x,y,z
1/2+x,-y,z
x,1/2+y,1/2+z
-x,1/2-y,1/2+z
1/2-x,1/2+y,1/2+z
1/2+x,1/2-y,1/2+z
loop_
_atom_site_type_symbol
_atom_site_label
_atom_site_fract_x
_atom_site_fract_y
_atom_site_fract_z
Si Si1 0.427103 0.265385 0.430070
Si Si2 0.430142 0.311796 0.157966
Si Si3 0.570350 0.934337 0.147184
Si Si4 0.571533 0.065847 0.570741
Si Si5 0.571492 0.762133 0.789633
Si Si6 0.926959 0.386324 0.936640
Si Si7 0.569729 0.309198 0.565592
Si Si8 0.930896 0.377358 0.787541
O O1 0.250000 0.275491 0.422975
O O2 0.509928 0.283604 0.361699
O O3 0.450133 0.189681 0.440411
O O4 0.492086 0.300282 0.494470
O O5 0.250000 0.311223 0.167356
O O6 0.471976 0.375054 0.117731
O O7 0.509795 0.304026 0.228890
O O8 0.468605 0.250694 0.112586
O O9 0.750000 0.938766 0.145009
O O10 0.526414 0.873922 0.102683
O O11 0.527315 0.919465 0.224101
O O12 0.500000 0.000000 0.124802
O O13 0.750000 0.061092 0.571245
O O14 0.516745 0.080866 0.495606
O O15 0.500000 0.000000 0.593065
O O16 0.750000 0.760246 0.789643
O O17 0.505461 0.691338 0.779746
O O18 0.750000 0.398824 0.945592
O O19 0.970479 0.404278 0.860681
O O20 0.750000 0.308651 0.557310
O O21 0.750000 0.368096 0.787123
#
# Coordination Sequence:
#
# PCOD9363381 Si02
#       8
#     8   8   8   8   8   8   8   8
#     4  10  20  34  55  82 113 143 176 225 276 323
#     4  10  20  37  58  79 108 145 182 223 275 323
#     4  10  21  36  54  76 110 148 182 226 272 321
#     4  11  23  37  55  77 108 146 182 224 272 326
#     4  11  21  32  54  85 112 140 180 227 270 323
#     4   9  18  32  52  77 108 143 182 221 263 318
#     4  10  19  35  58  81 108 142 184 228 271 320
#     4   9  18  35  53  75 109 149 184 222 272 316
#
# _framework density 16.960027
#
# number of rings (size 3 to 8) (size 9 to 14) (size 15 to 20)
#    0.000    2.000    2.500    2.625    0.000    5.000 
#    0.000    1.250    0.000    0.750    0.000    5.250 
#    0.000    0.000    0.000    0.000    0.000    0.000 
#
# Total GULP energy -178646.049991 kJ/mol
# GULP energy per Si atom -5582.689062 kJ/mol
# Density = 1.692143 g / cm^3
# Si number density = 16.960027 Si / 1000 Ang^3
#
#
#
# Elastic Constant Matrix: (Units=GPa)
#
#
# Indices 1 2 3 4 5 6 
#
# 1 36.4310 39.1375 42.6209 0.0000 0.0000 0.0000
# 2 39.1375 109.6376 61.0916 0.0000 0.0000 0.0000
# 3 42.6209 61.0916 116.3339 0.0000 0.0000 0.0000
# 4 0.0000 0.0000 0.0000 17.4870 0.0000 0.0000
# 5 0.0000 0.0000 0.0000 0.0000 30.5193 0.0000
# 6 0.0000 0.0000 0.0000 0.0000 0.0000 22.4826
#
#
#
# Elastic Compliance Matrix: (Units=1/GPa)
#
#
# Indices 1 2 3 4 5 6 
#
# 1 0.058153 -0.012564 -0.014708 0.000000 0.000000 0.000000
# 2 -0.012564 0.015608 -0.003594 0.000000 0.000000 0.000000
# 3 -0.014708 -0.003594 0.015871 0.000000 0.000000 0.000000
# 4 0.000000 0.000000 0.000000 0.057185 0.000000 0.000000
# 5 0.000000 0.000000 0.000000 0.000000 0.032766 0.000000
# 6 0.000000 0.000000 0.000000 0.000000 0.000000 0.044479
#
#
# Mechanical properties :
#
#
# Convention : Reuss Voigt Hill
#
# Bulk Modulus (GPa) = 35.83873 60.90029 48.36951
# Shear Modulus (GPa) = 16.94380 22.06795 19.50587
#
# Velocity S-wave (km/s) = 3.16419 3.61109 3.39500
# Velocity P-wave (km/s) = 5.87594 7.30566 6.62946
#
# Compressibility (1/GPa) = 0.02790277
#
# Stress axis : x y z
#
# Youngs Moduli (GPa) = 17.19611 64.06876 63.00606
#
# Poissons Ratio (x) = 0.80493 0.92667
# Poissons Ratio (y) = 0.21604 0.22642
# Poissons Ratio (z) = 0.25291 0.23024
#
# Static dielectric constant tensor:
#      x y z
#    x 1.565430 0.000000 0.000000 
#    y 0.000000 1.561430 0.000000 
#    z 0.000000 0.000000 1.569830 
# 
# From -- ./inp_files/19582.got.cif
#   From: 2010.05.17/outbox.cif.g08.bks.cpg/sg40_10_cif.got.tgz:19582.got - 2010.06.03 18:35:42.
