data_PCOD9363181
_publ_section_title
;
Structure prediction by ZEFSAII (Michael W. Deem and Ramdas Pophale) SiO2 
 PCOD9363181
Probable space group: A M A 2
;
_chemical_formula_sum "Si O2"
_cell_formula_units_Z 56
_cell_length_a 8.600309
_cell_length_b 16.309214
_cell_length_c 20.388143
_cell_angle_alpha 90.000000
_cell_angle_beta 90.000000
_cell_angle_gamma 90.000000
_cell_volume 2859.728197
_symmetry_space_group_name_H-M "A M A 2"
_symmetry_group_IT_number 40
_symmetry_cell_setting 'orthorhombic'
loop_
_space_group_symop_operation_xyz
x,y,z
-x,-y,z
1/2-x,y,z
1/2+x,-y,z
x,1/2+y,1/2+z
-x,1/2-y,1/2+z
1/2-x,1/2+y,1/2+z
1/2+x,1/2-y,1/2+z
loop_
_atom_site_type_symbol
_atom_site_label
_atom_site_fract_x
_atom_site_fract_y
_atom_site_fract_z
Si Si1 0.065232 0.746700 0.635000
Si Si2 0.928193 0.378389 0.959277
Si Si3 0.435757 0.092127 0.049093
Si Si4 0.069418 0.423703 0.824657
Si Si5 0.566485 0.256277 0.788970
Si Si6 0.571303 0.583648 0.087717
Si Si7 0.932781 0.686638 0.425746
O O1 0.250000 0.745444 0.618551
O O2 0.007098 0.661504 0.602349
O O3 0.055637 0.763798 0.712554
O O4 0.993433 0.829489 0.605265
O O5 0.750000 0.393700 0.979739
O O6 0.951594 0.280519 0.950866
O O7 0.962748 0.416751 0.889064
O O8 0.050455 0.415134 0.009663
O O9 0.250000 0.086828 0.054019
O O10 0.500000 0.000000 0.058564
O O11 0.480062 0.127786 0.976810
O O12 0.250000 0.434733 0.838791
O O13 0.000000 0.500000 0.784642
O O14 0.040365 0.336035 0.793286
O O15 0.750000 0.276631 0.802246
O O16 0.522777 0.193666 0.848066
O O17 0.500000 0.500000 0.114271
O O18 0.750000 0.585165 0.107284
O O19 0.750000 0.665633 0.428675
#
# Coordination Sequence:
#
# PCOD9363181 Si02
#       7
#     8   8   8   8   8   8   8
#     4   9  20  39  61  84 117 158 195 242 300 358
#     4  10  19  33  54  81 112 146 181 228 282 336
#     4  11  22  38  61  89 120 159 204 251 300 356
#     4  11  21  33  50  77 111 146 186 231 282 344
#     4   9  19  38  60  81 111 152 196 240 300 358
#     4  11  21  35  55  83 114 149 188 232 288 346
#     4   9  18  34  58  85 113 148 189 240 292 346
#
# _framework density 19.582280000000001
#
# number of rings (size 3 to 8) (size 9 to 14) (size 15 to 20)
#    0.000    2.000    1.429    3.857    0.000    2.857 
#    0.000    5.000    0.000    1.714    0.000    0.000 
#    0.000    0.000    0.000    0.000    0.000    0.000 
#
# Total GULP energy -155916.881495 kJ/mol
# GULP energy per Si atom -5568.460053 kJ/mol
# Density = 1.953771 g / cm^3
# Si number density = 19.582280 Si / 1000 Ang^3
#
#
#
# Elastic Constant Matrix: (Units=GPa)
#
#
# Indices 1 2 3 4 5 6 
#
# 1 42.3114 23.5582 12.3249 0.0000 0.0000 0.0000
# 2 23.5582 114.6266 38.0863 0.0000 0.0000 0.0000
# 3 12.3249 38.0863 65.4302 0.0000 0.0000 0.0000
# 4 0.0000 0.0000 0.0000 4.2485 0.0000 0.0000
# 5 0.0000 0.0000 0.0000 0.0000 18.0041 0.0000
# 6 0.0000 0.0000 0.0000 0.0000 0.0000 29.3312
#
#
#
# Elastic Compliance Matrix: (Units=1/GPa)
#
#
# Indices 1 2 3 4 5 6 
#
# 1 0.026964 -0.004778 -0.002298 0.000000 0.000000 0.000000
# 2 -0.004778 0.011663 -0.005889 0.000000 0.000000 0.000000
# 3 -0.002298 -0.005889 0.019144 0.000000 0.000000 0.000000
# 4 0.000000 0.000000 0.000000 0.235377 0.000000 0.000000
# 5 0.000000 0.000000 0.000000 0.000000 0.055543 0.000000
# 6 0.000000 0.000000 0.000000 0.000000 0.000000 0.034093
#
#
# Mechanical properties :
#
#
# Convention : Reuss Voigt Hill
#
# Bulk Modulus (GPa) = 31.40569 41.14525 36.27547
# Shear Modulus (GPa) = 11.92388 20.21001 16.06694
#
# Velocity S-wave (km/s) = 2.47029 3.21605 2.86752
# Velocity P-wave (km/s) = 4.92027 5.90319 5.43400
#
# Compressibility (1/GPa) = 0.03184136
#
# Stress axis : x y z
#
# Youngs Moduli (GPa) = 37.08640 85.74432 52.23566
#
# Poissons Ratio (x) = 0.40970 0.12003
# Poissons Ratio (y) = 0.17721 0.30760
# Poissons Ratio (z) = 0.08522 0.50492
#
# Static dielectric constant tensor:
#      x y z
#    x 1.669940 0.000000 0.000000 
#    y 0.000000 1.766530 0.000000 
#    z 0.000000 0.000000 1.724340 
# 
# From -- ./inp_files/22180.got.cif
#   From: 2010.05.17/outbox.cif.g08.bks.cpg/sg40_12_cif.got.tgz:22180.got - 2010.06.03 18:35:42.
