data_PCOD9363286
_publ_section_title
;
Structure prediction by ZEFSAII (Michael W. Deem and Ramdas Pophale) SiO2 
 PCOD9363286
Probable space group: A M A 2
;
_chemical_formula_sum "Si O2"
_cell_formula_units_Z 64
_cell_length_a 31.146912
_cell_length_b 11.749045
_cell_length_c 7.671563
_cell_angle_alpha 90.000000
_cell_angle_beta 90.000000
_cell_angle_gamma 90.000000
_cell_volume 2807.381405
_symmetry_space_group_name_H-M "A M A 2"
_symmetry_group_IT_number 40
_symmetry_cell_setting 'orthorhombic'
loop_
_space_group_symop_operation_xyz
x,y,z
-x,-y,z
1/2-x,y,z
1/2+x,-y,z
x,1/2+y,1/2+z
-x,1/2-y,1/2+z
1/2-x,1/2+y,1/2+z
1/2+x,1/2-y,1/2+z
loop_
_atom_site_type_symbol
_atom_site_label
_atom_site_fract_x
_atom_site_fract_y
_atom_site_fract_z
Si Si1 0.610761 0.651821 0.383950
Si Si2 0.296185 0.595777 0.748530
Si Si3 0.476551 0.896651 0.717593
Si Si4 0.796118 0.649198 0.827167
Si Si5 0.457663 0.685054 0.490339
Si Si6 0.890769 0.907914 0.239445
Si Si7 0.609711 0.655168 0.802945
Si Si8 0.704121 0.653317 0.404856
O O1 0.572621 0.590147 0.280015
O O2 0.607291 0.786213 0.335675
O O3 0.607893 0.648445 0.593014
O O4 0.658621 0.607940 0.336612
O O5 0.250000 0.589343 0.652447
O O6 0.296308 0.484941 0.872570
O O7 0.342546 0.586511 0.657809
O O8 0.296194 0.714270 0.849642
O O9 0.478783 0.779414 0.613399
O O10 0.506172 0.877885 0.884836
O O11 0.500000 0.000000 0.618967
O O12 0.750000 0.698156 0.886796
O O13 0.843169 0.694831 0.871761
O O14 0.795849 0.648884 0.615103
O O15 0.428176 0.599541 0.598944
O O16 0.425711 0.759692 0.371525
O O17 0.896348 0.022040 0.353611
O O18 0.750000 0.604865 0.342378
#
# Coordination Sequence:
#
# PCOD9363286 Si02
#       8
#     8   8   8   8   8   8   8   8
#     4   9  18  34  55  79 107 140 178 215 261 317
#     4   8  13  24  45  72 102 137 173 209 255 307
#     4  11  24  41  59  80 108 140 176 223 270 315
#     4   8  14  25  44  72 103 136 173 209 253 309
#     4  11  24  38  56  81 104 135 183 221 266 327
#     4   9  19  35  54  79 110 141 177 222 264 312
#     4  10  19  34  56  79 108 143 176 220 268 310
#     4   8  13  23  44  74 103 132 169 209 249 303
#
# _framework density 22.797045000000001
#
# number of rings (size 3 to 8) (size 9 to 14) (size 15 to 20)
#    0.000    2.750    0.000    1.500    0.000    3.000 
#    0.000    1.250    0.000    0.750    0.000    0.875 
#    0.000   41.000    0.000    0.000    0.000    0.000 
#
# Total GULP energy -178371.803790 kJ/mol
# GULP energy per Si atom -5574.118868 kJ/mol
# Density = 2.274516 g / cm^3
# Si number density = 22.797045 Si / 1000 Ang^3
#
#
#
# Elastic Constant Matrix: (Units=GPa)
#
#
# Indices 1 2 3 4 5 6 
#
# 1 166.9100 39.5838 14.0457 0.0000 0.0000 0.0000
# 2 39.5838 57.4694 13.9917 0.0000 0.0000 0.0000
# 3 14.0457 13.9917 23.7695 0.0000 0.0000 0.0000
# 4 0.0000 0.0000 0.0000 20.1679 0.0000 0.0000
# 5 0.0000 0.0000 0.0000 0.0000 -106.1702 0.0000
# 6 0.0000 0.0000 0.0000 0.0000 0.0000 38.1015
#
#
#
# Elastic Compliance Matrix: (Units=1/GPa)
#
#
# Indices 1 2 3 4 5 6 
#
# 1 0.007210 -0.004586 -0.001561 0.000000 0.000000 0.000000
# 2 -0.004586 0.023229 -0.010963 0.000000 0.000000 0.000000
# 3 -0.001561 -0.010963 0.049447 0.000000 0.000000 0.000000
# 4 0.000000 0.000000 0.000000 0.049584 0.000000 0.000000
# 5 0.000000 0.000000 0.000000 0.000000 -0.009419 0.000000
# 6 0.000000 0.000000 0.000000 0.000000 0.000000 0.026246
#
#
# Mechanical properties :
#
#
# Convention : Reuss Voigt Hill
#
# Bulk Modulus (GPa) = 21.89885 42.59902 32.24894
# Shear Modulus (GPa) = 25.54430 2.45502 13.99966
#
# Velocity S-wave (km/s) = 3.35103 1.03886 2.48079
# Velocity P-wave (km/s) = 4.95978 4.49063 4.73102
#
# Compressibility (1/GPa) = 0.04566450
#
# Stress axis : x y z
#
# Youngs Moduli (GPa) = 138.69110 43.05035 20.22387
#
# Poissons Ratio (x) = 0.19744 0.03157
# Poissons Ratio (y) = 0.63607 0.22172
# Poissons Ratio (z) = 0.21650 0.47197
#
# Static dielectric constant tensor:
#      x y z
#    x 1.918380 0.000000 0.000000 
#    y 0.000000 1.860840 0.000000 
#    z 0.000000 0.000000 1.852350 
# 
# From -- ./inp_files/9422.got.cif
#   From: 2010.05.17/outbox.cif.g08.bks.cpg/sg40_5_cif.got.tgz:9422.got - 2010.06.03 18:35:42.
