data_PCOD9363996
_publ_section_title
;
Structure prediction by ZEFSAII (Michael W. Deem and Ramdas Pophale) SiO2 
 PCOD9363996
Probable space group: A M A 2
;
_chemical_formula_sum "Si O2"
_cell_formula_units_Z 60
_cell_length_a 9.687129
_cell_length_b 30.165896
_cell_length_c 10.828214
_cell_angle_alpha 90.000000
_cell_angle_beta 90.000000
_cell_angle_gamma 90.000000
_cell_volume 3164.230721
_symmetry_space_group_name_H-M "A M A 2"
_symmetry_group_IT_number 40
_symmetry_cell_setting 'orthorhombic'
loop_
_space_group_symop_operation_xyz
x,y,z
-x,-y,z
1/2-x,y,z
1/2+x,-y,z
x,1/2+y,1/2+z
-x,1/2-y,1/2+z
1/2-x,1/2+y,1/2+z
1/2+x,1/2-y,1/2+z
loop_
_atom_site_type_symbol
_atom_site_label
_atom_site_fract_x
_atom_site_fract_y
_atom_site_fract_z
Si Si1 0.000000 0.500000 0.786381
Si Si2 0.398571 0.076031 0.115076
Si Si3 0.083003 0.112465 0.662466
Si Si4 0.101429 0.423969 0.957685
Si Si5 0.416997 0.387535 0.410294
Si Si6 0.088380 0.200991 0.526511
Si Si7 1.000000 0.848360 0.286380
Si Si8 0.911620 0.200991 0.046250
O O1 0.914493 0.467441 0.698087
O O2 0.914493 0.532559 0.874674
O O3 0.250000 0.076345 0.050310
O O4 0.405830 0.117988 0.207836
O O5 0.524734 0.081613 0.020344
O O6 0.250000 0.109952 0.673031
O O7 0.039358 0.162298 0.618654
O O8 0.024734 0.081613 0.552417
O O9 1.000000 0.101844 0.786380
O O10 0.250000 0.423655 0.022450
O O11 0.094170 0.382012 0.864925
O O12 0.250000 0.390048 0.399730
O O13 0.460642 0.337702 0.454107
O O14 0.250000 0.205116 0.555051
O O15 0.024415 0.250000 0.536380
O O16 0.072182 0.181954 0.388595
O O17 0.072181 0.818046 0.184166
O O18 0.750000 0.205116 0.017710
#
# Coordination Sequence:
#
# PCOD9363996 Si02
#       8
#     4   8   8   8   8   8   8   8
#     4  10  22  36  62  94 114 140 180 232 278 338
#     4  10  20  36  59  85 114 146 183 229 282 338
#     4  10  21  37  57  80 112 153 192 231 282 337
#     4  10  20  36  59  85 114 146 183 229 282 338
#     4  10  21  37  57  80 112 153 192 231 282 337
#     4   9  18  31  49  74 105 144 188 234 277 322
#     4   9  18  31  52  76 110 146 184 227 280 327
#     4   9  18  31  49  74 105 144 188 234 277 322
#
# _framework density 18.961953999999999
#
# number of rings (size 3 to 8) (size 9 to 14) (size 15 to 20)
#    0.000    2.400    0.000    2.000    1.867    7.467 
#    0.000    0.667    0.000    8.000    0.000    0.000 
#    0.000    0.000    0.000    0.000    0.000    0.000 
#
# Total GULP energy -167075.204016 kJ/mol
# GULP energy per Si atom -5569.173467 kJ/mol
# Density = 1.891880 g / cm^3
# Si number density = 18.961954 Si / 1000 Ang^3
#
#
#
# Elastic Constant Matrix: (Units=GPa)
#
#
# Indices 1 2 3 4 5 6 
#
# 1 91.3107 19.9470 32.5249 0.0000 0.0000 0.0000
# 2 19.9470 97.3884 33.2546 0.0000 0.0000 0.0000
# 3 32.5249 33.2546 100.3295 0.0000 0.0000 0.0000
# 4 0.0000 0.0000 0.0000 -28.7297 0.0000 0.0000
# 5 0.0000 0.0000 0.0000 0.0000 28.8213 0.0000
# 6 0.0000 0.0000 0.0000 0.0000 0.0000 -25.0293
#
#
#
# Elastic Compliance Matrix: (Units=1/GPa)
#
#
# Indices 1 2 3 4 5 6 
#
# 1 0.012532 -0.001330 -0.003622 0.000000 0.000000 0.000000
# 2 -0.001330 0.011720 -0.003453 0.000000 0.000000 0.000000
# 3 -0.003622 -0.003453 0.012286 0.000000 0.000000 0.000000
# 4 0.000000 0.000000 0.000000 -0.034807 0.000000 0.000000
# 5 0.000000 0.000000 0.000000 0.000000 0.034697 0.000000
# 6 0.000000 0.000000 0.000000 0.000000 0.000000 -0.039953
#
#
# Mechanical properties :
#
#
# Convention : Reuss Voigt Hill
#
# Bulk Modulus (GPa) = 50.69111 51.16462 50.92787
# Shear Modulus (GPa) = 251.75340 8.56593 130.15966
#
# Velocity S-wave (km/s) = 11.53498 2.12773 8.29407
# Velocity P-wave (km/s) = 14.28982 5.75132 10.89212
#
# Compressibility (1/GPa) = 0.01972732
#
# Stress axis : x y z
#
# Youngs Moduli (GPa) = 79.79382 85.32568 81.39388
#
# Poissons Ratio (x) = 0.11349 0.29480
# Poissons Ratio (y) = 0.10613 0.28108
# Poissons Ratio (z) = 0.28900 0.29466
#
# Static dielectric constant tensor:
#      x y z
#    x 1.686530 0.000000 0.000000 
#    y 0.000000 1.691960 0.000000 
#    z 0.000000 0.000000 1.647060 
# 
# From -- ./inp_files/10527.got.cif
#   From: 2010.05.17/outbox.cif.g08.bks.cpg/sg40_6_cif.got.tgz:10527.got - 2010.06.03 18:35:42.
