data_PCOD9363580
_publ_section_title
;
Structure prediction by ZEFSAII (Michael W. Deem and Ramdas Pophale) SiO2 
 PCOD9363580
Probable space group: A M A 2
;
_chemical_formula_sum "Si O2"
_cell_formula_units_Z 60
_cell_length_a 14.287684
_cell_length_b 12.848867
_cell_length_c 14.811077
_cell_angle_alpha 90.000000
_cell_angle_beta 90.000000
_cell_angle_gamma 90.000000
_cell_volume 2719.025683
_symmetry_space_group_name_H-M "A M A 2"
_symmetry_group_IT_number 40
_symmetry_cell_setting 'orthorhombic'
loop_
_space_group_symop_operation_xyz
x,y,z
-x,-y,z
1/2-x,y,z
1/2+x,-y,z
x,1/2+y,1/2+z
-x,1/2-y,1/2+z
1/2-x,1/2+y,1/2+z
1/2+x,1/2-y,1/2+z
loop_
_atom_site_type_symbol
_atom_site_label
_atom_site_fract_x
_atom_site_fract_y
_atom_site_fract_z
Si Si1 0.137708 0.050644 0.313840
Si Si2 0.140557 0.557716 0.013934
Si Si3 0.750000 0.909863 0.818860
Si Si4 0.142706 0.759991 0.718053
Si Si5 0.515638 0.745670 0.565430
Si Si6 0.361936 0.945414 0.130369
Si Si7 0.421328 0.080360 0.958918
Si Si8 0.609097 0.516562 0.200561
O O1 0.250000 0.040878 0.311960
O O2 0.110334 0.020184 0.414735
O O3 0.117598 0.171473 0.290564
O O4 0.105615 0.982115 0.229370
O O5 0.250000 0.590939 0.007919
O O6 0.072245 0.650879 0.042664
O O7 0.133047 0.474586 0.094333
O O8 0.668590 0.922441 0.740087
O O9 0.667397 0.910433 0.895798
O O10 0.250000 0.737223 0.687479
O O11 0.065794 0.758756 0.639508
O O12 0.141401 0.878989 0.752035
O O13 0.588718 0.661030 0.603307
O O14 0.468643 0.691108 0.478791
O O15 0.250000 0.934976 0.129143
O O16 0.391123 0.031359 0.055995
O O17 0.500000 0.000000 0.923092
O O18 0.500000 0.500000 0.210036
#
# Coordination Sequence:
#
# PCOD9363580 Si02
#       8
#     8   8   4   8   8   8   8   8
#     4   9  21  39  70  98 130 177 230 271 336 422
#     4  11  23  46  69  99 138 187 230 282 344 415
#     4  12  24  42  68  92 136 180 226 284 348 416
#     4  11  22  42  68  94 129 179 230 275 340 404
#     4  11  23  39  67 101 138 172 224 287 341 414
#     4  10  19  40  67 100 139 175 216 283 353 409
#     4  10  22  39  63 100 133 172 218 280 350 415
#     4  12  25  45  69  96 135 184 233 284 345 410
#
# _framework density 22.066728000000001
#
# number of rings (size 3 to 8) (size 9 to 14) (size 15 to 20)
#    0.000    1.333    4.667    0.800    0.933    3.200 
#    7.200    0.000    0.000    0.000    0.000    0.000 
#    0.000    0.000    0.000    0.000    0.000    0.000 
#
# Total GULP energy -167194.964392 kJ/mol
# GULP energy per Si atom -5573.165480 kJ/mol
# Density = 2.201650 g / cm^3
# Si number density = 22.066728 Si / 1000 Ang^3
#
#
#
# Elastic Constant Matrix: (Units=GPa)
#
#
# Indices 1 2 3 4 5 6 
#
# 1 165.6803 2.9710 22.9633 0.0000 0.0000 0.0000
# 2 2.9710 32.6062 3.8442 0.0000 0.0000 0.0000
# 3 22.9633 3.8442 126.3162 0.0000 0.0000 0.0000
# 4 0.0000 0.0000 0.0000 9.8494 0.0000 0.0000
# 5 0.0000 0.0000 0.0000 0.0000 16.8548 0.0000
# 6 0.0000 0.0000 0.0000 0.0000 0.0000 16.7991
#
#
#
# Elastic Compliance Matrix: (Units=1/GPa)
#
#
# Indices 1 2 3 4 5 6 
#
# 1 0.006198 -0.000433 -0.001114 0.000000 0.000000 0.000000
# 2 -0.000433 0.030810 -0.000859 0.000000 0.000000 0.000000
# 3 -0.001114 -0.000859 0.008145 0.000000 0.000000 0.000000
# 4 0.000000 0.000000 0.000000 0.101529 0.000000 0.000000
# 5 0.000000 0.000000 0.000000 0.000000 0.059330 0.000000
# 6 0.000000 0.000000 0.000000 0.000000 0.000000 0.059527
#
#
# Mechanical properties :
#
#
# Convention : Reuss Voigt Hill
#
# Bulk Modulus (GPa) = 24.78858 42.68439 33.73648
# Shear Modulus (GPa) = 17.61816 28.35561 22.98688
#
# Velocity S-wave (km/s) = 2.82867 3.58857 3.23104
# Velocity P-wave (km/s) = 4.68256 6.04614 5.40750
#
# Compressibility (1/GPa) = 0.04034116
#
# Stress axis : x y z
#
# Youngs Moduli (GPa) = 161.34688 32.45728 122.77160
#
# Poissons Ratio (x) = 0.01407 0.13671
# Poissons Ratio (y) = 0.06993 0.10544
# Poissons Ratio (z) = 0.17966 0.02788
#
# Static dielectric constant tensor:
#      x y z
#    x 1.790170 0.000000 0.000000 
#    y 0.000000 1.851380 0.000000 
#    z 0.000000 0.000000 1.828040 
# 
# From -- ./inp_files/17224.got.cif
#   From: 2010.05.17/outbox.cif.g08.bks.cpg/sg40_9_cif.got.tgz:17224.got - 2010.06.03 18:35:42.
