data_PCOD9363194
_publ_section_title
;
Structure prediction by ZEFSAII (Michael W. Deem and Ramdas Pophale) SiO2 
 PCOD9363194
Probable space group: A M A 2
;
_chemical_formula_sum "Si O2"
_cell_formula_units_Z 64
_cell_length_a 9.365668
_cell_length_b 24.609182
_cell_length_c 13.437906
_cell_angle_alpha 90.000000
_cell_angle_beta 90.000000
_cell_angle_gamma 90.000000
_cell_volume 3097.187769
_symmetry_space_group_name_H-M "A M A 2"
_symmetry_group_IT_number 40
_symmetry_cell_setting 'orthorhombic'
loop_
_space_group_symop_operation_xyz
x,y,z
-x,-y,z
1/2-x,y,z
1/2+x,-y,z
x,1/2+y,1/2+z
-x,1/2-y,1/2+z
1/2-x,1/2+y,1/2+z
1/2+x,1/2-y,1/2+z
loop_
_atom_site_type_symbol
_atom_site_label
_atom_site_fract_x
_atom_site_fract_y
_atom_site_fract_z
Si Si1 0.421449 0.271807 0.483130
Si Si2 0.581196 0.672620 0.058192
Si Si3 0.917245 0.661524 0.282185
Si Si4 0.418806 0.441891 0.753540
Si Si5 0.900413 0.954912 0.991859
Si Si6 0.591104 0.949724 0.758811
Si Si7 0.585400 0.555407 0.989287
Si Si8 0.921159 0.355915 0.613126
O O1 0.250000 0.271378 0.493178
O O2 0.488154 0.211844 0.489613
O O3 0.455439 0.301259 0.377204
O O4 0.494561 0.303161 0.576381
O O5 0.750000 0.675585 0.031753
O O6 0.568728 0.689437 0.174152
O O7 0.535860 0.609529 0.046467
O O8 0.750000 0.646152 0.294601
O O9 0.008140 0.606825 0.268642
O O10 0.500000 0.500000 0.742563
O O11 0.250000 0.443980 0.723494
O O12 0.420604 0.430821 0.871884
O O13 0.503685 0.393346 0.697013
O O14 0.750000 0.962683 0.042766
O O15 0.889341 0.964059 0.875470
O O16 0.941076 0.894231 0.015739
O O17 0.000000 0.000000 0.034492
O O18 0.750000 0.944699 0.714681
O O19 0.500000 0.000000 0.716352
O O20 0.500000 0.500000 0.003031
O O21 0.750000 0.546080 0.017694
O O22 0.750000 0.346844 0.630032
#
# Coordination Sequence:
#
# PCOD9363194 Si02
#       8
#     8   8   8   8   8   8   8   8
#     4  11  24  41  61  88 120 157 201 251 300 355
#     4  10  23  44  67  91 120 157 198 244 299 359
#     4  10  22  41  63  88 120 156 200 251 301 355
#     4  10  20  35  56  88 124 161 206 254 305 360
#     4   9  18  29  45  72 107 149 194 233 280 338
#     4  10  19  33  54  83 119 159 200 242 293 352
#     4   9  20  40  66  92 122 157 196 246 303 358
#     4  11  21  35  55  82 118 162 205 247 299 355
#
# _framework density 20.663906999999998
#
# number of rings (size 3 to 8) (size 9 to 14) (size 15 to 20)
#    0.000    2.000    1.250    1.875    0.000    6.000 
#    0.000    3.750    0.000    0.000    0.000    0.000 
#    0.000    0.000    0.000    0.000    0.000    0.000 
#
# Total GULP energy -178357.483063 kJ/mol
# GULP energy per Si atom -5573.671346 kJ/mol
# Density = 2.061687 g / cm^3
# Si number density = 20.663907 Si / 1000 Ang^3
#
#
#
# Elastic Constant Matrix: (Units=GPa)
#
#
# Indices 1 2 3 4 5 6 
#
# 1 95.3237 80.7350 36.2175 0.0000 0.0000 0.0000
# 2 80.7350 137.9861 36.7410 0.0000 0.0000 0.0000
# 3 36.2175 36.7410 93.4704 0.0000 0.0000 0.0000
# 4 0.0000 0.0000 0.0000 21.7048 0.0000 0.0000
# 5 0.0000 0.0000 0.0000 0.0000 8.1446 0.0000
# 6 0.0000 0.0000 0.0000 0.0000 0.0000 36.3307
#
#
#
# Elastic Compliance Matrix: (Units=1/GPa)
#
#
# Indices 1 2 3 4 5 6 
#
# 1 0.021980 -0.011831 -0.003866 0.000000 0.000000 0.000000
# 2 -0.011831 0.014462 -0.001101 0.000000 0.000000 0.000000
# 3 -0.003866 -0.001101 0.012629 0.000000 0.000000 0.000000
# 4 0.000000 0.000000 0.000000 0.046073 0.000000 0.000000
# 5 0.000000 0.000000 0.000000 0.000000 0.122781 0.000000
# 6 0.000000 0.000000 0.000000 0.000000 0.000000 0.027525
#
#
# Mechanical properties :
#
#
# Convention : Reuss Voigt Hill
#
# Bulk Modulus (GPa) = 64.61615 70.46304 67.53960
# Shear Modulus (GPa) = 17.59299 24.77511 21.18405
#
# Velocity S-wave (km/s) = 2.92102 3.46635 3.20530
# Velocity P-wave (km/s) = 6.53563 7.08480 6.81575
#
# Compressibility (1/GPa) = 0.01547601
#
# Stress axis : x y z
#
# Youngs Moduli (GPa) = 45.49675 69.14546 79.18112
#
# Poissons Ratio (x) = 0.81804 0.30613
# Poissons Ratio (y) = 0.53826 0.08715
# Poissons Ratio (z) = 0.17590 0.07611
#
# Static dielectric constant tensor:
#      x y z
#    x 1.759810 0.000000 0.000000 
#    y 0.000000 1.720610 0.000000 
#    z 0.000000 0.000000 1.771480 
# 
# From -- ./inp_files/15688.got.cif
#   From: 2010.05.17/outbox.cif.g08.bks.cpg/sg40_8_cif.got.tgz:15688.got - 2010.06.03 18:35:42.
