data_PCOD9363591
_publ_section_title
;
Structure prediction by ZEFSAII (Michael W. Deem and Ramdas Pophale) SiO2 
 PCOD9363591
Probable space group: A M A 2
;
_chemical_formula_sum "Si O2"
_cell_formula_units_Z 20
_cell_length_a 5.675418
_cell_length_b 13.050648
_cell_length_c 10.290133
_cell_angle_alpha 90.000000
_cell_angle_beta 90.000000
_cell_angle_gamma 90.000000
_cell_volume 762.168363
_symmetry_space_group_name_H-M "A M A 2"
_symmetry_group_IT_number 40
_symmetry_cell_setting 'orthorhombic'
loop_
_space_group_symop_operation_xyz
x,y,z
-x,-y,z
1/2-x,y,z
1/2+x,-y,z
x,1/2+y,1/2+z
-x,1/2-y,1/2+z
1/2-x,1/2+y,1/2+z
1/2+x,1/2-y,1/2+z
loop_
_atom_site_type_symbol
_atom_site_label
_atom_site_fract_x
_atom_site_fract_y
_atom_site_fract_z
Si Si1 0.750000 0.971746 0.619751
Si Si2 0.750000 0.730329 0.603647
Si Si3 0.001298 0.380183 0.816265
Si Si4 0.750000 0.551384 0.412228
O O1 0.750000 0.850143 0.637734
O O2 0.500000 0.000000 0.554517
O O3 0.750000 0.035286 0.755505
O O4 0.529352 0.684120 0.684871
O O5 0.750000 0.665927 0.469599
O O6 0.750000 0.359648 0.879421
O O7 0.000000 0.500000 0.780863
O O8 0.250000 0.355239 0.887121
O O9 0.500000 0.500000 0.454046
#
# Coordination Sequence:
#
# PCOD9363591 Si02
#       4
#     4   4   8   4
#     4  10  24  41  53  87 130 155 205 264 297 367
#     4  10  20  30  62  78 116 166 196 240 322 350
#     4   8  15  24  41  77 111 134 188 243 271 351
#     4  10  22  37  59  93 126 155 207 258 299 373
#
# _framework density 26.240922999999999
#
# number of rings (size 3 to 8) (size 9 to 14) (size 15 to 20)
#    1.200    1.600    0.000    1.200    5.600    0.000 
#    0.000    0.000    0.000    0.000    0.000   67.200 
#    0.000    0.000    0.000    0.000    0.000    0.000 
#
# Total GULP energy -55748.992631 kJ/mol
# GULP energy per Si atom -5574.899263 kJ/mol
# Density = 2.618120 g / cm^3
# Si number density = 26.240923 Si / 1000 Ang^3
#
#
#
# Elastic Constant Matrix: (Units=GPa)
#
#
# Indices 1 2 3 4 5 6 
#
# 1 287.2504 56.7039 19.2313 0.0000 0.0000 0.0000
# 2 56.7039 201.6805 36.9635 0.0000 0.0000 0.0000
# 3 19.2313 36.9635 100.8894 0.0000 0.0000 0.0000
# 4 0.0000 0.0000 0.0000 14.5177 0.0000 0.0000
# 5 0.0000 0.0000 0.0000 0.0000 29.1855 0.0000
# 6 0.0000 0.0000 0.0000 0.0000 0.0000 23.2512
#
#
#
# Elastic Compliance Matrix: (Units=1/GPa)
#
#
# Indices 1 2 3 4 5 6 
#
# 1 0.003697 -0.000976 -0.000347 0.000000 0.000000 0.000000
# 2 -0.000976 0.005573 -0.001856 0.000000 0.000000 0.000000
# 3 -0.000347 -0.001856 0.010658 0.000000 0.000000 0.000000
# 4 0.000000 0.000000 0.000000 0.068881 0.000000 0.000000
# 5 0.000000 0.000000 0.000000 0.000000 0.034264 0.000000
# 6 0.000000 0.000000 0.000000 0.000000 0.000000 0.043009
#
#
# Mechanical properties :
#
#
# Convention : Reuss Voigt Hill
#
# Bulk Modulus (GPa) = 73.69026 90.62417 82.15721
# Shear Modulus (GPa) = 28.25459 45.18565 36.72012
#
# Velocity S-wave (km/s) = 3.28493 4.15414 3.74484
# Velocity P-wave (km/s) = 6.52157 7.59076 7.07639
#
# Compressibility (1/GPa) = 0.01357031
#
# Stress axis : x y z
#
# Youngs Moduli (GPa) = 270.47758 179.44246 93.82685
#
# Poissons Ratio (x) = 0.17511 0.03258
# Poissons Ratio (y) = 0.26394 0.17412
# Poissons Ratio (z) = 0.09392 0.33300
#
# Static dielectric constant tensor:
#      x y z
#    x 2.176650 0.000000 0.000000 
#    y 0.000000 2.007130 0.000000 
#    z 0.000000 0.000000 2.070350 
# 
# From -- ./inp_files/9512.got.cif
#   From: 2010.05.17/outbox.cif.g08.bks.cpg/sg40_5_cif.got.tgz:9512.got - 2010.06.03 18:35:42.
