data_PCOD9363297
_publ_section_title
;
Structure prediction by ZEFSAII (Michael W. Deem and Ramdas Pophale) SiO2 
 PCOD9363297
Probable space group: A M A 2
;
_chemical_formula_sum "Si O2"
_cell_formula_units_Z 64
_cell_length_a 8.843981
_cell_length_b 25.477830
_cell_length_c 15.494486
_cell_angle_alpha 90.000000
_cell_angle_beta 90.000000
_cell_angle_gamma 90.000000
_cell_volume 3491.301944
_symmetry_space_group_name_H-M "A M A 2"
_symmetry_group_IT_number 40
_symmetry_cell_setting 'orthorhombic'
loop_
_space_group_symop_operation_xyz
x,y,z
-x,-y,z
1/2-x,y,z
1/2+x,-y,z
x,1/2+y,1/2+z
-x,1/2-y,1/2+z
1/2-x,1/2+y,1/2+z
1/2+x,1/2-y,1/2+z
loop_
_atom_site_type_symbol
_atom_site_label
_atom_site_fract_x
_atom_site_fract_y
_atom_site_fract_z
Si Si1 0.068138 0.105414 0.814240
Si Si2 0.932006 0.860014 0.146507
Si Si3 0.931710 0.354655 0.025724
Si Si4 0.432247 0.057779 0.001376
Si Si5 0.431557 0.168079 0.330175
Si Si6 0.069012 0.265197 0.547108
Si Si7 0.431184 0.221238 0.858522
Si Si8 0.570391 0.056247 0.644995
O O1 0.250000 0.100514 0.803855
O O2 0.028248 0.084127 0.909450
O O3 0.029380 0.167241 0.810402
O O4 0.987188 0.073318 0.739628
O O5 0.750000 0.856516 0.139149
O O6 0.969559 0.867127 0.247316
O O7 0.001763 0.805146 0.115703
O O8 0.982854 0.905208 0.080554
O O9 0.750000 0.361682 0.031958
O O10 0.967302 0.296201 0.060991
O O11 0.013135 0.399476 0.079040
O O12 0.974906 0.353755 0.924229
O O13 0.250000 0.054601 0.004398
O O14 0.500000 0.000000 0.007016
O O15 0.250000 0.175208 0.332788
O O16 0.505344 0.225278 0.318942
O O17 0.250000 0.269620 0.543526
O O18 0.999455 0.280897 0.454689
O O19 0.250000 0.223724 0.864128
O O20 0.750000 0.052876 0.644295
O O21 0.500000 0.000000 0.622932
#
# Coordination Sequence:
#
# PCOD9363297 Si02
#       8
#     8   8   8   8   8   8   8   8
#     4  10  21  38  58  84 119 156 191 235 292 347
#     4  10  20  37  58  84 120 157 194 236 290 347
#     4   9  20  40  60  83 117 152 191 242 295 344
#     4  10  21  38  58  82 114 155 194 234 284 338
#     4   9  20  37  59  86 119 156 193 239 290 347
#     4  10  20  34  56  86 119 154 193 235 284 341
#     4  10  19  34  56  83 119 156 190 233 286 343
#     4  12  26  42  62  86 112 150 198 248 297 351
#
# _framework density 18.33127
#
# number of rings (size 3 to 8) (size 9 to 14) (size 15 to 20)
#    0.000    2.000    1.250    3.000    1.750    6.000 
#    0.000    0.625    0.000    1.500    0.000    0.000 
#    0.000    0.000    0.000    0.000    0.000    0.000 
#
# Total GULP energy -178682.521395 kJ/mol
# GULP energy per Si atom -5583.828794 kJ/mol
# Density = 1.828955 g / cm^3
# Si number density = 18.331270 Si / 1000 Ang^3
#
#
#
# Elastic Constant Matrix: (Units=GPa)
#
#
# Indices 1 2 3 4 5 6 
#
# 1 31.4737 42.0103 33.0484 0.0000 0.0000 0.0000
# 2 42.0103 117.9084 69.1598 0.0000 0.0000 0.0000
# 3 33.0484 69.1598 103.5108 0.0000 0.0000 0.0000
# 4 0.0000 0.0000 0.0000 26.6194 0.0000 0.0000
# 5 0.0000 0.0000 0.0000 0.0000 26.8181 0.0000
# 6 0.0000 0.0000 0.0000 0.0000 0.0000 33.0974
#
#
#
# Elastic Compliance Matrix: (Units=1/GPa)
#
#
# Indices 1 2 3 4 5 6 
#
# 1 0.065008 -0.018069 -0.008683 0.000000 0.000000 0.000000
# 2 -0.018069 0.018969 -0.006905 0.000000 0.000000 0.000000
# 3 -0.008683 -0.006905 0.017047 0.000000 0.000000 0.000000
# 4 0.000000 0.000000 0.000000 0.037567 0.000000 0.000000
# 5 0.000000 0.000000 0.000000 0.000000 0.037288 0.000000
# 6 0.000000 0.000000 0.000000 0.000000 0.000000 0.030214
#
#
# Mechanical properties :
#
#
# Convention : Reuss Voigt Hill
#
# Bulk Modulus (GPa) = 29.66490 60.14778 44.90634
# Shear Modulus (GPa) = 17.56583 24.55193 21.05888
#
# Velocity S-wave (km/s) = 3.09891 3.66368 3.39307
# Velocity P-wave (km/s) = 5.38722 7.12598 6.31671
#
# Compressibility (1/GPa) = 0.03370988
#
# Stress axis : x y z
#
# Youngs Moduli (GPa) = 15.38273 52.71638 58.66273
#
# Poissons Ratio (x) = 0.95255 0.50935
# Poissons Ratio (y) = 0.27795 0.40508
# Poissons Ratio (z) = 0.13356 0.36402
#
# Static dielectric constant tensor:
#      x y z
#    x 1.610860 0.000000 0.000000 
#    y 0.000000 1.606280 0.000000 
#    z 0.000000 0.000000 1.658120 
# 
# From -- ./inp_files/15558.got.cif
#   From: 2010.05.17/outbox.cif.g08.bks.cpg/sg40_8_cif.got.tgz:15558.got - 2010.06.03 18:35:42.
