data_PCOD9363902
_publ_section_title
;
Structure prediction by ZEFSAII (Michael W. Deem and Ramdas Pophale) SiO2 
 PCOD9363902
Probable space group: A M A 2
;
_chemical_formula_sum "Si O2"
_cell_formula_units_Z 60
_cell_length_a 17.803506
_cell_length_b 17.077563
_cell_length_c 8.759801
_cell_angle_alpha 90.000000
_cell_angle_beta 90.000000
_cell_angle_gamma 90.000000
_cell_volume 2663.334235
_symmetry_space_group_name_H-M "A M A 2"
_symmetry_group_IT_number 40
_symmetry_cell_setting 'orthorhombic'
loop_
_space_group_symop_operation_xyz
x,y,z
-x,-y,z
1/2-x,y,z
1/2+x,-y,z
x,1/2+y,1/2+z
-x,1/2-y,1/2+z
1/2-x,1/2+y,1/2+z
1/2+x,1/2-y,1/2+z
loop_
_atom_site_type_symbol
_atom_site_label
_atom_site_fract_x
_atom_site_fract_y
_atom_site_fract_z
Si Si1 0.671939 0.264901 0.525070
Si Si2 0.664745 0.441759 0.836291
Si Si3 0.121615 0.340583 0.521577
Si Si4 0.534097 0.343827 0.359635
Si Si5 0.917934 0.984102 0.046285
Si Si6 0.125630 0.377641 0.867836
Si Si7 0.750000 0.748318 0.332649
Si Si8 0.476049 0.090258 0.536671
O O1 0.750000 0.295628 0.453112
O O2 0.601146 0.295471 0.433863
O O3 0.666901 0.171885 0.496297
O O4 0.684674 0.274428 0.704627
O O5 0.750000 0.411586 0.857956
O O6 0.632961 0.435855 0.664138
O O7 0.661017 0.536143 0.856938
O O8 0.605514 0.408872 0.957644
O O9 0.122649 0.435835 0.499653
O O10 0.128751 0.335539 0.704223
O O11 0.184888 0.291149 0.440878
O O12 0.040901 0.320402 0.449616
O O13 0.558681 0.432068 0.404536
O O14 0.522063 0.350552 0.179416
O O15 0.000000 0.000000 0.124560
O O16 0.039047 0.385778 0.915024
O O17 0.500000 0.000000 0.578194
#
# Coordination Sequence:
#
# PCOD9363902 Si02
#       8
#     8   8   8   8   8   8   4   8
#     4  10  25  43  60  87 134 170 211 267 324 381
#     4  10  20  35  59  93 128 165 209 267 335 383
#     4  10  21  38  70  97 122 164 218 270 321 383
#     4  11  22  41  63  90 133 172 213 258 332 396
#     4   9  19  37  61  93 127 162 211 265 319 384
#     4  10  21  40  66  90 126 168 217 263 321 389
#     4  10  24  42  62  98 130 162 226 266 316 376
#     4  10  20  37  65  96 126 165 218 276 324 391
#
# _framework density 22.528155000000002
#
# number of rings (size 3 to 8) (size 9 to 14) (size 15 to 20)
#    0.400    1.600    0.000    5.200    4.667    4.267 
#    0.000    1.333    0.000    0.000    0.000    0.000 
#    0.000    0.000    0.000    0.000    0.000    0.000 
#
# Total GULP energy -167020.808184 kJ/mol
# GULP energy per Si atom -5567.360273 kJ/mol
# Density = 2.247688 g / cm^3
# Si number density = 22.528155 Si / 1000 Ang^3
#
#
#
# Elastic Constant Matrix: (Units=GPa)
#
#
# Indices 1 2 3 4 5 6 
#
# 1 95.2943 -8.0722 10.6844 0.0000 0.0000 0.0000
# 2 -8.0722 21.5956 13.8818 0.0000 0.0000 0.0000
# 3 10.6844 13.8818 60.9422 0.0000 0.0000 0.0000
# 4 0.0000 0.0000 0.0000 27.8874 0.0000 0.0000
# 5 0.0000 0.0000 0.0000 0.0000 29.6850 0.0000
# 6 0.0000 0.0000 0.0000 0.0000 0.0000 20.7876
#
#
#
# Elastic Compliance Matrix: (Units=1/GPa)
#
#
# Indices 1 2 3 4 5 6 
#
# 1 0.011437 0.006519 -0.003490 0.000000 0.000000 0.000000
# 2 0.006519 0.057964 -0.014346 0.000000 0.000000 0.000000
# 3 -0.003490 -0.014346 0.020289 0.000000 0.000000 0.000000
# 4 0.000000 0.000000 0.000000 0.035858 0.000000 0.000000
# 5 0.000000 0.000000 0.000000 0.000000 0.033687 0.000000
# 6 0.000000 0.000000 0.000000 0.000000 0.000000 0.048106
#
#
# Mechanical properties :
#
#
# Convention : Reuss Voigt Hill
#
# Bulk Modulus (GPa) = 14.91321 23.42445 19.16883
# Shear Modulus (GPa) = 19.81547 26.42788 23.12168
#
# Velocity S-wave (km/s) = 2.96900 3.42878 3.20714
# Velocity P-wave (km/s) = 4.28806 5.10840 4.71610
#
# Compressibility (1/GPa) = 0.06705467
#
# Stress axis : x y z
#
# Youngs Moduli (GPa) = 87.43337 17.25207 49.28844
#
# Poissons Ratio (x) = -0.11246 0.17202
# Poissons Ratio (y) = -0.56994 0.70710
# Poissons Ratio (z) = 0.30514 0.24750
#
# Static dielectric constant tensor:
#      x y z
#    x 1.836070 0.000000 0.000000 
#    y 0.000000 2.043850 0.000000 
#    z 0.000000 0.000000 1.792450 
# 
# From -- ./inp_files/7683.got.cif
#   From: 2010.05.17/outbox.cif.g08.bks.cpg/sg40_4_cif.got.tgz:7683.got - 2010.06.03 18:35:42.
