data_PCOD9363036
_publ_section_title
;
Structure prediction by ZEFSAII (Michael W. Deem and Ramdas Pophale) SiO2 
 PCOD9363036
Probable space group: A M A 2
;
_chemical_formula_sum "Si O2"
_cell_formula_units_Z 48
_cell_length_a 8.338331
_cell_length_b 9.693893
_cell_length_c 32.414350
_cell_angle_alpha 90.000000
_cell_angle_beta 90.000000
_cell_angle_gamma 90.000000
_cell_volume 2620.080711
_symmetry_space_group_name_H-M "A M A 2"
_symmetry_group_IT_number 40
_symmetry_cell_setting 'orthorhombic'
loop_
_space_group_symop_operation_xyz
x,y,z
-x,-y,z
1/2-x,y,z
1/2+x,-y,z
x,1/2+y,1/2+z
-x,1/2-y,1/2+z
1/2-x,1/2+y,1/2+z
1/2+x,1/2-y,1/2+z
loop_
_atom_site_type_symbol
_atom_site_label
_atom_site_fract_x
_atom_site_fract_y
_atom_site_fract_z
Si Si1 0.441957 0.342401 0.783630
Si Si2 0.944078 0.842918 0.526787
Si Si3 0.943419 0.658633 0.694055
Si Si4 0.558466 0.654824 0.357908
Si Si5 0.444136 0.341562 0.603754
Si Si6 0.556165 0.655695 0.450937
O O1 0.500000 0.500000 0.786960
O O2 0.250000 0.342320 0.783663
O O3 0.497548 0.284775 0.738606
O O4 0.500676 0.255327 0.822224
O O5 0.750000 0.841768 0.526874
O O6 0.999369 0.755858 0.566675
O O7 0.999099 0.762469 0.485654
O O8 0.000000 0.000000 0.527778
O O9 0.750000 0.663101 0.693978
O O10 0.997286 0.711917 0.649203
O O11 0.000000 0.500000 0.694279
O O12 0.500000 0.500000 0.349558
O O13 0.750000 0.655916 0.358432
O O14 0.501817 0.691636 0.404381
O O15 0.500000 0.500000 0.598502
O O16 0.250000 0.343393 0.603245
O O17 0.500000 0.500000 0.460161
O O18 0.750000 0.655318 0.451202
#
# Coordination Sequence:
#
# PCOD9363036 Si02
#       6
#     8   8   8   8   8   8
#     4  10  19  32  51  75 103 134 168 206 249 294
#     4  10  21  35  50  72 102 131 160 197 242 291
#     4   8  15  28  47  71  98 127 161 202 242 283
#     4  10  20  35  53  74 101 131 166 206 249 297
#     4   9  17  31  52  75  98 126 163 203 241 286
#     4   9  19  35  54  75  97 125 163 204 243 289
#
# _framework density 18.320046999999999
#
# number of rings (size 3 to 8) (size 9 to 14) (size 15 to 20)
#    0.000    2.667    0.000    1.500    0.000    3.333 
#    0.000    2.500    0.000    2.000    0.000    0.000 
#    0.000    0.000    0.000    0.000    0.000    0.000 
#
# Total GULP energy -133736.386351 kJ/mol
# GULP energy per Si atom -5572.349431 kJ/mol
# Density = 1.827835 g / cm^3
# Si number density = 18.320047 Si / 1000 Ang^3
#
#
#
# Elastic Constant Matrix: (Units=GPa)
#
#
# Indices 1 2 3 4 5 6 
#
# 1 14.1554 13.2871 27.2118 0.0000 0.0000 0.0000
# 2 13.2871 98.4167 116.8152 0.0000 0.0000 0.0000
# 3 27.2118 116.8152 213.2735 0.0000 0.0000 0.0000
# 4 0.0000 0.0000 0.0000 29.2549 0.0000 0.0000
# 5 0.0000 0.0000 0.0000 0.0000 17.7475 0.0000
# 6 0.0000 0.0000 0.0000 0.0000 0.0000 30.1709
#
#
#
# Elastic Compliance Matrix: (Units=1/GPa)
#
#
# Indices 1 2 3 4 5 6 
#
# 1 0.094274 0.004428 -0.014454 0.000000 0.000000 0.000000
# 2 0.004428 0.029249 -0.016585 0.000000 0.000000 0.000000
# 3 -0.014454 -0.016585 0.015617 0.000000 0.000000 0.000000
# 4 0.000000 0.000000 0.000000 0.034182 0.000000 0.000000
# 5 0.000000 0.000000 0.000000 0.000000 0.056346 0.000000
# 6 0.000000 0.000000 0.000000 0.000000 0.000000 0.033145
#
#
# Mechanical properties :
#
#
# Convention : Reuss Voigt Hill
#
# Bulk Modulus (GPa) = 11.63904 71.16375 41.40140
# Shear Modulus (GPa) = 14.50648 26.67011 20.58829
#
# Velocity S-wave (km/s) = 2.81701 3.81962 3.35597
# Velocity P-wave (km/s) = 4.11676 7.64079 6.13716
#
# Compressibility (1/GPa) = 0.08591774
#
# Stress axis : x y z
#
# Youngs Moduli (GPa) = 10.60743 34.18926 64.03169
#
# Poissons Ratio (x) = -0.15141 0.92552
# Poissons Ratio (y) = -0.04697 1.06199
# Poissons Ratio (z) = 0.15332 0.56704
#
# Static dielectric constant tensor:
#      x y z
#    x 1.654520 0.000000 0.000000 
#    y 0.000000 1.569670 0.000000 
#    z 0.000000 0.000000 1.693280 
# 
# From -- ./inp_files/26118.got.cif
#   From: 2010.05.17/outbox.cif.g08.bks.cpg/sg40_14_cif.got.tgz:26118.got - 2010.06.03 18:35:42.
