data_PCOD9363122
_publ_section_title
;
Structure prediction by ZEFSAII (Michael W. Deem and Ramdas Pophale) SiO2 
 PCOD9363122
Probable space group: A M A 2
;
_chemical_formula_sum "Si O2"
_cell_formula_units_Z 64
_cell_length_a 8.748139
_cell_length_b 31.397349
_cell_length_c 14.720013
_cell_angle_alpha 90.000000
_cell_angle_beta 90.000000
_cell_angle_gamma 90.000000
_cell_volume 4043.122025
_symmetry_space_group_name_H-M "A M A 2"
_symmetry_group_IT_number 40
_symmetry_cell_setting 'orthorhombic'
loop_
_space_group_symop_operation_xyz
x,y,z
-x,-y,z
1/2-x,y,z
1/2+x,-y,z
x,1/2+y,1/2+z
-x,1/2-y,1/2+z
1/2-x,1/2+y,1/2+z
1/2+x,1/2-y,1/2+z
loop_
_atom_site_type_symbol
_atom_site_label
_atom_site_fract_x
_atom_site_fract_y
_atom_site_fract_z
Si Si1 0.068125 0.733347 0.170660
Si Si2 0.924730 0.324849 0.656407
Si Si3 0.566019 0.287660 0.965610
Si Si4 0.067134 0.046097 0.065409
Si Si5 0.070773 0.370039 0.488953
Si Si6 0.932220 0.296902 0.369132
Si Si7 0.571277 0.867701 0.353495
Si Si8 0.935189 0.953890 0.277771
O O1 0.250000 0.743840 0.173258
O O2 0.033437 0.707438 0.261955
O O3 0.971079 0.776392 0.172354
O O4 0.038338 0.711790 0.073488
O O5 0.750000 0.328481 0.622494
O O6 0.933124 0.348708 0.751985
O O7 0.035513 0.345090 0.582591
O O8 0.750000 0.285284 0.950928
O O9 0.496237 0.245104 0.920673
O O10 0.506261 0.330884 0.918222
O O11 0.250000 0.045068 0.061699
O O12 0.023231 0.054358 0.171595
O O13 0.000000 0.000000 0.041200
O O14 0.005647 0.084005 0.003006
O O15 0.250000 0.374883 0.475399
O O16 0.001478 0.339463 0.412180
O O17 0.750000 0.297353 0.380965
O O18 0.750000 0.872372 0.379752
O O19 0.507859 0.915357 0.341533
O O20 0.750000 0.954583 0.280972
O O21 0.000000 0.000000 0.302344
#
# Coordination Sequence:
#
# PCOD9363122 Si02
#       8
#     8   8   8   8   8   8   8   8
#     4  10  21  34  48  71 101 129 168 214 251 295
#     4  11  19  30  49  72  99 134 168 205 250 297
#     4  10  19  33  51  71  95 130 169 208 249 301
#     4  10  19  33  51  74 103 132 165 204 250 304
#     4  12  23  34  49  72 100 137 176 210 249 296
#     4  11  22  34  48  71 100 132 167 210 254 298
#     4   9  17  30  48  70  97 131 167 198 242 298
#     4   9  17  30  46  69  98 129 162 197 239 293
#
# _framework density 15.829352
#
# number of rings (size 3 to 8) (size 9 to 14) (size 15 to 20)
#    0.000    1.750    3.750    2.250    0.000    1.000 
#    0.000    0.625    0.000    0.000    0.000    0.875 
#    0.000    2.000    0.000    0.000    0.000    0.000 
#
# Total GULP energy -178485.483552 kJ/mol
# GULP energy per Si atom -5577.671361 kJ/mol
# Density = 1.579332 g / cm^3
# Si number density = 15.829352 Si / 1000 Ang^3
#
#
#
# Elastic Constant Matrix: (Units=GPa)
#
#
# Indices 1 2 3 4 5 6 
#
# 1 42.1158 40.6604 28.0160 0.0000 0.0000 0.0000
# 2 40.6604 143.4393 46.1966 0.0000 0.0000 0.0000
# 3 28.0160 46.1966 68.2289 0.0000 0.0000 0.0000
# 4 0.0000 0.0000 0.0000 22.1136 0.0000 0.0000
# 5 0.0000 0.0000 0.0000 0.0000 11.2097 0.0000
# 6 0.0000 0.0000 0.0000 0.0000 0.0000 23.0498
#
#
#
# Elastic Compliance Matrix: (Units=1/GPa)
#
#
# Indices 1 2 3 4 5 6 
#
# 1 0.037854 -0.007321 -0.010587 0.000000 0.000000 0.000000
# 2 -0.007321 0.010332 -0.003989 0.000000 0.000000 0.000000
# 3 -0.010587 -0.003989 0.021705 0.000000 0.000000 0.000000
# 4 0.000000 0.000000 0.000000 0.045221 0.000000 0.000000
# 5 0.000000 0.000000 0.000000 0.000000 0.089208 0.000000
# 6 0.000000 0.000000 0.000000 0.000000 0.000000 0.043384
#
#
# Mechanical properties :
#
#
# Convention : Reuss Voigt Hill
#
# Bulk Modulus (GPa) = 38.31890 53.72557 46.02223
# Shear Modulus (GPa) = 16.65571 20.53535 18.59553
#
# Velocity S-wave (km/s) = 3.24729 3.60571 3.43118
# Velocity P-wave (km/s) = 6.19031 7.16582 6.69585
#
# Compressibility (1/GPa) = 0.02609678
#
# Stress axis : x y z
#
# Youngs Moduli (GPa) = 26.41700 96.79018 46.07279
#
# Poissons Ratio (x) = 0.70859 0.48777
# Poissons Ratio (y) = 0.19339 0.18380
# Poissons Ratio (z) = 0.27967 0.38612
#
# Static dielectric constant tensor:
#      x y z
#    x 1.536040 0.000000 0.000000 
#    y 0.000000 1.535620 0.000000 
#    z 0.000000 0.000000 1.525670 
# 
# From -- ./inp_files/15867.got.cif
#   From: 2010.05.17/outbox.cif.g08.bks.cpg/sg40_8_cif.got.tgz:15867.got - 2010.06.03 18:35:42.
