data_PCOD9363940
_publ_section_title
;
Structure prediction by ZEFSAII (Michael W. Deem and Ramdas Pophale) SiO2 
 PCOD9363940
Probable space group: A M A 2
;
_chemical_formula_sum "Si O2"
_cell_formula_units_Z 48
_cell_length_a 8.808322
_cell_length_b 31.071140
_cell_length_c 10.066952
_cell_angle_alpha 90.000000
_cell_angle_beta 90.000000
_cell_angle_gamma 90.000000
_cell_volume 2755.169792
_symmetry_space_group_name_H-M "A M A 2"
_symmetry_group_IT_number 40
_symmetry_cell_setting 'orthorhombic'
loop_
_space_group_symop_operation_xyz
x,y,z
-x,-y,z
1/2-x,y,z
1/2+x,-y,z
x,1/2+y,1/2+z
-x,1/2-y,1/2+z
1/2-x,1/2+y,1/2+z
1/2+x,1/2-y,1/2+z
loop_
_atom_site_type_symbol
_atom_site_label
_atom_site_fract_x
_atom_site_fract_y
_atom_site_fract_z
Si Si1 0.567471 0.546222 0.192250
Si Si2 0.569321 0.211373 0.184074
Si Si3 0.066651 0.880950 0.484088
Si Si4 0.567607 0.546666 0.500405
Si Si5 0.430947 0.618420 0.692544
Si Si6 0.931307 0.217842 0.493328
O O1 0.500000 0.500000 0.153896
O O2 0.750000 0.543450 0.187020
O O3 0.525552 0.554874 0.345807
O O4 0.519908 0.584209 0.093501
O O5 0.750000 0.204495 0.176389
O O6 0.487181 0.166276 0.154793
O O7 0.533624 0.223665 0.337010
O O8 0.517092 0.248446 0.084876
O O9 0.250000 0.882775 0.467607
O O10 0.030048 0.831892 0.525209
O O11 0.991170 0.889492 0.341972
O O12 0.500000 0.500000 0.536091
O O13 0.750000 0.545600 0.510384
O O14 0.501358 0.583356 0.594198
O O15 0.250000 0.616388 0.689447
O O16 0.750000 0.223258 0.510930
#
# Coordination Sequence:
#
# PCOD9363940 Si02
#       6
#     8   8   8   8   8   8
#     4   9  19  35  56  80 107 139 175 216 263 314
#     4  10  21  37  56  79 108 141 176 218 267 318
#     4   9  19  37  56  77 108 142 176 218 266 316
#     4  10  20  36  56  80 109 142 179 220 267 316
#     4  11  22  36  55  80 108 141 180 221 264 313
#     4   9  19  35  54  78 107 139 178 221 263 313
#
# _framework density 17.421793000000001
#
# number of rings (size 3 to 8) (size 9 to 14) (size 15 to 20)
#    0.000    2.333    0.000    3.500    0.000    6.667 
#    0.000    3.333    0.000    0.000    0.000    0.000 
#    0.000    0.000    0.000    0.000    0.000    0.000 
#
# Total GULP energy -133961.068212 kJ/mol
# GULP energy per Si atom -5581.711176 kJ/mol
# Density = 1.738214 g / cm^3
# Si number density = 17.421793 Si / 1000 Ang^3
#
#
#
# Elastic Constant Matrix: (Units=GPa)
#
#
# Indices 1 2 3 4 5 6 
#
# 1 63.4799 65.5377 52.9434 0.0000 0.0000 0.0000
# 2 65.5377 160.8358 114.5075 0.0000 0.0000 0.0000
# 3 52.9434 114.5075 98.0252 0.0000 0.0000 0.0000
# 4 0.0000 0.0000 0.0000 42.3791 0.0000 0.0000
# 5 0.0000 0.0000 0.0000 0.0000 27.5696 0.0000
# 6 0.0000 0.0000 0.0000 0.0000 0.0000 34.6226
#
#
#
# Elastic Compliance Matrix: (Units=1/GPa)
#
#
# Indices 1 2 3 4 5 6 
#
# 1 0.029085 -0.003966 -0.011076 0.000000 0.000000 0.000000
# 2 -0.003966 0.037476 -0.041635 0.000000 0.000000 0.000000
# 3 -0.011076 -0.041635 0.064819 0.000000 0.000000 0.000000
# 4 0.000000 0.000000 0.000000 0.023597 0.000000 0.000000
# 5 0.000000 0.000000 0.000000 0.000000 0.036272 0.000000
# 6 0.000000 0.000000 0.000000 0.000000 0.000000 0.028883
#
#
# Mechanical properties :
#
#
# Convention : Reuss Voigt Hill
#
# Bulk Modulus (GPa) = 55.47476 87.59089 71.53282
# Shear Modulus (GPa) = 14.72775 26.87109 20.79942
#
# Velocity S-wave (km/s) = 2.91067 3.93158 3.45900
# Velocity P-wave (km/s) = 6.57322 8.42588 7.55655
#
# Compressibility (1/GPa) = 0.01802622
#
# Stress axis : x y z
#
# Youngs Moduli (GPa) = 34.38168 26.68369 15.42748
#
# Poissons Ratio (x) = 0.10584 0.17087
# Poissons Ratio (y) = 0.13637 0.64233
# Poissons Ratio (z) = 0.38080 1.11098
#
# Static dielectric constant tensor:
#      x y z
#    x 1.584240 0.000000 0.000000 
#    y 0.000000 1.566150 0.000000 
#    z 0.000000 0.000000 1.574080 
# 
# From -- ./inp_files/4574.got.cif
#   From: 2010.05.17/outbox.cif.g08.bks.cpg/sg40_3_cif.got.tgz:4574.got - 2010.06.03 18:35:42.
