data_PCOD9363015
_publ_section_title
;
Structure prediction by ZEFSAII (Michael W. Deem and Ramdas Pophale) SiO2 
 PCOD9363015
Probable space group: A M A 2
;
_chemical_formula_sum "Si O2"
_cell_formula_units_Z 48
_cell_length_a 8.331890
_cell_length_b 13.676099
_cell_length_c 18.347236
_cell_angle_alpha 90.000000
_cell_angle_beta 90.000000
_cell_angle_gamma 90.000000
_cell_volume 2090.626307
_symmetry_space_group_name_H-M "A M A 2"
_symmetry_group_IT_number 40
_symmetry_cell_setting 'orthorhombic'
loop_
_space_group_symop_operation_xyz
x,y,z
-x,-y,z
1/2-x,y,z
1/2+x,-y,z
x,1/2+y,1/2+z
-x,1/2-y,1/2+z
1/2-x,1/2+y,1/2+z
1/2+x,1/2-y,1/2+z
loop_
_atom_site_type_symbol
_atom_site_label
_atom_site_fract_x
_atom_site_fract_y
_atom_site_fract_z
Si Si1 0.933101 0.865726 0.752450
Si Si2 0.055507 0.899669 0.374220
Si Si3 0.065966 0.396276 0.098906
Si Si4 0.557028 0.819705 0.909666
Si Si5 0.432309 0.865274 0.218143
Si Si6 0.559125 0.181257 0.064648
O O1 0.750000 0.905040 0.746309
O O2 0.996172 0.873498 0.835211
O O3 0.918565 0.749872 0.736681
O O4 0.044193 0.899769 0.686742
O O5 0.250000 0.898123 0.371916
O O6 0.004990 0.794771 0.405929
O O7 0.986537 0.902321 0.291505
O O8 0.000000 0.000000 0.410480
O O9 0.250000 0.386561 0.077708
O O10 0.000000 0.500000 0.072464
O O11 0.980325 0.297093 0.072711
O O12 0.750000 0.820622 0.905945
O O13 0.503258 0.857882 0.987857
O O14 0.250000 0.905076 0.214254
O O15 0.507845 0.870553 0.138022
O O16 0.750000 0.171695 0.067094
#
# Coordination Sequence:
#
# PCOD9363015 Si02
#       6
#     8   8   8   8   8   8
#     4   8  15  31  51  68  90 123 161 198 237 281
#     4   9  17  30  47  67  93 123 153 187 229 275
#     4  11  21  33  50  72  98 126 159 198 243 293
#     4   9  18  32  49  70  99 130 157 191 238 287
#     4   7  13  28  47  64  86 120 156 190 230 271
#     4  10  19  32  50  71  96 126 161 198 237 283
#
# _framework density 22.959626
#
# number of rings (size 3 to 8) (size 9 to 14) (size 15 to 20)
#    0.000    3.000    0.000    5.000    0.000    2.000 
#    0.000    9.167    0.000    1.000    0.000    4.667 
#    0.000    0.000    0.000    0.000    0.000    0.000 
#
# Total GULP energy -133799.258422 kJ/mol
# GULP energy per Si atom -5574.969101 kJ/mol
# Density = 2.290737 g / cm^3
# Si number density = 22.959626 Si / 1000 Ang^3
#
#
#
# Elastic Constant Matrix: (Units=GPa)
#
#
# Indices 1 2 3 4 5 6 
#
# 1 19.0346 -3.2373 6.5678 0.0000 0.0000 0.0000
# 2 -3.2373 37.5529 -9.0714 0.0000 0.0000 0.0000
# 3 6.5678 -9.0714 189.1639 0.0000 0.0000 0.0000
# 4 0.0000 0.0000 0.0000 -10.6329 0.0000 0.0000
# 5 0.0000 0.0000 0.0000 0.0000 30.6181 0.0000
# 6 0.0000 0.0000 0.0000 0.0000 0.0000 -2.6976
#
#
#
# Elastic Compliance Matrix: (Units=1/GPa)
#
#
# Indices 1 2 3 4 5 6 
#
# 1 0.053831 0.004238 -0.001666 0.000000 0.000000 0.000000
# 2 0.004238 0.027275 0.001161 0.000000 0.000000 0.000000
# 3 -0.001666 0.001161 0.005400 0.000000 0.000000 0.000000
# 4 0.000000 0.000000 0.000000 -0.094048 0.000000 0.000000
# 5 0.000000 0.000000 0.000000 0.000000 0.032660 0.000000
# 6 0.000000 0.000000 0.000000 0.000000 0.000000 -0.370698
#
#
# Mechanical properties :
#
#
# Convention : Reuss Voigt Hill
#
# Bulk Modulus (GPa) = 10.64140 26.02997 18.33569
# Shear Modulus (GPa) = -15.54141 20.22366 2.34112
#
# Velocity S-wave (km/s) = -2.60456 2.97111 1.01088
# Velocity P-wave (km/s) = 2.09763 4.80956 3.06038
#
# Compressibility (1/GPa) = 0.09397256
#
# Stress axis : x y z
#
# Youngs Moduli (GPa) = 18.57652 36.66379 185.18775
#
# Poissons Ratio (x) = -0.15539 0.30848
# Poissons Ratio (y) = -0.07873 -0.21497
# Poissons Ratio (z) = 0.03094 -0.04256
#
# Static dielectric constant tensor:
#      x y z
#    x 1.799220 0.000000 0.000000 
#    y 0.000000 1.910380 0.000000 
#    z 0.000000 0.000000 1.939220 
# 
# From -- ./inp_files/15065.got.cif
#   From: 2010.05.17/outbox.cif.g08.bks.cpg/sg40_8_cif.got.tgz:15065.got - 2010.06.03 18:35:42.
