data_PCOD9363077
_publ_section_title
;
Structure prediction by ZEFSAII (Michael W. Deem and Ramdas Pophale) SiO2 
 PCOD9363077
Probable space group: A M A 2
;
_chemical_formula_sum "Si O2"
_cell_formula_units_Z 64
_cell_length_a 9.067620
_cell_length_b 33.471084
_cell_length_c 12.057519
_cell_angle_alpha 90.000000
_cell_angle_beta 90.000000
_cell_angle_gamma 90.000000
_cell_volume 3659.494042
_symmetry_space_group_name_H-M "A M A 2"
_symmetry_group_IT_number 40
_symmetry_cell_setting 'orthorhombic'
loop_
_space_group_symop_operation_xyz
x,y,z
-x,-y,z
1/2-x,y,z
1/2+x,-y,z
x,1/2+y,1/2+z
-x,1/2-y,1/2+z
1/2-x,1/2+y,1/2+z
1/2+x,1/2-y,1/2+z
loop_
_atom_site_type_symbol
_atom_site_label
_atom_site_fract_x
_atom_site_fract_y
_atom_site_fract_z
Si Si1 0.426591 0.277082 0.681580
Si Si2 0.418435 0.100287 0.113588
Si Si3 0.071947 0.376043 0.064396
Si Si4 0.071963 0.356876 0.810822
Si Si5 0.426266 0.956914 0.939590
Si Si6 0.082507 0.183787 0.983289
Si Si7 0.573041 0.043304 0.685375
Si Si8 0.428349 0.686506 0.232168
O O1 0.250000 0.277691 0.680861
O O2 0.473093 0.312602 0.766300
O O3 0.485902 0.287840 0.560102
O O4 0.473291 0.232509 0.712534
O O5 0.250000 0.086673 0.130979
O O6 0.498299 0.111159 0.228364
O O7 0.507551 0.070626 0.034976
O O8 0.413800 0.141790 0.046135
O O9 0.250000 0.373938 0.072838
O O10 0.028141 0.420745 0.103676
O O11 0.001839 0.343736 0.146722
O O12 0.031312 0.365559 0.937813
O O13 0.250000 0.359415 0.801374
O O14 0.250000 0.959145 0.949281
O O15 0.461195 0.943723 0.812733
O O16 0.500000 0.000000 0.951039
O O17 0.250000 0.199890 0.976757
O O18 0.029321 0.177140 0.858803
O O19 0.750000 0.038369 0.678030
O O20 0.500000 0.000000 0.665182
O O21 0.250000 0.683474 0.222324
#
# Coordination Sequence:
#
# PCOD9363077 Si02
#       8
#     8   8   8   8   8   8   8   8
#     4   9  19  34  51  73 101 136 177 219 264 315
#     4  10  19  33  53  77 103 135 175 217 263 318
#     4  10  21  36  56  81 106 141 186 225 267 326
#     4   9  19  36  55  73 102 145 183 220 265 317
#     4  10  19  32  53  80 110 139 169 216 267 320
#     4   9  19  34  52  73 100 134 171 213 262 315
#     4   9  19  35  55  82 111 140 177 219 269 324
#     4  10  21  34  51  77 107 136 173 221 271 321
#
# _framework density 17.488755000000001
#
# number of rings (size 3 to 8) (size 9 to 14) (size 15 to 20)
#    0.000    2.500    0.000    1.500    1.750    3.000 
#    0.000    0.625    0.000    1.500    0.000    0.000 
#    0.000    0.000    0.000    0.000    0.000    0.000 
#
# Total GULP energy -178417.168383 kJ/mol
# GULP energy per Si atom -5575.536512 kJ/mol
# Density = 1.744895 g / cm^3
# Si number density = 17.488755 Si / 1000 Ang^3
#
#
#
# Elastic Constant Matrix: (Units=GPa)
#
#
# Indices 1 2 3 4 5 6 
#
# 1 30.4302 33.2438 42.8245 0.0000 0.0000 0.0000
# 2 33.2438 87.5587 73.2777 0.0000 0.0000 0.0000
# 3 42.8245 73.2777 165.3223 0.0000 0.0000 0.0000
# 4 0.0000 0.0000 0.0000 17.4631 0.0000 0.0000
# 5 0.0000 0.0000 0.0000 0.0000 25.8804 0.0000
# 6 0.0000 0.0000 0.0000 0.0000 0.0000 25.5864
#
#
#
# Elastic Compliance Matrix: (Units=1/GPa)
#
#
# Indices 1 2 3 4 5 6 
#
# 1 0.063922 -0.016552 -0.009222 0.000000 0.000000 0.000000
# 2 -0.016552 0.022442 -0.005660 0.000000 0.000000 0.000000
# 3 -0.009222 -0.005660 0.010946 0.000000 0.000000 0.000000
# 4 0.000000 0.000000 0.000000 0.057264 0.000000 0.000000
# 5 0.000000 0.000000 0.000000 0.000000 0.038639 0.000000
# 6 0.000000 0.000000 0.000000 0.000000 0.000000 0.039083
#
#
# Mechanical properties :
#
#
# Convention : Reuss Voigt Hill
#
# Bulk Modulus (GPa) = 29.03300 64.66702 46.85001
# Shear Modulus (GPa) = 16.30555 22.71698 19.51127
#
# Velocity S-wave (km/s) = 3.05674 3.60800 3.34375
# Velocity P-wave (km/s) = 5.39400 7.37655 6.46176
#
# Compressibility (1/GPa) = 0.03444357
#
# Stress axis : x y z
#
# Youngs Moduli (GPa) = 15.64400 44.55971 91.35712
#
# Poissons Ratio (x) = 0.73756 0.84246
# Poissons Ratio (y) = 0.25894 0.51704
# Poissons Ratio (z) = 0.14426 0.25219
#
# Static dielectric constant tensor:
#      x y z
#    x 1.600370 0.000000 0.000000 
#    y 0.000000 1.592000 0.000000 
#    z 0.000000 0.000000 1.583990 
# 
# From -- ./inp_files/10614.got.cif
#   From: 2010.05.17/outbox.cif.g08.bks.cpg/sg40_6_cif.got.tgz:10614.got - 2010.06.03 18:35:42.
