data_PCOD9363713
_publ_section_title
;
Structure prediction by ZEFSAII (Michael W. Deem and Ramdas Pophale) SiO2 
 PCOD9363713
Probable space group: A M A 2
;
_chemical_formula_sum "Si O2"
_cell_formula_units_Z 40
_cell_length_a 8.461692
_cell_length_b 9.825270
_cell_length_c 26.338898
_cell_angle_alpha 90.000000
_cell_angle_beta 90.000000
_cell_angle_gamma 90.000000
_cell_volume 2189.774063
_symmetry_space_group_name_H-M "A M A 2"
_symmetry_group_IT_number 40
_symmetry_cell_setting 'orthorhombic'
loop_
_space_group_symop_operation_xyz
x,y,z
-x,-y,z
1/2-x,y,z
1/2+x,-y,z
x,1/2+y,1/2+z
-x,1/2-y,1/2+z
1/2-x,1/2+y,1/2+z
1/2+x,1/2-y,1/2+z
loop_
_atom_site_type_symbol
_atom_site_label
_atom_site_fract_x
_atom_site_fract_y
_atom_site_fract_z
Si Si1 0.941098 0.345775 0.074120
Si Si2 0.060422 0.846305 0.981511
Si Si3 0.940774 0.151644 0.280446
Si Si4 0.559021 0.652486 0.665355
Si Si5 0.060206 0.152803 0.870601
O O1 0.750000 0.348015 0.074328
O O2 0.994246 0.262243 0.123990
O O3 0.000000 0.500000 0.073254
O O4 0.991852 0.258204 0.025032
O O5 0.250000 0.851132 0.981045
O O6 0.001016 0.803056 0.925894
O O7 0.000000 0.000000 0.991255
O O8 0.750000 0.152026 0.280678
O O9 0.992068 0.187270 0.222949
O O10 0.995263 0.252822 0.324428
O O11 0.000000 0.000000 0.290905
O O12 0.500000 0.500000 0.653477
O O13 0.750000 0.649171 0.664448
O O14 0.250000 0.152528 0.871796
O O15 0.000000 0.000000 0.862675
#
# Coordination Sequence:
#
# PCOD9363713 Si02
#       5
#     8   8   8   8   8
#     4  10  22  36  52  76 105 133 166 207 253 300
#     4  10  20  35  54  76 100 132 171 209 248 298
#     4   9  19  34  53  76 103 133 168 207 250 297
#     4   9  18  35  55  76 101 132 169 208 248 298
#     4  10  20  34  52  76 103 134 169 207 249 297
#
# _framework density 18.266724
#
# number of rings (size 3 to 8) (size 9 to 14) (size 15 to 20)
#    0.000    2.400    0.000    3.000    0.000    5.600 
#    0.000    4.000    0.000    0.000    0.000    0.000 
#    0.000    0.000    0.000    0.000    0.000    0.000 
#
# Total GULP energy -111604.918704 kJ/mol
# GULP energy per Si atom -5580.245935 kJ/mol
# Density = 1.822515 g / cm^3
# Si number density = 18.266724 Si / 1000 Ang^3
#
#
#
# Elastic Constant Matrix: (Units=GPa)
#
#
# Indices 1 2 3 4 5 6 
#
# 1 21.7748 21.0577 29.9391 0.0000 0.0000 0.0000
# 2 21.0577 132.7095 138.5737 0.0000 0.0000 0.0000
# 3 29.9391 138.5737 192.0217 0.0000 0.0000 0.0000
# 4 0.0000 0.0000 0.0000 40.7260 0.0000 0.0000
# 5 0.0000 0.0000 0.0000 0.0000 25.0966 0.0000
# 6 0.0000 0.0000 0.0000 0.0000 0.0000 31.4091
#
#
#
# Elastic Compliance Matrix: (Units=1/GPa)
#
#
# Indices 1 2 3 4 5 6 
#
# 1 0.058488 0.000980 -0.009826 0.000000 0.000000 0.000000
# 2 0.000980 0.030591 -0.022229 0.000000 0.000000 0.000000
# 3 -0.009826 -0.022229 0.022781 0.000000 0.000000 0.000000
# 4 0.000000 0.000000 0.000000 0.024554 0.000000 0.000000
# 5 0.000000 0.000000 0.000000 0.000000 0.039846 0.000000
# 6 0.000000 0.000000 0.000000 0.000000 0.000000 0.031838
#
#
# Mechanical properties :
#
#
# Convention : Reuss Voigt Hill
#
# Bulk Modulus (GPa) = 20.11686 80.62742 50.37214
# Shear Modulus (GPa) = 17.43261 29.90871 23.67066
#
# Velocity S-wave (km/s) = 3.09259 4.05079 3.60368
# Velocity P-wave (km/s) = 4.87738 8.13101 6.70456
#
# Compressibility (1/GPa) = 0.04970956
#
# Stress axis : x y z
#
# Youngs Moduli (GPa) = 17.09762 32.68942 43.89533
#
# Poissons Ratio (x) = -0.03204 0.43133
# Poissons Ratio (y) = -0.01676 0.97575
# Poissons Ratio (z) = 0.16801 0.72665
#
# Static dielectric constant tensor:
#      x y z
#    x 1.630620 0.000000 0.000000 
#    y 0.000000 1.583840 0.000000 
#    z 0.000000 0.000000 1.645200 
# 
# From -- ./inp_files/23818.got.cif
#   From: 2010.05.17/outbox.cif.g08.bks.cpg/sg40_12_cif.got.tgz:23818.got - 2010.06.03 18:35:42.
