data_PCOD9363640
_publ_section_title
;
Structure prediction by ZEFSAII (Michael W. Deem and Ramdas Pophale) SiO2 
 PCOD9363640
Probable space group: A M A 2
;
_chemical_formula_sum "Si O2"
_cell_formula_units_Z 48
_cell_length_a 8.811855
_cell_length_b 14.007135
_cell_length_c 24.255382
_cell_angle_alpha 90.000000
_cell_angle_beta 90.000000
_cell_angle_gamma 90.000000
_cell_volume 2993.813727
_symmetry_space_group_name_H-M "A M A 2"
_symmetry_group_IT_number 40
_symmetry_cell_setting 'orthorhombic'
loop_
_space_group_symop_operation_xyz
x,y,z
-x,-y,z
1/2-x,y,z
1/2+x,-y,z
x,1/2+y,1/2+z
-x,1/2-y,1/2+z
1/2-x,1/2+y,1/2+z
1/2+x,1/2-y,1/2+z
loop_
_atom_site_type_symbol
_atom_site_label
_atom_site_fract_x
_atom_site_fract_y
_atom_site_fract_z
Si Si1 0.931603 0.895974 0.715320
Si Si2 0.068292 0.212657 0.269374
Si Si3 0.431164 0.708421 0.100888
Si Si4 0.431717 0.397392 0.666328
Si Si5 0.432006 0.604910 0.880978
Si Si6 0.069307 0.394828 0.998145
O O1 0.750000 0.897345 0.720677
O O2 0.967266 0.859479 0.653199
O O3 0.000138 0.816092 0.755656
O O4 0.000000 0.000000 0.724438
O O5 0.250000 0.215037 0.263208
O O6 0.031985 0.174162 0.330179
O O7 0.999901 0.140796 0.223864
O O8 0.250000 0.702041 0.091082
O O9 0.466770 0.815465 0.121368
O O10 0.518969 0.673992 0.047339
O O11 0.500000 0.500000 0.652774
O O12 0.250000 0.402889 0.671521
O O13 0.500000 0.500000 0.869375
O O14 0.250000 0.597310 0.886116
O O15 0.502032 0.636617 0.939203
O O16 0.250000 0.402314 0.994829
O O17 0.000000 0.500000 0.009150
#
# Coordination Sequence:
#
# PCOD9363640 Si02
#       6
#     8   8   8   8   8   8
#     4  10  20  33  51  74 101 132 164 201 244 290
#     4  10  20  33  51  74 100 131 165 202 244 289
#     4   9  19  34  50  71  99 130 162 198 241 287
#     4  10  20  33  51  74 101 132 163 200 244 290
#     4  10  20  33  50  72  99 130 162 199 242 288
#     4  11  21  32  50  73  98 129 162 200 243 288
#
# _framework density 16.033062000000001
#
# number of rings (size 3 to 8) (size 9 to 14) (size 15 to 20)
#    0.000    2.000    0.000    6.500    0.000    9.333 
#    0.000    0.000    0.000    1.000    0.000    4.667 
#    0.000    0.000    0.000    0.000    0.000    0.000 
#
# Total GULP energy -133989.737411 kJ/mol
# GULP energy per Si atom -5582.905725 kJ/mol
# Density = 1.599657 g / cm^3
# Si number density = 16.033062 Si / 1000 Ang^3
#
#
#
# Elastic Constant Matrix: (Units=GPa)
#
#
# Indices 1 2 3 4 5 6 
#
# 1 90.8045 62.6980 78.0512 0.0000 0.0000 0.0000
# 2 62.6980 119.8400 85.4460 0.0000 0.0000 0.0000
# 3 78.0512 85.4460 137.3462 0.0000 0.0000 0.0000
# 4 0.0000 0.0000 0.0000 18.1852 0.0000 0.0000
# 5 0.0000 0.0000 0.0000 0.0000 27.8719 0.0000
# 6 0.0000 0.0000 0.0000 0.0000 0.0000 30.5324
#
#
#
# Elastic Compliance Matrix: (Units=1/GPa)
#
#
# Indices 1 2 3 4 5 6 
#
# 1 0.023015 -0.004880 -0.010042 0.000000 0.000000 0.000000
# 2 -0.004880 0.016031 -0.007200 0.000000 0.000000 0.000000
# 3 -0.010042 -0.007200 0.017467 0.000000 0.000000 0.000000
# 4 0.000000 0.000000 0.000000 0.054990 0.000000 0.000000
# 5 0.000000 0.000000 0.000000 0.000000 0.035878 0.000000
# 6 0.000000 0.000000 0.000000 0.000000 0.000000 0.032752
#
#
# Mechanical properties :
#
#
# Convention : Reuss Voigt Hill
#
# Bulk Modulus (GPa) = 81.51859 88.93124 85.22491
# Shear Modulus (GPa) = 21.88487 23.43761 22.66124
#
# Velocity S-wave (km/s) = 3.69858 3.82754 3.76361
# Velocity P-wave (km/s) = 8.31828 8.66725 8.49456
#
# Compressibility (1/GPa) = 0.01226714
#
# Stress axis : x y z
#
# Youngs Moduli (GPa) = 43.45086 62.37737 57.25051
#
# Poissons Ratio (x) = 0.30443 0.57494
# Poissons Ratio (y) = 0.21206 0.41221
# Poissons Ratio (z) = 0.43635 0.44912
#
# Static dielectric constant tensor:
#      x y z
#    x 1.533380 0.000000 0.000000 
#    y 0.000000 1.518160 0.000000 
#    z 0.000000 0.000000 1.521960 
# 
# From -- ./inp_files/21990.got.cif
#   From: 2010.05.17/outbox.cif.g08.bks.cpg/sg40_11_cif.got.tgz:21990.got - 2010.06.03 18:35:42.
