data_PCOD9363156
_publ_section_title
;
Structure prediction by ZEFSAII (Michael W. Deem and Ramdas Pophale) SiO2 
 PCOD9363156
Probable space group: A M A 2
;
_chemical_formula_sum "Si O2"
_cell_formula_units_Z 64
_cell_length_a 8.900594
_cell_length_b 19.956268
_cell_length_c 20.881435
_cell_angle_alpha 90.000000
_cell_angle_beta 90.000000
_cell_angle_gamma 90.000000
_cell_volume 3709.015595
_symmetry_space_group_name_H-M "A M A 2"
_symmetry_group_IT_number 40
_symmetry_cell_setting 'orthorhombic'
loop_
_space_group_symop_operation_xyz
x,y,z
-x,-y,z
1/2-x,y,z
1/2+x,-y,z
x,1/2+y,1/2+z
-x,1/2-y,1/2+z
1/2-x,1/2+y,1/2+z
1/2+x,1/2-y,1/2+z
loop_
_atom_site_type_symbol
_atom_site_label
_atom_site_fract_x
_atom_site_fract_y
_atom_site_fract_z
Si Si1 0.071548 0.208820 0.907930
Si Si2 0.929092 0.786548 0.289748
Si Si3 0.572690 0.571275 0.364663
Si Si4 0.929159 0.431657 0.739414
Si Si5 0.429942 0.931088 0.097943
Si Si6 0.070487 0.287464 0.540572
Si Si7 0.929827 0.792231 0.670217
Si Si8 0.072587 0.428746 0.210651
O O1 0.250000 0.207325 0.903117
O O2 0.003653 0.254944 0.852158
O O3 0.006080 0.134166 0.897427
O O4 0.017367 0.232869 0.977313
O O5 0.750000 0.775333 0.291936
O O6 0.957802 0.865607 0.280983
O O7 0.995054 0.749775 0.227381
O O8 0.500000 0.500000 0.382083
O O9 0.750000 0.571112 0.379081
O O10 0.554087 0.579933 0.287677
O O11 0.750000 0.439324 0.731579
O O12 0.000000 0.500000 0.766095
O O13 0.002978 0.422005 0.669310
O O14 0.250000 0.937367 0.102184
O O15 0.465598 0.864672 0.058075
O O16 0.500000 0.000000 0.071844
O O17 0.250000 0.283450 0.529228
O O18 0.035021 0.242596 0.602550
O O19 0.750000 0.791408 0.678555
O O20 0.991628 0.867296 0.676116
O O21 0.250000 0.428590 0.197421
O O22 0.000000 0.500000 0.193783
#
# Coordination Sequence:
#
# PCOD9363156 Si02
#       8
#     8   8   8   8   8   8   8   8
#     4  12  25  38  57  82 112 152 193 236 282 338
#     4  11  22  37  58  84 114 149 187 234 283 334
#     4  10  20  35  55  80 114 152 189 231 277 332
#     4  10  20  33  55  84 114 146 182 229 280 329
#     4  10  19  33  53  79 111 150 188 227 272 325
#     4  10  23  40  56  78 114 154 190 234 284 334
#     4  11  21  36  60  86 113 148 189 235 283 333
#     4  10  20  34  56  85 116 149 184 232 282 334
#
# _framework density 17.255251999999999
#
# number of rings (size 3 to 8) (size 9 to 14) (size 15 to 20)
#    0.000    1.500    2.500    4.125    0.000    5.000 
#    0.000    1.250    0.000    0.750    0.000    3.500 
#    0.000    0.000    0.000    0.000    0.000    0.000 
#
# Total GULP energy -178826.913814 kJ/mol
# GULP energy per Si atom -5588.341057 kJ/mol
# Density = 1.721598 g / cm^3
# Si number density = 17.255252 Si / 1000 Ang^3
#
#
#
# Elastic Constant Matrix: (Units=GPa)
#
#
# Indices 1 2 3 4 5 6 
#
# 1 103.5312 67.8222 69.7781 0.0000 0.0000 0.0000
# 2 67.8222 123.9786 65.7214 0.0000 0.0000 0.0000
# 3 69.7781 65.7214 101.4763 0.0000 0.0000 0.0000
# 4 0.0000 0.0000 0.0000 16.0569 0.0000 0.0000
# 5 0.0000 0.0000 0.0000 0.0000 22.5168 0.0000
# 6 0.0000 0.0000 0.0000 0.0000 0.0000 31.0320
#
#
#
# Elastic Compliance Matrix: (Units=1/GPa)
#
#
# Indices 1 2 3 4 5 6 
#
# 1 0.020301 -0.005643 -0.010305 0.000000 0.000000 0.000000
# 2 -0.005643 0.013851 -0.005091 0.000000 0.000000 0.000000
# 3 -0.010305 -0.005091 0.020237 0.000000 0.000000 0.000000
# 4 0.000000 0.000000 0.000000 0.062279 0.000000 0.000000
# 5 0.000000 0.000000 0.000000 0.000000 0.044411 0.000000
# 6 0.000000 0.000000 0.000000 0.000000 0.000000 0.032225
#
#
# Mechanical properties :
#
#
# Convention : Reuss Voigt Hill
#
# Bulk Modulus (GPa) = 81.21592 81.73662 81.47627
# Shear Modulus (GPa) = 20.87813 22.29877 21.58845
#
# Velocity S-wave (km/s) = 3.48222 3.59874 3.54096
# Velocity P-wave (km/s) = 7.95848 8.04611 8.00241
#
# Compressibility (1/GPa) = 0.01231286
#
# Stress axis : x y z
#
# Youngs Moduli (GPa) = 49.25932 72.19476 49.41357
#
# Poissons Ratio (x) = 0.40739 0.50919
# Poissons Ratio (y) = 0.27797 0.25155
# Poissons Ratio (z) = 0.50760 0.36752
#
# Static dielectric constant tensor:
#      x y z
#    x 1.572230 0.000000 0.000000 
#    y 0.000000 1.583720 0.000000 
#    z 0.000000 0.000000 1.568760 
# 
# From -- ./inp_files/19651.got.cif
#   From: 2010.05.17/outbox.cif.g08.bks.cpg/sg40_10_cif.got.tgz:19651.got - 2010.06.03 18:35:42.
