data_PCOD9363568
_publ_section_title
;
Structure prediction by ZEFSAII (Michael W. Deem and Ramdas Pophale) SiO2 
 PCOD9363568
Probable space group: A M A 2
;
_chemical_formula_sum "Si O2"
_cell_formula_units_Z 64
_cell_length_a 28.674106
_cell_length_b 13.035058
_cell_length_c 8.923334
_cell_angle_alpha 90.000000
_cell_angle_beta 90.000000
_cell_angle_gamma 90.000000
_cell_volume 3335.262367
_symmetry_space_group_name_H-M "A M A 2"
_symmetry_group_IT_number 40
_symmetry_cell_setting 'orthorhombic'
loop_
_space_group_symop_operation_xyz
x,y,z
-x,-y,z
1/2-x,y,z
1/2+x,-y,z
x,1/2+y,1/2+z
-x,1/2-y,1/2+z
1/2-x,1/2+y,1/2+z
1/2+x,1/2-y,1/2+z
loop_
_atom_site_type_symbol
_atom_site_label
_atom_site_fract_x
_atom_site_fract_y
_atom_site_fract_z
Si Si1 0.858277 0.999668 0.202420
Si Si2 0.482595 0.349684 0.029165
Si Si3 0.517260 0.349664 0.375452
Si Si4 0.575233 0.943647 0.464070
Si Si5 0.194170 0.129740 0.958106
Si Si6 0.694171 0.629102 0.946642
Si Si7 0.142487 0.000256 0.702461
Si Si8 0.424763 0.943825 0.940831
O O1 0.827044 0.077772 0.297732
O O2 0.892393 0.945297 0.320141
O O3 0.892455 0.054059 0.084898
O O4 0.827073 0.921591 0.106975
O O5 0.499911 0.343383 0.202328
O O6 0.461080 0.249960 0.952244
O O7 0.531277 0.370916 0.943977
O O8 0.448530 0.445717 0.001260
O O9 0.468581 0.370664 0.460806
O O10 0.551264 0.445803 0.403380
O O11 0.609000 0.925482 0.605078
O O12 0.250000 0.119605 0.956379
O O13 0.182434 0.250319 0.952366
O O14 0.172414 0.067092 0.818540
O O15 0.750000 0.618968 0.948457
O O16 0.672398 0.566464 0.086192
O O17 0.109110 0.925877 0.800028
#
# Coordination Sequence:
#
# PCOD9363568 Si02
#       8
#     8   8   8   8   8   8   8   8
#     4  10  23  37  64  88 120 160 196 259 299 358
#     4  11  23  37  58  83 120 162 199 250 297 347
#     4  11  23  37  58  83 120 162 199 250 297 347
#     4  10  21  40  56  81 122 154 203 246 290 353
#     4  10  22  41  65  92 122 156 199 250 310 372
#     4  10  22  41  65  92 122 156 199 250 310 372
#     4  10  19  39  64  86 120 162 196 251 305 352
#     4  10  21  40  56  81 122 154 203 246 290 353
#
# _framework density 19.188894000000001
#
# number of rings (size 3 to 8) (size 9 to 14) (size 15 to 20)
#    0.000    1.750    2.500    1.500    3.500    7.000 
#    0.000    3.750    0.000   13.500    0.000    0.000 
#    0.000    0.000    0.000    0.000    0.000    0.000 
#
# Total GULP energy -178595.062665 kJ/mol
# GULP energy per Si atom -5581.095708 kJ/mol
# Density = 1.914522 g / cm^3
# Si number density = 19.188894 Si / 1000 Ang^3
#
#
#
# Elastic Constant Matrix: (Units=GPa)
#
#
# Indices 1 2 3 4 5 6 
#
# 1 96.9020 35.0444 45.5162 0.0000 0.0000 0.0000
# 2 35.0444 97.7989 35.2291 0.0000 0.0000 0.0000
# 3 45.5162 35.2291 108.6847 0.0000 0.0000 0.0000
# 4 0.0000 0.0000 0.0000 17.6583 0.0000 0.0000
# 5 0.0000 0.0000 0.0000 0.0000 24.8796 0.0000
# 6 0.0000 0.0000 0.0000 0.0000 0.0000 1.1971
#
#
#
# Elastic Compliance Matrix: (Units=1/GPa)
#
#
# Indices 1 2 3 4 5 6 
#
# 1 0.013685 -0.003215 -0.004689 0.000000 0.000000 0.000000
# 2 -0.003215 0.012332 -0.002651 0.000000 0.000000 0.000000
# 3 -0.004689 -0.002651 0.012024 0.000000 0.000000 0.000000
# 4 0.000000 0.000000 0.000000 0.056631 0.000000 0.000000
# 5 0.000000 0.000000 0.000000 0.000000 0.040194 0.000000
# 6 0.000000 0.000000 0.000000 0.000000 0.000000 0.835346
#
#
# Mechanical properties :
#
#
# Convention : Reuss Voigt Hill
#
# Bulk Modulus (GPa) = 59.06234 59.44056 59.25145
# Shear Modulus (GPa) = 5.01523 21.25339 13.13431
#
# Velocity S-wave (km/s) = 1.61842 3.33166 2.61908
# Velocity P-wave (km/s) = 5.85992 6.77080 6.33176
#
# Compressibility (1/GPa) = 0.01693126
#
# Stress axis : x y z
#
# Youngs Moduli (GPa) = 73.07387 81.09044 83.16708
#
# Poissons Ratio (x) = 0.26067 0.38998
# Poissons Ratio (y) = 0.23490 0.22048
# Poissons Ratio (z) = 0.34265 0.21497
#
# Static dielectric constant tensor:
#      x y z
#    x 1.653720 0.000000 0.000000 
#    y 0.000000 1.650900 0.000000 
#    z 0.000000 0.000000 1.788880 
# 
# From -- ./inp_files/9423.got.cif
#   From: 2010.05.17/outbox.cif.g08.bks.cpg/sg40_5_cif.got.tgz:9423.got - 2010.06.03 18:35:42.
