data_PCOD9363970
_publ_section_title
;
Structure prediction by ZEFSAII (Michael W. Deem and Ramdas Pophale) SiO2 
 PCOD9363970
Probable space group: A M A 2
;
_chemical_formula_sum "Si O2"
_cell_formula_units_Z 64
_cell_length_a 8.337904
_cell_length_b 18.378243
_cell_length_c 21.278445
_cell_angle_alpha 90.000000
_cell_angle_beta 90.000000
_cell_angle_gamma 90.000000
_cell_volume 3260.624347
_symmetry_space_group_name_H-M "A M A 2"
_symmetry_group_IT_number 40
_symmetry_cell_setting 'orthorhombic'
loop_
_space_group_symop_operation_xyz
x,y,z
-x,-y,z
1/2-x,y,z
1/2+x,-y,z
x,1/2+y,1/2+z
-x,1/2-y,1/2+z
1/2-x,1/2+y,1/2+z
1/2+x,1/2-y,1/2+z
loop_
_atom_site_type_symbol
_atom_site_label
_atom_site_fract_x
_atom_site_fract_y
_atom_site_fract_z
Si Si1 0.556066 0.082960 0.243330
Si Si2 0.056075 0.417004 0.994029
Si Si3 0.942159 0.082914 0.993042
Si Si4 0.443976 0.165013 0.868545
Si Si5 0.057870 0.332803 0.119108
Si Si6 0.556078 0.166942 0.118040
Si Si7 0.554082 0.167175 0.368675
Si Si8 0.442262 0.082908 0.742440
O O1 0.750000 0.083648 0.243329
O O2 0.501258 0.124633 0.180546
O O3 0.501784 0.125191 0.305939
O O4 0.500000 0.000000 0.243645
O O5 0.250000 0.416413 0.994002
O O6 0.000775 0.375205 0.056680
O O7 0.000000 0.500000 0.993855
O O8 0.001681 0.374867 0.931369
O O9 0.750000 0.083173 0.993409
O O10 0.999562 0.125527 0.055260
O O11 0.000000 0.000000 0.993827
O O12 0.000714 0.123524 0.930672
O O13 0.250000 0.165277 0.867948
O O14 0.498124 0.248914 0.868673
O O15 0.499094 0.123328 0.805816
O O16 0.250000 0.332964 0.118338
O O17 0.999021 0.250035 0.118632
O O18 0.000126 0.374230 0.181157
O O19 0.750000 0.166234 0.118226
O O20 0.750000 0.167369 0.368605
O O21 0.250000 0.083474 0.742715
O O22 0.500000 0.000000 0.741273
#
# Coordination Sequence:
#
# PCOD9363970 Si02
#       8
#     8   8   8   8   8   8   8   8
#     4  10  20  36  58  83 112 147 186 227 276 332
#     4  10  21  36  55  81 111 144 183 226 274 329
#     4  11  23  38  58  85 117 152 191 238 289 344
#     4  10  21  39  62  84 111 150 191 236 289 343
#     4  11  23  38  59  85 113 149 192 238 287 341
#     4  10  22  39  58  83 116 152 190 234 284 337
#     4   9  18  35  58  82 110 145 185 228 276 331
#     4  11  23  39  60  85 115 151 191 237 290 347
#
# _framework density 19.628145
#
# number of rings (size 3 to 8) (size 9 to 14) (size 15 to 20)
#    0.000    1.750    0.000    4.125    0.000    8.500 
#    0.000    1.250    0.000    0.000    0.000    0.000 
#    0.000    0.000    0.000    0.000    0.000    0.000 
#
# Total GULP energy -178903.491109 kJ/mol
# GULP energy per Si atom -5590.734097 kJ/mol
# Density = 1.958347 g / cm^3
# Si number density = 19.628145 Si / 1000 Ang^3
#
#
#
# Elastic Constant Matrix: (Units=GPa)
#
#
# Indices 1 2 3 4 5 6 
#
# 1 11.9362 21.2465 27.4844 0.0000 0.0000 0.0000
# 2 21.2465 243.7397 153.0523 0.0000 0.0000 0.0000
# 3 27.4844 153.0523 249.9151 0.0000 0.0000 0.0000
# 4 0.0000 0.0000 0.0000 48.9926 0.0000 0.0000
# 5 0.0000 0.0000 0.0000 0.0000 11.9296 0.0000
# 6 0.0000 0.0000 0.0000 0.0000 0.0000 35.5316
#
#
#
# Elastic Compliance Matrix: (Units=1/GPa)
#
#
# Indices 1 2 3 4 5 6 
#
# 1 0.113847 -0.003350 -0.010469 0.000000 0.000000 0.000000
# 2 -0.003350 0.006765 -0.003774 0.000000 0.000000 0.000000
# 3 -0.010469 -0.003774 0.007464 0.000000 0.000000 0.000000
# 4 0.000000 0.000000 0.000000 0.020411 0.000000 0.000000
# 5 0.000000 0.000000 0.000000 0.000000 0.083825 0.000000
# 6 0.000000 0.000000 0.000000 0.000000 0.000000 0.028144
#
#
# Mechanical properties :
#
#
# Convention : Reuss Voigt Hill
#
# Bulk Modulus (GPa) = 10.76547 101.01750 55.89149
# Shear Modulus (GPa) = 15.30894 39.54462 27.42678
#
# Velocity S-wave (km/s) = 2.79578 4.49340 3.74213
# Velocity P-wave (km/s) = 3.98980 8.85992 6.87083
#
# Compressibility (1/GPa) = 0.09288957
#
# Stress axis : x y z
#
# Youngs Moduli (GPa) = 8.78370 147.82151 133.97291
#
# Poissons Ratio (x) = 0.49526 1.40250
# Poissons Ratio (y) = 0.02943 0.50568
# Poissons Ratio (z) = 0.09195 0.55795
#
# Static dielectric constant tensor:
#      x y z
#    x 1.686300 0.000000 0.000000 
#    y 0.000000 1.630030 0.000000 
#    z 0.000000 0.000000 1.672580 
# 
# From -- ./inp_files/22448.got.cif
#   From: 2010.05.17/outbox.cif.g08.bks.cpg/sg40_12_cif.got.tgz:22448.got - 2010.06.03 18:35:42.
