data_PCOD9363180
_publ_section_title
;
Structure prediction by ZEFSAII (Michael W. Deem and Ramdas Pophale) SiO2 
 PCOD9363180
Probable space group: A M A 2
;
_chemical_formula_sum "Si O2"
_cell_formula_units_Z 48
_cell_length_a 8.667981
_cell_length_b 9.605472
_cell_length_c 32.011956
_cell_angle_alpha 90.000000
_cell_angle_beta 90.000000
_cell_angle_gamma 90.000000
_cell_volume 2665.317018
_symmetry_space_group_name_H-M "A M A 2"
_symmetry_group_IT_number 40
_symmetry_cell_setting 'orthorhombic'
loop_
_space_group_symop_operation_xyz
x,y,z
-x,-y,z
1/2-x,y,z
1/2+x,-y,z
x,1/2+y,1/2+z
-x,1/2-y,1/2+z
1/2-x,1/2+y,1/2+z
1/2+x,1/2-y,1/2+z
loop_
_atom_site_type_symbol
_atom_site_label
_atom_site_fract_x
_atom_site_fract_y
_atom_site_fract_z
Si Si1 0.434348 0.344125 0.525950
Si Si2 0.936193 0.657955 0.951054
Si Si3 0.935444 0.656527 0.859015
Si Si4 0.065707 0.846308 0.695251
Si Si5 0.435234 0.843489 0.268102
Si Si6 0.064684 0.344788 0.099196
O O1 0.500000 0.500000 0.524751
O O2 0.250000 0.347802 0.525509
O O3 0.495550 0.255423 0.486666
O O4 0.493171 0.263802 0.567079
O O5 0.750000 0.653696 0.954314
O O6 0.980449 0.713546 0.904526
O O7 0.000000 0.500000 0.955239
O O8 0.750000 0.650936 0.859012
O O9 0.981915 0.717629 0.813946
O O10 0.000000 0.500000 0.858756
O O11 0.250000 0.849025 0.698264
O O12 0.025593 0.808276 0.647308
O O13 0.998760 0.743849 0.729701
O O14 0.000000 0.000000 0.702618
O O15 0.250000 0.847593 0.266234
O O16 0.500000 0.000000 0.265860
O O17 0.250000 0.347226 0.094835
O O18 0.000000 0.500000 0.090936
#
# Coordination Sequence:
#
# PCOD9363180 Si02
#       6
#     8   8   8   8   8   8
#     4  12  25  40  57  80 110 142 177 220 272 323
#     4  10  19  35  58  83 110 142 182 223 265 315
#     4   8  16  30  51  78 107 140 179 222 263 309
#     4  10  21  37  57  81 109 142 180 222 268 318
#     4  10  19  33  54  81 112 145 182 223 268 316
#     4  10  21  39  61  83 107 139 180 222 265 317
#
# _framework density 18.009115000000001
#
# number of rings (size 3 to 8) (size 9 to 14) (size 15 to 20)
#    0.000    2.000    0.000    4.000    0.000    4.000 
#    0.000    0.833    0.000    0.000    0.000    0.000 
#    0.000    0.000    0.000    0.000    0.000    0.000 
#
# Total GULP energy -133900.337360 kJ/mol
# GULP energy per Si atom -5579.180723 kJ/mol
# Density = 1.796813 g / cm^3
# Si number density = 18.009115 Si / 1000 Ang^3
#
#
#
# Elastic Constant Matrix: (Units=GPa)
#
#
# Indices 1 2 3 4 5 6 
#
# 1 85.0421 49.7531 73.0474 0.0000 0.0000 0.0000
# 2 49.7531 99.8533 111.1206 0.0000 0.0000 0.0000
# 3 73.0474 111.1206 193.4534 0.0000 0.0000 0.0000
# 4 0.0000 0.0000 0.0000 28.4658 0.0000 0.0000
# 5 0.0000 0.0000 0.0000 0.0000 25.7780 0.0000
# 6 0.0000 0.0000 0.0000 0.0000 0.0000 32.8860
#
#
#
# Elastic Compliance Matrix: (Units=1/GPa)
#
#
# Indices 1 2 3 4 5 6 
#
# 1 0.017930 -0.003879 -0.004542 0.000000 0.000000 0.000000
# 2 -0.003879 0.028598 -0.014962 0.000000 0.000000 0.000000
# 3 -0.004542 -0.014962 0.015478 0.000000 0.000000 0.000000
# 4 0.000000 0.000000 0.000000 0.035130 0.000000 0.000000
# 5 0.000000 0.000000 0.000000 0.000000 0.038793 0.000000
# 6 0.000000 0.000000 0.000000 0.000000 0.000000 0.030408
#
#
# Mechanical properties :
#
#
# Convention : Reuss Voigt Hill
#
# Bulk Modulus (GPa) = 65.61801 94.02124 79.81963
# Shear Modulus (GPa) = 22.91657 27.05449 24.98553
#
# Velocity S-wave (km/s) = 3.57108 3.88011 3.72880
# Velocity P-wave (km/s) = 7.31564 8.50850 7.93452
#
# Compressibility (1/GPa) = 0.01523972
#
# Stress axis : x y z
#
# Youngs Moduli (GPa) = 55.77328 34.96776 64.60598
#
# Poissons Ratio (x) = 0.13565 0.29344
# Poissons Ratio (y) = 0.21636 0.96663
# Poissons Ratio (z) = 0.25332 0.52318
#
# Static dielectric constant tensor:
#      x y z
#    x 1.607800 0.000000 0.000000 
#    y 0.000000 1.563110 0.000000 
#    z 0.000000 0.000000 1.656520 
# 
# From -- ./inp_files/26126.got.cif
#   From: 2010.05.17/outbox.cif.g08.bks.cpg/sg40_14_cif.got.tgz:26126.got - 2010.06.03 18:35:42.
