data_PCOD9363345
_publ_section_title
;
Structure prediction by ZEFSAII (Michael W. Deem and Ramdas Pophale) SiO2 
 PCOD9363345
Probable space group: A M A 2
;
_chemical_formula_sum "Si O2"
_cell_formula_units_Z 64
_cell_length_a 17.118185
_cell_length_b 31.841875
_cell_length_c 5.253897
_cell_angle_alpha 90.000000
_cell_angle_beta 90.000000
_cell_angle_gamma 90.000000
_cell_volume 2863.768469
_symmetry_space_group_name_H-M "A M A 2"
_symmetry_group_IT_number 40
_symmetry_cell_setting 'orthorhombic'
loop_
_space_group_symop_operation_xyz
x,y,z
-x,-y,z
1/2-x,y,z
1/2+x,-y,z
x,1/2+y,1/2+z
-x,1/2-y,1/2+z
1/2-x,1/2+y,1/2+z
1/2+x,1/2-y,1/2+z
loop_
_atom_site_type_symbol
_atom_site_label
_atom_site_fract_x
_atom_site_fract_y
_atom_site_fract_z
Si Si1 0.336132 0.084752 0.636050
Si Si2 0.064327 0.343678 0.100948
Si Si3 0.533338 0.891171 0.251075
Si Si4 0.567529 0.470578 0.475255
Si Si5 0.658757 0.030939 0.326903
Si Si6 0.340306 0.915147 0.815997
Si Si7 0.553951 0.745972 0.916889
Si Si8 0.897317 0.833345 0.879765
O O1 0.250000 0.080079 0.523727
O O2 0.408908 0.087091 0.448649
O O3 0.357432 0.045627 0.818036
O O4 0.340472 0.130642 0.773529
O O5 0.116543 0.370812 0.288021
O O6 0.979314 0.336893 0.227600
O O7 0.090214 0.298488 0.999941
O O8 0.045516 0.374415 0.867330
O O9 0.525250 0.926162 0.035849
O O10 0.580757 0.850587 0.156629
O O11 0.500000 0.500000 0.361117
O O12 0.601274 0.494919 0.721595
O O13 0.750000 0.017279 0.349913
O O14 0.634130 0.051820 0.594481
O O15 0.656410 0.063823 0.092097
O O16 0.250000 0.907134 0.754028
O O17 0.504820 0.741872 0.652457
O O18 0.616296 0.783747 0.884705
#
# Coordination Sequence:
#
# PCOD9363345 Si02
#       8
#     8   8   8   8   8   8   8   8
#     4  10  23  40  60  85 122 165 204 251 316 384
#     4  10  20  35  63  87 122 152 197 251 302 359
#     4  10  21  37  58  86 117 155 201 251 310 360
#     4  11  24  37  59  87 117 151 209 263 307 362
#     4  10  23  41  59  82 119 161 201 245 302 361
#     4  10  23  39  59  84 117 159 199 242 303 365
#     4  10  19  34  60  94 123 152 198 249 302 359
#     4   9  20  37  58  91 117 153 200 248 303 362
#
# _framework density 22.348177
#
# number of rings (size 3 to 8) (size 9 to 14) (size 15 to 20)
#    0.000    2.000    1.250    1.125    8.750    3.000 
#    0.000    0.625    0.000    0.000    0.000    0.000 
#    0.000    0.000    0.000    0.000    0.000    0.000 
#
# Total GULP energy -178598.658744 kJ/mol
# GULP energy per Si atom -5581.208086 kJ/mol
# Density = 2.229731 g / cm^3
# Si number density = 22.348177 Si / 1000 Ang^3
#
#
#
# Elastic Constant Matrix: (Units=GPa)
#
#
# Indices 1 2 3 4 5 6 
#
# 1 45.8447 49.3159 4.0182 0.0000 0.0000 0.0000
# 2 49.3159 143.0711 12.2846 0.0000 0.0000 0.0000
# 3 4.0182 12.2846 75.7685 0.0000 0.0000 0.0000
# 4 0.0000 0.0000 0.0000 31.3996 0.0000 0.0000
# 5 0.0000 0.0000 0.0000 0.0000 17.1224 0.0000
# 6 0.0000 0.0000 0.0000 0.0000 0.0000 17.2493
#
#
#
# Elastic Compliance Matrix: (Units=1/GPa)
#
#
# Indices 1 2 3 4 5 6 
#
# 1 0.034668 -0.011959 0.000100 0.000000 0.000000 0.000000
# 2 -0.011959 0.011213 -0.001184 0.000000 0.000000 0.000000
# 3 0.000100 -0.001184 0.013385 0.000000 0.000000 0.000000
# 4 0.000000 0.000000 0.000000 0.031847 0.000000 0.000000
# 5 0.000000 0.000000 0.000000 0.000000 0.058403 0.000000
# 6 0.000000 0.000000 0.000000 0.000000 0.000000 0.057973
#
#
# Mechanical properties :
#
#
# Convention : Reuss Voigt Hill
#
# Bulk Modulus (GPa) = 30.13692 43.99129 37.06411
# Shear Modulus (GPa) = 20.43867 26.42531 23.43199
#
# Velocity S-wave (km/s) = 3.02744 3.44239 3.24156
# Velocity P-wave (km/s) = 5.07297 5.96048 5.53454
#
# Compressibility (1/GPa) = 0.03318189
#
# Stress axis : x y z
#
# Youngs Moduli (GPa) = 28.84507 89.18042 74.71211
#
# Poissons Ratio (x) = 1.06646 -0.00750
# Poissons Ratio (y) = 0.34494 0.08845
# Poissons Ratio (z) = -0.00289 0.10558
#
# Static dielectric constant tensor:
#      x y z
#    x 1.817800 0.000000 0.000000 
#    y 0.000000 1.867410 0.000000 
#    z 0.000000 0.000000 1.935910 
# 
# From -- ./inp_files/2003.got.cif
#   From: 2010.05.17/outbox.cif.g08.bks.cpg/sg40_2_cif.got.tgz:2003.got - 2010.06.03 18:35:42.
