data_PCOD9363131
_publ_section_title
;
Structure prediction by ZEFSAII (Michael W. Deem and Ramdas Pophale) SiO2 
 PCOD9363131
Probable space group: A M A 2
;
_chemical_formula_sum "Si O2"
_cell_formula_units_Z 56
_cell_length_a 8.452640
_cell_length_b 15.927151
_cell_length_c 20.589392
_cell_angle_alpha 90.000000
_cell_angle_beta 90.000000
_cell_angle_gamma 90.000000
_cell_volume 2771.877239
_symmetry_space_group_name_H-M "A M A 2"
_symmetry_group_IT_number 40
_symmetry_cell_setting 'orthorhombic'
loop_
_space_group_symop_operation_xyz
x,y,z
-x,-y,z
1/2-x,y,z
1/2+x,-y,z
x,1/2+y,1/2+z
-x,1/2-y,1/2+z
1/2-x,1/2+y,1/2+z
1/2+x,1/2-y,1/2+z
loop_
_atom_site_type_symbol
_atom_site_label
_atom_site_fract_x
_atom_site_fract_y
_atom_site_fract_z
Si Si1 0.933991 0.271020 0.908860
Si Si2 0.932908 0.078552 0.868187
Si Si3 0.437031 0.751980 0.050698
Si Si4 0.442867 0.693522 0.765801
Si Si5 0.431229 0.123012 0.734322
Si Si6 0.430079 0.913400 0.607201
Si Si7 0.438847 0.594004 0.637792
O O1 0.750000 0.297852 0.913889
O O2 0.939658 0.170747 0.898105
O O3 0.992822 0.314526 0.841961
O O4 0.007168 0.276172 0.980442
O O5 0.750000 0.065010 0.851745
O O6 0.042092 0.085128 0.805072
O O7 0.000000 0.000000 0.908575
O O8 0.250000 0.767147 0.042872
O O9 0.468375 0.668792 0.092097
O O10 0.504561 0.834002 0.087130
O O11 0.250000 0.704474 0.765921
O O12 0.523341 0.779138 0.741596
O O13 0.482928 0.623921 0.711593
O O14 0.250000 0.112026 0.713150
O O15 0.555470 0.083177 0.684947
O O16 0.250000 0.901787 0.587065
O O17 0.500000 0.000000 0.580161
O O18 0.500000 0.500000 0.624716
O O19 0.250000 0.592856 0.634984
#
# Coordination Sequence:
#
# PCOD9363131 Si02
#       7
#     8   8   8   8   8   8   8
#     4   8  18  36  59  82 112 157 198 244 306 366
#     4  10  19  33  51  77 113 150 190 235 287 349
#     4  11  22  40  63  90 124 159 203 254 311 374
#     4   9  18  37  61  85 116 156 199 245 300 358
#     4  11  20  32  54  84 115 148 185 233 289 346
#     4  12  24  39  58  84 116 153 194 239 298 360
#     4  11  23  39  63  92 126 167 213 262 313 369
#
# _framework density 20.202915000000001
#
# number of rings (size 3 to 8) (size 9 to 14) (size 15 to 20)
#    0.000    1.714    1.429    5.143    0.000    1.143 
#    0.000    9.286    0.000    1.714    0.000    0.000 
#    0.000    0.000    0.000    0.000    0.000    0.000 
#
# Total GULP energy -156042.877392 kJ/mol
# GULP energy per Si atom -5572.959907 kJ/mol
# Density = 2.015693 g / cm^3
# Si number density = 20.202915 Si / 1000 Ang^3
#
#
#
# Elastic Constant Matrix: (Units=GPa)
#
#
# Indices 1 2 3 4 5 6 
#
# 1 55.0110 12.7733 10.1269 0.0000 0.0000 0.0000
# 2 12.7733 86.5245 13.9862 0.0000 0.0000 0.0000
# 3 10.1269 13.9862 93.7955 0.0000 0.0000 0.0000
# 4 0.0000 0.0000 0.0000 2.7464 0.0000 0.0000
# 5 0.0000 0.0000 0.0000 0.0000 13.6885 0.0000
# 6 0.0000 0.0000 0.0000 0.0000 0.0000 25.9105
#
#
#
# Elastic Compliance Matrix: (Units=1/GPa)
#
#
# Indices 1 2 3 4 5 6 
#
# 1 0.019078 -0.002545 -0.001680 0.000000 0.000000 0.000000
# 2 -0.002545 0.012182 -0.001542 0.000000 0.000000 0.000000
# 3 -0.001680 -0.001542 0.011073 0.000000 0.000000 0.000000
# 4 0.000000 0.000000 0.000000 0.364109 0.000000 0.000000
# 5 0.000000 0.000000 0.000000 0.000000 0.073054 0.000000
# 6 0.000000 0.000000 0.000000 0.000000 0.000000 0.038594
#
#
# Mechanical properties :
#
#
# Convention : Reuss Voigt Hill
#
# Bulk Modulus (GPa) = 32.46806 34.34488 33.40647
# Shear Modulus (GPa) = 9.26112 21.69872 15.47992
#
# Velocity S-wave (km/s) = 2.14336 3.28081 2.77107
# Velocity P-wave (km/s) = 4.71500 5.60254 5.17782
#
# Compressibility (1/GPa) = 0.03079950
#
# Stress axis : x y z
#
# Youngs Moduli (GPa) = 52.41527 82.08610 90.31120
#
# Poissons Ratio (x) = 0.20890 0.15176
# Poissons Ratio (y) = 0.13339 0.13924
# Poissons Ratio (z) = 0.08808 0.12656
#
# Static dielectric constant tensor:
#      x y z
#    x 1.685500 0.000000 0.000000 
#    y 0.000000 1.754200 0.000000 
#    z 0.000000 0.000000 1.783680 
# 
# From -- ./inp_files/22158.got.cif
#   From: 2010.05.17/outbox.cif.g08.bks.cpg/sg40_12_cif.got.tgz:22158.got - 2010.06.03 18:35:42.
