data_PCOD9363483
_publ_section_title
;
Structure prediction by ZEFSAII (Michael W. Deem and Ramdas Pophale) SiO2 
 PCOD9363483
Probable space group: A M A 2
;
_chemical_formula_sum "Si O2"
_cell_formula_units_Z 48
_cell_length_a 14.682045
_cell_length_b 16.685324
_cell_length_c 10.286900
_cell_angle_alpha 90.000000
_cell_angle_beta 90.000000
_cell_angle_gamma 90.000000
_cell_volume 2520.030013
_symmetry_space_group_name_H-M "A M A 2"
_symmetry_group_IT_number 40
_symmetry_cell_setting 'orthorhombic'
loop_
_space_group_symop_operation_xyz
x,y,z
-x,-y,z
1/2-x,y,z
1/2+x,-y,z
x,1/2+y,1/2+z
-x,1/2-y,1/2+z
1/2-x,1/2+y,1/2+z
1/2+x,1/2-y,1/2+z
loop_
_atom_site_type_symbol
_atom_site_label
_atom_site_fract_x
_atom_site_fract_y
_atom_site_fract_z
Si Si1 0.250000 0.312529 0.378570
Si Si2 0.064401 0.776445 0.556938
Si Si3 0.906335 0.585537 0.244910
Si Si4 0.750000 0.143469 0.160185
Si Si5 0.110900 0.082324 0.817443
Si Si6 0.411215 0.260304 0.763469
Si Si7 0.750000 0.303451 0.653644
Si Si8 0.250000 0.534329 0.540062
O O1 0.164698 0.364706 0.329873
O O2 0.250000 0.301816 0.530861
O O3 0.250000 0.231582 0.297606
O O4 0.078387 0.866154 0.612140
O O5 0.043584 0.771751 0.404998
O O6 0.159858 0.730746 0.582609
O O7 0.985479 0.740874 0.648774
O O8 0.874195 0.494505 0.224447
O O9 0.001212 0.586509 0.323967
O O10 0.661562 0.169929 0.240031
O O11 0.750000 0.053672 0.101892
O O12 0.135795 0.171590 0.770688
O O13 0.163713 0.054738 0.946736
O O14 0.750000 0.398280 0.649419
#
# Coordination Sequence:
#
# PCOD9363483 Si02
#       8
#     4   8   8   4   8   8   4   4
#     4  10  20  36  57  93 120 157 201 262 315 368
#     4  10  22  40  66  92 127 166 211 258 325 378
#     4   9  19  35  63  92 119 156 207 258 307 370
#     4  12  26  38  62  92 129 158 224 271 316 373
#     4  10  19  36  63  90 120 160 213 249 306 381
#     4  11  24  39  63  95 128 166 211 265 320 386
#     4  10  21  38  63  85 125 164 208 255 318 373
#     4  12  21  38  62  90 124 165 217 260 309 376
#
# _framework density 19.047393
#
# number of rings (size 3 to 8) (size 9 to 14) (size 15 to 20)
#    0.000    1.667    3.333    1.000    7.000    0.000 
#    0.000    1.667    7.333    0.000    0.000    0.000 
#    0.000    0.000    0.000    0.000    0.000    0.000 
#
# Total GULP energy -133816.166665 kJ/mol
# GULP energy per Si atom -5575.673611 kJ/mol
# Density = 1.900404 g / cm^3
# Si number density = 19.047393 Si / 1000 Ang^3
#
#
#
# Elastic Constant Matrix: (Units=GPa)
#
#
# Indices 1 2 3 4 5 6 
#
# 1 93.1392 38.1867 42.1972 0.0000 0.0000 0.0000
# 2 38.1867 131.8495 32.9727 0.0000 0.0000 0.0000
# 3 42.1972 32.9727 113.0226 0.0000 0.0000 0.0000
# 4 0.0000 0.0000 0.0000 31.5038 0.0000 0.0000
# 5 0.0000 0.0000 0.0000 0.0000 -32.4353 0.0000
# 6 0.0000 0.0000 0.0000 0.0000 0.0000 5.3741
#
#
#
# Elastic Compliance Matrix: (Units=1/GPa)
#
#
# Indices 1 2 3 4 5 6 
#
# 1 0.013907 -0.002944 -0.004333 0.000000 0.000000 0.000000
# 2 -0.002944 0.008805 -0.001469 0.000000 0.000000 0.000000
# 3 -0.004333 -0.001469 0.010894 0.000000 0.000000 0.000000
# 4 0.000000 0.000000 0.000000 0.031742 0.000000 0.000000
# 5 0.000000 0.000000 0.000000 0.000000 -0.030831 0.000000
# 6 0.000000 0.000000 0.000000 0.000000 0.000000 0.186077
#
#
# Mechanical properties :
#
#
# Convention : Reuss Voigt Hill
#
# Bulk Modulus (GPa) = 62.06483 62.74715 62.40599
# Shear Modulus (GPa) = 20.53739 15.86551 18.20145
#
# Velocity S-wave (km/s) = 3.28720 2.88922 3.09461
# Velocity P-wave (km/s) = 6.86023 6.64411 6.75304
#
# Compressibility (1/GPa) = 0.01611218
#
# Stress axis : x y z
#
# Youngs Moduli (GPa) = 71.90674 113.57753 91.79107
#
# Poissons Ratio (x) = 0.33438 0.39776
# Poissons Ratio (y) = 0.21170 0.13488
# Poissons Ratio (z) = 0.31159 0.16689
#
# Static dielectric constant tensor:
#      x y z
#    x 1.832120 0.000000 0.000000 
#    y 0.000000 1.701870 0.000000 
#    z 0.000000 0.000000 1.650710 
# 
# From -- ./inp_files/13022.got.cif
#   From: 2010.05.17/outbox.cif.g08.bks.cpg/sg40_7_cif.got.tgz:13022.got - 2010.06.03 18:35:42.
