data_PCOD9363409
_publ_section_title
;
Structure prediction by ZEFSAII (Michael W. Deem and Ramdas Pophale) SiO2 
 PCOD9363409
Probable space group: A M A 2
;
_chemical_formula_sum "Si O2"
_cell_formula_units_Z 64
_cell_length_a 8.361884
_cell_length_b 24.512456
_cell_length_c 15.993134
_cell_angle_alpha 90.000000
_cell_angle_beta 90.000000
_cell_angle_gamma 90.000000
_cell_volume 3278.117692
_symmetry_space_group_name_H-M "A M A 2"
_symmetry_group_IT_number 40
_symmetry_cell_setting 'orthorhombic'
loop_
_space_group_symop_operation_xyz
x,y,z
-x,-y,z
1/2-x,y,z
1/2+x,-y,z
x,1/2+y,1/2+z
-x,1/2-y,1/2+z
1/2-x,1/2+y,1/2+z
1/2+x,1/2-y,1/2+z
loop_
_atom_site_type_symbol
_atom_site_label
_atom_site_fract_x
_atom_site_fract_y
_atom_site_fract_z
Si Si1 0.056401 0.061969 0.100880
Si Si2 0.440753 0.633592 0.758827
Si Si3 0.943650 0.750922 0.004746
Si Si4 0.058538 0.561794 0.095801
Si Si5 0.054908 0.630937 0.440570
Si Si6 0.554771 0.368587 0.254824
Si Si7 0.058870 0.866650 0.440903
Si Si8 0.941543 0.749063 0.695887
O O1 0.250000 0.063028 0.100804
O O2 0.001060 0.096063 0.181978
O O3 0.001371 0.092310 0.016193
O O4 0.000000 0.000000 0.103814
O O5 0.250000 0.630908 0.759559
O O6 0.503928 0.616085 0.849060
O O7 0.491844 0.695657 0.740799
O O8 0.750000 0.750835 0.006559
O O9 0.004749 0.751371 0.099559
O O10 0.993846 0.806737 0.959750
O O11 0.997269 0.695373 0.959924
O O12 0.250000 0.562349 0.097301
O O13 0.999757 0.593035 0.179259
O O14 0.000000 0.500000 0.094030
O O15 0.002856 0.594653 0.014313
O O16 0.250000 0.630270 0.441137
O O17 0.002518 0.614531 0.347639
O O18 0.750000 0.369232 0.253980
O O19 0.505787 0.306248 0.236408
O O20 0.250000 0.866496 0.443109
O O21 0.750000 0.747023 0.700413
#
# Coordination Sequence:
#
# PCOD9363409 Si02
#       8
#     8   8   8   8   8   8   8   8
#     4  10  22  39  60  82 111 152 196 242 292 343
#     4  11  23  40  60  87 121 160 198 243 299 359
#     4  10  19  35  60  87 121 157 191 232 295 363
#     4  11  23  41  61  86 118 158 203 253 302 355
#     4   9  17  35  59  84 115 154 192 229 286 356
#     4   9  19  35  59  87 119 156 193 237 294 353
#     4  11  23  39  63  92 119 156 197 246 304 361
#     4  11  20  34  59  91 122 155 196 241 293 352
#
# _framework density 19.523398
#
# number of rings (size 3 to 8) (size 9 to 14) (size 15 to 20)
#    0.000    1.750    2.500    2.250    0.000    4.500 
#    0.000    1.250    0.000    3.750    0.000    0.000 
#    0.000    0.000    0.000    0.000    0.000    0.000 
#
# Total GULP energy -178791.140245 kJ/mol
# GULP energy per Si atom -5587.223133 kJ/mol
# Density = 1.947896 g / cm^3
# Si number density = 19.523398 Si / 1000 Ang^3
#
#
#
# Elastic Constant Matrix: (Units=GPa)
#
#
# Indices 1 2 3 4 5 6 
#
# 1 17.1766 19.5055 22.3067 0.0000 0.0000 0.0000
# 2 19.5055 155.9894 93.8460 0.0000 0.0000 0.0000
# 3 22.3067 93.8460 206.0545 0.0000 0.0000 0.0000
# 4 0.0000 0.0000 0.0000 4.6003 0.0000 0.0000
# 5 0.0000 0.0000 0.0000 0.0000 14.7537 0.0000
# 6 0.0000 0.0000 0.0000 0.0000 0.0000 17.8790
#
#
#
# Elastic Compliance Matrix: (Units=1/GPa)
#
#
# Indices 1 2 3 4 5 6 
#
# 1 0.071477 -0.005899 -0.005051 0.000000 0.000000 0.000000
# 2 -0.005899 0.009317 -0.003605 0.000000 0.000000 0.000000
# 3 -0.005051 -0.003605 0.007042 0.000000 0.000000 0.000000
# 4 0.000000 0.000000 0.000000 0.217379 0.000000 0.000000
# 5 0.000000 0.000000 0.000000 0.000000 0.067780 0.000000
# 6 0.000000 0.000000 0.000000 0.000000 0.000000 0.055932
#
#
# Mechanical properties :
#
#
# Convention : Reuss Voigt Hill
#
# Bulk Modulus (GPa) = 17.02822 72.28187 44.65504
# Shear Modulus (GPa) = 10.46878 23.68409 17.07643
#
# Velocity S-wave (km/s) = 2.31815 3.48676 2.96068
# Velocity P-wave (km/s) = 3.98823 7.30161 5.88300
#
# Compressibility (1/GPa) = 0.05872606
#
# Stress axis : x y z
#
# Youngs Moduli (GPa) = 13.99049 107.33074 142.01154
#
# Poissons Ratio (x) = 0.63313 0.71734
# Poissons Ratio (y) = 0.08253 0.51192
# Poissons Ratio (z) = 0.07067 0.38690
#
# Static dielectric constant tensor:
#      x y z
#    x 1.673110 0.000000 0.000000 
#    y 0.000000 1.658670 0.000000 
#    z 0.000000 0.000000 1.680170 
# 
# From -- ./inp_files/15554.got.cif
#   From: 2010.05.17/outbox.cif.g08.bks.cpg/sg40_8_cif.got.tgz:15554.got - 2010.06.03 18:35:42.
