data_PCOD9363841
_publ_section_title
;
Structure prediction by ZEFSAII (Michael W. Deem and Ramdas Pophale) SiO2 
 PCOD9363841
Probable space group: A M A 2
;
_chemical_formula_sum "Si O2"
_cell_formula_units_Z 48
_cell_length_a 8.986347
_cell_length_b 31.101138
_cell_length_c 9.964628
_cell_angle_alpha 90.000000
_cell_angle_beta 90.000000
_cell_angle_gamma 90.000000
_cell_volume 2784.970216
_symmetry_space_group_name_H-M "A M A 2"
_symmetry_group_IT_number 40
_symmetry_cell_setting 'orthorhombic'
loop_
_space_group_symop_operation_xyz
x,y,z
-x,-y,z
1/2-x,y,z
1/2+x,-y,z
x,1/2+y,1/2+z
-x,1/2-y,1/2+z
1/2-x,1/2+y,1/2+z
1/2+x,1/2-y,1/2+z
loop_
_atom_site_type_symbol
_atom_site_label
_atom_site_fract_x
_atom_site_fract_y
_atom_site_fract_z
Si Si1 0.072930 0.883018 0.500000
Si Si2 0.071888 0.546051 0.500556
Si Si3 0.071490 0.284940 0.979970
Si Si4 0.427959 0.210816 0.192778
Si Si5 0.072086 0.881025 0.183808
Si Si6 0.573064 0.954270 0.685623
O O1 0.250000 0.888163 0.520268
O O2 0.033715 0.833200 0.528829
O O3 0.041939 0.889838 0.341718
O O4 0.988429 0.916531 0.592694
O O5 0.250000 0.544291 0.517158
O O6 0.039191 0.554242 0.342861
O O7 0.000000 0.500000 0.534829
O O8 0.002132 0.583034 0.591715
O O9 0.250000 0.284826 0.954947
O O10 0.988361 0.277554 0.840076
O O11 0.036670 0.248584 0.088177
O O12 0.250000 0.205228 0.196573
O O13 0.504735 0.165883 0.153590
O O14 0.250000 0.880408 0.165842
O O15 0.750000 0.957698 0.671790
O O16 0.500000 0.000000 0.649856
#
# Coordination Sequence:
#
# PCOD9363841 Si02
#       6
#     8   8   8   8   8   8
#     4   9  19  36  55  76 105 139 175 215 260 312
#     4  10  21  37  56  80 108 139 177 219 264 316
#     4   9  20  37  54  77 109 141 176 218 264 316
#     4  10  20  35  56  81 108 140 179 221 264 314
#     4  10  21  37  56  79 108 142 178 219 267 316
#     4  10  21  36  55  79 106 137 174 216 262 312
#
# _framework density 17.235372000000002
#
# number of rings (size 3 to 8) (size 9 to 14) (size 15 to 20)
#    0.000    2.333    0.000    3.000    0.000    8.667 
#    0.000    3.333    0.000    0.000    0.000    0.000 
#    0.000    0.000    0.000    0.000    0.000    0.000 
#
# Total GULP energy -133966.481899 kJ/mol
# GULP energy per Si atom -5581.936746 kJ/mol
# Density = 1.719614 g / cm^3
# Si number density = 17.235372 Si / 1000 Ang^3
#
#
#
# Elastic Constant Matrix: (Units=GPa)
#
#
# Indices 1 2 3 4 5 6 
#
# 1 70.6608 89.0910 70.1279 0.0000 0.0000 0.0000
# 2 89.0910 181.3151 122.0948 0.0000 0.0000 0.0000
# 3 70.1279 122.0948 96.0359 0.0000 0.0000 0.0000
# 4 0.0000 0.0000 0.0000 40.1708 0.0000 0.0000
# 5 0.0000 0.0000 0.0000 0.0000 30.2798 0.0000
# 6 0.0000 0.0000 0.0000 0.0000 0.0000 34.9898
#
#
#
# Elastic Compliance Matrix: (Units=1/GPa)
#
#
# Indices 1 2 3 4 5 6 
#
# 1 0.051410 0.000129 -0.037705 0.000000 0.000000 0.000000
# 2 0.000129 0.038329 -0.048824 0.000000 0.000000 0.000000
# 3 -0.037705 -0.048824 0.100018 0.000000 0.000000 0.000000
# 4 0.000000 0.000000 0.000000 0.024894 0.000000 0.000000
# 5 0.000000 0.000000 0.000000 0.000000 0.033025 0.000000
# 6 0.000000 0.000000 0.000000 0.000000 0.000000 0.028580
#
#
# Mechanical properties :
#
#
# Convention : Reuss Voigt Hill
#
# Bulk Modulus (GPa) = 58.97120 101.18215 80.07668
# Shear Modulus (GPa) = 10.99611 25.53462 18.26536
#
# Velocity S-wave (km/s) = 2.52860 3.85323 3.25893
# Velocity P-wave (km/s) = 6.54329 8.86736 7.79245
#
# Compressibility (1/GPa) = 0.01695743
#
# Stress axis : x y z
#
# Youngs Moduli (GPa) = 19.45151 26.09015 9.99822
#
# Poissons Ratio (x) = -0.00338 0.37699
# Poissons Ratio (y) = -0.00252 0.48815
# Poissons Ratio (z) = 0.73343 1.27381
#
# Static dielectric constant tensor:
#      x y z
#    x 1.573920 0.000000 0.000000 
#    y 0.000000 1.559170 0.000000 
#    z 0.000000 0.000000 1.561830 
# 
# From -- ./inp_files/4575.got.cif
#   From: 2010.05.17/outbox.cif.g08.bks.cpg/sg40_3_cif.got.tgz:4575.got - 2010.06.03 18:35:42.
