data_PCOD9363756
_publ_section_title
;
Structure prediction by ZEFSAII (Michael W. Deem and Ramdas Pophale) SiO2 
 PCOD9363756
Probable space group: A M A 2
;
_chemical_formula_sum "Si O2"
_cell_formula_units_Z 52
_cell_length_a 14.533666
_cell_length_b 19.632729
_cell_length_c 8.628457
_cell_angle_alpha 90.000000
_cell_angle_beta 90.000000
_cell_angle_gamma 90.000000
_cell_volume 2462.005316
_symmetry_space_group_name_H-M "A M A 2"
_symmetry_group_IT_number 40
_symmetry_cell_setting 'orthorhombic'
loop_
_space_group_symop_operation_xyz
x,y,z
-x,-y,z
1/2-x,y,z
1/2+x,-y,z
x,1/2+y,1/2+z
-x,1/2-y,1/2+z
1/2-x,1/2+y,1/2+z
1/2+x,1/2-y,1/2+z
loop_
_atom_site_type_symbol
_atom_site_label
_atom_site_fract_x
_atom_site_fract_y
_atom_site_fract_z
Si Si1 0.646444 0.811823 0.391680
Si Si2 0.030741 0.373885 0.728480
Si Si3 0.143860 0.761686 0.391665
Si Si4 0.000000 0.000000 0.433698
Si Si5 0.476508 0.125616 0.883770
Si Si6 0.143651 0.078959 0.641420
Si Si7 0.648376 0.671205 0.233185
O O1 0.750000 0.831886 0.340482
O O2 0.566630 0.842897 0.286765
O O3 0.634639 0.844895 0.562048
O O4 0.641915 0.731006 0.363814
O O5 0.107445 0.318133 0.771366
O O6 0.043986 0.441562 0.827577
O O7 0.018673 0.390342 0.549294
O O8 0.250000 0.741392 0.360930
O O9 0.072842 0.699338 0.392210
O O10 0.141297 0.794255 0.564306
O O11 0.080596 0.031979 0.535797
O O12 0.397374 0.078662 0.813117
O O13 0.560231 0.125253 0.761642
O O14 0.250000 0.060760 0.636779
O O15 0.750000 0.639602 0.244966
#
# Coordination Sequence:
#
# PCOD9363756 Si02
#       7
#     8   8   8   4   8   8   8
#     4   9  17  33  56  85 121 164 205 246 307 375
#     4  11  23  38  62  90 129 168 215 267 322 383
#     4  11  22  37  60  93 132 169 204 258 326 393
#     4  10  24  46  66  86 120 172 224 272 322 378
#     4  12  22  37  62  97 131 160 211 264 330 395
#     4  10  23  41  66  92 123 169 217 265 318 385
#     4  10  20  34  55  88 130 167 199 245 312 384
#
# _framework density 21.120994
#
# number of rings (size 3 to 8) (size 9 to 14) (size 15 to 20)
#    0.000    1.538    3.077    2.308    2.154    2.462 
#    0.000    0.769    0.000    1.846    0.000    0.000 
#    0.000    0.000    0.000    0.000    0.000    0.000 
#
# Total GULP energy -145282.363381 kJ/mol
# GULP energy per Si atom -5587.783207 kJ/mol
# Density = 2.107292 g / cm^3
# Si number density = 21.120994 Si / 1000 Ang^3
#
#
#
# Elastic Constant Matrix: (Units=GPa)
#
#
# Indices 1 2 3 4 5 6 
#
# 1 132.9118 9.2536 40.3442 0.0000 0.0000 0.0000
# 2 9.2536 40.9990 21.5688 0.0000 0.0000 0.0000
# 3 40.3442 21.5688 101.4318 0.0000 0.0000 0.0000
# 4 0.0000 0.0000 0.0000 18.9370 0.0000 0.0000
# 5 0.0000 0.0000 0.0000 0.0000 20.9370 0.0000
# 6 0.0000 0.0000 0.0000 0.0000 0.0000 16.8623
#
#
#
# Elastic Compliance Matrix: (Units=1/GPa)
#
#
# Indices 1 2 3 4 5 6 
#
# 1 0.008558 -0.000159 -0.003370 0.000000 0.000000 0.000000
# 2 -0.000159 0.027466 -0.005777 0.000000 0.000000 0.000000
# 3 -0.003370 -0.005777 0.012428 0.000000 0.000000 0.000000
# 4 0.000000 0.000000 0.000000 0.052807 0.000000 0.000000
# 5 0.000000 0.000000 0.000000 0.000000 0.047762 0.000000
# 6 0.000000 0.000000 0.000000 0.000000 0.000000 0.059304
#
#
# Mechanical properties :
#
#
# Convention : Reuss Voigt Hill
#
# Bulk Modulus (GPa) = 33.51266 46.40842 39.96054
# Shear Modulus (GPa) = 21.10746 24.95900 23.03323
#
# Velocity S-wave (km/s) = 3.16469 3.44134 3.30591
# Velocity P-wave (km/s) = 5.40880 6.14905 5.79076
#
# Compressibility (1/GPa) = 0.02983947
#
# Stress axis : x y z
#
# Youngs Moduli (GPa) = 116.85252 36.40864 80.46467
#
# Poissons Ratio (x) = 0.00577 0.27118
# Poissons Ratio (y) = 0.01853 0.46488
# Poissons Ratio (z) = 0.39381 0.21035
#
# Static dielectric constant tensor:
#      x y z
#    x 1.733150 0.000000 0.000000 
#    y 0.000000 1.793960 0.000000 
#    z 0.000000 0.000000 1.769680 
# 
# From -- ./inp_files/6672.got.cif
#   From: 2010.05.17/outbox.cif.g08.bks.cpg/sg40_4_cif.got.tgz:6672.got - 2010.06.03 18:35:42.
