data_PCOD9363645
_publ_section_title
;
Structure prediction by ZEFSAII (Michael W. Deem and Ramdas Pophale) SiO2 
 PCOD9363645
Probable space group: A M A 2
;
_chemical_formula_sum "Si O2"
_cell_formula_units_Z 64
_cell_length_a 8.748139
_cell_length_b 30.977391
_cell_length_c 14.720571
_cell_angle_alpha 90.000000
_cell_angle_beta 90.000000
_cell_angle_gamma 90.000000
_cell_volume 3989.194107
_symmetry_space_group_name_H-M "A M A 2"
_symmetry_group_IT_number 40
_symmetry_cell_setting 'orthorhombic'
loop_
_space_group_symop_operation_xyz
x,y,z
-x,-y,z
1/2-x,y,z
1/2+x,-y,z
x,1/2+y,1/2+z
-x,1/2-y,1/2+z
1/2-x,1/2+y,1/2+z
1/2+x,1/2-y,1/2+z
loop_
_atom_site_type_symbol
_atom_site_label
_atom_site_fract_x
_atom_site_fract_y
_atom_site_fract_z
Si Si1 0.431978 0.703939 0.389880
Si Si2 0.924139 0.825471 0.176694
Si Si3 0.928845 0.629491 0.509697
Si Si4 0.932352 0.953438 0.090085
Si Si5 0.566615 0.789817 0.485500
Si Si6 0.431451 0.733095 0.190016
Si Si7 0.428111 0.628381 0.871319
Si Si8 0.068134 0.953570 0.291335
O O1 0.250000 0.702130 0.403478
O O2 0.507643 0.661848 0.433774
O O3 0.493101 0.747517 0.439051
O O4 0.463188 0.707302 0.282248
O O5 0.750000 0.829811 0.141938
O O6 0.933251 0.849383 0.272374
O O7 0.038373 0.845509 0.103983
O O8 0.968410 0.776134 0.191517
O O9 0.750000 0.622048 0.497644
O O10 0.014942 0.584174 0.522476
O O11 0.750000 0.955246 0.095924
O O12 0.997637 0.943844 0.191329
O O13 0.000000 0.000000 0.064278
O O14 0.750000 0.786760 0.470227
O O15 0.539168 0.789390 0.593447
O O16 0.514688 0.834642 0.439923
O O17 0.250000 0.744528 0.191752
O O18 0.250000 0.618782 0.892119
O O19 0.520090 0.584202 0.860065
O O20 0.250000 0.956271 0.282449
O O21 0.000000 0.000000 0.318257
#
# Coordination Sequence:
#
# PCOD9363645 Si02
#       8
#     8   8   8   8   8   8   8   8
#     4  11  22  34  50  75 103 135 175 217 256 303
#     4  11  20  30  49  75 103 137 173 215 256 299
#     4  12  23  35  51  73 102 141 179 212 255 305
#     4  11  21  35  53  76 105 135 169 209 255 307
#     4  10  20  35  52  72 100 138 175 213 257 307
#     4  10  21  35  51  72 103 138 175 216 258 305
#     4  10  20  33  50  73 104 139 177 212 254 305
#     4  11  21  33  51  74 104 137 171 210 256 307
#
# _framework density 16.043341000000002
#
# number of rings (size 3 to 8) (size 9 to 14) (size 15 to 20)
#    0.000    1.250    3.750    4.875    0.000    1.500 
#    0.000    0.000    0.000    0.000    0.000    0.875 
#    0.000    4.000    0.000    0.000    0.000    0.000 
#
# Total GULP energy -178686.338552 kJ/mol
# GULP energy per Si atom -5583.948080 kJ/mol
# Density = 1.600683 g / cm^3
# Si number density = 16.043341 Si / 1000 Ang^3
#
#
#
# Elastic Constant Matrix: (Units=GPa)
#
#
# Indices 1 2 3 4 5 6 
#
# 1 99.4039 57.4325 34.4960 0.0000 0.0000 0.0000
# 2 57.4325 128.6946 44.0792 0.0000 0.0000 0.0000
# 3 34.4960 44.0792 74.4920 0.0000 0.0000 0.0000
# 4 0.0000 0.0000 0.0000 20.7007 0.0000 0.0000
# 5 0.0000 0.0000 0.0000 0.0000 9.6956 0.0000
# 6 0.0000 0.0000 0.0000 0.0000 0.0000 24.2615
#
#
#
# Elastic Compliance Matrix: (Units=1/GPa)
#
#
# Indices 1 2 3 4 5 6 
#
# 1 0.014271 -0.005149 -0.003562 0.000000 0.000000 0.000000
# 2 -0.005149 0.011603 -0.004482 0.000000 0.000000 0.000000
# 3 -0.003562 -0.004482 0.017726 0.000000 0.000000 0.000000
# 4 0.000000 0.000000 0.000000 0.048308 0.000000 0.000000
# 5 0.000000 0.000000 0.000000 0.000000 0.103139 0.000000
# 6 0.000000 0.000000 0.000000 0.000000 0.000000 0.041218
#
#
# Mechanical properties :
#
#
# Convention : Reuss Voigt Hill
#
# Bulk Modulus (GPa) = 58.08869 63.84509 60.96689
# Shear Modulus (GPa) = 18.62983 22.03708 20.33345
#
# Velocity S-wave (km/s) = 3.41136 3.71023 3.56393
# Velocity P-wave (km/s) = 7.19739 7.63126 7.41750
#
# Compressibility (1/GPa) = 0.01721506
#
# Stress axis : x y z
#
# Youngs Moduli (GPa) = 70.07330 86.18458 56.41537
#
# Poissons Ratio (x) = 0.44373 0.20095
# Poissons Ratio (y) = 0.36078 0.25283
# Poissons Ratio (z) = 0.24960 0.38625
#
# Static dielectric constant tensor:
#      x y z
#    x 1.548640 0.000000 0.000000 
#    y 0.000000 1.540780 0.000000 
#    z 0.000000 0.000000 1.530230 
# 
# From -- ./inp_files/15905.got.cif
#   From: 2010.05.17/outbox.cif.g08.bks.cpg/sg40_8_cif.got.tgz:15905.got - 2010.06.03 18:35:42.
