data_PCOD9363083
_publ_section_title
;
Structure prediction by ZEFSAII (Michael W. Deem and Ramdas Pophale) SiO2 
 PCOD9363083
Probable space group: A M A 2
;
_chemical_formula_sum "Si O2"
_cell_formula_units_Z 56
_cell_length_a 8.418600
_cell_length_b 15.838868
_cell_length_c 20.401048
_cell_angle_alpha 90.000000
_cell_angle_beta 90.000000
_cell_angle_gamma 90.000000
_cell_volume 2720.298062
_symmetry_space_group_name_H-M "A M A 2"
_symmetry_group_IT_number 40
_symmetry_cell_setting 'orthorhombic'
loop_
_space_group_symop_operation_xyz
x,y,z
-x,-y,z
1/2-x,y,z
1/2+x,-y,z
x,1/2+y,1/2+z
-x,1/2-y,1/2+z
1/2-x,1/2+y,1/2+z
1/2+x,1/2-y,1/2+z
loop_
_atom_site_type_symbol
_atom_site_label
_atom_site_fract_x
_atom_site_fract_y
_atom_site_fract_z
Si Si1 0.069450 0.913247 0.663420
Si Si2 0.060664 0.802160 0.005088
Si Si3 0.072564 0.382585 0.013543
Si Si4 0.058463 0.404823 0.633852
Si Si5 0.069885 0.586686 0.885260
Si Si6 0.563058 0.270062 0.366624
Si Si7 0.562284 0.750701 0.722723
O O1 0.250000 0.899314 0.685963
O O2 0.072840 0.920466 0.585103
O O3 0.965661 0.831048 0.677290
O O4 0.000000 0.000000 0.691460
O O5 0.250000 0.786876 0.010787
O O6 0.021080 0.815836 0.928015
O O7 0.017000 0.871101 0.060333
O O8 0.964648 0.716867 0.020774
O O9 0.250000 0.393884 0.985060
O O10 0.941069 0.417866 0.964315
O O11 0.250000 0.405259 0.637299
O O12 0.000453 0.334458 0.687069
O O13 0.000000 0.500000 0.645045
O O14 0.250000 0.600002 0.864067
O O15 0.000000 0.500000 0.857684
O O16 0.965435 0.669177 0.872631
O O17 0.750000 0.289678 0.370549
O O18 0.498226 0.281989 0.293190
O O19 0.750000 0.736412 0.732633
#
# Coordination Sequence:
#
# PCOD9363083 Si02
#       7
#     8   8   8   8   8   8   8
#     4  11  23  36  57  86 116 151 190 238 293 354
#     4  10  19  35  59  85 116 154 195 244 297 352
#     4  10  19  32  53  83 114 146 184 229 285 343
#     4  10  22  39  62  91 122 161 206 255 308 363
#     4  11  21  33  51  77 112 150 189 235 284 345
#     4  10  21  37  59  83 113 154 197 244 303 363
#     4  10  22  42  62  85 121 160 199 249 308 366
#
# _framework density 20.585981
#
# number of rings (size 3 to 8) (size 9 to 14) (size 15 to 20)
#    0.000    1.714    1.429    5.143    0.000    6.286 
#    0.000    2.143    0.000    1.714    0.000    0.000 
#    0.000    0.000    0.000    0.000    0.000    0.000 
#
# Total GULP energy -156103.600328 kJ/mol
# GULP energy per Si atom -5575.128583 kJ/mol
# Density = 2.053913 g / cm^3
# Si number density = 20.585981 Si / 1000 Ang^3
#
#
#
# Elastic Constant Matrix: (Units=GPa)
#
#
# Indices 1 2 3 4 5 6 
#
# 1 42.0028 4.0495 13.5503 0.0000 0.0000 0.0000
# 2 4.0495 72.5818 -0.6801 0.0000 0.0000 0.0000
# 3 13.5503 -0.6801 68.5078 0.0000 0.0000 0.0000
# 4 0.0000 0.0000 0.0000 3.7286 0.0000 0.0000
# 5 0.0000 0.0000 0.0000 0.0000 18.3930 0.0000
# 6 0.0000 0.0000 0.0000 0.0000 0.0000 23.0339
#
#
#
# Elastic Compliance Matrix: (Units=1/GPa)
#
#
# Indices 1 2 3 4 5 6 
#
# 1 0.025588 -0.001475 -0.005076 0.000000 0.000000 0.000000
# 2 -0.001475 0.013864 0.000429 0.000000 0.000000 0.000000
# 3 -0.005076 0.000429 0.015605 0.000000 0.000000 0.000000
# 4 0.000000 0.000000 0.000000 0.268201 0.000000 0.000000
# 5 0.000000 0.000000 0.000000 0.000000 0.054368 0.000000
# 6 0.000000 0.000000 0.000000 0.000000 0.000000 0.043414
#
#
# Mechanical properties :
#
#
# Convention : Reuss Voigt Hill
#
# Bulk Modulus (GPa) = 23.35697 24.10351 23.73024
# Shear Modulus (GPa) = 11.17183 20.10926 15.64055
#
# Velocity S-wave (km/s) = 2.33210 3.12884 2.75938
# Velocity P-wave (km/s) = 4.31535 4.97865 4.65882
#
# Compressibility (1/GPa) = 0.04281377
#
# Stress axis : x y z
#
# Youngs Moduli (GPa) = 39.08144 72.12982 64.08176
#
# Poissons Ratio (x) = 0.10640 0.32526
# Poissons Ratio (y) = 0.05765 -0.02752
# Poissons Ratio (z) = 0.19836 -0.03097
#
# Static dielectric constant tensor:
#      x y z
#    x 1.759690 0.000000 0.000000 
#    y 0.000000 1.760530 0.000000 
#    z 0.000000 0.000000 1.829770 
# 
# From -- ./inp_files/22190.got.cif
#   From: 2010.05.17/outbox.cif.g08.bks.cpg/sg40_12_cif.got.tgz:22190.got - 2010.06.03 18:35:42.
