data_PCOD9363659
_publ_section_title
;
Structure prediction by ZEFSAII (Michael W. Deem and Ramdas Pophale) SiO2 
 PCOD9363659
Probable space group: A M A 2
;
_chemical_formula_sum "Si O2"
_cell_formula_units_Z 48
_cell_length_a 8.773669
_cell_length_b 32.515857
_cell_length_c 9.279801
_cell_angle_alpha 90.000000
_cell_angle_beta 90.000000
_cell_angle_gamma 90.000000
_cell_volume 2647.372870
_symmetry_space_group_name_H-M "A M A 2"
_symmetry_group_IT_number 40
_symmetry_cell_setting 'orthorhombic'
loop_
_space_group_symop_operation_xyz
x,y,z
-x,-y,z
1/2-x,y,z
1/2+x,-y,z
x,1/2+y,1/2+z
-x,1/2-y,1/2+z
1/2-x,1/2+y,1/2+z
1/2+x,1/2-y,1/2+z
loop_
_atom_site_type_symbol
_atom_site_label
_atom_site_fract_x
_atom_site_fract_y
_atom_site_fract_z
Si Si1 0.934029 0.787573 0.595510
Si Si2 0.567352 0.290518 0.429502
Si Si3 0.567742 0.132411 0.095726
Si Si4 0.933790 0.368112 0.917697
Si Si5 0.431995 0.041316 0.426489
Si Si6 0.932316 0.541127 0.602353
O O1 0.750000 0.784616 0.588997
O O2 0.979563 0.787960 0.762495
O O3 0.979048 0.829938 0.516860
O O4 0.003869 0.748688 0.514553
O O5 0.750000 0.290434 0.436458
O O6 0.505833 0.331996 0.501598
O O7 0.750000 0.136774 0.096676
O O8 0.508207 0.135753 0.260082
O O9 0.530885 0.086164 0.040300
O O10 0.750000 0.367144 0.899322
O O11 0.971532 0.413132 0.983513
O O12 0.250000 0.037294 0.421982
O O13 0.497000 0.042295 0.263302
O O14 0.500000 0.000000 0.496210
O O15 0.750000 0.537282 0.612743
O O16 0.000000 0.500000 0.531126
#
# Coordination Sequence:
#
# PCOD9363659 Si02
#       6
#     8   8   8   8   8   8
#     4  10  22  39  56  76 102 131 167 210 253 301
#     4  11  23  37  55  77 100 131 168 206 253 305
#     4  10  20  33  51  77 107 136 169 210 252 297
#     4   9  18  33  53  76 104 137 171 209 253 299
#     4   9  15  24  42  69 100 133 167 204 247 291
#     4   9  16  26  43  69 100 132 166 205 247 289
#
# _framework density 18.131183
#
# number of rings (size 3 to 8) (size 9 to 14) (size 15 to 20)
#    0.000    2.333    0.000    4.000    0.000    7.333 
#    0.000    0.000    0.000    1.000    0.000    4.667 
#    0.000    0.000    0.000    0.000    0.000    0.000 
#
# Total GULP energy -133812.003259 kJ/mol
# GULP energy per Si atom -5575.500136 kJ/mol
# Density = 1.808992 g / cm^3
# Si number density = 18.131183 Si / 1000 Ang^3
#
#
#
# Elastic Constant Matrix: (Units=GPa)
#
#
# Indices 1 2 3 4 5 6 
#
# 1 42.5598 60.4141 29.8049 0.0000 0.0000 0.0000
# 2 60.4141 228.6429 83.7941 0.0000 0.0000 0.0000
# 3 29.8049 83.7941 84.6085 0.0000 0.0000 0.0000
# 4 0.0000 0.0000 0.0000 24.3781 0.0000 0.0000
# 5 0.0000 0.0000 0.0000 0.0000 14.8780 0.0000
# 6 0.0000 0.0000 0.0000 0.0000 0.0000 37.3210
#
#
#
# Elastic Compliance Matrix: (Units=1/GPa)
#
#
# Indices 1 2 3 4 5 6 
#
# 1 0.039205 -0.008316 -0.005575 0.000000 0.000000 0.000000
# 2 -0.008316 0.008630 -0.005617 0.000000 0.000000 0.000000
# 3 -0.005575 -0.005617 0.019346 0.000000 0.000000 0.000000
# 4 0.000000 0.000000 0.000000 0.041021 0.000000 0.000000
# 5 0.000000 0.000000 0.000000 0.000000 0.067214 0.000000
# 6 0.000000 0.000000 0.000000 0.000000 0.000000 0.026795
#
#
# Mechanical properties :
#
#
# Convention : Reuss Voigt Hill
#
# Bulk Modulus (GPa) = 35.50503 78.20414 56.85459
# Shear Modulus (GPa) = 19.95110 27.43529 23.69319
#
# Velocity S-wave (km/s) = 3.32079 3.89415 3.61884
# Velocity P-wave (km/s) = 5.85904 7.96525 6.99191
#
# Compressibility (1/GPa) = 0.02816502
#
# Stress axis : x y z
#
# Youngs Moduli (GPa) = 25.50686 115.88140 51.69082
#
# Poissons Ratio (x) = 0.96368 0.28816
# Poissons Ratio (y) = 0.21212 0.29034
# Poissons Ratio (z) = 0.14219 0.65090
#
# Static dielectric constant tensor:
#      x y z
#    x 1.609430 0.000000 0.000000 
#    y 0.000000 1.673130 0.000000 
#    z 0.000000 0.000000 1.590980 
# 
# From -- ./inp_files/4571.got.cif
#   From: 2010.05.17/outbox.cif.g08.bks.cpg/sg40_3_cif.got.tgz:4571.got - 2010.06.03 18:35:42.
