data_PCOD9363392
_publ_section_title
;
Structure prediction by ZEFSAII (Michael W. Deem and Ramdas Pophale) SiO2 
 PCOD9363392
Probable space group: A M A 2
;
_chemical_formula_sum "Si O2"
_cell_formula_units_Z 64
_cell_length_a 8.790321
_cell_length_b 25.373070
_cell_length_c 15.245680
_cell_angle_alpha 90.000000
_cell_angle_beta 90.000000
_cell_angle_gamma 90.000000
_cell_volume 3400.357287
_symmetry_space_group_name_H-M "A M A 2"
_symmetry_group_IT_number 40
_symmetry_cell_setting 'orthorhombic'
loop_
_space_group_symop_operation_xyz
x,y,z
-x,-y,z
1/2-x,y,z
1/2+x,-y,z
x,1/2+y,1/2+z
-x,1/2-y,1/2+z
1/2-x,1/2+y,1/2+z
1/2+x,1/2-y,1/2+z
loop_
_atom_site_type_symbol
_atom_site_label
_atom_site_fract_x
_atom_site_fract_y
_atom_site_fract_z
Si Si1 0.932382 0.349884 0.778640
Si Si2 0.067566 0.555845 0.647049
Si Si3 0.068607 0.217455 0.936819
Si Si4 0.069952 0.134784 0.646525
Si Si5 0.569827 0.662261 0.969591
Si Si6 0.567772 0.058472 0.792117
Si Si7 0.931370 0.731703 0.244949
Si Si8 0.932289 0.610223 0.479655
O O1 0.750000 0.349585 0.792880
O O2 0.971445 0.398200 0.715989
O O3 0.970060 0.293383 0.734800
O O4 0.012976 0.352535 0.872672
O O5 0.250000 0.552959 0.639620
O O6 0.000000 0.500000 0.675077
O O7 0.996277 0.571977 0.553988
O O8 0.250000 0.212627 0.922509
O O9 0.040275 0.274728 0.978653
O O10 0.981386 0.217432 0.843931
O O11 0.007832 0.167627 0.989998
O O12 0.250000 0.130062 0.651898
O O13 0.013920 0.131395 0.546662
O O14 0.994389 0.092207 0.710859
O O15 0.016542 0.191856 0.681585
O O16 0.750000 0.654299 0.976680
O O17 0.750000 0.055993 0.787379
O O18 0.527426 0.087783 0.883336
O O19 0.500000 0.000000 0.792219
O O20 0.750000 0.724780 0.234784
O O21 0.750000 0.614085 0.485492
#
# Coordination Sequence:
#
# PCOD9363392 Si02
#       8
#     8   8   8   8   8   8   8   8
#     4   9  21  41  63  87 119 158 202 254 311 364
#     4  11  24  42  63  89 121 160 206 258 307 363
#     4  10  20  35  57  87 123 161 200 243 299 364
#     4  12  24  38  60  90 124 164 207 253 302 364
#     4  10  22  39  61  89 124 161 201 254 309 365
#     4  11  24  42  63  88 122 163 206 256 306 362
#     4  10  19  35  58  86 121 158 198 247 300 360
#     4  11  23  38  60  90 124 163 203 249 300 362
#
# _framework density 18.821552000000001
#
# number of rings (size 3 to 8) (size 9 to 14) (size 15 to 20)
#    0.000    1.500    1.250    3.750    1.750    5.500 
#    0.000    0.625    0.000    1.500    0.000    0.000 
#    0.000    0.000    0.000    0.000    0.000    0.000 
#
# Total GULP energy -178904.082100 kJ/mol
# GULP energy per Si atom -5590.752566 kJ/mol
# Density = 1.877871 g / cm^3
# Si number density = 18.821552 Si / 1000 Ang^3
#
#
#
# Elastic Constant Matrix: (Units=GPa)
#
#
# Indices 1 2 3 4 5 6 
#
# 1 66.6800 43.2450 40.1558 0.0000 0.0000 0.0000
# 2 43.2450 111.4556 45.3739 0.0000 0.0000 0.0000
# 3 40.1558 45.3739 74.8154 0.0000 0.0000 0.0000
# 4 0.0000 0.0000 0.0000 28.2964 0.0000 0.0000
# 5 0.0000 0.0000 0.0000 0.0000 23.2633 0.0000
# 6 0.0000 0.0000 0.0000 0.0000 0.0000 22.4410
#
#
#
# Elastic Compliance Matrix: (Units=1/GPa)
#
#
# Indices 1 2 3 4 5 6 
#
# 1 0.024465 -0.005506 -0.009792 0.000000 0.000000 0.000000
# 2 -0.005506 0.013153 -0.005022 0.000000 0.000000 0.000000
# 3 -0.009792 -0.005022 0.021667 0.000000 0.000000 0.000000
# 4 0.000000 0.000000 0.000000 0.035340 0.000000 0.000000
# 5 0.000000 0.000000 0.000000 0.000000 0.042986 0.000000
# 6 0.000000 0.000000 0.000000 0.000000 0.000000 0.044561
#
#
# Mechanical properties :
#
#
# Convention : Reuss Voigt Hill
#
# Bulk Modulus (GPa) = 53.63074 56.72225 55.17649
# Shear Modulus (GPa) = 21.83153 23.07855 22.45504
#
# Velocity S-wave (km/s) = 3.40946 3.50548 3.45780
# Velocity P-wave (km/s) = 6.63742 6.82545 6.73209
#
# Compressibility (1/GPa) = 0.01864602
#
# Stress axis : x y z
#
# Youngs Moduli (GPa) = 40.87530 76.02883 46.15270
#
# Poissons Ratio (x) = 0.41863 0.45191
# Poissons Ratio (y) = 0.22507 0.23176
# Poissons Ratio (z) = 0.40023 0.38179
#
# Static dielectric constant tensor:
#      x y z
#    x 1.625140 0.000000 0.000000 
#    y 0.000000 1.642830 0.000000 
#    z 0.000000 0.000000 1.642650 
# 
# From -- ./inp_files/15618.got.cif
#   From: 2010.05.17/outbox.cif.g08.bks.cpg/sg40_8_cif.got.tgz:15618.got - 2010.06.03 18:35:42.
