data_PCOD9363885
_publ_section_title
;
Structure prediction by ZEFSAII (Michael W. Deem and Ramdas Pophale) SiO2 
 PCOD9363885
Probable space group: A M A 2
;
_chemical_formula_sum "Si O2"
_cell_formula_units_Z 56
_cell_length_a 21.572872
_cell_length_b 24.267567
_cell_length_c 5.209953
_cell_angle_alpha 90.000000
_cell_angle_beta 90.000000
_cell_angle_gamma 90.000000
_cell_volume 2727.520412
_symmetry_space_group_name_H-M "A M A 2"
_symmetry_group_IT_number 40
_symmetry_cell_setting 'orthorhombic'
loop_
_space_group_symop_operation_xyz
x,y,z
-x,-y,z
1/2-x,y,z
1/2+x,-y,z
x,1/2+y,1/2+z
-x,1/2-y,1/2+z
1/2-x,1/2+y,1/2+z
1/2+x,1/2-y,1/2+z
loop_
_atom_site_type_symbol
_atom_site_label
_atom_site_fract_x
_atom_site_fract_y
_atom_site_fract_z
Si Si1 0.681496 0.604558 0.703950
Si Si2 0.325149 0.232014 0.854813
Si Si3 0.554583 0.927180 0.386688
Si Si4 0.584149 0.047328 0.494738
Si Si5 0.182178 0.501536 0.384550
Si Si6 0.175503 0.295821 0.351022
Si Si7 0.118031 0.612401 0.401853
O O1 0.750000 0.622980 0.800865
O O2 0.625726 0.597994 0.898264
O O3 0.687672 0.541635 0.613811
O O4 0.663651 0.643635 0.466596
O O5 0.250000 0.228677 0.855801
O O6 0.345721 0.275548 0.073577
O O7 0.344820 0.254054 0.575870
O O8 0.352847 0.172551 0.914655
O O9 0.485787 0.930861 0.506022
O O10 0.595286 0.900256 0.612699
O O11 0.574776 0.990671 0.331666
O O12 0.565063 0.895833 0.118642
O O13 0.623374 0.022026 0.729085
O O14 0.250000 0.498608 0.247690
O O15 0.168165 0.564195 0.458004
O O16 0.250000 0.292719 0.339556
#
# Coordination Sequence:
#
# PCOD9363885 Si02
#       7
#     8   8   8   8   8   8   8
#     4  10  20  35  58  88 120 148 186 241 299 352
#     4  10  20  37  59  84 116 153 194 239 292 347
#     4  10  23  36  60  83 120 156 206 232 281 353
#     4  10  21  36  56  84 121 160 193 235 292 354
#     4  10  21  35  57  92 123 149 186 241 310 357
#     4   9  20  35  56  85 114 151 192 232 288 357
#     4  11  21  39  58  88 116 157 192 248 286 344
#
# _framework density 20.531469000000001
#
# number of rings (size 3 to 8) (size 9 to 14) (size 15 to 20)
#    0.000    2.000    1.429    1.714    4.000    1.143 
#    0.000    1.429    0.000    3.429    0.000    0.000 
#    0.000    0.000    0.000    0.000    0.000    0.000 
#
# Total GULP energy -155985.818585 kJ/mol
# GULP energy per Si atom -5570.922092 kJ/mol
# Density = 2.048474 g / cm^3
# Si number density = 20.531469 Si / 1000 Ang^3
#
#
#
# Elastic Constant Matrix: (Units=GPa)
#
#
# Indices 1 2 3 4 5 6 
#
# 1 75.8871 24.9248 7.7840 0.0000 0.0000 0.0000
# 2 24.9248 96.0244 8.4225 0.0000 0.0000 0.0000
# 3 7.7840 8.4225 58.4493 0.0000 0.0000 0.0000
# 4 0.0000 0.0000 0.0000 31.5201 0.0000 0.0000
# 5 0.0000 0.0000 0.0000 0.0000 -19.8873 0.0000
# 6 0.0000 0.0000 0.0000 0.0000 0.0000 10.3749
#
#
#
# Elastic Compliance Matrix: (Units=1/GPa)
#
#
# Indices 1 2 3 4 5 6 
#
# 1 0.014519 -0.003645 -0.001408 0.000000 0.000000 0.000000
# 2 -0.003645 0.011462 -0.001166 0.000000 0.000000 0.000000
# 3 -0.001408 -0.001166 0.017464 0.000000 0.000000 0.000000
# 4 0.000000 0.000000 0.000000 0.031726 0.000000 0.000000
# 5 0.000000 0.000000 0.000000 0.000000 -0.050283 0.000000
# 6 0.000000 0.000000 0.000000 0.000000 0.000000 0.096386
#
#
# Mechanical properties :
#
#
# Convention : Reuss Voigt Hill
#
# Bulk Modulus (GPa) = 32.25125 34.73591 33.49358
# Shear Modulus (GPa) = 34.71014 17.01684 25.86349
#
# Velocity S-wave (km/s) = 4.11613 2.88204 3.55308
# Velocity P-wave (km/s) = 6.19131 5.29434 5.76031
#
# Compressibility (1/GPa) = 0.03100655
#
# Stress axis : x y z
#
# Youngs Moduli (GPa) = 68.87450 87.24110 57.25911
#
# Poissons Ratio (x) = 0.31801 0.08064
# Poissons Ratio (y) = 0.25106 0.06678
# Poissons Ratio (z) = 0.09700 0.10175
#
# Static dielectric constant tensor:
#      x y z
#    x 2.536830 0.000000 0.000000 
#    y 0.000000 1.733900 0.000000 
#    z 0.000000 0.000000 1.787330 
# 
# From -- ./inp_files/2386.got.cif
#   From: 2010.05.17/outbox.cif.g08.bks.cpg/sg40_2_cif.got.tgz:2386.got - 2010.06.03 18:35:42.
