data_PCOD9363489
_publ_section_title
;
Structure prediction by ZEFSAII (Michael W. Deem and Ramdas Pophale) SiO2 
 PCOD9363489
Probable space group: A M A 2
;
_chemical_formula_sum "Si O2"
_cell_formula_units_Z 52
_cell_length_a 7.491490
_cell_length_b 13.947115
_cell_length_c 19.466215
_cell_angle_alpha 90.000000
_cell_angle_beta 90.000000
_cell_angle_gamma 90.000000
_cell_volume 2033.921100
_symmetry_space_group_name_H-M "A M A 2"
_symmetry_group_IT_number 40
_symmetry_cell_setting 'orthorhombic'
loop_
_space_group_symop_operation_xyz
x,y,z
-x,-y,z
1/2-x,y,z
1/2+x,-y,z
x,1/2+y,1/2+z
-x,1/2-y,1/2+z
1/2-x,1/2+y,1/2+z
1/2+x,1/2-y,1/2+z
loop_
_atom_site_type_symbol
_atom_site_label
_atom_site_fract_x
_atom_site_fract_y
_atom_site_fract_z
Si Si1 0.459717 0.893658 0.434780
Si Si2 0.465231 0.314736 0.079195
Si Si3 0.462375 0.105211 0.068871
Si Si4 0.956880 0.184995 0.773541
Si Si5 0.552975 0.892035 0.278063
Si Si6 0.961613 0.893057 0.912923
Si Si7 0.750000 0.396208 0.180298
O O1 0.250000 0.884281 0.419265
O O2 0.501246 0.823603 0.497470
O O3 0.553245 0.888960 0.361225
O O4 0.500000 0.000000 0.462421
O O5 0.250000 0.330734 0.087846
O O6 0.591286 0.384910 0.121191
O O7 0.516076 0.206039 0.101780
O O8 0.250000 0.111027 0.064396
O O9 0.534034 0.107150 0.990594
O O10 0.500000 0.000000 0.099055
O O11 0.750000 0.173297 0.750992
O O12 0.033951 0.291628 0.756932
O O13 0.958910 0.175750 0.855910
O O14 0.092149 0.111308 0.739720
O O15 0.750000 0.881785 0.249490
O O16 0.500000 0.000000 0.260111
O O17 0.750000 0.874642 0.915853
O O18 0.000000 0.000000 0.887211
#
# Coordination Sequence:
#
# PCOD9363489 Si02
#       7
#     8   8   8   8   8   8   4
#     4  10  20  35  62  94 128 153 192 249 306 369
#     4  10  23  42  62  87 123 160 207 249 300 358
#     4   9  19  35  61  94 128 153 193 248 307 368
#     4  11  24  42  63  89 123 160 212 252 301 360
#     4  10  21  35  62  95 127 155 195 250 310 372
#     4  10  19  36  63  97 129 160 193 249 313 367
#     4  12  26  42  68  78 120 168 216 252 298 350
#
# _framework density 25.566382000000001
#
# number of rings (size 3 to 8) (size 9 to 14) (size 15 to 20)
#    0.000    1.846    0.769    3.692    5.385    1.846 
#    0.000    1.538    0.000    0.000    0.000    0.000 
#    0.000    0.000    0.000    0.000    0.000    0.000 
#
# Total GULP energy -144793.286267 kJ/mol
# GULP energy per Si atom -5568.972549 kJ/mol
# Density = 2.550819 g / cm^3
# Si number density = 25.566382 Si / 1000 Ang^3
#
#
#
# Elastic Constant Matrix: (Units=GPa)
#
#
# Indices 1 2 3 4 5 6 
#
# 1 125.9557 -4.1954 11.9672 0.0000 0.0000 0.0000
# 2 -4.1954 95.9965 3.5174 0.0000 0.0000 0.0000
# 3 11.9672 3.5174 127.9601 0.0000 0.0000 0.0000
# 4 0.0000 0.0000 0.0000 -77.4999 0.0000 0.0000
# 5 0.0000 0.0000 0.0000 0.0000 19.0500 0.0000
# 6 0.0000 0.0000 0.0000 0.0000 0.0000 22.1584
#
#
#
# Elastic Compliance Matrix: (Units=1/GPa)
#
#
# Indices 1 2 3 4 5 6 
#
# 1 0.008024 0.000379 -0.000761 0.000000 0.000000 0.000000
# 2 0.000379 0.010445 -0.000323 0.000000 0.000000 0.000000
# 3 -0.000761 -0.000323 0.007895 0.000000 0.000000 0.000000
# 4 0.000000 0.000000 0.000000 -0.012903 0.000000 0.000000
# 5 0.000000 0.000000 0.000000 0.000000 0.052493 0.000000
# 6 0.000000 0.000000 0.000000 0.000000 0.000000 0.045130
#
#
# Mechanical properties :
#
#
# Convention : Reuss Voigt Hill
#
# Bulk Modulus (GPa) = 40.07224 41.38785 40.73005
# Shear Modulus (GPa) = 41.38652 15.31658 28.35155
#
# Velocity S-wave (km/s) = 4.02778 2.45029 3.33369
# Velocity P-wave (km/s) = 6.11052 4.92227 5.54830
#
# Compressibility (1/GPa) = 0.02495493
#
# Stress axis : x y z
#
# Youngs Moduli (GPa) = 124.62302 95.73584 126.66310
#
# Poissons Ratio (x) = -0.03624 0.09637
# Poissons Ratio (y) = -0.04718 0.04085
# Poissons Ratio (z) = 0.09482 0.03088
#
# Static dielectric constant tensor:
#      x y z
#    x 1.959010 0.000000 0.000000 
#    y 0.000000 2.112740 0.000000 
#    z 0.000000 0.000000 2.004550 
# 
# From -- ./inp_files/22094.got.cif
#   From: 2010.05.17/outbox.cif.g08.bks.cpg/sg40_12_cif.got.tgz:22094.got - 2010.06.03 18:35:42.
