data_PCOD9363039
_publ_section_title
;
Structure prediction by ZEFSAII (Michael W. Deem and Ramdas Pophale) SiO2 
 PCOD9363039
Probable space group: A M A 2
;
_chemical_formula_sum "Si O2"
_cell_formula_units_Z 64
_cell_length_a 8.791851
_cell_length_b 30.919728
_cell_length_c 14.662080
_cell_angle_alpha 90.000000
_cell_angle_beta 90.000000
_cell_angle_gamma 90.000000
_cell_volume 3985.763896
_symmetry_space_group_name_H-M "A M A 2"
_symmetry_group_IT_number 40
_symmetry_cell_setting 'orthorhombic'
loop_
_space_group_symop_operation_xyz
x,y,z
-x,-y,z
1/2-x,y,z
1/2+x,-y,z
x,1/2+y,1/2+z
-x,1/2-y,1/2+z
1/2-x,1/2+y,1/2+z
1/2+x,1/2-y,1/2+z
loop_
_atom_site_type_symbol
_atom_site_label
_atom_site_fract_x
_atom_site_fract_y
_atom_site_fract_z
Si Si1 0.568553 0.787595 0.690250
Si Si2 0.573204 0.132568 0.795569
Si Si3 0.568506 0.363013 0.650006
Si Si4 0.568327 0.954205 0.080375
Si Si5 0.930789 0.793876 0.302814
Si Si6 0.571589 0.224721 0.490813
Si Si7 0.567271 0.453112 0.367543
Si Si8 0.576232 0.185425 0.981996
O O1 0.750000 0.784541 0.694675
O O2 0.511708 0.833003 0.731770
O O3 0.498353 0.747513 0.748213
O O4 0.511225 0.784528 0.586228
O O5 0.750000 0.128949 0.768552
O O6 0.497788 0.085670 0.806619
O O7 0.567819 0.154059 0.895930
O O8 0.750000 0.359510 0.628448
O O9 0.527461 0.413485 0.643319
O O10 0.543751 0.336775 0.742634
O O11 0.472609 0.339285 0.572426
O O12 0.750000 0.958199 0.080517
O O13 0.500000 0.000000 0.108246
O O14 0.523211 0.945421 0.974486
O O15 0.750000 0.786561 0.311550
O O16 0.003895 0.798583 0.402175
O O17 0.750000 0.216760 0.500606
O O18 0.538043 0.275023 0.470019
O O19 0.500000 0.500000 0.342894
O O20 0.750000 0.453777 0.362641
O O21 0.750000 0.201801 0.989081
#
# Coordination Sequence:
#
# PCOD9363039 Si02
#       8
#     8   8   8   8   8   8   8   8
#     4  12  24  37  55  78 105 139 180 221 266 317
#     4  11  22  35  52  77 108 143 182 220 264 317
#     4  10  20  34  52  74 105 141 178 216 263 314
#     4   9  18  31  48  73 103 138 173 212 260 311
#     4  11  22  36  54  77 105 139 179 220 264 315
#     4  12  24  38  54  73 105 142 179 223 266 310
#     4  10  19  32  51  75 107 141 179 219 266 318
#     4  11  21  31  50  75 105 139 179 219 259 308
#
# _framework density 16.057148000000002
#
# number of rings (size 3 to 8) (size 9 to 14) (size 15 to 20)
#    0.000    1.250    3.750    3.750    0.000    2.500 
#    0.000    0.000    0.000    0.000    0.000    0.875 
#    0.000    2.000    0.000    0.000    0.000    0.000 
#
# Total GULP energy -178675.138343 kJ/mol
# GULP energy per Si atom -5583.598073 kJ/mol
# Density = 1.602060 g / cm^3
# Si number density = 16.057148 Si / 1000 Ang^3
#
#
#
# Elastic Constant Matrix: (Units=GPa)
#
#
# Indices 1 2 3 4 5 6 
#
# 1 73.2360 25.3606 22.3004 0.0000 0.0000 0.0000
# 2 25.3606 92.7957 14.5225 0.0000 0.0000 0.0000
# 3 22.3004 14.5225 59.0091 0.0000 0.0000 0.0000
# 4 0.0000 0.0000 0.0000 19.3397 0.0000 0.0000
# 5 0.0000 0.0000 0.0000 0.0000 18.3012 0.0000
# 6 0.0000 0.0000 0.0000 0.0000 0.0000 28.5630
#
#
#
# Elastic Compliance Matrix: (Units=1/GPa)
#
#
# Indices 1 2 3 4 5 6 
#
# 1 0.016561 -0.003689 -0.005351 0.000000 0.000000 0.000000
# 2 -0.003689 0.012030 -0.001567 0.000000 0.000000 0.000000
# 3 -0.005351 -0.001567 0.019354 0.000000 0.000000 0.000000
# 4 0.000000 0.000000 0.000000 0.051707 0.000000 0.000000
# 5 0.000000 0.000000 0.000000 0.000000 0.054641 0.000000
# 6 0.000000 0.000000 0.000000 0.000000 0.000000 0.035010
#
#
# Mechanical properties :
#
#
# Convention : Reuss Voigt Hill
#
# Bulk Modulus (GPa) = 37.40724 38.82308 38.11516
# Shear Modulus (GPa) = 22.78662 24.09793 23.44228
#
# Velocity S-wave (km/s) = 3.77117 3.87817 3.82505
# Velocity P-wave (km/s) = 6.50456 6.65463 6.58002
#
# Compressibility (1/GPa) = 0.02673279
#
# Stress axis : x y z
#
# Youngs Moduli (GPa) = 60.38220 83.12815 51.66823
#
# Poissons Ratio (x) = 0.30663 0.27647
# Poissons Ratio (y) = 0.22273 0.08094
# Poissons Ratio (z) = 0.32310 0.13023
#
# Static dielectric constant tensor:
#      x y z
#    x 1.558200 0.000000 0.000000 
#    y 0.000000 1.539100 0.000000 
#    z 0.000000 0.000000 1.531010 
# 
# From -- ./inp_files/10694.got.cif
#   From: 2010.05.17/outbox.cif.g08.bks.cpg/sg40_6_cif.got.tgz:10694.got - 2010.06.03 18:35:42.
