data_PCOD9363824
_publ_section_title
;
Structure prediction by ZEFSAII (Michael W. Deem and Ramdas Pophale) SiO2 
 PCOD9363824
Probable space group: A M A 2
;
_chemical_formula_sum "Si O2"
_cell_formula_units_Z 64
_cell_length_a 8.768310
_cell_length_b 20.681031
_cell_length_c 20.215517
_cell_angle_alpha 90.000000
_cell_angle_beta 90.000000
_cell_angle_gamma 90.000000
_cell_volume 3665.835174
_symmetry_space_group_name_H-M "A M A 2"
_symmetry_group_IT_number 40
_symmetry_cell_setting 'orthorhombic'
loop_
_space_group_symop_operation_xyz
x,y,z
-x,-y,z
1/2-x,y,z
1/2+x,-y,z
x,1/2+y,1/2+z
-x,1/2-y,1/2+z
1/2-x,1/2+y,1/2+z
1/2+x,1/2-y,1/2+z
loop_
_atom_site_type_symbol
_atom_site_label
_atom_site_fract_x
_atom_site_fract_y
_atom_site_fract_z
Si Si1 0.567521 0.677367 0.064170
Si Si2 0.567143 0.569868 0.306670
Si Si3 0.066506 0.930695 0.960116
Si Si4 0.432702 0.825648 0.211885
Si Si5 0.433367 0.429856 0.955468
Si Si6 0.067318 0.176148 0.709296
Si Si7 0.068105 0.070306 0.310929
Si Si8 0.433806 0.317149 0.558189
O O1 0.750000 0.678082 0.070954
O O2 0.494044 0.663231 0.135498
O O3 0.509539 0.748301 0.043605
O O4 0.526277 0.623783 0.009790
O O5 0.500000 0.500000 0.287473
O O6 0.750000 0.567919 0.302429
O O7 0.523423 0.581209 0.383560
O O8 0.502873 0.625859 0.260431
O O9 0.250000 0.934288 0.963020
O O10 0.017059 0.872906 0.007889
O O11 0.000000 0.000000 0.980131
O O12 0.250000 0.833277 0.220167
O O13 0.471980 0.750706 0.226534
O O14 0.517161 0.875851 0.258683
O O15 0.468826 0.835493 0.134234
O O16 0.500000 0.500000 0.973912
O O17 0.250000 0.433895 0.950535
O O18 0.501059 0.413567 0.883429
O O19 0.250000 0.171195 0.708970
O O20 0.250000 0.065740 0.314716
O O21 0.000000 0.000000 0.292762
O O22 0.250000 0.309533 0.554092
#
# Coordination Sequence:
#
# PCOD9363824 Si02
#       8
#     8   8   8   8   8   8   8   8
#     4  10  21  36  55  80 108 138 175 218 262 314
#     4  10  20  35  55  79 109 142 179 222 264 313
#     4   9  19  35  54  78 107 139 176 218 263 311
#     4   9  19  36  55  77 108 141 174 216 265 316
#     4  10  21  37  56  79 107 138 174 217 263 313
#     4  10  21  37  57  79 107 142 177 219 267 313
#     4  11  22  36  56  79 106 140 177 219 264 314
#     4   9  19  36  56  79 108 140 175 217 264 312
#
# _framework density 17.458504999999999
#
# number of rings (size 3 to 8) (size 9 to 14) (size 15 to 20)
#    0.000    2.250    0.000    4.125    0.000    7.500 
#    0.000    5.000    0.000    0.000    0.000    0.000 
#    0.000    0.000    0.000    0.000    0.000    0.000 
#
# Total GULP energy -178635.345199 kJ/mol
# GULP energy per Si atom -5582.354537 kJ/mol
# Density = 1.741877 g / cm^3
# Si number density = 17.458505 Si / 1000 Ang^3
#
#
#
# Elastic Constant Matrix: (Units=GPa)
#
#
# Indices 1 2 3 4 5 6 
#
# 1 65.9808 65.8653 55.5256 0.0000 0.0000 0.0000
# 2 65.8653 159.2100 122.5361 0.0000 0.0000 0.0000
# 3 55.5256 122.5361 109.3617 0.0000 0.0000 0.0000
# 4 0.0000 0.0000 0.0000 43.2091 0.0000 0.0000
# 5 0.0000 0.0000 0.0000 0.0000 25.3828 0.0000
# 6 0.0000 0.0000 0.0000 0.0000 0.0000 34.7462
#
#
#
# Elastic Compliance Matrix: (Units=1/GPa)
#
#
# Indices 1 2 3 4 5 6 
#
# 1 0.026896 -0.004481 -0.008635 0.000000 0.000000 0.000000
# 2 -0.004481 0.046383 -0.049695 0.000000 0.000000 0.000000
# 3 -0.008635 -0.049695 0.069210 0.000000 0.000000 0.000000
# 4 0.000000 0.000000 0.000000 0.023143 0.000000 0.000000
# 5 0.000000 0.000000 0.000000 0.000000 0.039397 0.000000
# 6 0.000000 0.000000 0.000000 0.000000 0.000000 0.028780
#
#
# Mechanical properties :
#
#
# Convention : Reuss Voigt Hill
#
# Bulk Modulus (GPa) = 59.28984 91.37852 75.33418
# Shear Modulus (GPa) = 13.69664 26.70930 20.20297
#
# Velocity S-wave (km/s) = 2.80398 3.91560 3.40545
# Velocity P-wave (km/s) = 6.67212 8.53795 7.66204
#
# Compressibility (1/GPa) = 0.01686630
#
# Stress axis : x y z
#
# Youngs Moduli (GPa) = 37.18087 21.55967 14.44877
#
# Poissons Ratio (x) = 0.09661 0.12476
# Poissons Ratio (y) = 0.16661 0.71804
# Poissons Ratio (z) = 0.32105 1.07142
#
# Static dielectric constant tensor:
#      x y z
#    x 1.583930 0.000000 0.000000 
#    y 0.000000 1.568150 0.000000 
#    z 0.000000 0.000000 1.576040 
# 
# From -- ./inp_files/22379.got.cif
#   From: 2010.05.17/outbox.cif.g08.bks.cpg/sg40_12_cif.got.tgz:22379.got - 2010.06.03 18:35:42.
