data_PCOD9363652
_publ_section_title
;
Structure prediction by ZEFSAII (Michael W. Deem and Ramdas Pophale) SiO2 
 PCOD9363652
Probable space group: A M A 2
;
_chemical_formula_sum "Si O2"
_cell_formula_units_Z 48
_cell_length_a 8.600055
_cell_length_b 13.276040
_cell_length_c 17.992154
_cell_angle_alpha 90.000000
_cell_angle_beta 90.000000
_cell_angle_gamma 90.000000
_cell_volume 2054.248321
_symmetry_space_group_name_H-M "A M A 2"
_symmetry_group_IT_number 40
_symmetry_cell_setting 'orthorhombic'
loop_
_space_group_symop_operation_xyz
x,y,z
-x,-y,z
1/2-x,y,z
1/2+x,-y,z
x,1/2+y,1/2+z
-x,1/2-y,1/2+z
1/2-x,1/2+y,1/2+z
1/2+x,1/2-y,1/2+z
loop_
_atom_site_type_symbol
_atom_site_label
_atom_site_fract_x
_atom_site_fract_y
_atom_site_fract_z
Si Si1 0.429792 0.135655 0.997720
Si Si2 0.073036 0.659694 0.965154
Si Si3 0.426746 0.603404 0.130254
Si Si4 0.935166 0.822830 0.160507
Si Si5 0.433288 0.326129 0.816142
Si Si6 0.570053 0.604577 0.344846
O O1 0.250000 0.105335 0.986388
O O2 0.445756 0.255459 0.984156
O O3 0.545076 0.098056 0.934210
O O4 0.479085 0.122261 0.083151
O O5 0.250000 0.701160 0.957438
O O6 0.023326 0.621203 0.884480
O O7 0.077894 0.596220 0.040120
O O8 0.500000 0.500000 0.157111
O O9 0.250000 0.615071 0.156870
O O10 0.517016 0.705191 0.151016
O O11 0.750000 0.829061 0.167648
O O12 0.015370 0.862004 0.234895
O O13 0.250000 0.335590 0.825665
O O14 0.482314 0.206992 0.821266
O O15 0.500000 0.500000 0.316221
O O16 0.750000 0.613509 0.325274
#
# Coordination Sequence:
#
# PCOD9363652 Si02
#       6
#     8   8   8   8   8   8
#     4   9  17  31  51  73  96 126 165 204 242 288
#     4   9  17  31  50  71  96 128 166 204 242 288
#     4  10  20  33  51  75 102 132 166 203 245 293
#     4  10  20  34  52  74 102 133 165 202 245 293
#     4  11  21  33  51  75 102 131 166 204 246 294
#     4  11  21  34  52  74 102 132 165 203 246 294
#
# _framework density 23.366211
#
# number of rings (size 3 to 8) (size 9 to 14) (size 15 to 20)
#    0.000    2.000    0.000    7.000    0.000    4.667 
#    0.000    3.333    0.000    1.000    0.000    4.667 
#    0.000    0.000    0.000    0.000    0.000    0.000 
#
# Total GULP energy -134027.408456 kJ/mol
# GULP energy per Si atom -5584.475352 kJ/mol
# Density = 2.331303 g / cm^3
# Si number density = 23.366211 Si / 1000 Ang^3
#
#
#
# Elastic Constant Matrix: (Units=GPa)
#
#
# Indices 1 2 3 4 5 6 
#
# 1 98.3864 2.2144 34.7591 0.0000 0.0000 0.0000
# 2 2.2144 44.7875 -9.6538 0.0000 0.0000 0.0000
# 3 34.7591 -9.6538 177.0993 0.0000 0.0000 0.0000
# 4 0.0000 0.0000 0.0000 -9.6560 0.0000 0.0000
# 5 0.0000 0.0000 0.0000 0.0000 29.7764 0.0000
# 6 0.0000 0.0000 0.0000 0.0000 0.0000 12.6080
#
#
#
# Elastic Compliance Matrix: (Units=1/GPa)
#
#
# Indices 1 2 3 4 5 6 
#
# 1 0.010967 -0.001018 -0.002208 0.000000 0.000000 0.000000
# 2 -0.001018 0.022688 0.001437 0.000000 0.000000 0.000000
# 3 -0.002208 0.001437 0.006158 0.000000 0.000000 0.000000
# 4 0.000000 0.000000 0.000000 -0.103562 0.000000 0.000000
# 5 0.000000 0.000000 0.000000 0.000000 0.033584 0.000000
# 6 0.000000 0.000000 0.000000 0.000000 0.000000 0.079315
#
#
# Mechanical properties :
#
#
# Convention : Reuss Voigt Hill
#
# Bulk Modulus (GPa) = 27.59864 41.65695 34.62779
# Shear Modulus (GPa) = 77.15329 26.07590 51.61459
#
# Velocity S-wave (km/s) = 5.75246 3.34423 4.70504
# Velocity P-wave (km/s) = 7.48052 5.72524 6.66095
#
# Compressibility (1/GPa) = 0.03623367
#
# Stress axis : x y z
#
# Youngs Moduli (GPa) = 91.18280 44.07685 162.38470
#
# Poissons Ratio (x) = 0.04488 0.35854
# Poissons Ratio (y) = 0.09284 -0.23327
# Poissons Ratio (z) = 0.20133 -0.06332
#
# Static dielectric constant tensor:
#      x y z
#    x 1.839110 0.000000 0.000000 
#    y 0.000000 1.929510 0.000000 
#    z 0.000000 0.000000 1.961020 
# 
# From -- ./inp_files/19196.got.cif
#   From: 2010.05.17/outbox.cif.g08.bks.cpg/sg40_10_cif.got.tgz:19196.got - 2010.06.03 18:35:42.
