data_PCOD9363049
_publ_section_title
;
Structure prediction by ZEFSAII (Michael W. Deem and Ramdas Pophale) SiO2 
 PCOD9363049
Probable space group: A M A 2
;
_chemical_formula_sum "Si O2"
_cell_formula_units_Z 48
_cell_length_a 8.638660
_cell_length_b 9.199523
_cell_length_c 32.558339
_cell_angle_alpha 90.000000
_cell_angle_beta 90.000000
_cell_angle_gamma 90.000000
_cell_volume 2587.461710
_symmetry_space_group_name_H-M "A M A 2"
_symmetry_group_IT_number 40
_symmetry_cell_setting 'orthorhombic'
loop_
_space_group_symop_operation_xyz
x,y,z
-x,-y,z
1/2-x,y,z
1/2+x,-y,z
x,1/2+y,1/2+z
-x,1/2-y,1/2+z
1/2-x,1/2+y,1/2+z
1/2+x,1/2-y,1/2+z
loop_
_atom_site_type_symbol
_atom_site_label
_atom_site_fract_x
_atom_site_fract_y
_atom_site_fract_z
Si Si1 0.063712 0.337456 0.970130
Si Si2 0.936622 0.837910 0.888586
Si Si3 0.435705 0.835937 0.307571
Si Si4 0.435504 0.665092 0.722663
Si Si5 0.064157 0.665159 0.633036
Si Si6 0.065229 0.835501 0.047880
O O1 0.250000 0.339204 0.972063
O O2 0.015719 0.251511 0.928959
O O3 0.000000 0.000000 0.044624
O O4 0.998110 0.256131 0.009937
O O5 0.750000 0.842772 0.888322
O O6 0.986261 0.756447 0.846970
O O7 0.000000 0.000000 0.890237
O O8 0.250000 0.843005 0.306470
O O9 0.495277 0.770559 0.264380
O O10 0.500000 0.000000 0.311358
O O11 0.500000 0.500000 0.721943
O O12 0.250000 0.659964 0.725889
O O13 0.475395 0.730520 0.677870
O O14 0.250000 0.661081 0.629259
O O15 0.992155 0.728766 0.591584
O O16 0.000000 0.000000 0.468432
O O17 0.250000 0.841155 0.047431
O O18 0.000000 0.000000 0.134147
#
# Coordination Sequence:
#
# PCOD9363049 Si02
#       6
#     8   8   8   8   8   8
#     4  11  23  40  59  81 108 139 177 219 267 321
#     4  10  23  39  57  80 106 138 176 217 262 315
#     4  10  19  32  51  78 108 139 176 217 262 312
#     4   9  16  26  44  72 104 139 176 216 261 307
#     4   9  16  27  45  72 105 139 177 219 262 310
#     4  11  21  34  54  81 111 144 181 222 269 317
#
# _framework density 18.550999999999998
#
# number of rings (size 3 to 8) (size 9 to 14) (size 15 to 20)
#    0.000    2.000    0.000    6.500    0.000    6.000 
#    0.000    0.000    0.000    1.000    0.000    2.333 
#    0.000    0.000    0.000    0.000    0.000    0.000 
#
# Total GULP energy -133907.506466 kJ/mol
# GULP energy per Si atom -5579.479436 kJ/mol
# Density = 1.850878 g / cm^3
# Si number density = 18.551000 Si / 1000 Ang^3
#
#
#
# Elastic Constant Matrix: (Units=GPa)
#
#
# Indices 1 2 3 4 5 6 
#
# 1 86.2880 30.0400 67.5243 0.0000 0.0000 0.0000
# 2 30.0400 79.1657 79.9974 0.0000 0.0000 0.0000
# 3 67.5243 79.9974 241.4127 0.0000 0.0000 0.0000
# 4 0.0000 0.0000 0.0000 25.1332 0.0000 0.0000
# 5 0.0000 0.0000 0.0000 0.0000 29.4638 0.0000
# 6 0.0000 0.0000 0.0000 0.0000 0.0000 23.7108
#
#
#
# Elastic Compliance Matrix: (Units=1/GPa)
#
#
# Indices 1 2 3 4 5 6 
#
# 1 0.015086 -0.002196 -0.003492 0.000000 0.000000 0.000000
# 2 -0.002196 0.019311 -0.005785 0.000000 0.000000 0.000000
# 3 -0.003492 -0.005785 0.007036 0.000000 0.000000 0.000000
# 4 0.000000 0.000000 0.000000 0.039788 0.000000 0.000000
# 5 0.000000 0.000000 0.000000 0.000000 0.033940 0.000000
# 6 0.000000 0.000000 0.000000 0.000000 0.000000 0.042175
#
#
# Mechanical properties :
#
#
# Convention : Reuss Voigt Hill
#
# Bulk Modulus (GPa) = 54.09105 84.66555 69.37830
# Shear Modulus (GPa) = 26.81780 30.94854 28.88317
#
# Velocity S-wave (km/s) = 3.80626 4.08891 3.95011
# Velocity P-wave (km/s) = 6.96693 8.24807 7.63442
#
# Compressibility (1/GPa) = 0.01848735
#
# Stress axis : x y z
#
# Youngs Moduli (GPa) = 66.28558 51.78520 142.12737
#
# Poissons Ratio (x) = 0.11371 0.49632
# Poissons Ratio (y) = 0.14555 0.82218
# Poissons Ratio (z) = 0.23147 0.29957
#
# Static dielectric constant tensor:
#      x y z
#    x 1.622590 0.000000 0.000000 
#    y 0.000000 1.611580 0.000000 
#    z 0.000000 0.000000 1.696840 
# 
# From -- ./inp_files/26160.got.cif
#   From: 2010.05.17/outbox.cif.g08.bks.cpg/sg40_14_cif.got.tgz:26160.got - 2010.06.03 18:35:42.
