data_PCOD9363710
_publ_section_title
;
Structure prediction by ZEFSAII (Michael W. Deem and Ramdas Pophale) SiO2 
 PCOD9363710
Probable space group: A M A 2
;
_chemical_formula_sum "Si O2"
_cell_formula_units_Z 64
_cell_length_a 8.422443
_cell_length_b 20.944502
_cell_length_c 20.368681
_cell_angle_alpha 90.000000
_cell_angle_beta 90.000000
_cell_angle_gamma 90.000000
_cell_volume 3593.114242
_symmetry_space_group_name_H-M "A M A 2"
_symmetry_group_IT_number 40
_symmetry_cell_setting 'orthorhombic'
loop_
_space_group_symop_operation_xyz
x,y,z
-x,-y,z
1/2-x,y,z
1/2+x,-y,z
x,1/2+y,1/2+z
-x,1/2-y,1/2+z
1/2-x,1/2+y,1/2+z
1/2+x,1/2-y,1/2+z
loop_
_atom_site_type_symbol
_atom_site_label
_atom_site_fract_x
_atom_site_fract_y
_atom_site_fract_z
Si Si1 0.442051 0.179421 0.234120
Si Si2 0.059780 0.323212 0.084732
Si Si3 0.558004 0.929690 0.983406
Si Si4 0.560026 0.429683 0.985013
Si Si5 0.558280 0.429735 0.332618
Si Si6 0.058176 0.570344 0.834204
Si Si7 0.556629 0.821654 0.083783
Si Si8 0.940432 0.821237 0.731924
O O1 0.250000 0.180539 0.235001
O O2 0.496922 0.125693 0.285069
O O3 0.491797 0.165029 0.159009
O O4 0.501002 0.250430 0.250245
O O5 0.250000 0.323848 0.085390
O O6 0.007207 0.250814 0.067312
O O7 0.000509 0.335854 0.158582
O O8 0.999635 0.375310 0.033693
O O9 0.750000 0.929650 0.984133
O O10 0.506381 0.918353 0.908006
O O11 0.500000 0.000000 0.003011
O O12 0.501025 0.874700 0.032577
O O13 0.500000 0.500000 0.004517
O O14 0.750000 0.430137 0.985534
O O15 0.506076 0.418317 0.909599
O O16 0.500000 0.500000 0.312913
O O17 0.750000 0.429990 0.332166
O O18 0.503504 0.374561 0.283448
O O19 0.250000 0.570092 0.833511
O O20 0.000000 0.500000 0.814563
O O21 0.750000 0.822508 0.082642
O O22 0.750000 0.821229 0.731401
#
# Coordination Sequence:
#
# PCOD9363710 Si02
#       8
#     8   8   8   8   8   8   8   8
#     4   9  18  34  52  73 102 137 171 206 250 299
#     4  10  20  35  54  75  99 132 167 205 254 307
#     4   9  17  32  50  71  98 128 162 201 241 288
#     4  10  20  35  53  75 102 133 168 210 255 304
#     4   9  19  33  50  71  97 127 161 200 244 289
#     4   9  19  34  52  74 103 135 170 211 255 302
#     4   8  16  31  51  71  97 131 164 197 241 294
#     4  10  20  34  51  74 101 131 168 212 253 297
#
# _framework density 17.811847
#
# number of rings (size 3 to 8) (size 9 to 14) (size 15 to 20)
#    0.000    2.750    0.000    1.875    0.000    4.000 
#    0.000    5.625    0.000    0.000    0.000    0.000 
#    0.000    0.000    0.000    0.000    0.000    0.000 
#
# Total GULP energy -178454.137201 kJ/mol
# GULP energy per Si atom -5576.691788 kJ/mol
# Density = 1.777131 g / cm^3
# Si number density = 17.811847 Si / 1000 Ang^3
#
#
#
# Elastic Constant Matrix: (Units=GPa)
#
#
# Indices 1 2 3 4 5 6 
#
# 1 17.6781 24.6437 22.0907 0.0000 0.0000 0.0000
# 2 24.6437 191.8855 139.5199 0.0000 0.0000 0.0000
# 3 22.0907 139.5199 120.5065 0.0000 0.0000 0.0000
# 4 0.0000 0.0000 0.0000 45.3837 0.0000 0.0000
# 5 0.0000 0.0000 0.0000 0.0000 16.4403 0.0000
# 6 0.0000 0.0000 0.0000 0.0000 0.0000 29.6581
#
#
#
# Elastic Compliance Matrix: (Units=1/GPa)
#
#
# Indices 1 2 3 4 5 6 
#
# 1 0.073530 0.002259 -0.016094 0.000000 0.000000 0.000000
# 2 0.002259 0.033016 -0.038639 0.000000 0.000000 0.000000
# 3 -0.016094 -0.038639 0.055984 0.000000 0.000000 0.000000
# 4 0.000000 0.000000 0.000000 0.022034 0.000000 0.000000
# 5 0.000000 0.000000 0.000000 0.000000 0.060826 0.000000
# 6 0.000000 0.000000 0.000000 0.000000 0.000000 0.033718
#
#
# Mechanical properties :
#
#
# Convention : Reuss Voigt Hill
#
# Bulk Modulus (GPa) = 17.36692 78.06429 47.71561
# Shear Modulus (GPa) = 12.39924 27.88415 20.14169
#
# Velocity S-wave (km/s) = 2.64128 3.96091 3.36639
# Velocity P-wave (km/s) = 4.36728 8.05238 6.47742
#
# Compressibility (1/GPa) = 0.05758073
#
# Stress axis : x y z
#
# Youngs Moduli (GPa) = 13.59987 30.28861 17.86223
#
# Poissons Ratio (x) = -0.06842 0.28748
# Poissons Ratio (y) = -0.03072 0.69018
# Poissons Ratio (z) = 0.21888 1.17032
#
# Static dielectric constant tensor:
#      x y z
#    x 1.609020 0.000000 0.000000 
#    y 0.000000 1.585240 0.000000 
#    z 0.000000 0.000000 1.604180 
# 
# From -- ./inp_files/19578.got.cif
#   From: 2010.05.17/outbox.cif.g08.bks.cpg/sg40_10_cif.got.tgz:19578.got - 2010.06.03 18:35:42.
