data_PCOD9363372
_publ_section_title
;
Structure prediction by ZEFSAII (Michael W. Deem and Ramdas Pophale) SiO2 
 PCOD9363372
Probable space group: A M A 2
;
_chemical_formula_sum "Si O2"
_cell_formula_units_Z 40
_cell_length_a 13.043794
_cell_length_b 24.853090
_cell_length_c 5.087729
_cell_angle_alpha 90.000000
_cell_angle_beta 90.000000
_cell_angle_gamma 90.000000
_cell_volume 1649.332794
_symmetry_space_group_name_H-M "A M A 2"
_symmetry_group_IT_number 40
_symmetry_cell_setting 'orthorhombic'
loop_
_space_group_symop_operation_xyz
x,y,z
-x,-y,z
1/2-x,y,z
1/2+x,-y,z
x,1/2+y,1/2+z
-x,1/2-y,1/2+z
1/2-x,1/2+y,1/2+z
1/2+x,1/2-y,1/2+z
loop_
_atom_site_type_symbol
_atom_site_label
_atom_site_fract_x
_atom_site_fract_y
_atom_site_fract_z
Si Si1 0.640224 0.453882 0.063910
Si Si2 0.139731 0.644279 0.442422
Si Si3 0.569502 0.754226 0.663343
Si Si4 0.911818 0.574520 0.009547
Si Si5 0.908500 0.141959 0.033971
O O1 0.750000 0.443625 0.927000
O O2 0.641378 0.415367 0.318248
O O3 0.633287 0.517789 0.104783
O O4 0.531126 0.438397 0.942621
O O5 0.250000 0.654848 0.573136
O O6 0.127580 0.689977 0.215515
O O7 0.031508 0.648927 0.587590
O O8 0.481412 0.761341 0.443892
O O9 0.631867 0.702295 0.565712
O O10 0.901280 0.617039 0.245117
O O11 0.867112 0.600437 0.747274
#
# Coordination Sequence:
#
# PCOD9363372 Si02
#       5
#     8   8   8   8   8
#     4   9  19  36  57  82 112 145 187 236 281 333
#     4   9  19  36  59  87 114 145 189 239 286 332
#     4  10  19  35  57  80 109 145 181 222 276 334
#     4  10  21  37  58  82 110 149 189 228 283 338
#     4  10  20  37  58  80 111 148 185 227 278 339
#
# _framework density 24.252229
#
# number of rings (size 3 to 8) (size 9 to 14) (size 15 to 20)
#    0.000    2.400    0.000    3.600    0.000    7.200 
#    0.000   17.000    0.000    0.000    0.000    0.000 
#    0.000    0.000    0.000    0.000    0.000    0.000 
#
# Total GULP energy -111543.739296 kJ/mol
# GULP energy per Si atom -5577.186965 kJ/mol
# Density = 2.419703 g / cm^3
# Si number density = 24.252229 Si / 1000 Ang^3
#
#
#
# Elastic Constant Matrix: (Units=GPa)
#
#
# Indices 1 2 3 4 5 6 
#
# 1 134.5863 6.0955 11.5762 0.0000 0.0000 0.0000
# 2 6.0955 168.3281 48.7332 0.0000 0.0000 0.0000
# 3 11.5762 48.7332 76.0230 0.0000 0.0000 0.0000
# 4 0.0000 0.0000 0.0000 30.1771 0.0000 0.0000
# 5 0.0000 0.0000 0.0000 0.0000 3.1029 0.0000
# 6 0.0000 0.0000 0.0000 0.0000 0.0000 -18.5979
#
#
#
# Elastic Compliance Matrix: (Units=1/GPa)
#
#
# Indices 1 2 3 4 5 6 
#
# 1 0.007530 0.000073 -0.001193 0.000000 0.000000 0.000000
# 2 0.000073 0.007295 -0.004688 0.000000 0.000000 0.000000
# 3 -0.001193 -0.004688 0.016340 0.000000 0.000000 0.000000
# 4 0.000000 0.000000 0.000000 0.033138 0.000000 0.000000
# 5 0.000000 0.000000 0.000000 0.000000 0.322275 0.000000
# 6 0.000000 0.000000 0.000000 0.000000 0.000000 -0.053769
#
#
# Mechanical properties :
#
#
# Convention : Reuss Voigt Hill
#
# Bulk Modulus (GPa) = 51.15274 56.86078 54.00676
# Shear Modulus (GPa) = 14.24741 23.77193 19.00967
#
# Velocity S-wave (km/s) = 2.42640 3.13420 2.80274
# Velocity P-wave (km/s) = 5.38402 6.04931 5.72633
#
# Compressibility (1/GPa) = 0.01954930
#
# Stress axis : x y z
#
# Youngs Moduli (GPa) = 132.81072 137.07533 61.19767
#
# Poissons Ratio (x) = -0.00998 0.07302
# Poissons Ratio (y) = -0.00967 0.28687
# Poissons Ratio (z) = 0.15847 0.64255
#
# Static dielectric constant tensor:
#      x y z
#    x 2.006590 0.000000 0.000000 
#    y 0.000000 1.957000 0.000000 
#    z 0.000000 0.000000 1.855050 
# 
# From -- ./inp_files/1224.got.cif
#   From: 2010.05.17/outbox.cif.g08.bks.cpg/sg40_1_cif.got.tgz:1224.got - 2010.06.03 18:35:42.
