data_PCOD9363175
_publ_section_title
;
Structure prediction by ZEFSAII (Michael W. Deem and Ramdas Pophale) SiO2 
 PCOD9363175
Probable space group: A M A 2
;
_chemical_formula_sum "Si O2"
_cell_formula_units_Z 64
_cell_length_a 16.888400
_cell_length_b 9.860696
_cell_length_c 22.093404
_cell_angle_alpha 90.000000
_cell_angle_beta 90.000000
_cell_angle_gamma 90.000000
_cell_volume 3679.245020
_symmetry_space_group_name_H-M "A M A 2"
_symmetry_group_IT_number 40
_symmetry_cell_setting 'orthorhombic'
loop_
_space_group_symop_operation_xyz
x,y,z
-x,-y,z
1/2-x,y,z
1/2+x,-y,z
x,1/2+y,1/2+z
-x,1/2-y,1/2+z
1/2-x,1/2+y,1/2+z
1/2+x,1/2-y,1/2+z
loop_
_atom_site_type_symbol
_atom_site_label
_atom_site_fract_x
_atom_site_fract_y
_atom_site_fract_z
Si Si1 0.098425 0.684197 0.933120
Si Si2 0.014142 0.344864 0.596930
Si Si3 0.656417 0.089236 0.392375
Si Si4 0.440059 0.621452 0.178397
Si Si5 0.429092 0.717360 0.475584
Si Si6 0.843392 0.327077 0.299153
Si Si7 0.656442 0.816321 0.565657
Si Si8 0.157966 0.981903 0.911072
O O1 0.110903 0.553232 0.891652
O O2 0.008025 0.730316 0.941471
O O3 0.142775 0.821870 0.913872
O O4 0.133124 0.637263 0.998465
O O5 0.955121 0.289812 0.545216
O O6 0.881133 0.903424 0.620701
O O7 0.000000 0.500000 0.608414
O O8 0.010807 0.251940 0.655812
O O9 0.750000 0.061941 0.390389
O O10 0.636040 0.175644 0.452932
O O11 0.636153 0.192385 0.337755
O O12 0.500000 0.500000 0.187514
O O13 0.391770 0.654727 0.238268
O O14 0.395733 0.821135 0.072741
O O15 0.399632 0.568958 0.454506
O O16 0.750000 0.320296 0.285411
O O17 0.855941 0.453119 0.344953
O O18 0.750000 0.800457 0.571395
O O19 0.250000 0.009200 0.926908
#
# Coordination Sequence:
#
# PCOD9363175 Si02
#       8
#     8   8   8   8   8   8   8   8
#     4  11  20  32  54  91 122 143 184 241 292 342
#     4   9  20  35  55  81 112 148 190 239 287 332
#     4  10  21  35  56  86 115 151 188 232 289 347
#     4  10  22  37  60  81 108 148 201 239 278 339
#     4  10  19  33  54  79 120 152 183 224 291 350
#     4   9  20  40  59  77 110 156 196 229 279 345
#     4   9  19  33  58  83 112 155 189 226 286 350
#     4  10  20  35  58  86 114 153 192 233 286 354
#
# _framework density 17.394873
#
# number of rings (size 3 to 8) (size 9 to 14) (size 15 to 20)
#    0.750    1.500    0.000    4.875    1.750    2.000 
#    0.000    4.375    0.000    1.500    0.000    0.000 
#    0.000    0.000    0.000    0.000    0.000    0.000 
#
# Total GULP energy -178223.629096 kJ/mol
# GULP energy per Si atom -5569.488409 kJ/mol
# Density = 1.735528 g / cm^3
# Si number density = 17.394873 Si / 1000 Ang^3
#
#
#
# Elastic Constant Matrix: (Units=GPa)
#
#
# Indices 1 2 3 4 5 6 
#
# 1 56.4102 28.4813 51.6712 0.0000 0.0000 0.0000
# 2 28.4813 106.0820 54.6727 0.0000 0.0000 0.0000
# 3 51.6712 54.6727 111.8588 0.0000 0.0000 0.0000
# 4 0.0000 0.0000 0.0000 12.3175 0.0000 0.0000
# 5 0.0000 0.0000 0.0000 0.0000 31.8639 0.0000
# 6 0.0000 0.0000 0.0000 0.0000 0.0000 19.5436
#
#
#
# Elastic Compliance Matrix: (Units=1/GPa)
#
#
# Indices 1 2 3 4 5 6 
#
# 1 0.030854 -0.001254 -0.013640 0.000000 0.000000 0.000000
# 2 -0.001254 0.012652 -0.005604 0.000000 0.000000 0.000000
# 3 -0.013640 -0.005604 0.017980 0.000000 0.000000 0.000000
# 4 0.000000 0.000000 0.000000 0.081185 0.000000 0.000000
# 5 0.000000 0.000000 0.000000 0.000000 0.031384 0.000000
# 6 0.000000 0.000000 0.000000 0.000000 0.000000 0.051168
#
#
# Mechanical properties :
#
#
# Convention : Reuss Voigt Hill
#
# Bulk Modulus (GPa) = 48.80600 60.44460 54.62530
# Shear Modulus (GPa) = 18.31179 22.04672 20.17926
#
# Velocity S-wave (km/s) = 3.24807 3.56396 3.40967
# Velocity P-wave (km/s) = 6.49502 7.19442 6.85364
#
# Compressibility (1/GPa) = 0.02048928
#
# Stress axis : x y z
#
# Youngs Moduli (GPa) = 32.41047 79.04004 55.61860
#
# Poissons Ratio (x) = 0.09914 0.75861
# Poissons Ratio (y) = 0.04065 0.31171
# Poissons Ratio (z) = 0.44206 0.44297
#
# Static dielectric constant tensor:
#      x y z
#    x 1.604860 0.000000 0.000000 
#    y 0.000000 1.564510 0.000000 
#    z 0.000000 0.000000 1.598730 
# 
# From -- ./inp_files/23350.got.cif
#   From: 2010.05.17/outbox.cif.g08.bks.cpg/sg40_12_cif.got.tgz:23350.got - 2010.06.03 18:35:42.
