data_PCOD9363034
_publ_section_title
;
Structure prediction by ZEFSAII (Michael W. Deem and Ramdas Pophale) SiO2 
 PCOD9363034
Probable space group: A M A 2
;
_chemical_formula_sum "Si O2"
_cell_formula_units_Z 64
_cell_length_a 8.619191
_cell_length_b 23.958628
_cell_length_c 19.656726
_cell_angle_alpha 90.000000
_cell_angle_beta 90.000000
_cell_angle_gamma 90.000000
_cell_volume 4059.192366
_symmetry_space_group_name_H-M "A M A 2"
_symmetry_group_IT_number 40
_symmetry_cell_setting 'orthorhombic'
loop_
_space_group_symop_operation_xyz
x,y,z
-x,-y,z
1/2-x,y,z
1/2+x,-y,z
x,1/2+y,1/2+z
-x,1/2-y,1/2+z
1/2-x,1/2+y,1/2+z
1/2+x,1/2-y,1/2+z
loop_
_atom_site_type_symbol
_atom_site_label
_atom_site_fract_x
_atom_site_fract_y
_atom_site_fract_z
Si Si1 0.064091 0.228334 0.958210
Si Si2 0.064760 0.383918 0.816161
Si Si3 0.063085 0.774629 0.667700
Si Si4 0.061972 0.162731 0.086723
Si Si5 0.564302 0.258078 0.816444
Si Si6 0.435077 0.166922 0.541924
Si Si7 0.936754 0.938172 0.178136
Si Si8 0.064146 0.061488 0.454008
O O1 0.250000 0.227064 0.951860
O O2 0.988136 0.226954 0.884487
O O3 0.012725 0.180100 0.010952
O O4 0.016229 0.286318 0.994769
O O5 0.250000 0.386367 0.814245
O O6 0.009847 0.319698 0.817146
O O7 0.995623 0.413841 0.749795
O O8 0.003945 0.414600 0.883639
O O9 0.250000 0.779282 0.662376
O O10 0.018226 0.714303 0.635900
O O11 0.019705 0.773261 0.746765
O O12 0.987707 0.820405 0.618713
O O13 0.250000 0.161722 0.086094
O O14 0.009750 0.104956 0.119512
O O15 0.750000 0.265095 0.816066
O O16 0.250000 0.174251 0.535999
O O17 0.475635 0.106251 0.512680
O O18 0.750000 0.939052 0.179297
O O19 0.000000 0.000000 0.167812
O O20 0.250000 0.059312 0.447899
O O21 0.000000 0.000000 0.467204
#
# Coordination Sequence:
#
# PCOD9363034 Si02
#       8
#     8   8   8   8   8   8   8   8
#     4  10  19  32  51  74  98 131 168 203 250 303
#     4  12  23  34  49  72 100 136 175 209 242 293
#     4   9  18  33  52  71  97 132 165 199 250 305
#     4   8  16  32  50  68  95 131 164 200 246 293
#     4  11  20  33  51  75 104 136 165 204 254 298
#     4  10  20  33  50  73 100 129 164 210 252 290
#     4  11  21  36  52  70  99 135 172 211 249 293
#     4  11  23  37  52  71  99 135 172 209 248 292
#
# _framework density 15.766684
#
# number of rings (size 3 to 8) (size 9 to 14) (size 15 to 20)
#    0.000    1.750    2.500    4.125    0.000    2.500 
#    0.000    1.875    0.000    0.000    0.000    0.875 
#    0.000    2.000    0.000    0.000    0.000    0.000 
#
# Total GULP energy -178609.971900 kJ/mol
# GULP energy per Si atom -5581.561622 kJ/mol
# Density = 1.573080 g / cm^3
# Si number density = 15.766684 Si / 1000 Ang^3
#
#
#
# Elastic Constant Matrix: (Units=GPa)
#
#
# Indices 1 2 3 4 5 6 
#
# 1 57.6628 35.5825 36.5688 0.0000 0.0000 0.0000
# 2 35.5825 107.8834 77.5251 0.0000 0.0000 0.0000
# 3 36.5688 77.5251 140.9501 0.0000 0.0000 0.0000
# 4 0.0000 0.0000 0.0000 11.7103 0.0000 0.0000
# 5 0.0000 0.0000 0.0000 0.0000 33.8378 0.0000
# 6 0.0000 0.0000 0.0000 0.0000 0.0000 0.0930
#
#
#
# Elastic Compliance Matrix: (Units=1/GPa)
#
#
# Indices 1 2 3 4 5 6 
#
# 1 0.022468 -0.005327 -0.002899 0.000000 0.000000 0.000000
# 2 -0.005327 0.016590 -0.007743 0.000000 0.000000 0.000000
# 3 -0.002899 -0.007743 0.012106 0.000000 0.000000 0.000000
# 4 0.000000 0.000000 0.000000 0.085395 0.000000 0.000000
# 5 0.000000 0.000000 0.000000 0.000000 0.029553 0.000000
# 6 0.000000 0.000000 0.000000 0.000000 0.000000 10.757538
#
#
# Mechanical properties :
#
#
# Convention : Reuss Voigt Hill
#
# Bulk Modulus (GPa) = 52.01402 67.31657 59.66530
# Shear Modulus (GPa) = 0.45612 19.58289 10.01950
#
# Velocity S-wave (km/s) = 0.53844 3.52809 2.52362
# Velocity P-wave (km/s) = 5.78343 7.70614 6.81295
#
# Compressibility (1/GPa) = 0.01922559
#
# Stress axis : x y z
#
# Youngs Moduli (GPa) = 44.50753 60.27618 82.60630
#
# Poissons Ratio (x) = 0.32110 0.23949
# Poissons Ratio (y) = 0.23710 0.63961
# Poissons Ratio (z) = 0.12904 0.46671
#
# Static dielectric constant tensor:
#      x y z
#    x 1.531750 0.000000 0.000000 
#    y 0.000000 1.505880 0.000000 
#    z 0.000000 0.000000 1.531710 
# 
# From -- ./inp_files/19734.got.cif
#   From: 2010.05.17/outbox.cif.g08.bks.cpg/sg40_10_cif.got.tgz:19734.got - 2010.06.03 18:35:42.
