data_PCOD9363599
_publ_section_title
;
Structure prediction by ZEFSAII (Michael W. Deem and Ramdas Pophale) SiO2 
 PCOD9363599
Probable space group: A M A 2
;
_chemical_formula_sum "Si O2"
_cell_formula_units_Z 64
_cell_length_a 8.921894
_cell_length_b 23.339537
_cell_length_c 13.630062
_cell_angle_alpha 90.000000
_cell_angle_beta 90.000000
_cell_angle_gamma 90.000000
_cell_volume 2838.226998
_symmetry_space_group_name_H-M "A M A 2"
_symmetry_group_IT_number 40
_symmetry_cell_setting 'orthorhombic'
loop_
_space_group_symop_operation_xyz
x,y,z
-x,-y,z
1/2-x,y,z
1/2+x,-y,z
x,1/2+y,1/2+z
-x,1/2-y,1/2+z
1/2-x,1/2+y,1/2+z
1/2+x,1/2-y,1/2+z
loop_
_atom_site_type_symbol
_atom_site_label
_atom_site_fract_x
_atom_site_fract_y
_atom_site_fract_z
Si Si1 0.579173 0.079300 0.321480
Si Si2 0.420110 0.317004 0.369689
Si Si3 0.077223 0.583951 0.625978
Si Si4 0.570307 0.058624 0.917455
Si Si5 0.928762 0.558782 0.049805
Si Si6 0.580489 0.705680 0.884529
Si Si7 0.573972 0.825325 0.582468
Si Si8 0.577339 0.699094 0.605807
O O1 0.750000 0.058877 0.307705
O O2 0.477350 0.060977 0.230976
O O3 0.531592 0.063744 0.432638
O O4 0.583539 0.148780 0.319820
O O5 0.250000 0.311586 0.330809
O O6 0.474668 0.382685 0.361161
O O7 0.527647 0.265280 0.338692
O O8 0.412149 0.307907 0.487640
O O9 0.250000 0.571021 0.608425
O O10 0.982626 0.564218 0.531229
O O11 0.044815 0.651988 0.632539
O O12 0.750000 0.056399 0.915474
O O13 0.500000 0.000000 0.877945
O O14 0.750000 0.557164 0.055373
O O15 0.000000 0.500000 0.087060
O O16 0.986990 0.616091 0.103166
O O17 0.750000 0.712503 0.924938
O O18 0.464896 0.688246 0.969233
O O19 0.750000 0.834238 0.596258
O O20 0.532834 0.764252 0.629504
O O21 0.750000 0.688904 0.639991
#
# Coordination Sequence:
#
# PCOD9363599 Si02
#       8
#     8   8   8   8   8   8   8   8
#     4   9  19  33  44  58  85 118 149 181 214 249
#     4   8  15  27  43  62  83 107 134 170 217 259
#     4  11  21  30  44  64  85 114 149 183 216 252
#     4  10  20  33  46  61  85 116 148 181 215 252
#     4  10  20  32  46  63  85 115 148 182 216 252
#     4   9  16  26  43  64  83 106 137 174 215 256
#     4   9  16  27  44  63  83 108 137 172 216 259
#     4   8  15  28  44  61  83 110 137 171 216 259
#
# _framework density 22.549289999999999
#
# number of rings (size 3 to 8) (size 9 to 14) (size 15 to 20)
#    0.000    2.750    0.000    4.875    0.000    9.000 
#    0.000    1.250    0.000    0.000    0.000    0.000 
#    0.000    1.000    0.000    7.000    0.000    5.625 
#
# Total GULP energy -178489.619461 kJ/mol
# GULP energy per Si atom -5577.800608 kJ/mol
# Density = 2.249797 g / cm^3
# Si number density = 22.549290 Si / 1000 Ang^3
#
#
#
# Elastic Constant Matrix: (Units=GPa)
#
#
# Indices 1 2 3 4 5 6 
#
# 1 44.5936 45.9599 -4.6944 0.0000 0.0000 0.0000
# 2 45.9599 198.7760 -7.8254 0.0000 0.0000 0.0000
# 3 -4.6944 -7.8254 35.0745 0.0000 0.0000 0.0000
# 4 0.0000 0.0000 0.0000 -15.7328 0.0000 0.0000
# 5 0.0000 0.0000 0.0000 0.0000 8.2465 0.0000
# 6 0.0000 0.0000 0.0000 0.0000 0.0000 39.3980
#
#
#
# Elastic Compliance Matrix: (Units=1/GPa)
#
#
# Indices 1 2 3 4 5 6 
#
# 1 0.029649 -0.006758 0.002460 0.000000 0.000000 0.000000
# 2 -0.006758 0.006616 0.000572 0.000000 0.000000 0.000000
# 3 0.002460 0.000572 0.028968 0.000000 0.000000 0.000000
# 4 0.000000 0.000000 0.000000 -0.063562 0.000000 0.000000
# 5 0.000000 0.000000 0.000000 0.000000 0.121264 0.000000
# 6 0.000000 0.000000 0.000000 0.000000 0.000000 0.025382
#
#
# Mechanical properties :
#
#
# Convention : Reuss Voigt Hill
#
# Bulk Modulus (GPa) = 17.30713 38.36937 27.83825
# Shear Modulus (GPa) = 28.56648 22.71595 25.64121
#
# Velocity S-wave (km/s) = 3.56314 3.17739 3.37578
# Velocity P-wave (km/s) = 4.96184 5.52393 5.25041
#
# Compressibility (1/GPa) = 0.05777964
#
# Stress axis : x y z
#
# Youngs Moduli (GPa) = 33.72761 151.15000 34.52138
#
# Poissons Ratio (x) = 1.02154 -0.08494
# Poissons Ratio (y) = 0.22795 -0.01973
# Poissons Ratio (z) = -0.08298 -0.08639
#
# Static dielectric constant tensor:
#      x y z
#    x 1.766390 0.000000 0.000000 
#    y 0.000000 1.907280 0.000000 
#    z 0.000000 0.000000 1.886820 
# 
# From -- ./inp_files/15593.got.cif
#   From: 2010.05.17/outbox.cif.g08.bks.cpg/sg40_8_cif.got.tgz:15593.got - 2010.06.03 18:35:42.
