data_PCOD9363899
_publ_section_title
;
Structure prediction by ZEFSAII (Michael W. Deem and Ramdas Pophale) SiO2 
 PCOD9363899
Probable space group: A M A 2
;
_chemical_formula_sum "Si O2"
_cell_formula_units_Z 64
_cell_length_a 8.695209
_cell_length_b 25.371301
_cell_length_c 15.173105
_cell_angle_alpha 90.000000
_cell_angle_beta 90.000000
_cell_angle_gamma 90.000000
_cell_volume 3347.319952
_symmetry_space_group_name_H-M "A M A 2"
_symmetry_group_IT_number 40
_symmetry_cell_setting 'orthorhombic'
loop_
_space_group_symop_operation_xyz
x,y,z
-x,-y,z
1/2-x,y,z
1/2+x,-y,z
x,1/2+y,1/2+z
-x,1/2-y,1/2+z
1/2-x,1/2+y,1/2+z
1/2+x,1/2-y,1/2+z
loop_
_atom_site_type_symbol
_atom_site_label
_atom_site_fract_x
_atom_site_fract_y
_atom_site_fract_z
Si Si1 0.430453 0.133886 0.134020
Si Si2 0.065619 0.649003 0.260994
Si Si3 0.432139 0.718386 0.917345
Si Si4 0.931256 0.232287 0.226807
Si Si5 0.566969 0.397712 0.963684
Si Si6 0.933372 0.558547 0.780989
Si Si7 0.932685 0.056953 0.640130
Si Si8 0.932542 0.163054 0.955297
O O1 0.250000 0.124073 0.142596
O O2 0.472146 0.192318 0.168454
O O3 0.520527 0.093877 0.197305
O O4 0.484108 0.132133 0.033117
O O5 0.250000 0.646158 0.267636
O O6 0.028511 0.706096 0.218339
O O7 0.993817 0.648590 0.358597
O O8 0.002117 0.601873 0.202639
O O9 0.250000 0.717703 0.892458
O O10 0.532093 0.718230 0.828563
O O11 0.461279 0.665166 0.971023
O O12 0.460491 0.773815 0.965160
O O13 0.750000 0.225225 0.208321
O O14 0.250000 0.593323 0.970264
O O15 0.508141 0.416028 0.868376
O O16 0.482750 0.428811 0.040743
O O17 0.750000 0.557098 0.790904
O O18 0.000000 0.500000 0.770823
O O19 0.750000 0.056298 0.647161
O O20 0.000000 0.000000 0.663403
O O21 0.250000 0.845442 0.960244
#
# Coordination Sequence:
#
# PCOD9363899 Si02
#       8
#     8   8   8   8   8   8   8   8
#     4  12  24  39  60  91 128 167 210 257 308 366
#     4  10  22  42  65  92 125 162 206 259 316 371
#     4   9  19  35  58  87 125 164 203 247 301 363
#     4  10  20  35  59  89 124 162 203 249 303 366
#     4  11  22  39  62  93 128 166 206 255 309 369
#     4  12  25  43  65  91 124 166 210 258 311 372
#     4  12  26  44  65  91 122 163 212 263 313 371
#     4  10  21  39  62  92 127 166 208 255 310 370
#
# _framework density 19.119774
#
# number of rings (size 3 to 8) (size 9 to 14) (size 15 to 20)
#    0.000    1.250    1.250    5.250    1.750    2.500 
#    0.000    0.625    0.000    0.000    0.000    0.000 
#    0.000    0.000    0.000    0.000    0.000    0.000 
#
# Total GULP energy -178972.885526 kJ/mol
# GULP energy per Si atom -5592.902673 kJ/mol
# Density = 1.907626 g / cm^3
# Si number density = 19.119774 Si / 1000 Ang^3
#
#
#
# Elastic Constant Matrix: (Units=GPa)
#
#
# Indices 1 2 3 4 5 6 
#
# 1 55.9932 20.3414 -1.4138 0.0000 0.0000 0.0000
# 2 20.3414 98.1756 27.7680 0.0000 0.0000 0.0000
# 3 -1.4138 27.7680 52.9648 0.0000 0.0000 0.0000
# 4 0.0000 0.0000 0.0000 22.7462 0.0000 0.0000
# 5 0.0000 0.0000 0.0000 0.0000 34.9074 0.0000
# 6 0.0000 0.0000 0.0000 0.0000 0.0000 29.8750
#
#
#
# Elastic Compliance Matrix: (Units=1/GPa)
#
#
# Indices 1 2 3 4 5 6 
#
# 1 0.019747 -0.004979 0.003137 0.000000 0.000000 0.000000
# 2 -0.004979 0.013215 -0.007061 0.000000 0.000000 0.000000
# 3 0.003137 -0.007061 0.022666 0.000000 0.000000 0.000000
# 4 0.000000 0.000000 0.000000 0.043963 0.000000 0.000000
# 5 0.000000 0.000000 0.000000 0.000000 0.028647 0.000000
# 6 0.000000 0.000000 0.000000 0.000000 0.000000 0.033473
#
#
# Mechanical properties :
#
#
# Convention : Reuss Voigt Hill
#
# Bulk Modulus (GPa) = 26.43888 33.39164 29.91526
# Shear Modulus (GPa) = 26.02488 28.20159 27.11323
#
# Velocity S-wave (km/s) = 3.69338 3.84473 3.76982
# Velocity P-wave (km/s) = 5.66093 6.10014 5.88463
#
# Compressibility (1/GPa) = 0.03782309
#
# Stress axis : x y z
#
# Youngs Moduli (GPa) = 50.63985 75.67412 44.11880
#
# Poissons Ratio (x) = 0.37678 -0.13842
# Poissons Ratio (y) = 0.25213 0.31152
# Poissons Ratio (z) = -0.15888 0.53433
#
# Static dielectric constant tensor:
#      x y z
#    x 1.634190 0.000000 0.000000 
#    y 0.000000 1.660110 0.000000 
#    z 0.000000 0.000000 1.645910 
# 
# From -- ./inp_files/15700.got.cif
#   From: 2010.05.17/outbox.cif.g08.bks.cpg/sg40_8_cif.got.tgz:15700.got - 2010.06.03 18:35:42.
