data_PCOD9363370
_publ_section_title
;
Structure prediction by ZEFSAII (Michael W. Deem and Ramdas Pophale) SiO2 
 PCOD9363370
Probable space group: A M A 2
;
_chemical_formula_sum "Si O2"
_cell_formula_units_Z 60
_cell_length_a 14.227255
_cell_length_b 8.718100
_cell_length_c 26.220808
_cell_angle_alpha 90.000000
_cell_angle_beta 90.000000
_cell_angle_gamma 90.000000
_cell_volume 3252.288266
_symmetry_space_group_name_H-M "A M A 2"
_symmetry_group_IT_number 40
_symmetry_cell_setting 'orthorhombic'
loop_
_space_group_symop_operation_xyz
x,y,z
-x,-y,z
1/2-x,y,z
1/2+x,-y,z
x,1/2+y,1/2+z
-x,1/2-y,1/2+z
1/2-x,1/2+y,1/2+z
1/2+x,1/2-y,1/2+z
loop_
_atom_site_type_symbol
_atom_site_label
_atom_site_fract_x
_atom_site_fract_y
_atom_site_fract_z
Si Si1 0.353007 0.101162 0.861460
Si Si2 0.093815 0.900572 0.770265
Si Si3 0.138872 0.406149 0.654359
Si Si4 0.944442 0.256567 0.670030
Si Si5 0.000000 0.000000 0.589424
Si Si6 0.023622 0.170918 0.352075
Si Si7 0.138059 0.818251 0.934046
Si Si8 0.640310 0.761879 0.546670
O O1 0.250000 0.158359 0.874948
O O2 0.429089 0.232448 0.859369
O O3 0.348784 0.015011 0.806680
O O4 0.383370 0.974025 0.903038
O O5 0.111897 0.829259 0.715197
O O6 0.078080 0.755014 0.806711
O O7 0.000000 0.000000 0.762235
O O8 0.250000 0.384600 0.669788
O O9 0.108437 0.584223 0.657623
O O10 0.131094 0.348277 0.595816
O O11 0.054313 0.308525 0.682272
O O12 0.953896 0.131838 0.625053
O O13 0.922950 0.910376 0.556584
O O14 0.083889 0.186491 0.403486
O O15 0.000000 0.000000 0.338350
O O16 0.250000 0.796780 0.929191
O O17 0.113650 0.818575 0.993508
O O18 0.750000 0.804917 0.543255
#
# Coordination Sequence:
#
# PCOD9363370 Si02
#       8
#     8   8   8   8   4   8   8   8
#     4   9  19  38  58  83 110 143 187 224 270 338
#     4   9  18  35  57  74 106 147 185 219 272 329
#     4   9  20  36  52  77 112 147 190 233 275 327
#     4  10  19  35  57  79 109 150 185 234 277 331
#     4  10  20  34  56  86 110 146 180 232 280 328
#     4  10  21  34  55  84 109 143 175 233 279 328
#     4   9  18  36  59  78 107 147 184 221 271 332
#     4   9  19  37  57  80 112 147 182 229 280 332
#
# _framework density 18.448547999999999
#
# number of rings (size 3 to 8) (size 9 to 14) (size 15 to 20)
#    0.000    2.667    0.667    1.200    2.800    1.600 
#    9.600    2.667    0.000    0.800    0.000    0.000 
#    0.000    0.000    0.000    0.000    0.000    0.000 
#
# Total GULP energy -167013.903775 kJ/mol
# GULP energy per Si atom -5567.130126 kJ/mol
# Density = 1.840656 g / cm^3
# Si number density = 18.448548 Si / 1000 Ang^3
#
#
#
# Elastic Constant Matrix: (Units=GPa)
#
#
# Indices 1 2 3 4 5 6 
#
# 1 63.0761 25.0964 18.3147 0.0000 0.0000 0.0000
# 2 25.0964 77.3128 15.8575 0.0000 0.0000 0.0000
# 3 18.3147 15.8575 68.2456 0.0000 0.0000 0.0000
# 4 0.0000 0.0000 0.0000 7.7568 0.0000 0.0000
# 5 0.0000 0.0000 0.0000 0.0000 17.6628 0.0000
# 6 0.0000 0.0000 0.0000 0.0000 0.0000 8.0185
#
#
#
# Elastic Compliance Matrix: (Units=1/GPa)
#
#
# Indices 1 2 3 4 5 6 
#
# 1 0.019134 -0.005416 -0.003877 0.000000 0.000000 0.000000
# 2 -0.005416 0.015115 -0.002059 0.000000 0.000000 0.000000
# 3 -0.003877 -0.002059 0.016172 0.000000 0.000000 0.000000
# 4 0.000000 0.000000 0.000000 0.128919 0.000000 0.000000
# 5 0.000000 0.000000 0.000000 0.000000 0.056616 0.000000
# 6 0.000000 0.000000 0.000000 0.000000 0.000000 0.124711
#
#
# Mechanical properties :
#
#
# Convention : Reuss Voigt Hill
#
# Bulk Modulus (GPa) = 36.07706 36.35241 36.21473
# Shear Modulus (GPa) = 12.73534 16.64536 14.69035
#
# Velocity S-wave (km/s) = 2.63024 3.00702 2.82492
# Velocity P-wave (km/s) = 5.36863 5.63948 5.50572
#
# Compressibility (1/GPa) = 0.02771845
#
# Stress axis : x y z
#
# Youngs Moduli (GPa) = 52.26197 66.16027 61.83679
#
# Poissons Ratio (x) = 0.35833 0.23971
# Poissons Ratio (y) = 0.28305 0.12730
# Poissons Ratio (z) = 0.20259 0.13620
#
# Static dielectric constant tensor:
#      x y z
#    x 1.652540 0.000000 0.000000 
#    y 0.000000 1.606020 0.000000 
#    z 0.000000 0.000000 1.658150 
# 
# From -- ./inp_files/25765.got.cif
#   From: 2010.05.17/outbox.cif.g08.bks.cpg/sg40_13_cif.got.tgz:25765.got - 2010.06.03 18:35:42.
