data_PCOD9363854
_publ_section_title
;
Structure prediction by ZEFSAII (Michael W. Deem and Ramdas Pophale) SiO2 
 PCOD9363854
Probable space group: A M A 2
;
_chemical_formula_sum "Si O2"
_cell_formula_units_Z 48
_cell_length_a 15.585762
_cell_length_b 18.572097
_cell_length_c 8.956522
_cell_angle_alpha 90.000000
_cell_angle_beta 90.000000
_cell_angle_gamma 90.000000
_cell_volume 2592.557399
_symmetry_space_group_name_H-M "A M A 2"
_symmetry_group_IT_number 40
_symmetry_cell_setting 'orthorhombic'
loop_
_space_group_symop_operation_xyz
x,y,z
-x,-y,z
1/2-x,y,z
1/2+x,-y,z
x,1/2+y,1/2+z
-x,1/2-y,1/2+z
1/2-x,1/2+y,1/2+z
1/2+x,1/2-y,1/2+z
loop_
_atom_site_type_symbol
_atom_site_label
_atom_site_fract_x
_atom_site_fract_y
_atom_site_fract_z
Si Si1 0.651777 0.403438 0.267580
Si Si2 0.152903 0.914506 0.250388
Si Si3 0.997477 0.177397 0.624456
Si Si4 0.092058 0.964643 0.568798
Si Si5 0.650151 0.932321 0.116633
Si Si6 0.516672 0.327575 0.769771
O O1 0.750000 0.380995 0.246375
O O2 0.584585 0.345929 0.206251
O O3 0.636004 0.477688 0.176685
O O4 0.636106 0.415385 0.442908
O O5 0.250000 0.887632 0.229943
O O6 0.142694 0.946214 0.418428
O O7 0.078191 0.856666 0.228412
O O8 0.137515 0.983016 0.144702
O O9 0.931348 0.111140 0.646037
O O10 0.965462 0.252559 0.688359
O O11 0.015631 0.181646 0.447927
O O12 0.000000 0.000000 0.525005
O O13 0.750000 0.916340 0.153569
O O14 0.585842 0.886421 0.217779
#
# Coordination Sequence:
#
# PCOD9363854 Si02
#       6
#     8   8   8   8   8   8
#     4  10  20  35  57  83 110 140 180 228 273 324
#     4  10  20  35  57  82 108 140 180 225 274 328
#     4  10  22  36  54  79 109 147 186 221 274 330
#     4   9  18  34  55  80 106 140 181 221 272 328
#     4  10  21  36  56  83 110 142 184 227 273 324
#     4  11  22  38  56  79 112 149 184 226 275 328
#
# _framework density 18.514536
#
# number of rings (size 3 to 8) (size 9 to 14) (size 15 to 20)
#    0.000    2.000    0.000    5.000    0.000    8.000 
#    0.000    5.833    0.000    0.000    0.000    0.000 
#    0.000    0.000    0.000    0.000    0.000    0.000 
#
# Total GULP energy -134022.302945 kJ/mol
# GULP energy per Si atom -5584.262623 kJ/mol
# Density = 1.847240 g / cm^3
# Si number density = 18.514536 Si / 1000 Ang^3
#
#
#
# Elastic Constant Matrix: (Units=GPa)
#
#
# Indices 1 2 3 4 5 6 
#
# 1 55.2775 8.9204 8.9461 0.0000 0.0000 0.0000
# 2 8.9204 48.4304 -5.5275 0.0000 0.0000 0.0000
# 3 8.9461 -5.5275 26.3538 0.0000 0.0000 0.0000
# 4 0.0000 0.0000 0.0000 27.3041 0.0000 0.0000
# 5 0.0000 0.0000 0.0000 0.0000 27.2213 0.0000
# 6 0.0000 0.0000 0.0000 0.0000 0.0000 6.7032
#
#
#
# Elastic Compliance Matrix: (Units=1/GPa)
#
#
# Indices 1 2 3 4 5 6 
#
# 1 0.020091 -0.004589 -0.007782 0.000000 0.000000 0.000000
# 2 -0.004589 0.022203 0.006215 0.000000 0.000000 0.000000
# 3 -0.007782 0.006215 0.041891 0.000000 0.000000 0.000000
# 4 0.000000 0.000000 0.000000 0.036624 0.000000 0.000000
# 5 0.000000 0.000000 0.000000 0.000000 0.036736 0.000000
# 6 0.000000 0.000000 0.000000 0.000000 0.000000 0.149182
#
#
# Mechanical properties :
#
#
# Convention : Reuss Voigt Hill
#
# Bulk Modulus (GPa) = 13.91391 17.19331 15.55361
# Shear Modulus (GPa) = 14.57741 20.09391 17.33566
#
# Velocity S-wave (km/s) = 2.80902 3.29797 3.06327
# Velocity P-wave (km/s) = 4.24879 4.87941 4.57498
#
# Compressibility (1/GPa) = 0.07187051
#
# Stress axis : x y z
#
# Youngs Moduli (GPa) = 49.77464 45.03964 23.87175
#
# Poissons Ratio (x) = 0.20667 0.18578
# Poissons Ratio (y) = 0.22840 -0.14835
# Poissons Ratio (z) = 0.38737 -0.27990
#
# Static dielectric constant tensor:
#      x y z
#    x 1.636400 0.000000 0.000000 
#    y 0.000000 1.622540 0.000000 
#    z 0.000000 0.000000 1.620750 
# 
# From -- ./inp_files/6415.got.cif
#   From: 2010.05.17/outbox.cif.g08.bks.cpg/sg40_4_cif.got.tgz:6415.got - 2010.06.03 18:35:42.
