data_PCOD9363759
_publ_section_title
;
Structure prediction by ZEFSAII (Michael W. Deem and Ramdas Pophale) SiO2 
 PCOD9363759
Probable space group: A M A 2
;
_chemical_formula_sum "Si O2"
_cell_formula_units_Z 48
_cell_length_a 23.405166
_cell_length_b 8.384001
_cell_length_c 11.600402
_cell_angle_alpha 90.000000
_cell_angle_beta 90.000000
_cell_angle_gamma 90.000000
_cell_volume 2276.334532
_symmetry_space_group_name_H-M "A M A 2"
_symmetry_group_IT_number 40
_symmetry_cell_setting 'orthorhombic'
loop_
_space_group_symop_operation_xyz
x,y,z
-x,-y,z
1/2-x,y,z
1/2+x,-y,z
x,1/2+y,1/2+z
-x,1/2-y,1/2+z
1/2-x,1/2+y,1/2+z
1/2+x,1/2-y,1/2+z
loop_
_atom_site_type_symbol
_atom_site_label
_atom_site_fract_x
_atom_site_fract_y
_atom_site_fract_z
Si Si1 0.816177 0.547964 0.946590
Si Si2 0.023724 0.724554 0.571756
Si Si3 0.580544 0.578080 0.650675
Si Si4 0.116419 0.939188 0.662198
Si Si5 0.816448 0.392020 0.695100
Si Si6 0.601976 0.303685 0.357172
O O1 0.750000 0.561104 0.977687
O O2 0.820300 0.446915 0.828957
O O3 0.843335 0.722350 0.918280
O O4 0.852152 0.478863 0.053412
O O5 0.047709 0.589449 0.658070
O O6 0.053709 0.884295 0.617424
O O7 0.053637 0.674359 0.452711
O O8 0.956130 0.695286 0.568764
O O9 0.645280 0.522341 0.625512
O O10 0.580272 0.667893 0.770874
O O11 0.154272 0.780248 0.682823
O O12 0.113952 0.045920 0.776053
O O13 0.750000 0.390908 0.662139
#
# Coordination Sequence:
#
# PCOD9363759 Si02
#       6
#     8   8   8   8   8   8
#     4   9  19  36  55  79 114 152 191 235 285 343
#     4   9  20  37  54  79 114 150 189 232 279 334
#     4   9  19  37  57  80 114 152 184 227 281 330
#     4  10  20  34  56  82 112 148 188 238 287 334
#     4   9  18  35  59  85 115 152 191 232 282 339
#     4  10  21  36  57  86 114 147 191 236 284 338
#
# _framework density 21.086531000000001
#
# number of rings (size 3 to 8) (size 9 to 14) (size 15 to 20)
#    0.000    2.667    0.000    0.500    0.000    6.000 
#    0.000   10.000    0.000    8.000    0.000    0.000 
#    0.000    0.000    0.000    0.000    0.000    0.000 
#
# Total GULP energy -133750.209871 kJ/mol
# GULP energy per Si atom -5572.925411 kJ/mol
# Density = 2.103854 g / cm^3
# Si number density = 21.086531 Si / 1000 Ang^3
#
#
#
# Elastic Constant Matrix: (Units=GPa)
#
#
# Indices 1 2 3 4 5 6 
#
# 1 132.9244 45.2266 52.3737 0.0000 0.0000 0.0000
# 2 45.2266 60.7275 40.2684 0.0000 0.0000 0.0000
# 3 52.3737 40.2684 60.3785 0.0000 0.0000 0.0000
# 4 0.0000 0.0000 0.0000 33.6566 0.0000 0.0000
# 5 0.0000 0.0000 0.0000 0.0000 24.4782 0.0000
# 6 0.0000 0.0000 0.0000 0.0000 0.0000 21.9028
#
#
#
# Elastic Compliance Matrix: (Units=1/GPa)
#
#
# Indices 1 2 3 4 5 6 
#
# 1 0.011853 -0.003603 -0.007879 0.000000 0.000000 0.000000
# 2 -0.003603 0.030619 -0.017295 0.000000 0.000000 0.000000
# 3 -0.007879 -0.017295 0.034931 0.000000 0.000000 0.000000
# 4 0.000000 0.000000 0.000000 0.029712 0.000000 0.000000
# 5 0.000000 0.000000 0.000000 0.000000 0.040853 0.000000
# 6 0.000000 0.000000 0.000000 0.000000 0.000000 0.045656
#
#
# Mechanical properties :
#
#
# Convention : Reuss Voigt Hill
#
# Bulk Modulus (GPa) = 50.38041 58.86309 54.62175
# Shear Modulus (GPa) = 19.39525 23.75162 21.57344
#
# Velocity S-wave (km/s) = 3.03610 3.35981 3.20205
# Velocity P-wave (km/s) = 6.01952 6.55948 6.29529
#
# Compressibility (1/GPa) = 0.01984898
#
# Stress axis : x y z
#
# Youngs Moduli (GPa) = 84.36399 32.65941 28.62789
#
# Poissons Ratio (x) = 0.11769 0.22555
# Poissons Ratio (y) = 0.30400 0.49512
# Poissons Ratio (z) = 0.66468 0.56485
#
# Static dielectric constant tensor:
#      x y z
#    x 1.813040 0.000000 0.000000 
#    y 0.000000 1.778820 0.000000 
#    z 0.000000 0.000000 1.773640 
# 
# From -- ./inp_files/13933.got.cif
#   From: 2010.05.17/outbox.cif.g08.bks.cpg/sg40_7_cif.got.tgz:13933.got - 2010.06.03 18:35:42.
