data_PCOD9363612
_publ_section_title
;
Structure prediction by ZEFSAII (Michael W. Deem and Ramdas Pophale) SiO2 
 PCOD9363612
Probable space group: A M A 2
;
_chemical_formula_sum "Si O2"
_cell_formula_units_Z 64
_cell_length_a 7.627306
_cell_length_b 14.326808
_cell_length_c 24.908231
_cell_angle_alpha 90.000000
_cell_angle_beta 90.000000
_cell_angle_gamma 90.000000
_cell_volume 2721.845663
_symmetry_space_group_name_H-M "A M A 2"
_symmetry_group_IT_number 40
_symmetry_cell_setting 'orthorhombic'
loop_
_space_group_symop_operation_xyz
x,y,z
-x,-y,z
1/2-x,y,z
1/2+x,-y,z
x,1/2+y,1/2+z
-x,1/2-y,1/2+z
1/2-x,1/2+y,1/2+z
1/2+x,1/2-y,1/2+z
loop_
_atom_site_type_symbol
_atom_site_label
_atom_site_fract_x
_atom_site_fract_y
_atom_site_fract_z
Si Si1 0.057579 0.607793 0.365630
Si Si2 0.448352 0.244674 0.539021
Si Si3 0.540125 0.109741 0.630574
Si Si4 0.460643 0.300711 0.851420
Si Si5 0.458604 0.391424 0.246335
Si Si6 0.042914 0.103859 0.455345
Si Si7 0.538986 0.608477 0.621579
Si Si8 0.460754 0.390463 0.742086
O O1 0.250000 0.609438 0.389976
O O2 0.963758 0.705546 0.379272
O O3 0.000000 0.500000 0.372471
O O4 0.057809 0.626966 0.301258
O O5 0.250000 0.273599 0.523697
O O6 0.444156 0.164955 0.584497
O O7 0.535803 0.189517 0.489827
O O8 0.531224 0.330237 0.572074
O O9 0.750000 0.121323 0.626056
O O10 0.487334 0.149916 0.689301
O O11 0.500000 0.000000 0.626637
O O12 0.250000 0.289816 0.847742
O O13 0.493142 0.382986 0.893490
O O14 0.528068 0.328699 0.792099
O O15 0.500000 0.500000 0.237816
O O16 0.250000 0.379322 0.254937
O O17 0.250000 0.112686 0.460368
O O18 0.000000 0.000000 0.474965
O O19 0.500000 0.500000 0.613094
O O20 0.750000 0.621781 0.622661
O O21 0.472485 0.631902 0.681903
O O22 0.500000 0.500000 0.751898
O O23 0.250000 0.380206 0.741394
#
# Coordination Sequence:
#
# PCOD9363612 Si02
#       8
#     8   8   8   8   8   8   8   8
#     4  10  20  34  54  79 112 152 195 239 288 342
#     4  10  22  38  59  84 112 151 195 235 291 350
#     4  10  20  32  49  77 111 148 189 232 280 338
#     4  10  22  38  59  87 115 154 203 243 292 350
#     4   9  17  29  45  70 105 144 184 225 275 332
#     4  11  24  42  63  88 118 153 193 243 295 349
#     4   9  19  37  60  85 117 152 188 238 292 346
#     4   9  18  34  56  84 115 148 187 233 288 347
#
# _framework density 23.513456999999999
#
# number of rings (size 3 to 8) (size 9 to 14) (size 15 to 20)
#    0.000    2.250    0.000    3.000    1.750    6.500 
#    0.000    0.625    0.000    3.000    0.000    0.000 
#    0.000    0.000    0.000    0.000    0.000    0.000 
#
# Total GULP energy -178408.587934 kJ/mol
# GULP energy per Si atom -5575.268373 kJ/mol
# Density = 2.345994 g / cm^3
# Si number density = 23.513457 Si / 1000 Ang^3
#
#
#
# Elastic Constant Matrix: (Units=GPa)
#
#
# Indices 1 2 3 4 5 6 
#
# 1 69.0259 -3.2702 1.5265 0.0000 0.0000 0.0000
# 2 -3.2702 150.5049 38.0893 0.0000 0.0000 0.0000
# 3 1.5265 38.0893 84.3344 0.0000 0.0000 0.0000
# 4 0.0000 0.0000 0.0000 26.3226 0.0000 0.0000
# 5 0.0000 0.0000 0.0000 0.0000-4348.3070 0.0000
# 6 0.0000 0.0000 0.0000 0.0000 0.0000 24.1161
#
#
#
# Elastic Compliance Matrix: (Units=1/GPa)
#
#
# Indices 1 2 3 4 5 6 
#
# 1 0.014518 0.000431 -0.000458 0.000000 0.000000 0.000000
# 2 0.000431 0.007515 -0.003402 0.000000 0.000000 0.000000
# 3 -0.000458 -0.003402 0.013402 0.000000 0.000000 0.000000
# 4 0.000000 0.000000 0.000000 0.037990 0.000000 0.000000
# 5 0.000000 0.000000 0.000000 0.000000 -0.000230 0.000000
# 6 0.000000 0.000000 0.000000 0.000000 0.000000 0.041466
#
#
# Mechanical properties :
#
#
# Convention : Reuss Voigt Hill
#
# Bulk Modulus (GPa) = 34.99123 41.83959 38.41541
# Shear Modulus (GPa) = 38.15535 -841.73903 -401.79184
#
# Velocity S-wave (km/s) = 4.03265 -18.94093 -13.08619
# Velocity P-wave (km/s) = 6.04952 21.45956 14.55878
#
# Compressibility (1/GPa) = 0.02857859
#
# Stress axis : x y z
#
# Youngs Moduli (GPa) = 68.88064 133.07484 74.61449
#
# Poissons Ratio (x) = -0.05739 0.03414
# Poissons Ratio (y) = -0.02970 0.25382
# Poissons Ratio (z) = 0.03152 0.45268
#
# Static dielectric constant tensor:
#      x y z
#    x 12.559270 0.000000 0.000000 
#    y 0.000000 1.958230 0.000000 
#    z 0.000000 0.000000 1.943010 
# 
# From -- ./inp_files/24309.got.cif
#   From: 2010.05.17/outbox.cif.g08.bks.cpg/sg40_13_cif.got.tgz:24309.got - 2010.06.03 18:35:42.
