data_PCOD9363993
_publ_section_title
;
Structure prediction by ZEFSAII (Michael W. Deem and Ramdas Pophale) SiO2 
 PCOD9363993
Probable space group: A M A 2
;
_chemical_formula_sum "Si O2"
_cell_formula_units_Z 64
_cell_length_a 13.493952
_cell_length_b 18.641339
_cell_length_c 12.053743
_cell_angle_alpha 90.000000
_cell_angle_beta 90.000000
_cell_angle_gamma 90.000000
_cell_volume 3032.062805
_symmetry_space_group_name_H-M "A M A 2"
_symmetry_group_IT_number 40
_symmetry_cell_setting 'orthorhombic'
loop_
_space_group_symop_operation_xyz
x,y,z
-x,-y,z
1/2-x,y,z
1/2+x,-y,z
x,1/2+y,1/2+z
-x,1/2-y,1/2+z
1/2-x,1/2+y,1/2+z
1/2+x,1/2-y,1/2+z
loop_
_atom_site_type_symbol
_atom_site_label
_atom_site_fract_x
_atom_site_fract_y
_atom_site_fract_z
Si Si1 0.368961 0.534171 0.573630
Si Si2 0.631675 0.335960 0.401552
Si Si3 0.369240 0.557723 0.215805
Si Si4 0.365252 0.628233 0.772043
Si Si5 0.866960 0.711836 0.269718
Si Si6 0.369984 0.429803 0.388880
Si Si7 0.366435 0.814472 0.508192
Si Si8 0.462237 0.073918 0.475404
O O1 0.250000 0.522468 0.586809
O O2 0.383354 0.599858 0.488423
O O3 0.407072 0.567265 0.689208
O O4 0.404082 0.463120 0.506807
O O5 0.750000 0.327125 0.393497
O O6 0.603218 0.370155 0.283570
O O7 0.598997 0.260576 0.452836
O O8 0.250000 0.556352 0.201179
O O9 0.392782 0.487977 0.292068
O O10 0.422360 0.559688 0.098535
O O11 0.250000 0.636383 0.738538
O O12 0.411313 0.708080 0.768444
O O13 0.376501 0.603965 0.897719
O O14 0.750000 0.719440 0.298359
O O15 0.904334 0.649518 0.352827
O O16 0.871477 0.687601 0.142017
O O17 0.250000 0.427617 0.392439
O O18 0.250000 0.827593 0.480101
O O19 0.443607 0.874213 0.472795
O O20 0.500000 0.000000 0.426720
#
# Coordination Sequence:
#
# PCOD9363993 Si02
#       8
#     8   8   8   8   8   8   8   8
#     4   8  13  27  54  85 112 147 191 233 284 346
#     4   8  14  30  58  87 112 143 184 229 286 353
#     4   9  18  35  59  87 118 146 178 231 294 349
#     4  10  20  36  60  83 114 158 196 235 289 353
#     4   9  16  30  57  90 117 144 187 240 296 354
#     4   8  14  26  54  91 119 145 185 237 289 344
#     4  10  20  36  59  84 113 149 190 243 296 348
#     4  12  26  38  53  79 114 154 199 238 281 349
#
# _framework density 21.107742999999999
#
# number of rings (size 3 to 8) (size 9 to 14) (size 15 to 20)
#    0.000    2.750    1.250    2.625    0.000    3.000 
#    0.000    0.000    5.500    3.000    0.000    0.000 
#    0.000    0.000    0.000    0.000    0.000    0.000 
#
# Total GULP energy -178438.983143 kJ/mol
# GULP energy per Si atom -5576.218223 kJ/mol
# Density = 2.105970 g / cm^3
# Si number density = 21.107743 Si / 1000 Ang^3
#
#
#
# Elastic Constant Matrix: (Units=GPa)
#
#
# Indices 1 2 3 4 5 6 
#
# 1 44.1242 0.7455 1.0851 0.0000 0.0000 0.0000
# 2 0.7455 109.6834 50.1754 0.0000 0.0000 0.0000
# 3 1.0851 50.1754 101.2811 0.0000 0.0000 0.0000
# 4 0.0000 0.0000 0.0000 24.2963 0.0000 0.0000
# 5 0.0000 0.0000 0.0000 0.0000 10.7672 0.0000
# 6 0.0000 0.0000 0.0000 0.0000 0.0000 20.4562
#
#
#
# Elastic Compliance Matrix: (Units=1/GPa)
#
#
# Indices 1 2 3 4 5 6 
#
# 1 0.022670 -0.000056 -0.000215 0.000000 0.000000 0.000000
# 2 -0.000056 0.011789 -0.005840 0.000000 0.000000 0.000000
# 3 -0.000215 -0.005840 0.012769 0.000000 0.000000 0.000000
# 4 0.000000 0.000000 0.000000 0.041159 0.000000 0.000000
# 5 0.000000 0.000000 0.000000 0.000000 0.092875 0.000000
# 6 0.000000 0.000000 0.000000 0.000000 0.000000 0.048885
#
#
# Mechanical properties :
#
#
# Convention : Reuss Voigt Hill
#
# Bulk Modulus (GPa) = 28.56650 39.90007 34.23328
# Shear Modulus (GPa) = 19.68228 24.64278 22.16253
#
# Velocity S-wave (km/s) = 3.05695 3.42054 3.24384
# Velocity P-wave (km/s) = 5.10127 5.87743 5.50305
#
# Compressibility (1/GPa) = 0.03500604
#
# Stress axis : x y z
#
# Youngs Moduli (GPa) = 44.11208 84.82521 78.31552
#
# Poissons Ratio (x) = 0.00471 0.01686
# Poissons Ratio (y) = 0.00245 0.45734
# Poissons Ratio (z) = 0.00950 0.49536
#
# Static dielectric constant tensor:
#      x y z
#    x 1.787150 0.000000 0.000000 
#    y 0.000000 1.825410 0.000000 
#    z 0.000000 0.000000 1.743360 
# 
# From -- ./inp_files/12425.got.cif
#   From: 2010.05.17/outbox.cif.g08.bks.cpg/sg40_7_cif.got.tgz:12425.got - 2010.06.03 18:35:42.
