data_PCOD9363247
_publ_section_title
;
Structure prediction by ZEFSAII (Michael W. Deem and Ramdas Pophale) SiO2 
 PCOD9363247
Probable space group: A M A 2
;
_chemical_formula_sum "Si O2"
_cell_formula_units_Z 64
_cell_length_a 7.485418
_cell_length_b 25.679032
_cell_length_c 15.743342
_cell_angle_alpha 90.000000
_cell_angle_beta 90.000000
_cell_angle_gamma 90.000000
_cell_volume 3026.158252
_symmetry_space_group_name_H-M "A M A 2"
_symmetry_group_IT_number 40
_symmetry_cell_setting 'orthorhombic'
loop_
_space_group_symop_operation_xyz
x,y,z
-x,-y,z
1/2-x,y,z
1/2+x,-y,z
x,1/2+y,1/2+z
-x,1/2-y,1/2+z
1/2-x,1/2+y,1/2+z
1/2+x,1/2-y,1/2+z
loop_
_atom_site_type_symbol
_atom_site_label
_atom_site_fract_x
_atom_site_fract_y
_atom_site_fract_z
Si Si1 0.963887 0.059759 0.986060
Si Si2 0.541851 0.160242 0.303382
Si Si3 0.465804 0.276467 0.279932
Si Si4 0.968545 0.108398 0.811578
Si Si5 0.030457 0.363069 0.983674
Si Si6 0.962939 0.147073 0.112960
Si Si7 0.963960 0.736993 0.085162
Si Si8 0.036418 0.938861 0.632468
O O1 0.750000 0.066364 0.983643
O O2 0.029670 0.075205 0.892176
O O3 0.034024 0.100209 0.055992
O O4 0.000000 0.000000 0.006124
O O5 0.750000 0.146009 0.298439
O O6 0.531476 0.222476 0.318886
O O7 0.467422 0.132193 0.386706
O O8 0.463771 0.150218 0.209487
O O9 0.250000 0.274663 0.281584
O O10 0.521983 0.331143 0.319882
O O11 0.524413 0.276018 0.181144
O O12 0.750000 0.107602 0.810003
O O13 0.029973 0.085065 0.721566
O O14 0.250000 0.363375 0.981887
O O15 0.972466 0.307185 0.021242
O O16 0.971808 0.406917 0.050434
O O17 0.750000 0.140342 0.120334
O O18 0.989289 0.203142 0.068900
O O19 0.750000 0.733605 0.086190
O O20 0.250000 0.931641 0.633803
O O21 0.000000 0.000000 0.627568
#
# Coordination Sequence:
#
# PCOD9363247 Si02
#       8
#     8   8   8   8   8   8   8   8
#     4  10  21  36  52  71  96 129 168 206 246 289
#     4   9  18  32  49  71 101 132 160 195 241 292
#     4   9  16  29  49  73  99 129 161 193 235 289
#     4   9  17  31  51  72  98 130 160 195 245 297
#     4   9  17  31  51  72  98 132 164 195 239 293
#     4   9  19  34  50  71 100 129 159 201 250 288
#     4   9  16  29  50  74  97 126 163 196 232 289
#     4  10  19  34  53  72  97 131 167 203 243 289
#
# _framework density 21.148928999999999
#
# number of rings (size 3 to 8) (size 9 to 14) (size 15 to 20)
#    0.000    2.750    1.250    0.375    1.750    0.500 
#    0.000    3.125    0.000    0.000    0.000    0.000 
#    0.000    0.000    0.000    0.000    0.000    0.000 
#
# Total GULP energy -178611.320238 kJ/mol
# GULP energy per Si atom -5581.603757 kJ/mol
# Density = 2.110079 g / cm^3
# Si number density = 21.148929 Si / 1000 Ang^3
#
#
#
# Elastic Constant Matrix: (Units=GPa)
#
#
# Indices 1 2 3 4 5 6 
#
# 1 57.3446 -6.8956 5.0264 0.0000 0.0000 0.0000
# 2 -6.8956 133.2304 74.8887 0.0000 0.0000 0.0000
# 3 5.0264 74.8887 115.3408 0.0000 0.0000 0.0000
# 4 0.0000 0.0000 0.0000 31.4396 0.0000 0.0000
# 5 0.0000 0.0000 0.0000 0.0000 0.3934 0.0000
# 6 0.0000 0.0000 0.0000 0.0000 0.0000 20.4860
#
#
#
# Elastic Compliance Matrix: (Units=1/GPa)
#
#
# Indices 1 2 3 4 5 6 
#
# 1 0.017887 0.002148 -0.002174 0.000000 0.000000 0.000000
# 2 0.002148 0.012077 -0.007935 0.000000 0.000000 0.000000
# 3 -0.002174 -0.007935 0.013917 0.000000 0.000000 0.000000
# 4 0.000000 0.000000 0.000000 0.031807 0.000000 0.000000
# 5 0.000000 0.000000 0.000000 0.000000 2.542062 0.000000
# 6 0.000000 0.000000 0.000000 0.000000 0.000000 0.048814
#
#
# Mechanical properties :
#
#
# Convention : Reuss Voigt Hill
#
# Bulk Modulus (GPa) = 35.76713 50.21721 42.99217
# Shear Modulus (GPa) = 1.85749 25.99022 13.92385
#
# Velocity S-wave (km/s) = 0.93819 3.50939 2.56866
# Velocity P-wave (km/s) = 4.25703 6.34170 5.40090
#
# Compressibility (1/GPa) = 0.02795863
#
# Stress axis : x y z
#
# Youngs Moduli (GPa) = 55.90572 82.79973 71.85518
#
# Poissons Ratio (x) = -0.17784 0.15622
# Poissons Ratio (y) = -0.12008 0.57019
# Poissons Ratio (z) = 0.12154 0.65703
#
# Static dielectric constant tensor:
#      x y z
#    x 1.804310 0.000000 0.000000 
#    y 0.000000 1.721540 0.000000 
#    z 0.000000 0.000000 1.782410 
# 
# From -- ./inp_files/15608.got.cif
#   From: 2010.05.17/outbox.cif.g08.bks.cpg/sg40_8_cif.got.tgz:15608.got - 2010.06.03 18:35:42.
