data_PCOD9363732
_publ_section_title
;
Structure prediction by ZEFSAII (Michael W. Deem and Ramdas Pophale) SiO2 
 PCOD9363732
Probable space group: A M A 2
;
_chemical_formula_sum "Si O2"
_cell_formula_units_Z 44
_cell_length_a 7.545454
_cell_length_b 18.160386
_cell_length_c 14.239207
_cell_angle_alpha 90.000000
_cell_angle_beta 90.000000
_cell_angle_gamma 90.000000
_cell_volume 1951.175143
_symmetry_space_group_name_H-M "A M A 2"
_symmetry_group_IT_number 40
_symmetry_cell_setting 'orthorhombic'
loop_
_space_group_symop_operation_xyz
x,y,z
-x,-y,z
1/2-x,y,z
1/2+x,-y,z
x,1/2+y,1/2+z
-x,1/2-y,1/2+z
1/2-x,1/2+y,1/2+z
1/2+x,1/2-y,1/2+z
loop_
_atom_site_type_symbol
_atom_site_label
_atom_site_fract_x
_atom_site_fract_y
_atom_site_fract_z
Si Si1 0.059926 0.892144 0.168280
Si Si2 0.539856 0.922883 0.963318
Si Si3 0.451791 0.271889 0.123850
Si Si4 0.962710 0.295359 0.326133
Si Si5 0.750000 0.426696 0.817110
Si Si6 0.463273 0.854998 0.434702
O O1 0.250000 0.909449 0.213364
O O2 0.048743 0.925048 0.064676
O O3 0.048083 0.804768 0.146025
O O4 0.904330 0.919155 0.234423
O O5 0.750000 0.914655 0.977103
O O6 0.500000 0.000000 0.913660
O O7 0.476699 0.853584 0.903412
O O8 0.250000 0.250443 0.099692
O O9 0.458770 0.311293 0.224318
O O10 0.511608 0.321866 0.037228
O O11 0.750000 0.300413 0.318982
O O12 0.002886 0.213247 0.362860
O O13 0.592077 0.418038 0.898100
O O14 0.250000 0.869984 0.433394
#
# Coordination Sequence:
#
# PCOD9363732 Si02
#       6
#     8   8   8   8   4   8
#     4  12  22  35  59  83 115 160 197 245 298 360
#     4  11  23  41  58  86 123 159 203 250 298 355
#     4  11  20  34  54  85 122 155 200 240 297 366
#     4  10  20  34  54  78 119 158 193 241 299 356
#     4  12  22  36  54  82 120 152 198 240 308 352
#     4  10  21  34  53  84 120 155 191 238 295 364
#
# _framework density 22.550512000000001
#
# number of rings (size 3 to 8) (size 9 to 14) (size 15 to 20)
#    0.000    1.091    5.455    1.636    2.545    1.455 
#    0.000    0.000    0.000    0.000    0.000    1.273 
#    5.455    0.000    0.000    0.000    0.000    0.000 
#
# Total GULP energy -122553.433218 kJ/mol
# GULP energy per Si atom -5570.610601 kJ/mol
# Density = 2.249919 g / cm^3
# Si number density = 22.550512 Si / 1000 Ang^3
#
#
#
# Elastic Constant Matrix: (Units=GPa)
#
#
# Indices 1 2 3 4 5 6 
#
# 1 138.8204 12.6949 21.8241 0.0000 0.0000 0.0000
# 2 12.6949 46.8614 3.0546 0.0000 0.0000 0.0000
# 3 21.8241 3.0546 131.7364 0.0000 0.0000 0.0000
# 4 0.0000 0.0000 0.0000 -5.3427 0.0000 0.0000
# 5 0.0000 0.0000 0.0000 0.0000 25.7179 0.0000
# 6 0.0000 0.0000 0.0000 0.0000 0.0000 46.5003
#
#
#
# Elastic Compliance Matrix: (Units=1/GPa)
#
#
# Indices 1 2 3 4 5 6 
#
# 1 0.007574 -0.001973 -0.001209 0.000000 0.000000 0.000000
# 2 -0.001973 0.021886 -0.000181 0.000000 0.000000 0.000000
# 3 -0.001209 -0.000181 0.007795 0.000000 0.000000 0.000000
# 4 0.000000 0.000000 0.000000 -0.187173 0.000000 0.000000
# 5 0.000000 0.000000 0.000000 0.000000 0.038883 0.000000
# 6 0.000000 0.000000 0.000000 0.000000 0.000000 0.021505
#
#
# Mechanical properties :
#
#
# Convention : Reuss Voigt Hill
#
# Bulk Modulus (GPa) = 32.75473 43.61839 38.18656
# Shear Modulus (GPa) = -68.84502 32.03143 -18.40680
#
# Velocity S-wave (km/s) = -5.53132 3.77295 -2.86010
# Velocity P-wave (km/s) = 5.12225 6.19392 2.46244
#
# Compressibility (1/GPa) = 0.03052994
#
# Stress axis : x y z
#
# Youngs Moduli (GPa) = 132.02970 45.69174 128.28092
#
# Poissons Ratio (x) = 0.09015 0.15509
# Poissons Ratio (y) = 0.26050 0.02317
# Poissons Ratio (z) = 0.15962 0.00825
#
# Static dielectric constant tensor:
#      x y z
#    x 1.882320 0.000000 0.000000 
#    y 0.000000 1.912170 0.000000 
#    z 0.000000 0.000000 1.813670 
# 
# From -- ./inp_files/14957.got.cif
#   From: 2010.05.17/outbox.cif.g08.bks.cpg/sg40_8_cif.got.tgz:14957.got - 2010.06.03 18:35:42.
