data_PCOD9363776
_publ_section_title
;
Structure prediction by ZEFSAII (Michael W. Deem and Ramdas Pophale) SiO2 
 PCOD9363776
Probable space group: A M A 2
;
_chemical_formula_sum "Si O2"
_cell_formula_units_Z 48
_cell_length_a 10.350156
_cell_length_b 7.329916
_cell_length_c 32.392906
_cell_angle_alpha 90.000000
_cell_angle_beta 90.000000
_cell_angle_gamma 90.000000
_cell_volume 2457.512888
_symmetry_space_group_name_H-M "A M A 2"
_symmetry_group_IT_number 40
_symmetry_cell_setting 'orthorhombic'
loop_
_space_group_symop_operation_xyz
x,y,z
-x,-y,z
1/2-x,y,z
1/2+x,-y,z
x,1/2+y,1/2+z
-x,1/2-y,1/2+z
1/2-x,1/2+y,1/2+z
1/2+x,1/2-y,1/2+z
loop_
_atom_site_type_symbol
_atom_site_label
_atom_site_fract_x
_atom_site_fract_y
_atom_site_fract_z
Si Si1 0.750000 0.944045 0.497780
Si Si2 0.395790 0.842357 0.791810
Si Si3 0.750000 0.722216 0.920121
Si Si4 0.500000 0.000000 0.554176
Si Si5 0.487201 0.278606 0.376045
Si Si6 0.250000 0.340344 0.433027
Si Si7 0.903848 0.324427 0.612536
Si Si8 0.890095 0.853989 0.204388
O O1 0.750000 0.092668 0.460270
O O2 0.623094 0.964510 0.525314
O O3 0.750000 0.743179 0.478084
O O4 0.250000 0.906534 0.802430
O O5 0.441948 0.719145 0.830468
O O6 0.391439 0.756759 0.746585
O O7 0.500000 0.000000 0.788702
O O8 0.620601 0.697338 0.892783
O O9 0.750000 0.939286 0.932088
O O10 0.539777 0.171157 0.582558
O O11 0.500000 0.500000 0.372917
O O12 0.374144 0.260529 0.409299
O O13 0.750000 0.362667 0.603520
O O14 0.907351 0.255573 0.660352
O O15 0.000000 0.500000 0.610210
O O16 0.750000 0.946916 0.201514
O O17 0.000000 0.000000 0.207582
#
# Coordination Sequence:
#
# PCOD9363776 Si02
#       8
#     4   8   4   4   8   4   8   8
#     4  12  26  42  64  96 124 164 216 270 326 398
#     4  10  20  34  56  88 124 162 209 258 300 366
#     4  10  22  40  60  87 119 163 211 258 316 388
#     4  12  26  44  66  98 138 158 220 280 326 400
#     4   9  18  35  58  82 117 160 209 251 310 373
#     4  10  20  40  64  81 119 165 201 262 320 370
#     4  10  23  44  71  96 129 177 216 264 331 396
#     4   9  20  40  59  88 126 161 209 254 309 377
#
# _framework density 19.531939999999999
#
# number of rings (size 3 to 8) (size 9 to 14) (size 15 to 20)
#    0.000    2.000    1.667    1.000    5.833    2.000 
#    3.000    0.000    0.000    0.000    0.000    0.000 
#    0.000    0.000    0.000    0.000    0.000    0.000 
#
# Total GULP energy -133812.209202 kJ/mol
# GULP energy per Si atom -5575.508717 kJ/mol
# Density = 1.948748 g / cm^3
# Si number density = 19.531940 Si / 1000 Ang^3
#
#
#
# Elastic Constant Matrix: (Units=GPa)
#
#
# Indices 1 2 3 4 5 6 
#
# 1 191.6586 39.9479 83.2304 0.0000 0.0000 0.0000
# 2 39.9479 53.8569 41.7247 0.0000 0.0000 0.0000
# 3 83.2304 41.7247 136.7049 0.0000 0.0000 0.0000
# 4 0.0000 0.0000 0.0000 10.4749 0.0000 0.0000
# 5 0.0000 0.0000 0.0000 0.0000 9.0711 0.0000
# 6 0.0000 0.0000 0.0000 0.0000 0.0000 19.7311
#
#
#
# Elastic Compliance Matrix: (Units=1/GPa)
#
#
# Indices 1 2 3 4 5 6 
#
# 1 0.007362 -0.002604 -0.003687 0.000000 0.000000 0.000000
# 2 -0.002604 0.025239 -0.006118 0.000000 0.000000 0.000000
# 3 -0.003687 -0.006118 0.011427 0.000000 0.000000 0.000000
# 4 0.000000 0.000000 0.000000 0.095466 0.000000 0.000000
# 5 0.000000 0.000000 0.000000 0.000000 0.110240 0.000000
# 6 0.000000 0.000000 0.000000 0.000000 0.000000 0.050681
#
#
# Mechanical properties :
#
#
# Convention : Reuss Voigt Hill
#
# Bulk Modulus (GPa) = 52.05737 79.11403 65.58570
# Shear Modulus (GPa) = 15.07675 22.34326 18.71001
#
# Velocity S-wave (km/s) = 2.78133 3.38588 3.09838
# Velocity P-wave (km/s) = 6.08479 7.47519 6.81554
#
# Compressibility (1/GPa) = 0.01920958
#
# Stress axis : x y z
#
# Youngs Moduli (GPa) = 135.84093 39.62135 87.50978
#
# Poissons Ratio (x) = 0.10316 0.32267
# Poissons Ratio (y) = 0.35370 0.53539
# Poissons Ratio (z) = 0.50088 0.24241
#
# Static dielectric constant tensor:
#      x y z
#    x 1.710410 0.000000 0.000000 
#    y 0.000000 1.764160 0.000000 
#    z 0.000000 0.000000 1.717290 
# 
# From -- ./inp_files/26220.got.cif
#   From: 2010.05.17/outbox.cif.g08.bks.cpg/sg40_14_cif.got.tgz:26220.got - 2010.06.03 18:35:42.
