data_PCOD9363687
_publ_section_title
;
Structure prediction by ZEFSAII (Michael W. Deem and Ramdas Pophale) SiO2 
 PCOD9363687
Probable space group: A M A 2
;
_chemical_formula_sum "Si O2"
_cell_formula_units_Z 56
_cell_length_a 8.261180
_cell_length_b 14.550975
_cell_length_c 23.623583
_cell_angle_alpha 90.000000
_cell_angle_beta 90.000000
_cell_angle_gamma 90.000000
_cell_volume 2839.748949
_symmetry_space_group_name_H-M "A M A 2"
_symmetry_group_IT_number 40
_symmetry_cell_setting 'orthorhombic'
loop_
_space_group_symop_operation_xyz
x,y,z
-x,-y,z
1/2-x,y,z
1/2+x,-y,z
x,1/2+y,1/2+z
-x,1/2-y,1/2+z
1/2-x,1/2+y,1/2+z
1/2+x,1/2-y,1/2+z
loop_
_atom_site_type_symbol
_atom_site_label
_atom_site_fract_x
_atom_site_fract_y
_atom_site_fract_z
Si Si1 0.945579 0.595420 0.111770
Si Si2 0.064070 0.860140 0.491364
Si Si3 0.943437 0.301116 0.643243
Si Si4 0.940011 0.097698 0.904954
Si Si5 0.444277 0.894846 0.258406
Si Si6 0.560183 0.168302 0.025154
Si Si7 0.555033 0.200438 0.373638
O O1 0.750000 0.596445 0.109503
O O2 0.995265 0.693277 0.138579
O O3 0.000000 0.500000 0.139598
O O4 0.012984 0.595075 0.046973
O O5 0.250000 0.891826 0.487059
O O6 0.990796 0.856659 0.428499
O O7 0.055547 0.753616 0.510093
O O8 0.750000 0.304195 0.637506
O O9 0.993629 0.345001 0.702187
O O10 0.019919 0.355034 0.589705
O O11 0.750000 0.103929 0.895177
O O12 0.014287 0.191895 0.880690
O O13 0.967558 0.100257 0.973061
O O14 0.000000 0.000000 0.882352
O O15 0.250000 0.892225 0.258055
O O16 0.502544 0.842256 0.314906
O O17 0.500000 0.000000 0.259551
O O18 0.750000 0.195930 0.022046
O O19 0.750000 0.193042 0.375935
#
# Coordination Sequence:
#
# PCOD9363687 Si02
#       7
#     8   8   8   8   8   8   8
#     4   9  18  31  51  80 111 143 177 215 265 321
#     4   8  15  30  50  74 106 142 176 213 262 318
#     4  10  21  38  57  78 109 148 187 231 277 324
#     4  10  20  33  54  84 116 148 182 222 272 328
#     4  11  24  41  61  83 106 139 182 229 278 327
#     4   9  17  30  50  78 108 140 179 222 269 320
#     4   9  19  37  58  79 109 146 183 224 271 322
#
# _framework density 19.720054000000001
#
# number of rings (size 3 to 8) (size 9 to 14) (size 15 to 20)
#    0.000    2.571    0.000    2.571    0.000    6.857 
#    0.000    2.143    0.000    1.714    0.000    0.000 
#    0.000    0.000    0.000    0.000    0.000    0.000 
#
# Total GULP energy -155965.490273 kJ/mol
# GULP energy per Si atom -5570.196081 kJ/mol
# Density = 1.967517 g / cm^3
# Si number density = 19.720054 Si / 1000 Ang^3
#
#
#
# Elastic Constant Matrix: (Units=GPa)
#
#
# Indices 1 2 3 4 5 6 
#
# 1 26.1403 20.6064 17.9447 0.0000 0.0000 0.0000
# 2 20.6064 113.0140 56.4266 0.0000 0.0000 0.0000
# 3 17.9447 56.4266 141.0417 0.0000 0.0000 0.0000
# 4 0.0000 0.0000 0.0000 17.7159 0.0000 0.0000
# 5 0.0000 0.0000 0.0000 0.0000 25.4661 0.0000
# 6 0.0000 0.0000 0.0000 0.0000 0.0000 21.6060
#
#
#
# Elastic Compliance Matrix: (Units=1/GPa)
#
#
# Indices 1 2 3 4 5 6 
#
# 1 0.045738 -0.006791 -0.003103 0.000000 0.000000 0.000000
# 2 -0.006791 0.012065 -0.003963 0.000000 0.000000 0.000000
# 3 -0.003103 -0.003963 0.009070 0.000000 0.000000 0.000000
# 4 0.000000 0.000000 0.000000 0.056446 0.000000 0.000000
# 5 0.000000 0.000000 0.000000 0.000000 0.039268 0.000000
# 6 0.000000 0.000000 0.000000 0.000000 0.000000 0.046283
#
#
# Mechanical properties :
#
#
# Convention : Reuss Voigt Hill
#
# Bulk Modulus (GPa) = 25.53541 52.23905 38.88723
# Shear Modulus (GPa) = 20.02907 25.30549 22.66728
#
# Velocity S-wave (km/s) = 3.19042 3.58611 3.39404
# Velocity P-wave (km/s) = 5.15255 6.61020 5.92636
#
# Compressibility (1/GPa) = 0.03916130
#
# Stress axis : x y z
#
# Youngs Moduli (GPa) = 21.86374 82.88237 110.24972
#
# Poissons Ratio (x) = 0.56281 0.34205
# Poissons Ratio (y) = 0.14847 0.43692
# Poissons Ratio (z) = 0.06783 0.32846
#
# Static dielectric constant tensor:
#      x y z
#    x 1.690000 0.000000 0.000000 
#    y 0.000000 1.702440 0.000000 
#    z 0.000000 0.000000 1.727180 
# 
# From -- ./inp_files/22126.got.cif
#   From: 2010.05.17/outbox.cif.g08.bks.cpg/sg40_12_cif.got.tgz:22126.got - 2010.06.03 18:35:42.
