data_PCOD9363003
_publ_section_title
;
Structure prediction by ZEFSAII (Michael W. Deem and Ramdas Pophale) SiO2 
 PCOD9363003
Probable space group: A M A 2
;
_chemical_formula_sum "Si O2"
_cell_formula_units_Z 64
_cell_length_a 8.146014
_cell_length_b 20.884934
_cell_length_c 20.602113
_cell_angle_alpha 90.000000
_cell_angle_beta 90.000000
_cell_angle_gamma 90.000000
_cell_volume 3505.016156
_symmetry_space_group_name_H-M "A M A 2"
_symmetry_group_IT_number 40
_symmetry_cell_setting 'orthorhombic'
loop_
_space_group_symop_operation_xyz
x,y,z
-x,-y,z
1/2-x,y,z
1/2+x,-y,z
x,1/2+y,1/2+z
-x,1/2-y,1/2+z
1/2-x,1/2+y,1/2+z
1/2+x,1/2-y,1/2+z
loop_
_atom_site_type_symbol
_atom_site_label
_atom_site_fract_x
_atom_site_fract_y
_atom_site_fract_z
Si Si1 0.053874 0.927750 0.144270
Si Si2 0.945538 0.571146 0.144890
Si Si3 0.049376 0.176436 0.894169
Si Si4 0.450252 0.322417 0.895312
Si Si5 0.946162 0.427758 0.497188
Si Si6 0.448485 0.928446 0.497014
Si Si7 0.950603 0.176863 0.246828
Si Si8 0.552379 0.822198 0.746362
O O1 0.250000 0.926392 0.145727
O O2 0.990729 0.875601 0.195567
O O3 0.000000 0.000000 0.160169
O O4 0.000126 0.913461 0.070710
O O5 0.750000 0.571527 0.142177
O O6 0.000000 0.500000 0.165248
O O7 0.999903 0.625547 0.194464
O O8 0.007774 0.582121 0.071087
O O9 0.250000 0.175486 0.894754
O O10 0.999869 0.249338 0.910361
O O11 0.990815 0.124228 0.945708
O O12 0.997555 0.162592 0.820060
O O13 0.250000 0.323135 0.896113
O O14 0.507960 0.374454 0.947189
O O15 0.499975 0.337076 0.821156
O O16 0.750000 0.426330 0.495868
O O17 0.000000 0.500000 0.481264
O O18 0.250000 0.926072 0.497615
O O19 0.500000 0.000000 0.477463
O O20 0.750000 0.176276 0.245875
O O21 0.002570 0.249580 0.230762
O O22 0.750000 0.821028 0.747608
#
# Coordination Sequence:
#
# PCOD9363003 Si02
#       8
#     8   8   8   8   8   8   8   8
#     4  10  19  32  48  70  97 127 160 195 233 279
#     4  10  20  33  48  71  99 128 159 195 235 279
#     4   8  16  30  50  72  93 119 157 195 231 276
#     4   8  14  29  50  71  93 122 157 192 228 276
#     4  10  19  32  49  70  94 123 155 194 237 279
#     4   9  18  31  49  70  95 124 156 192 231 273
#     4   8  16  30  50  72  96 125 158 192 234 284
#     4   9  17  33  53  72  94 124 158 195 235 282
#
# _framework density 18.259546
#
# number of rings (size 3 to 8) (size 9 to 14) (size 15 to 20)
#    0.000    3.000    0.000    3.375    0.000    2.500 
#    0.000    5.000    0.000    5.250    0.000    0.000 
#    0.000    0.000    0.000    0.000    0.000    0.000 
#
# Total GULP energy -178384.947070 kJ/mol
# GULP energy per Si atom -5574.529596 kJ/mol
# Density = 1.821799 g / cm^3
# Si number density = 18.259546 Si / 1000 Ang^3
#
#
#
# Elastic Constant Matrix: (Units=GPa)
#
#
# Indices 1 2 3 4 5 6 
#
# 1 16.8892 14.5386 13.8596 0.0000 0.0000 0.0000
# 2 14.5386 180.5659 148.9543 0.0000 0.0000 0.0000
# 3 13.8596 148.9543 144.0115 0.0000 0.0000 0.0000
# 4 0.0000 0.0000 0.0000 44.5335 0.0000 0.0000
# 5 0.0000 0.0000 0.0000 0.0000 11.9281 0.0000
# 6 0.0000 0.0000 0.0000 0.0000 0.0000 17.0034
#
#
#
# Elastic Compliance Matrix: (Units=1/GPa)
#
#
# Indices 1 2 3 4 5 6 
#
# 1 0.064293 -0.000493 -0.005677 0.000000 0.000000 0.000000
# 2 -0.000493 0.037741 -0.038989 0.000000 0.000000 0.000000
# 3 -0.005677 -0.038989 0.047817 0.000000 0.000000 0.000000
# 4 0.000000 0.000000 0.000000 0.022455 0.000000 0.000000
# 5 0.000000 0.000000 0.000000 0.000000 0.083836 0.000000
# 6 0.000000 0.000000 0.000000 0.000000 0.000000 0.058812
#
#
# Mechanical properties :
#
#
# Convention : Reuss Voigt Hill
#
# Bulk Modulus (GPa) = 16.79758 77.35242 47.07500
# Shear Modulus (GPa) = 11.76149 25.63392 18.69771
#
# Velocity S-wave (km/s) = 2.54072 3.75088 3.20347
# Velocity P-wave (km/s) = 4.22212 7.82391 6.28649
#
# Compressibility (1/GPa) = 0.05953240
#
# Stress axis : x y z
#
# Youngs Moduli (GPa) = 15.55378 26.49653 20.91302
#
# Poissons Ratio (x) = 0.01307 0.11873
# Poissons Ratio (y) = 0.00767 0.81537
# Poissons Ratio (z) = 0.08830 1.03306
#
# Static dielectric constant tensor:
#      x y z
#    x 1.642860 0.000000 0.000000 
#    y 0.000000 1.621220 0.000000 
#    z 0.000000 0.000000 1.625580 
# 
# From -- ./inp_files/19584.got.cif
#   From: 2010.05.17/outbox.cif.g08.bks.cpg/sg40_10_cif.got.tgz:19584.got - 2010.06.03 18:35:42.
