data_PCOD9363977
_publ_section_title
;
Structure prediction by ZEFSAII (Michael W. Deem and Ramdas Pophale) SiO2 
 PCOD9363977
Probable space group: A M A 2
;
_chemical_formula_sum "Si O2"
_cell_formula_units_Z 40
_cell_length_a 23.167147
_cell_length_b 9.356354
_cell_length_c 7.225853
_cell_angle_alpha 90.000000
_cell_angle_beta 90.000000
_cell_angle_gamma 90.000000
_cell_volume 1566.276102
_symmetry_space_group_name_H-M "A M A 2"
_symmetry_group_IT_number 40
_symmetry_cell_setting 'orthorhombic'
loop_
_space_group_symop_operation_xyz
x,y,z
-x,-y,z
1/2-x,y,z
1/2+x,-y,z
x,1/2+y,1/2+z
-x,1/2-y,1/2+z
1/2-x,1/2+y,1/2+z
1/2+x,1/2-y,1/2+z
loop_
_atom_site_type_symbol
_atom_site_label
_atom_site_fract_x
_atom_site_fract_y
_atom_site_fract_z
Si Si1 0.438511 0.059147 0.031280
Si Si2 0.132095 0.319574 0.972522
Si Si3 0.361949 0.815732 0.046913
Si Si4 0.940209 0.432292 0.978970
Si Si5 0.750000 0.359099 0.042656
Si Si6 0.750000 0.710472 0.954760
O O1 0.439803 0.060644 0.255444
O O2 0.500000 0.000000 0.967623
O O3 0.383879 0.964742 0.966203
O O4 0.423143 0.218155 0.972138
O O5 0.150888 0.345558 0.761566
O O6 0.110795 0.467135 0.053138
O O7 0.189813 0.253947 0.055863
O O8 0.307899 0.724801 0.975533
O O9 0.421092 0.723834 0.036831
O O10 0.000000 0.500000 0.041905
O O11 0.750000 0.314403 0.266724
O O12 0.750000 0.528663 0.978518
#
# Coordination Sequence:
#
# PCOD9363977 Si02
#       6
#     8   8   8   8   4   4
#     4  10  22  38  57  89 123 155 205 264 315 389
#     4  10  21  37  59  81 120 159 204 261 323 383
#     4  10  21  37  59  84 117 160 207 256 324 384
#     4  10  20  36  58  85 117 158 201 254 318 385
#     4  10  20  39  65  88 127 170 218 274 336 405
#     4  10  20  39  63  90 125 170 220 272 336 407
#
# _framework density 25.538281999999999
#
# number of rings (size 3 to 8) (size 9 to 14) (size 15 to 20)
#    0.000    2.000    2.000    1.200    0.000    3.200 
#    0.000    2.000    0.000    0.000    0.000    0.000 
#    0.000    0.000    0.000    0.000    0.000    0.000 
#
# Total GULP energy -111485.881990 kJ/mol
# GULP energy per Si atom -5574.294100 kJ/mol
# Density = 2.548016 g / cm^3
# Si number density = 25.538282 Si / 1000 Ang^3
#
#
#
# Elastic Constant Matrix: (Units=GPa)
#
#
# Indices 1 2 3 4 5 6 
#
# 1 111.2382 7.1563 1.7088 0.0000 0.0000 0.0000
# 2 7.1563 100.7165 5.9212 0.0000 0.0000 0.0000
# 3 1.7088 5.9212 135.3264 0.0000 0.0000 0.0000
# 4 0.0000 0.0000 0.0000 2.6911 0.0000 0.0000
# 5 0.0000 0.0000 0.0000 0.0000 -16.3371 0.0000
# 6 0.0000 0.0000 0.0000 0.0000 0.0000 40.8702
#
#
#
# Elastic Compliance Matrix: (Units=1/GPa)
#
#
# Indices 1 2 3 4 5 6 
#
# 1 0.009032 -0.000637 -0.000086 0.000000 0.000000 0.000000
# 2 -0.000637 0.009999 -0.000429 0.000000 0.000000 0.000000
# 3 -0.000086 -0.000429 0.007409 0.000000 0.000000 0.000000
# 4 0.000000 0.000000 0.000000 0.371590 0.000000 0.000000
# 5 0.000000 0.000000 0.000000 0.000000 -0.061210 0.000000
# 6 0.000000 0.000000 0.000000 0.000000 0.000000 0.024468
#
#
# Mechanical properties :
#
#
# Convention : Reuss Voigt Hill
#
# Bulk Modulus (GPa) = 41.43181 41.87263 41.65222
# Shear Modulus (GPa) = 13.45396 27.61117 20.53256
#
# Velocity S-wave (km/s) = 2.29774 3.29168 2.83855
# Velocity P-wave (km/s) = 4.82681 5.55684 5.20464
#
# Compressibility (1/GPa) = 0.02413604
#
# Stress axis : x y z
#
# Youngs Moduli (GPa) = 110.71742 100.00650 134.96327
#
# Poissons Ratio (x) = 0.06367 0.01163
# Poissons Ratio (y) = 0.07049 0.05796
# Poissons Ratio (z) = 0.00954 0.04295
#
# Static dielectric constant tensor:
#      x y z
#    x 2.061280 0.000000 0.000000 
#    y 0.000000 1.952370 0.000000 
#    z 0.000000 0.000000 2.003900 
# 
# From -- ./inp_files/8121.got.cif
#   From: 2010.05.17/outbox.cif.g08.bks.cpg/sg40_5_cif.got.tgz:8121.got - 2010.06.03 18:35:42.
