data_PCOD9363709
_publ_section_title
;
Structure prediction by ZEFSAII (Michael W. Deem and Ramdas Pophale) SiO2 
 PCOD9363709
Probable space group: A M A 2
;
_chemical_formula_sum "Si O2"
_cell_formula_units_Z 48
_cell_length_a 8.125861
_cell_length_b 9.532670
_cell_length_c 32.740421
_cell_angle_alpha 90.000000
_cell_angle_beta 90.000000
_cell_angle_gamma 90.000000
_cell_volume 2536.110707
_symmetry_space_group_name_H-M "A M A 2"
_symmetry_group_IT_number 40
_symmetry_cell_setting 'orthorhombic'
loop_
_space_group_symop_operation_xyz
x,y,z
-x,-y,z
1/2-x,y,z
1/2+x,-y,z
x,1/2+y,1/2+z
-x,1/2-y,1/2+z
1/2-x,1/2+y,1/2+z
1/2+x,1/2-y,1/2+z
loop_
_atom_site_type_symbol
_atom_site_label
_atom_site_fract_x
_atom_site_fract_y
_atom_site_fract_z
Si Si1 0.550766 0.662274 0.281470
Si Si2 0.446299 0.338394 0.948209
Si Si3 0.449082 0.337344 0.103623
Si Si4 0.051680 0.836875 0.692748
Si Si5 0.949138 0.838738 0.025610
Si Si6 0.946460 0.838902 0.358331
O O1 0.500000 0.500000 0.284781
O O2 0.750000 0.667687 0.281662
O O3 0.494133 0.718947 0.236868
O O4 0.488733 0.748676 0.320336
O O5 0.500000 0.500000 0.953505
O O6 0.250000 0.336828 0.949277
O O7 0.499369 0.289390 0.903198
O O8 0.509169 0.242015 0.985054
O O9 0.500000 0.500000 0.098757
O O10 0.250000 0.334355 0.103581
O O11 0.506323 0.283670 0.148449
O O12 0.508040 0.243610 0.065982
O O13 0.250000 0.828058 0.692698
O O14 0.000000 0.000000 0.692934
O O15 0.750000 0.832574 0.025562
O O16 0.000000 0.000000 0.025860
O O17 0.750000 0.834243 0.357459
O O18 0.000000 0.000000 0.354182
#
# Coordination Sequence:
#
# PCOD9363709 Si02
#       6
#     8   8   8   8   8   8
#     4   9  18  31  49  73  99 128 161 198 240 284
#     4  10  20  35  54  74  95 123 162 202 240 284
#     4   9  17  31  52  75  97 125 162 200 238 282
#     4   8  14  27  47  70  96 124 157 197 236 277
#     4  10  22  36  50  72 101 130 159 195 240 288
#     4  10  20  34  51  72  98 128 162 198 239 285
#
# _framework density 18.926618000000001
#
# number of rings (size 3 to 8) (size 9 to 14) (size 15 to 20)
#    0.000    2.667    0.000    2.500    0.000    4.000 
#    0.000    4.167    0.000    0.000    0.000    0.000 
#    0.000    0.000    0.000    0.000    0.000    0.000 
#
# Total GULP energy -133750.691253 kJ/mol
# GULP energy per Si atom -5572.945469 kJ/mol
# Density = 1.888354 g / cm^3
# Si number density = 18.926618 Si / 1000 Ang^3
#
#
#
# Elastic Constant Matrix: (Units=GPa)
#
#
# Indices 1 2 3 4 5 6 
#
# 1 18.4155 3.6151 19.3558 0.0000 0.0000 0.0000
# 2 3.6151 71.7690 100.1586 0.0000 0.0000 0.0000
# 3 19.3558 100.1586 254.2298 0.0000 0.0000 0.0000
# 4 0.0000 0.0000 0.0000 30.8348 0.0000 0.0000
# 5 0.0000 0.0000 0.0000 0.0000 18.8730 0.0000
# 6 0.0000 0.0000 0.0000 0.0000 0.0000 22.7968
#
#
#
# Elastic Compliance Matrix: (Units=1/GPa)
#
#
# Indices 1 2 3 4 5 6 
#
# 1 0.060812 0.007548 -0.007604 0.000000 0.000000 0.000000
# 2 0.007548 0.031887 -0.013137 0.000000 0.000000 0.000000
# 3 -0.007604 -0.013137 0.009688 0.000000 0.000000 0.000000
# 4 0.000000 0.000000 0.000000 0.032431 0.000000 0.000000
# 5 0.000000 0.000000 0.000000 0.000000 0.052986 0.000000
# 6 0.000000 0.000000 0.000000 0.000000 0.000000 0.043866
#
#
# Mechanical properties :
#
#
# Convention : Reuss Voigt Hill
#
# Bulk Modulus (GPa) = 13.15748 65.63040 39.39394
# Shear Modulus (GPa) = 17.64352 29.25322 23.44837
#
# Velocity S-wave (km/s) = 3.05652 3.93569 3.52363
# Velocity P-wave (km/s) = 4.40719 7.44342 6.11669
#
# Compressibility (1/GPa) = 0.07600237
#
# Stress axis : x y z
#
# Youngs Moduli (GPa) = 16.44402 31.36030 103.21964
#
# Poissons Ratio (x) = -0.23672 0.78486
# Poissons Ratio (y) = -0.12413 1.35603
# Poissons Ratio (z) = 0.12504 0.41199
#
# Static dielectric constant tensor:
#      x y z
#    x 1.674710 0.000000 0.000000 
#    y 0.000000 1.602560 0.000000 
#    z 0.000000 0.000000 1.726650 
# 
# From -- ./inp_files/26156.got.cif
#   From: 2010.05.17/outbox.cif.g08.bks.cpg/sg40_14_cif.got.tgz:26156.got - 2010.06.03 18:35:42.
