data_PCOD9363171
_publ_section_title
;
Structure prediction by ZEFSAII (Michael W. Deem and Ramdas Pophale) SiO2 
 PCOD9363171
Probable space group: A M A 2
;
_chemical_formula_sum "Si O2"
_cell_formula_units_Z 64
_cell_length_a 7.790087
_cell_length_b 33.514195
_cell_length_c 12.267835
_cell_angle_alpha 90.000000
_cell_angle_beta 90.000000
_cell_angle_gamma 90.000000
_cell_volume 3202.867896
_symmetry_space_group_name_H-M "A M A 2"
_symmetry_group_IT_number 40
_symmetry_cell_setting 'orthorhombic'
loop_
_space_group_symop_operation_xyz
x,y,z
-x,-y,z
1/2-x,y,z
1/2+x,-y,z
x,1/2+y,1/2+z
-x,1/2-y,1/2+z
1/2-x,1/2+y,1/2+z
1/2+x,1/2-y,1/2+z
loop_
_atom_site_type_symbol
_atom_site_label
_atom_site_fract_x
_atom_site_fract_y
_atom_site_fract_z
Si Si1 0.041071 0.175528 0.143510
Si Si2 0.953223 0.315481 0.398902
Si Si3 0.043292 0.953704 0.090158
Si Si4 0.446768 0.900436 0.279974
Si Si5 0.452175 0.649184 0.981089
Si Si6 0.045674 0.453330 0.349292
Si Si7 0.543000 0.274381 0.844439
Si Si8 0.543712 0.376702 0.217462
O O1 0.250000 0.170826 0.146376
O O2 0.999772 0.212922 0.220814
O O3 0.957774 0.138216 0.203021
O O4 0.978711 0.178314 0.020590
O O5 0.750000 0.323377 0.404975
O O6 0.024143 0.345758 0.308571
O O7 0.977345 0.269361 0.369511
O O8 0.250000 0.947783 0.091763
O O9 0.973688 0.933437 0.199877
O O10 0.979288 0.940015 0.970181
O O11 0.000000 0.000000 0.093484
O O12 0.250000 0.910896 0.304693
O O13 0.529270 0.886160 0.392549
O O14 0.250000 0.656509 0.995425
O O15 0.521018 0.690105 0.925246
O O16 0.523648 0.635698 0.097951
O O17 0.250000 0.451887 0.354734
O O18 0.000000 0.500000 0.330965
O O19 0.990239 0.421628 0.258486
O O20 0.750000 0.273716 0.852523
O O21 0.750000 0.372668 0.212880
#
# Coordination Sequence:
#
# PCOD9363171 Si02
#       8
#     8   8   8   8   8   8   8   8
#     4   9  19  35  51  72 102 135 170 211 264 319
#     4  10  21  34  53  79 105 137 179 224 267 321
#     4   9  19  33  52  81 112 137 168 214 268 321
#     4  10  19  33  54  79 103 132 175 221 260 312
#     4   9  20  38  55  73 106 148 182 220 273 326
#     4  10  20  36  58  84 114 145 178 222 275 328
#     4   9  19  34  51  72 103 141 176 219 271 318
#     4  10  21  37  56  80 109 145 188 229 272 327
#
# _framework density 19.982092000000002
#
# number of rings (size 3 to 8) (size 9 to 14) (size 15 to 20)
#    0.000    2.500    0.000    2.250    1.750    5.000 
#    0.000    0.625    0.000    1.500    0.000    0.000 
#    0.000    0.000    0.000    0.000    0.000    0.000 
#
# Total GULP energy -178404.457865 kJ/mol
# GULP energy per Si atom -5575.139308 kJ/mol
# Density = 1.993661 g / cm^3
# Si number density = 19.982092 Si / 1000 Ang^3
#
#
#
# Elastic Constant Matrix: (Units=GPa)
#
#
# Indices 1 2 3 4 5 6 
#
# 1 24.2571 -5.6864 8.0120 0.0000 0.0000 0.0000
# 2 -5.6864 70.0100 67.8987 0.0000 0.0000 0.0000
# 3 8.0120 67.8987 177.1966 0.0000 0.0000 0.0000
# 4 0.0000 0.0000 0.0000 11.3064 0.0000 0.0000
# 5 0.0000 0.0000 0.0000 0.0000 12.5313 0.0000
# 6 0.0000 0.0000 0.0000 0.0000 0.0000 24.2558
#
#
#
# Elastic Compliance Matrix: (Units=1/GPa)
#
#
# Indices 1 2 3 4 5 6 
#
# 1 0.045143 0.008986 -0.005484 0.000000 0.000000 0.000000
# 2 0.008986 0.024520 -0.009802 0.000000 0.000000 0.000000
# 3 -0.005484 -0.009802 0.009647 0.000000 0.000000 0.000000
# 4 0.000000 0.000000 0.000000 0.088446 0.000000 0.000000
# 5 0.000000 0.000000 0.000000 0.000000 0.079800 0.000000
# 6 0.000000 0.000000 0.000000 0.000000 0.000000 0.041227
#
#
# Mechanical properties :
#
#
# Convention : Reuss Voigt Hill
#
# Bulk Modulus (GPa) = 14.99054 45.76804 30.37929
# Shear Modulus (GPa) = 15.45021 23.03465 19.24243
#
# Velocity S-wave (km/s) = 2.78367 3.39892 3.10656
# Velocity P-wave (km/s) = 4.22493 6.19337 5.30131
#
# Compressibility (1/GPa) = 0.06670875
#
# Stress axis : x y z
#
# Youngs Moduli (GPa) = 22.15190 40.78346 103.65571
#
# Poissons Ratio (x) = -0.36646 0.56847
# Poissons Ratio (y) = -0.19905 1.01602
# Poissons Ratio (z) = 0.12149 0.39975
#
# Static dielectric constant tensor:
#      x y z
#    x 1.726650 0.000000 0.000000 
#    y 0.000000 1.710160 0.000000 
#    z 0.000000 0.000000 1.742250 
# 
# From -- ./inp_files/10609.got.cif
#   From: 2010.05.17/outbox.cif.g08.bks.cpg/sg40_6_cif.got.tgz:10609.got - 2010.06.03 18:35:42.
