data_PCOD9363964
_publ_section_title
;
Structure prediction by ZEFSAII (Michael W. Deem and Ramdas Pophale) SiO2 
 PCOD9363964
Probable space group: A M A 2
;
_chemical_formula_sum "Si O2"
_cell_formula_units_Z 56
_cell_length_a 14.950415
_cell_length_b 20.909792
_cell_length_c 9.283067
_cell_angle_alpha 90.000000
_cell_angle_beta 90.000000
_cell_angle_gamma 90.000000
_cell_volume 2901.980206
_symmetry_space_group_name_H-M "A M A 2"
_symmetry_group_IT_number 40
_symmetry_cell_setting 'orthorhombic'
loop_
_space_group_symop_operation_xyz
x,y,z
-x,-y,z
1/2-x,y,z
1/2+x,-y,z
x,1/2+y,1/2+z
-x,1/2-y,1/2+z
1/2-x,1/2+y,1/2+z
1/2+x,1/2-y,1/2+z
loop_
_atom_site_type_symbol
_atom_site_label
_atom_site_fract_x
_atom_site_fract_y
_atom_site_fract_z
Si Si1 0.408242 0.661175 0.240170
Si Si2 0.145217 0.047397 0.559201
Si Si3 0.386829 0.297955 0.214693
Si Si4 0.349262 0.780806 0.047838
Si Si5 0.445667 0.171262 0.067075
Si Si6 0.982235 0.925769 0.299659
Si Si7 0.849547 0.096661 0.483815
O O1 0.381356 0.589818 0.195379
O O2 0.513485 0.673219 0.223306
O O3 0.360858 0.712795 0.133251
O O4 0.399740 0.669440 0.411151
O O5 0.250000 0.055119 0.533810
O O6 0.088327 0.076431 0.429104
O O7 0.126990 0.971201 0.561256
O O8 0.347533 0.285680 0.373219
O O9 0.397123 0.228548 0.147533
O O10 0.344866 0.347324 0.101282
O O11 0.250000 0.805627 0.094910
O O12 0.446792 0.813558 0.070943
O O13 0.441742 0.107669 0.160854
O O14 0.073218 0.894086 0.364374
O O15 0.000000 0.000000 0.269888
O O16 0.750000 0.089502 0.419313
#
# Coordination Sequence:
#
# PCOD9363964 Si02
#       7
#     8   8   8   8   8   8   8
#     4  10  20  36  57  86 117 159 197 240 296 355
#     4  10  20  38  63  87 117 157 203 247 297 363
#     4  10  20  36  60  84 120 153 192 247 297 355
#     4  10  21  37  58  86 118 156 197 243 303 359
#     4  10  23  38  58  86 121 158 201 246 300 359
#     4  10  21  41  62  87 120 161 200 250 304 354
#     4  10  21  36  63  94 117 154 204 248 300 363
#
# _framework density 19.297169
#
# number of rings (size 3 to 8) (size 9 to 14) (size 15 to 20)
#    0.000    2.000    1.429    1.714    6.000    0.571 
#    5.143    4.286    0.000    0.000    0.000    0.000 
#    0.000    0.000    0.000    0.000    0.000    0.000 
#
# Total GULP energy -155882.737851 kJ/mol
# GULP energy per Si atom -5567.240638 kJ/mol
# Density = 1.925325 g / cm^3
# Si number density = 19.297169 Si / 1000 Ang^3
#
#
#
# Elastic Constant Matrix: (Units=GPa)
#
#
# Indices 1 2 3 4 5 6 
#
# 1 52.8807 18.8394 22.2010 0.0000 0.0000 0.0000
# 2 18.8394 50.1712 40.6705 0.0000 0.0000 0.0000
# 3 22.2010 40.6705 67.7495 0.0000 0.0000 0.0000
# 4 0.0000 0.0000 0.0000 27.2688 0.0000 0.0000
# 5 0.0000 0.0000 0.0000 0.0000 1.8309 0.0000
# 6 0.0000 0.0000 0.0000 0.0000 0.0000 34.6789
#
#
#
# Elastic Compliance Matrix: (Units=1/GPa)
#
#
# Indices 1 2 3 4 5 6 
#
# 1 0.022509 -0.004817 -0.004484 0.000000 0.000000 0.000000
# 2 -0.004817 0.039856 -0.022348 0.000000 0.000000 0.000000
# 3 -0.004484 -0.022348 0.029645 0.000000 0.000000 0.000000
# 4 0.000000 0.000000 0.000000 0.036672 0.000000 0.000000
# 5 0.000000 0.000000 0.000000 0.000000 0.546184 0.000000
# 6 0.000000 0.000000 0.000000 0.000000 0.000000 0.028836
#
#
# Mechanical properties :
#
#
# Convention : Reuss Voigt Hill
#
# Bulk Modulus (GPa) = 34.82771 37.13591 35.98181
# Shear Modulus (GPa) = 6.43855 18.69508 12.56682
#
# Velocity S-wave (km/s) = 1.82860 3.11593 2.55468
# Velocity P-wave (km/s) = 4.74822 5.67727 5.23340
#
# Compressibility (1/GPa) = 0.02871277
#
# Stress axis : x y z
#
# Youngs Moduli (GPa) = 44.42600 25.09016 33.73229
#
# Poissons Ratio (x) = 0.12086 0.15127
# Poissons Ratio (y) = 0.21400 0.75383
# Poissons Ratio (z) = 0.19923 0.56070
#
# Static dielectric constant tensor:
#      x y z
#    x 1.712490 0.000000 0.000000 
#    y 0.000000 1.670650 0.000000 
#    z 0.000000 0.000000 1.662660 
# 
# From -- ./inp_files/6696.got.cif
#   From: 2010.05.17/outbox.cif.g08.bks.cpg/sg40_4_cif.got.tgz:6696.got - 2010.06.03 18:35:42.
