data_PCOD9363290
_publ_section_title
;
Structure prediction by ZEFSAII (Michael W. Deem and Ramdas Pophale) SiO2 
 PCOD9363290
Probable space group: A M A 2
;
_chemical_formula_sum "Si O2"
_cell_formula_units_Z 64
_cell_length_a 8.282395
_cell_length_b 16.704850
_cell_length_c 23.164540
_cell_angle_alpha 90.000000
_cell_angle_beta 90.000000
_cell_angle_gamma 90.000000
_cell_volume 3204.956944
_symmetry_space_group_name_H-M "A M A 2"
_symmetry_group_IT_number 40
_symmetry_cell_setting 'orthorhombic'
loop_
_space_group_symop_operation_xyz
x,y,z
-x,-y,z
1/2-x,y,z
1/2+x,-y,z
x,1/2+y,1/2+z
-x,1/2-y,1/2+z
1/2-x,1/2+y,1/2+z
1/2+x,1/2-y,1/2+z
loop_
_atom_site_type_symbol
_atom_site_label
_atom_site_fract_x
_atom_site_fract_y
_atom_site_fract_z
Si Si1 0.555267 0.584238 0.426930
Si Si2 0.443763 0.411974 0.001248
Si Si3 0.936526 0.084338 0.246085
Si Si4 0.554601 0.732239 0.086705
Si Si5 0.443777 0.412400 0.559234
Si Si6 0.057004 0.756117 0.712776
Si Si7 0.065157 0.611681 0.870637
Si Si8 0.062247 0.795636 0.835396
O O1 0.500000 0.500000 0.402853
O O2 0.750000 0.589635 0.430087
O O3 0.497462 0.589532 0.492537
O O4 0.486731 0.650471 0.384493
O O5 0.500000 0.500000 0.022882
O O6 0.250000 0.411018 0.001288
O O7 0.502918 0.405395 0.934757
O O8 0.499753 0.334575 0.039496
O O9 0.750000 0.093461 0.232631
O O10 0.026260 0.161161 0.220259
O O11 0.963039 0.083166 0.315535
O O12 0.000000 0.000000 0.223532
O O13 0.750000 0.731778 0.084680
O O14 0.501562 0.825227 0.080751
O O15 0.498852 0.710668 0.151729
O O16 0.500000 0.500000 0.582550
O O17 0.250000 0.412722 0.562454
O O18 0.250000 0.766469 0.713841
O O19 0.988364 0.794434 0.771552
O O20 0.250000 0.582087 0.865009
O O21 0.066069 0.706600 0.860360
O O22 0.250000 0.821173 0.828908
#
# Coordination Sequence:
#
# PCOD9363290 Si02
#       8
#     8   8   8   8   8   8   8   8
#     4   9  17  30  48  74 103 131 163 204 255 313
#     4  11  23  38  56  81 111 146 187 235 285 335
#     4  11  21  34  53  80 111 141 172 212 263 323
#     4  10  22  39  58  79 108 146 190 236 280 323
#     4  10  20  34  55  82 113 145 179 220 272 332
#     4   9  19  37  56  74  99 137 180 221 265 316
#     4  10  19  34  56  81 108 140 176 219 271 331
#     4   8  15  30  53  75  98 130 168 207 256 315
#
# _framework density 19.969066000000002
#
# number of rings (size 3 to 8) (size 9 to 14) (size 15 to 20)
#    0.000    2.250    0.000    4.125    0.000    3.500 
#    0.000    3.750    0.000    0.000    0.000    0.000 
#    0.000    0.000    0.000    0.000    0.000    0.000 
#
# Total GULP energy -178332.630513 kJ/mol
# GULP energy per Si atom -5572.894704 kJ/mol
# Density = 1.992362 g / cm^3
# Si number density = 19.969066 Si / 1000 Ang^3
#
#
#
# Elastic Constant Matrix: (Units=GPa)
#
#
# Indices 1 2 3 4 5 6 
#
# 1 22.9065 5.7967 5.5231 0.0000 0.0000 0.0000
# 2 5.7967 63.1589 40.5107 0.0000 0.0000 0.0000
# 3 5.5231 40.5107 103.6093 0.0000 0.0000 0.0000
# 4 0.0000 0.0000 0.0000 44.0640 0.0000 0.0000
# 5 0.0000 0.0000 0.0000 0.0000 10.8948 0.0000
# 6 0.0000 0.0000 0.0000 0.0000 0.0000 24.1822
#
#
#
# Elastic Compliance Matrix: (Units=1/GPa)
#
#
# Indices 1 2 3 4 5 6 
#
# 1 0.044778 -0.003442 -0.001041 0.000000 0.000000 0.000000
# 2 -0.003442 0.021398 -0.008183 0.000000 0.000000 0.000000
# 3 -0.001041 -0.008183 0.012907 0.000000 0.000000 0.000000
# 4 0.000000 0.000000 0.000000 0.022694 0.000000 0.000000
# 5 0.000000 0.000000 0.000000 0.000000 0.091787 0.000000
# 6 0.000000 0.000000 0.000000 0.000000 0.000000 0.041353
#
#
# Mechanical properties :
#
#
# Convention : Reuss Voigt Hill
#
# Bulk Modulus (GPa) = 18.60462 32.59284 25.59873
# Shear Modulus (GPa) = 17.97498 25.01782 21.49640
#
# Velocity S-wave (km/s) = 3.00349 3.54337 3.28454
# Velocity P-wave (km/s) = 4.62222 5.75306 5.21836
#
# Compressibility (1/GPa) = 0.05375009
#
# Stress axis : x y z
#
# Youngs Moduli (GPa) = 22.33250 46.73439 77.47978
#
# Poissons Ratio (x) = 0.16085 0.08067
# Poissons Ratio (y) = 0.07687 0.63400
# Poissons Ratio (z) = 0.02325 0.38242
#
# Static dielectric constant tensor:
#      x y z
#    x 1.662300 0.000000 0.000000 
#    y 0.000000 1.704480 0.000000 
#    z 0.000000 0.000000 1.751300 
# 
# From -- ./inp_files/24260.got.cif
#   From: 2010.05.17/outbox.cif.g08.bks.cpg/sg40_13_cif.got.tgz:24260.got - 2010.06.03 18:35:42.
