data_PCOD9363280
_publ_section_title
;
Structure prediction by ZEFSAII (Michael W. Deem and Ramdas Pophale) SiO2 
 PCOD9363280
Probable space group: A M A 2
;
_chemical_formula_sum "Si O2"
_cell_formula_units_Z 64
_cell_length_a 8.597431
_cell_length_b 25.618141
_cell_length_c 15.523059
_cell_angle_alpha 90.000000
_cell_angle_beta 90.000000
_cell_angle_gamma 90.000000
_cell_volume 3418.956843
_symmetry_space_group_name_H-M "A M A 2"
_symmetry_group_IT_number 40
_symmetry_cell_setting 'orthorhombic'
loop_
_space_group_symop_operation_xyz
x,y,z
-x,-y,z
1/2-x,y,z
1/2+x,-y,z
x,1/2+y,1/2+z
-x,1/2-y,1/2+z
1/2-x,1/2+y,1/2+z
1/2+x,1/2-y,1/2+z
loop_
_atom_site_type_symbol
_atom_site_label
_atom_site_fract_x
_atom_site_fract_y
_atom_site_fract_z
Si Si1 0.438307 0.851546 0.331810
Si Si2 0.934257 0.942896 0.451330
Si Si3 0.936397 0.636001 0.455721
Si Si4 0.065129 0.234366 0.860859
Si Si5 0.060217 0.834098 0.136849
Si Si6 0.064926 0.893958 0.623177
Si Si7 0.934824 0.283558 0.157257
Si Si8 0.438358 0.941516 0.807397
O O1 0.250000 0.852620 0.333393
O O2 0.501966 0.899021 0.386705
O O3 0.485285 0.794674 0.368804
O O4 0.488716 0.852823 0.231486
O O5 0.750000 0.944307 0.446673
O O6 0.985970 0.925963 0.547008
O O7 0.000000 0.000000 0.431291
O O8 0.750000 0.631061 0.457462
O O9 0.992717 0.633187 0.554282
O O10 0.995494 0.593309 0.387757
O O11 0.977890 0.692961 0.419301
O O12 0.250000 0.231622 0.877841
O O13 0.041868 0.218510 0.760700
O O14 0.250000 0.833868 0.138376
O O15 0.013727 0.773462 0.125168
O O16 0.250000 0.900014 0.615748
O O17 0.014510 0.915090 0.716930
O O18 0.021357 0.832999 0.618357
O O19 0.750000 0.289111 0.141541
O O20 0.250000 0.942064 0.808755
O O21 0.500000 0.000000 0.812045
#
# Coordination Sequence:
#
# PCOD9363280 Si02
#       8
#     8   8   8   8   8   8   8   8
#     4   9  19  39  61  84 115 151 191 237 288 341
#     4  12  26  43  62  85 111 148 195 244 294 347
#     4  10  19  34  55  83 115 150 194 237 283 339
#     4   9  18  32  53  82 117 153 188 230 283 337
#     4   8  17  34  58  83 116 155 189 229 282 344
#     4  11  22  37  56  84 118 152 188 236 289 341
#     4   9  17  32  53  82 116 154 192 226 275 339
#     4  10  22  37  55  79 111 151 192 235 283 334
#
# _framework density 18.719161
#
# number of rings (size 3 to 8) (size 9 to 14) (size 15 to 20)
#    0.000    2.250    1.250    3.375    1.750    3.000 
#    0.000    3.125    0.000    1.500    0.000    0.000 
#    0.000    0.000    0.000    0.000    0.000    0.000 
#
# Total GULP energy -178637.061541 kJ/mol
# GULP energy per Si atom -5582.408173 kJ/mol
# Density = 1.867656 g / cm^3
# Si number density = 18.719161 Si / 1000 Ang^3
#
#
#
# Elastic Constant Matrix: (Units=GPa)
#
#
# Indices 1 2 3 4 5 6 
#
# 1 18.9595 20.7290 15.1735 0.0000 0.0000 0.0000
# 2 20.7290 118.9113 60.6255 0.0000 0.0000 0.0000
# 3 15.1735 60.6255 95.7340 0.0000 0.0000 0.0000
# 4 0.0000 0.0000 0.0000 24.6672 0.0000 0.0000
# 5 0.0000 0.0000 0.0000 0.0000 16.2439 0.0000
# 6 0.0000 0.0000 0.0000 0.0000 0.0000 27.5723
#
#
#
# Elastic Compliance Matrix: (Units=1/GPa)
#
#
# Indices 1 2 3 4 5 6 
#
# 1 0.066583 -0.009195 -0.004730 0.000000 0.000000 0.000000
# 2 -0.009195 0.013689 -0.007212 0.000000 0.000000 0.000000
# 3 -0.004730 -0.007212 0.015762 0.000000 0.000000 0.000000
# 4 0.000000 0.000000 0.000000 0.040540 0.000000 0.000000
# 5 0.000000 0.000000 0.000000 0.000000 0.061562 0.000000
# 6 0.000000 0.000000 0.000000 0.000000 0.000000 0.036268
#
#
# Mechanical properties :
#
#
# Convention : Reuss Voigt Hill
#
# Bulk Modulus (GPa) = 18.60097 47.40677 33.00387
# Shear Modulus (GPa) = 16.97224 22.83513 19.90368
#
# Velocity S-wave (km/s) = 3.01437 3.49647 3.26433
# Velocity P-wave (km/s) = 4.69827 6.45605 5.64599
#
# Compressibility (1/GPa) = 0.05376062
#
# Stress axis : x y z
#
# Youngs Moduli (GPa) = 15.01879 73.04942 63.44292
#
# Poissons Ratio (x) = 0.67172 0.30009
# Poissons Ratio (y) = 0.13810 0.45753
# Poissons Ratio (z) = 0.07104 0.52680
#
# Static dielectric constant tensor:
#      x y z
#    x 1.626740 0.000000 0.000000 
#    y 0.000000 1.620650 0.000000 
#    z 0.000000 0.000000 1.669540 
# 
# From -- ./inp_files/15575.got.cif
#   From: 2010.05.17/outbox.cif.g08.bks.cpg/sg40_8_cif.got.tgz:15575.got - 2010.06.03 18:35:42.
