data_PCOD9363763
_publ_section_title
;
Structure prediction by ZEFSAII (Michael W. Deem and Ramdas Pophale) SiO2 
 PCOD9363763
Probable space group: A M A 2
;
_chemical_formula_sum "Si O2"
_cell_formula_units_Z 56
_cell_length_a 14.496309
_cell_length_b 12.095894
_cell_length_c 15.713975
_cell_angle_alpha 90.000000
_cell_angle_beta 90.000000
_cell_angle_gamma 90.000000
_cell_volume 2755.379786
_symmetry_space_group_name_H-M "A M A 2"
_symmetry_group_IT_number 40
_symmetry_cell_setting 'orthorhombic'
loop_
_space_group_symop_operation_xyz
x,y,z
-x,-y,z
1/2-x,y,z
1/2+x,-y,z
x,1/2+y,1/2+z
-x,1/2-y,1/2+z
1/2-x,1/2+y,1/2+z
1/2+x,1/2-y,1/2+z
loop_
_atom_site_type_symbol
_atom_site_label
_atom_site_fract_x
_atom_site_fract_y
_atom_site_fract_z
Si Si1 0.348680 0.160798 0.538460
Si Si2 0.648545 0.745063 0.250398
Si Si3 0.143436 0.624119 0.571284
Si Si4 0.053808 0.822000 0.485308
Si Si5 0.144592 0.387494 0.636658
Si Si6 0.027023 0.871381 0.304802
Si Si7 0.603404 0.534897 0.147215
O O1 0.250000 0.143423 0.493667
O O2 0.445460 0.144651 0.490601
O O3 0.353694 0.284848 0.573296
O O4 0.349424 0.078766 0.619876
O O5 0.750000 0.760973 0.289336
O O6 0.644125 0.817212 0.163669
O O7 0.561961 0.790495 0.302729
O O8 0.639647 0.618255 0.218638
O O9 0.250000 0.409077 0.665881
O O10 0.076883 0.696911 0.512525
O O11 0.114375 0.498719 0.588677
O O12 0.084293 0.844773 0.389614
O O13 0.101546 0.895629 0.558519
O O14 0.250000 0.126740 0.039711
O O15 0.081797 0.358256 0.716892
O O16 0.000000 0.000000 0.308913
O O17 0.500000 0.500000 0.170232
#
# Coordination Sequence:
#
# PCOD9363763 Si02
#       7
#     8   8   8   8   8   8   8
#     4  10  20  35  58  83 111 152 199 244 288 354
#     4  10  20  34  56  84 115 156 200 240 294 364
#     4   9  18  37  60  83 110 151 201 244 292 358
#     4  10  22  35  55  87 118 151 188 241 307 359
#     4  10  21  37  62  88 111 152 208 255 298 355
#     4  12  22  34  56  88 126 155 191 256 321 362
#     4   9  17  35  58  82 110 147 200 245 294 357
#
# _framework density 20.323877
#
# number of rings (size 3 to 8) (size 9 to 14) (size 15 to 20)
#    0.000    2.000    1.429    4.286    0.000    1.714 
#    0.000    1.429    9.429    0.000    0.000    0.000 
#    0.000    0.000    0.000    0.000    0.000    0.000 
#
# Total GULP energy -156197.596602 kJ/mol
# GULP energy per Si atom -5578.485593 kJ/mol
# Density = 2.027762 g / cm^3
# Si number density = 20.323877 Si / 1000 Ang^3
#
#
#
# Elastic Constant Matrix: (Units=GPa)
#
#
# Indices 1 2 3 4 5 6 
#
# 1 69.9097 -3.3102 -7.8605 0.0000 0.0000 0.0000
# 2 -3.3102 91.2187 -17.3373 0.0000 0.0000 0.0000
# 3 -7.8605 -17.3373 17.8171 0.0000 0.0000 0.0000
# 4 0.0000 0.0000 0.0000 14.1839 0.0000 0.0000
# 5 0.0000 0.0000 0.0000 0.0000 -7.8170 0.0000
# 6 0.0000 0.0000 0.0000 0.0000 0.0000 14.8777
#
#
#
# Elastic Compliance Matrix: (Units=1/GPa)
#
#
# Indices 1 2 3 4 5 6 
#
# 1 0.015426 0.002274 0.009018 0.000000 0.000000 0.000000
# 2 0.002274 0.013785 0.014417 0.000000 0.000000 0.000000
# 3 0.009018 0.014417 0.074133 0.000000 0.000000 0.000000
# 4 0.000000 0.000000 0.000000 0.070502 0.000000 0.000000
# 5 0.000000 0.000000 0.000000 0.000000 -0.127926 0.000000
# 6 0.000000 0.000000 0.000000 0.000000 0.000000 0.067215
#
#
# Mechanical properties :
#
#
# Convention : Reuss Voigt Hill
#
# Bulk Modulus (GPa) = 6.46149 13.54772 10.00461
# Shear Modulus (GPa) = 44.12856 18.07916 31.10386
#
# Velocity S-wave (km/s) = 4.66474 2.98577 3.91629
# Velocity P-wave (km/s) = 5.67444 4.30892 5.03816
#
# Compressibility (1/GPa) = 0.15476298
#
# Stress axis : x y z
#
# Youngs Moduli (GPa) = 64.82645 72.54068 13.48919
#
# Poissons Ratio (x) = -0.16494 -0.12165
# Poissons Ratio (y) = -0.14740 -0.19448
# Poissons Ratio (z) = -0.58461 -1.04584
#
# Static dielectric constant tensor:
#      x y z
#    x 1.839120 0.000000 0.000000 
#    y 0.000000 1.730240 0.000000 
#    z 0.000000 0.000000 1.682680 
# 
# From -- ./inp_files/17077.got.cif
#   From: 2010.05.17/outbox.cif.g08.bks.cpg/sg40_9_cif.got.tgz:17077.got - 2010.06.03 18:35:42.
