data_PCOD9363064
_publ_section_title
;
Structure prediction by ZEFSAII (Michael W. Deem and Ramdas Pophale) SiO2 
 PCOD9363064
Probable space group: A M A 2
;
_chemical_formula_sum "Si O2"
_cell_formula_units_Z 64
_cell_length_a 8.692033
_cell_length_b 20.223356
_cell_length_c 21.215719
_cell_angle_alpha 90.000000
_cell_angle_beta 90.000000
_cell_angle_gamma 90.000000
_cell_volume 3729.343166
_symmetry_space_group_name_H-M "A M A 2"
_symmetry_group_IT_number 40
_symmetry_cell_setting 'orthorhombic'
loop_
_space_group_symop_operation_xyz
x,y,z
-x,-y,z
1/2-x,y,z
1/2+x,-y,z
x,1/2+y,1/2+z
-x,1/2-y,1/2+z
1/2-x,1/2+y,1/2+z
1/2+x,1/2-y,1/2+z
loop_
_atom_site_type_symbol
_atom_site_label
_atom_site_fract_x
_atom_site_fract_y
_atom_site_fract_z
Si Si1 0.935078 0.930728 0.861290
Si Si2 0.433989 0.570356 0.831873
Si Si3 0.564659 0.788832 0.530100
Si Si4 0.066431 0.930443 0.719503
Si Si5 0.564062 0.295202 0.170869
Si Si6 0.064797 0.209884 0.913087
Si Si7 0.435834 0.793405 0.289863
Si Si8 0.565189 0.430077 0.979653
O O1 0.750000 0.933751 0.856820
O O2 0.979270 0.866215 0.901057
O O3 0.001775 0.922841 0.790758
O O4 0.000000 0.000000 0.886432
O O5 0.500000 0.500000 0.810119
O O6 0.250000 0.569329 0.829039
O O7 0.498119 0.633181 0.794871
O O8 0.479736 0.577812 0.905871
O O9 0.750000 0.788062 0.525472
O O10 0.521839 0.770313 0.601313
O O11 0.499773 0.741565 0.476342
O O12 0.513857 0.864349 0.515843
O O13 0.250000 0.933404 0.721068
O O14 0.007774 0.867125 0.681838
O O15 0.000000 0.000000 0.694899
O O16 0.750000 0.301885 0.173724
O O17 0.516886 0.246625 0.227472
O O18 0.250000 0.212626 0.914871
O O19 0.014631 0.252643 0.852125
O O20 0.250000 0.796509 0.290325
O O21 0.500000 0.500000 0.002641
O O22 0.750000 0.433402 0.982448
#
# Coordination Sequence:
#
# PCOD9363064 Si02
#       8
#     8   8   8   8   8   8   8   8
#     4  10  19  34  54  81 110 140 176 221 272 319
#     4  10  19  32  52  79 108 135 171 219 263 312
#     4  10  21  36  54  77 107 142 179 220 263 315
#     4  11  21  33  52  77 108 145 183 223 264 316
#     4  10  21  38  55  75 109 146 180 219 269 321
#     4  10  20  34  55  79 107 140 176 222 269 314
#     4  10  19  34  55  78 105 141 177 218 266 312
#     4   9  18  31  47  72 102 135 172 208 250 300
#
# _framework density 17.161197999999999
#
# number of rings (size 3 to 8) (size 9 to 14) (size 15 to 20)
#    0.000    2.000    2.500    2.625    0.000    3.500 
#    0.000    1.250    0.000    0.750    0.000    1.750 
#    0.000    0.000    0.000    0.000    0.000    0.000 
#
# Total GULP energy -178614.645916 kJ/mol
# GULP energy per Si atom -5581.707685 kJ/mol
# Density = 1.712214 g / cm^3
# Si number density = 17.161198 Si / 1000 Ang^3
#
#
#
# Elastic Constant Matrix: (Units=GPa)
#
#
# Indices 1 2 3 4 5 6 
#
# 1 31.1470 34.9507 31.3845 0.0000 0.0000 0.0000
# 2 34.9507 142.5052 75.3643 0.0000 0.0000 0.0000
# 3 31.3845 75.3643 113.5279 0.0000 0.0000 0.0000
# 4 0.0000 0.0000 0.0000 23.0565 0.0000 0.0000
# 5 0.0000 0.0000 0.0000 0.0000 -22.8639 0.0000
# 6 0.0000 0.0000 0.0000 0.0000 0.0000 29.5442
#
#
#
# Elastic Compliance Matrix: (Units=1/GPa)
#
#
# Indices 1 2 3 4 5 6 
#
# 1 0.049222 -0.007514 -0.008619 0.000000 0.000000 0.000000
# 2 -0.007514 0.011961 -0.005863 0.000000 0.000000 0.000000
# 3 -0.008619 -0.005863 0.015083 0.000000 0.000000 0.000000
# 4 0.000000 0.000000 0.000000 0.043372 0.000000 0.000000
# 5 0.000000 0.000000 0.000000 0.000000 -0.043737 0.000000
# 6 0.000000 0.000000 0.000000 0.000000 0.000000 0.033848
#
#
# Mechanical properties :
#
#
# Convention : Reuss Voigt Hill
#
# Bulk Modulus (GPa) = 30.98457 63.39769 47.19113
# Shear Modulus (GPa) = 30.39540 15.64607 23.02073
#
# Velocity S-wave (km/s) = 4.21309 3.02273 3.66654
# Velocity P-wave (km/s) = 6.46228 7.01464 6.74412
#
# Compressibility (1/GPa) = 0.03227413
#
# Stress axis : x y z
#
# Youngs Moduli (GPa) = 20.31597 83.60722 66.29899
#
# Poissons Ratio (x) = 0.62821 0.57146
# Poissons Ratio (y) = 0.15265 0.38870
# Poissons Ratio (z) = 0.17511 0.49017
#
# Static dielectric constant tensor:
#      x y z
#    x 1.582920 0.000000 0.000000 
#    y 0.000000 1.576690 0.000000 
#    z 0.000000 0.000000 1.574970 
# 
# From -- ./inp_files/19563.got.cif
#   From: 2010.05.17/outbox.cif.g08.bks.cpg/sg40_10_cif.got.tgz:19563.got - 2010.06.03 18:35:42.
