data_PCOD9363425
_publ_section_title
;
Structure prediction by ZEFSAII (Michael W. Deem and Ramdas Pophale) SiO2 
 PCOD9363425
Probable space group: A M A 2
;
_chemical_formula_sum "Si O2"
_cell_formula_units_Z 64
_cell_length_a 17.513582
_cell_length_b 11.868789
_cell_length_c 16.625698
_cell_angle_alpha 90.000000
_cell_angle_beta 90.000000
_cell_angle_gamma 90.000000
_cell_volume 3455.900871
_symmetry_space_group_name_H-M "A M A 2"
_symmetry_group_IT_number 40
_symmetry_cell_setting 'orthorhombic'
loop_
_space_group_symop_operation_xyz
x,y,z
-x,-y,z
1/2-x,y,z
1/2+x,-y,z
x,1/2+y,1/2+z
-x,1/2-y,1/2+z
1/2-x,1/2+y,1/2+z
1/2+x,1/2-y,1/2+z
loop_
_atom_site_type_symbol
_atom_site_label
_atom_site_fract_x
_atom_site_fract_y
_atom_site_fract_z
Si Si1 0.342423 0.458247 0.848480
Si Si2 0.657570 0.796787 0.899742
Si Si3 0.659582 0.928144 0.507597
Si Si4 0.923777 0.256108 0.121552
Si Si5 0.658802 0.033912 0.167219
Si Si6 0.587924 0.829614 0.076557
Si Si7 0.838897 0.610318 0.145668
Si Si8 0.423326 0.561440 0.262297
O O1 0.250000 0.462440 0.850062
O O2 0.361922 0.329441 0.869555
O O3 0.368922 0.540849 0.918947
O O4 0.366263 0.489725 0.759000
O O5 0.750000 0.805142 0.906931
O O6 0.625314 0.883539 0.833727
O O7 0.618149 0.815454 0.985820
O O8 0.750000 0.899888 0.505880
O O9 0.612671 0.831865 0.551622
O O10 0.652190 0.039998 0.562586
O O11 0.863396 0.162589 0.149478
O O12 0.941086 0.340710 0.196095
O O13 0.998561 0.193662 0.088643
O O14 0.750000 0.018297 0.160071
O O15 0.614804 0.949903 0.108835
O O16 0.626935 0.732576 0.130897
O O17 0.750000 0.620280 0.163189
O O18 0.877418 0.534337 0.213695
O O19 0.500000 0.500000 0.291571
#
# Coordination Sequence:
#
# PCOD9363425 Si02
#       8
#     8   8   8   8   8   8   8   8
#     4   9  18  36  62  94 119 149 207 264 308 361
#     4  11  22  41  67  92 123 168 217 259 307 380
#     4   9  18  35  63  94 121 156 211 268 312 372
#     4  11  23  40  61  91 129 169 208 265 328 386
#     4  11  23  41  65  90 123 169 216 261 318 386
#     4  12  24  41  60  91 133 169 209 259 326 386
#     4  10  19  35  62  91 121 162 210 256 310 375
#     4  11  22  39  63  94 129 161 208 270 321 374
#
# _framework density 18.519051000000001
#
# number of rings (size 3 to 8) (size 9 to 14) (size 15 to 20)
#    0.000    1.500    3.750    2.250    0.000    2.000 
#    2.250    1.250    0.000    1.500    0.000    0.000 
#    0.000    0.000    0.000    0.000    0.000    0.000 
#
# Total GULP energy -178702.503391 kJ/mol
# GULP energy per Si atom -5584.453231 kJ/mol
# Density = 1.847690 g / cm^3
# Si number density = 18.519051 Si / 1000 Ang^3
#
#
#
# Elastic Constant Matrix: (Units=GPa)
#
#
# Indices 1 2 3 4 5 6 
#
# 1 44.2053 12.8495 10.1227 0.0000 0.0000 0.0000
# 2 12.8495 68.8133 18.4826 0.0000 0.0000 0.0000
# 3 10.1227 18.4826 83.0197 0.0000 0.0000 0.0000
# 4 0.0000 0.0000 0.0000 31.4379 0.0000 0.0000
# 5 0.0000 0.0000 0.0000 0.0000 15.6832 0.0000
# 6 0.0000 0.0000 0.0000 0.0000 0.0000 31.9449
#
#
#
# Elastic Compliance Matrix: (Units=1/GPa)
#
#
# Indices 1 2 3 4 5 6 
#
# 1 0.024251 -0.003972 -0.002073 0.000000 0.000000 0.000000
# 2 -0.003972 0.016107 -0.003102 0.000000 0.000000 0.000000
# 3 -0.002073 -0.003102 0.012989 0.000000 0.000000 0.000000
# 4 0.000000 0.000000 0.000000 0.031809 0.000000 0.000000
# 5 0.000000 0.000000 0.000000 0.000000 0.063762 0.000000
# 6 0.000000 0.000000 0.000000 0.000000 0.000000 0.031304
#
#
# Mechanical properties :
#
#
# Convention : Reuss Voigt Hill
#
# Bulk Modulus (GPa) = 28.52719 30.99420 29.76070
# Shear Modulus (GPa) = 23.78712 26.11876 24.95294
#
# Velocity S-wave (km/s) = 3.58783 3.75957 3.67470
# Velocity P-wave (km/s) = 5.70974 5.96812 5.84036
#
# Compressibility (1/GPa) = 0.03505428
#
# Stress axis : x y z
#
# Youngs Moduli (GPa) = 41.23568 62.08578 76.99078
#
# Poissons Ratio (x) = 0.24658 0.15958
# Poissons Ratio (y) = 0.16377 0.23879
# Poissons Ratio (z) = 0.08547 0.19256
#
# Static dielectric constant tensor:
#      x y z
#    x 1.629140 0.000000 0.000000 
#    y 0.000000 1.616850 0.000000 
#    z 0.000000 0.000000 1.631190 
# 
# From -- ./inp_files/17861.got.cif
#   From: 2010.05.17/outbox.cif.g08.bks.cpg/sg40_9_cif.got.tgz:17861.got - 2010.06.03 18:35:42.
