data_PCOD9363588
_publ_section_title
;
Structure prediction by ZEFSAII (Michael W. Deem and Ramdas Pophale) SiO2 
 PCOD9363588
Probable space group: A M A 2
;
_chemical_formula_sum "Si O2"
_cell_formula_units_Z 44
_cell_length_a 20.163367
_cell_length_b 12.590594
_cell_length_c 6.886328
_cell_angle_alpha 90.000000
_cell_angle_beta 90.000000
_cell_angle_gamma 90.000000
_cell_volume 1748.223602
_symmetry_space_group_name_H-M "A M A 2"
_symmetry_group_IT_number 40
_symmetry_cell_setting 'orthorhombic'
loop_
_space_group_symop_operation_xyz
x,y,z
-x,-y,z
1/2-x,y,z
1/2+x,-y,z
x,1/2+y,1/2+z
-x,1/2-y,1/2+z
1/2-x,1/2+y,1/2+z
1/2+x,1/2-y,1/2+z
loop_
_atom_site_type_symbol
_atom_site_label
_atom_site_fract_x
_atom_site_fract_y
_atom_site_fract_z
Si Si1 0.012984 0.840150 0.617960
Si Si2 0.250000 0.708707 0.644601
Si Si3 0.126023 0.604517 0.044842
Si Si4 0.750000 0.262699 0.109173
Si Si5 0.477255 0.108358 0.214167
Si Si6 0.250000 0.962138 0.022094
Si Si7 0.652871 0.111098 0.689718
O O1 0.941496 0.886308 0.671357
O O2 0.025472 0.886835 0.403267
O O3 0.009460 0.713889 0.595677
O O4 0.077080 0.865866 0.739607
O O5 0.250000 0.714668 0.877158
O O6 0.250000 0.586042 0.579982
O O7 0.312855 0.784572 0.599803
O O8 0.179943 0.680273 0.148093
O O9 0.094470 0.619896 0.826800
O O10 0.156839 0.488350 0.046514
O O11 0.750000 0.139204 0.166924
O O12 0.500000 0.000000 0.115156
O O13 0.311593 0.932471 0.882437
#
# Coordination Sequence:
#
# PCOD9363588 Si02
#       7
#     8   4   8   4   8   4   8
#     4  10  21  39  65  92 129 174 217 268 332 392
#     4  10  23  39  65  93 125 172 216 275 340 392
#     4  10  20  40  65  89 125 173 214 266 338 381
#     4  10  20  42  60  88 134 164 210 283 327 388
#     4  10  20  40  60  91 129 164 219 268 324 386
#     4  10  23  39  63  93 127 168 226 258 339 400
#     4  10  19  42  63  87 130 167 212 274 325 394
#
# _framework density 25.168403000000001
#
# number of rings (size 3 to 8) (size 9 to 14) (size 15 to 20)
#    1.091    1.091    1.818    3.818    0.000    1.455 
#    6.545    4.545    0.000    0.000    0.000    0.000 
#    0.000    0.000    0.000    0.000    0.000    0.000 
#
# Total GULP energy -122595.887654 kJ/mol
# GULP energy per Si atom -5572.540348 kJ/mol
# Density = 2.511112 g / cm^3
# Si number density = 25.168403 Si / 1000 Ang^3
#
#
#
# Elastic Constant Matrix: (Units=GPa)
#
#
# Indices 1 2 3 4 5 6 
#
# 1 165.0554 72.0644 13.9886 0.0000 0.0000 0.0000
# 2 72.0644 250.5589 19.4799 0.0000 0.0000 0.0000
# 3 13.9886 19.4799 35.0541 0.0000 0.0000 0.0000
# 4 0.0000 0.0000 0.0000 32.2395 0.0000 0.0000
# 5 0.0000 0.0000 0.0000 0.0000 13.7573 0.0000
# 6 0.0000 0.0000 0.0000 0.0000 0.0000 28.5822
#
#
#
# Elastic Compliance Matrix: (Units=1/GPa)
#
#
# Indices 1 2 3 4 5 6 
#
# 1 0.007031 -0.001885 -0.001758 0.000000 0.000000 0.000000
# 2 -0.001885 0.004677 -0.001847 0.000000 0.000000 0.000000
# 3 -0.001758 -0.001847 0.030255 0.000000 0.000000 0.000000
# 4 0.000000 0.000000 0.000000 0.031018 0.000000 0.000000
# 5 0.000000 0.000000 0.000000 0.000000 0.072689 0.000000
# 6 0.000000 0.000000 0.000000 0.000000 0.000000 0.034987
#
#
# Mechanical properties :
#
#
# Convention : Reuss Voigt Hill
#
# Bulk Modulus (GPa) = 32.27600 73.52600 52.90100
# Shear Modulus (GPa) = 24.75693 37.92483 31.34088
#
# Velocity S-wave (km/s) = 3.13972 3.88602 3.53263
# Velocity P-wave (km/s) = 5.09860 7.02936 6.14034
#
# Compressibility (1/GPa) = 0.03098277
#
# Stress axis : x y z
#
# Youngs Moduli (GPa) = 142.23187 213.81524 33.05233
#
# Poissons Ratio (x) = 0.40314 0.05810
# Poissons Ratio (y) = 0.26818 0.06103
# Poissons Ratio (z) = 0.25003 0.39483
#
# Static dielectric constant tensor:
#      x y z
#    x 2.143250 0.000000 0.000000 
#    y 0.000000 2.059730 0.000000 
#    z 0.000000 0.000000 2.051700 
# 
# From -- ./inp_files/12838.got.cif
#   From: 2010.05.17/outbox.cif.g08.bks.cpg/sg40_7_cif.got.tgz:12838.got - 2010.06.03 18:35:42.
