data_PCOD9363793
_publ_section_title
;
Structure prediction by ZEFSAII (Michael W. Deem and Ramdas Pophale) SiO2 
 PCOD9363793
Probable space group: A M A 2
;
_chemical_formula_sum "Si O2"
_cell_formula_units_Z 48
_cell_length_a 13.995631
_cell_length_b 18.058937
_cell_length_c 7.312134
_cell_angle_alpha 90.000000
_cell_angle_beta 90.000000
_cell_angle_gamma 90.000000
_cell_volume 1848.114218
_symmetry_space_group_name_H-M "A M A 2"
_symmetry_group_IT_number 40
_symmetry_cell_setting 'orthorhombic'
loop_
_space_group_symop_operation_xyz
x,y,z
-x,-y,z
1/2-x,y,z
1/2+x,-y,z
x,1/2+y,1/2+z
-x,1/2-y,1/2+z
1/2-x,1/2+y,1/2+z
1/2+x,1/2-y,1/2+z
loop_
_atom_site_type_symbol
_atom_site_label
_atom_site_fract_x
_atom_site_fract_y
_atom_site_fract_z
Si Si1 0.501347 0.268153 0.215810
Si Si2 0.362400 0.140308 0.066372
Si Si3 0.865191 0.462140 0.249596
Si Si4 0.356782 0.875686 0.814394
Si Si5 0.863259 0.997201 0.337028
Si Si6 0.077895 0.850251 0.420182
O O1 0.427008 0.204774 0.146607
O O2 0.435115 0.314529 0.359394
O O3 0.590056 0.221638 0.293282
O O4 0.512903 0.323076 0.042621
O O5 0.250000 0.161412 0.068039
O O6 0.373444 0.067572 0.191855
O O7 0.389925 0.110157 0.864956
O O8 0.750000 0.464704 0.253855
O O9 0.893790 0.540624 0.341333
O O10 0.892722 0.468364 0.038325
O O11 0.250000 0.866894 0.890379
O O12 0.352323 0.865658 0.591642
O O13 0.750000 0.015090 0.338924
O O14 0.918924 0.074242 0.307528
#
# Coordination Sequence:
#
# PCOD9363793 Si02
#       6
#     8   8   8   8   8   8
#     4  10  21  36  56  82 119 148 189 243 294 340
#     4  10  20  34  60  92 115 142 191 252 293 333
#     4   8  15  32  56  84 111 142 190 234 279 344
#     4   8  16  34  61  79 105 159 199 229 283 353
#     4   9  18  36  61  85 112 151 197 239 285 353
#     4   9  20  36  56  79 115 154 188 233 289 353
#
# _framework density 25.97242
#
# number of rings (size 3 to 8) (size 9 to 14) (size 15 to 20)
#    1.000    2.000    0.000    2.000    0.000    2.000 
#    3.000    0.000    0.000    3.000    0.000    0.000 
#    0.000    0.000    0.000    0.000    0.000    0.000 
#
# Total GULP energy -133969.857310 kJ/mol
# GULP energy per Si atom -5582.077388 kJ/mol
# Density = 2.591331 g / cm^3
# Si number density = 25.972420 Si / 1000 Ang^3
#
#
#
# Elastic Constant Matrix: (Units=GPa)
#
#
# Indices 1 2 3 4 5 6 
#
# 1 98.8416 38.5358 8.3831 0.0000 0.0000 0.0000
# 2 38.5358 140.3518 6.9293 0.0000 0.0000 0.0000
# 3 8.3831 6.9293 65.1740 0.0000 0.0000 0.0000
# 4 0.0000 0.0000 0.0000 56.9524 0.0000 0.0000
# 5 0.0000 0.0000 0.0000 0.0000 26.1268 0.0000
# 6 0.0000 0.0000 0.0000 0.0000 0.0000 27.2488
#
#
#
# Elastic Compliance Matrix: (Units=1/GPa)
#
#
# Indices 1 2 3 4 5 6 
#
# 1 0.011414 -0.003078 -0.001141 0.000000 0.000000 0.000000
# 2 -0.003078 0.007992 -0.000454 0.000000 0.000000 0.000000
# 3 -0.001141 -0.000454 0.015539 0.000000 0.000000 0.000000
# 4 0.000000 0.000000 0.000000 0.017559 0.000000 0.000000
# 5 0.000000 0.000000 0.000000 0.000000 0.038275 0.000000
# 6 0.000000 0.000000 0.000000 0.000000 0.000000 0.036699
#
#
# Mechanical properties :
#
#
# Convention : Reuss Voigt Hill
#
# Bulk Modulus (GPa) = 39.06243 45.78487 42.42365
# Shear Modulus (GPa) = 34.39854 38.76688 36.58271
#
# Velocity S-wave (km/s) = 3.64321 3.86763 3.75710
# Velocity P-wave (km/s) = 5.72451 6.13281 5.93217
#
# Compressibility (1/GPa) = 0.02560005
#
# Stress axis : x y z
#
# Youngs Moduli (GPa) = 87.61326 125.11984 64.35607
#
# Poissons Ratio (x) = 0.38506 0.07342
# Poissons Ratio (y) = 0.26963 0.02921
# Poissons Ratio (z) = 0.09996 0.05679
#
# Static dielectric constant tensor:
#      x y z
#    x 2.001510 0.000000 0.000000 
#    y 0.000000 2.094890 0.000000 
#    z 0.000000 0.000000 2.146030 
# 
# From -- ./inp_files/7605.got.cif
#   From: 2010.05.17/outbox.cif.g08.bks.cpg/sg40_4_cif.got.tgz:7605.got - 2010.06.03 18:35:42.
