data_PCOD9363238
_publ_section_title
;
Structure prediction by ZEFSAII (Michael W. Deem and Ramdas Pophale) SiO2 
 PCOD9363238
Probable space group: A M A 2
;
_chemical_formula_sum "Si O2"
_cell_formula_units_Z 64
_cell_length_a 18.724498
_cell_length_b 14.547674
_cell_length_c 12.856310
_cell_angle_alpha 90.000000
_cell_angle_beta 90.000000
_cell_angle_gamma 90.000000
_cell_volume 3502.031752
_symmetry_space_group_name_H-M "A M A 2"
_symmetry_group_IT_number 40
_symmetry_cell_setting 'orthorhombic'
loop_
_space_group_symop_operation_xyz
x,y,z
-x,-y,z
1/2-x,y,z
1/2+x,-y,z
x,1/2+y,1/2+z
-x,1/2-y,1/2+z
1/2-x,1/2+y,1/2+z
1/2+x,1/2-y,1/2+z
loop_
_atom_site_type_symbol
_atom_site_label
_atom_site_fract_x
_atom_site_fract_y
_atom_site_fract_z
Si Si1 0.417155 0.264417 0.782500
Si Si2 0.418713 0.965083 0.178875
Si Si3 0.334634 0.642658 0.707315
Si Si4 0.667547 0.745414 0.996125
Si Si5 0.418112 0.969722 0.932082
Si Si6 0.080217 0.795581 0.803988
Si Si7 0.330252 0.409210 0.147737
Si Si8 0.666378 0.911726 0.757866
O O1 0.408621 0.363823 0.728131
O O2 0.383993 0.255438 0.898310
O O3 0.500406 0.239445 0.788140
O O4 0.374857 0.180719 0.728950
O O5 0.500000 0.000000 0.196074
O O6 0.366258 0.042216 0.223404
O O7 0.404721 0.972009 0.054844
O O8 0.250000 0.642906 0.710390
O O9 0.354235 0.688154 0.593275
O O10 0.367443 0.709730 0.793694
O O11 0.750000 0.768882 0.969874
O O12 0.667967 0.641065 0.038589
O O13 0.411863 0.862838 0.901008
O O14 0.500000 0.000000 0.912207
O O15 0.368791 0.034977 0.858310
O O16 0.106688 0.862595 0.712061
O O17 0.250000 0.386183 0.191699
O O18 0.338328 0.516678 0.162567
O O19 0.750000 0.895454 0.778613
#
# Coordination Sequence:
#
# PCOD9363238 Si02
#       8
#     8   8   8   8   8   8   8   8
#     4  12  22  33  56  83 119 151 186 238 286 337
#     4  11  24  39  55  82 121 156 191 236 285 342
#     4  10  21  41  65  84 111 155 199 238 285 344
#     4   9  19  36  60  86 109 148 198 234 276 341
#     4  10  20  36  60  87 116 151 190 236 288 342
#     4  10  19  33  58  87 114 143 191 238 291 332
#     4   8  17  35  59  83 112 146 187 236 280 339
#     4  10  20  36  59  88 117 145 182 235 292 343
#
# _framework density 18.275106000000001
#
# number of rings (size 3 to 8) (size 9 to 14) (size 15 to 20)
#    0.000    2.000    2.500    2.250    1.750    3.000 
#    0.000    1.250    5.500    1.500    0.000    0.000 
#    0.000    0.000    0.000    0.000    0.000    0.000 
#
# Total GULP energy -178250.572203 kJ/mol
# GULP energy per Si atom -5570.330381 kJ/mol
# Density = 1.823351 g / cm^3
# Si number density = 18.275106 Si / 1000 Ang^3
#
#
#
# Elastic Constant Matrix: (Units=GPa)
#
#
# Indices 1 2 3 4 5 6 
#
# 1 82.9006 49.3782 18.3277 0.0000 0.0000 0.0000
# 2 49.3782 163.6131 28.5647 0.0000 0.0000 0.0000
# 3 18.3277 28.5647 18.9300 0.0000 0.0000 0.0000
# 4 0.0000 0.0000 0.0000 28.7100 0.0000 0.0000
# 5 0.0000 0.0000 0.0000 0.0000 17.4630 0.0000
# 6 0.0000 0.0000 0.0000 0.0000 0.0000 31.6483
#
#
#
# Elastic Compliance Matrix: (Units=1/GPa)
#
#
# Indices 1 2 3 4 5 6 
#
# 1 0.016329 -0.002943 -0.011368 0.000000 0.000000 0.000000
# 2 -0.002943 0.008829 -0.010472 0.000000 0.000000 0.000000
# 3 -0.011368 -0.010472 0.079635 0.000000 0.000000 0.000000
# 4 0.000000 0.000000 0.000000 0.034831 0.000000 0.000000
# 5 0.000000 0.000000 0.000000 0.000000 0.057264 0.000000
# 6 0.000000 0.000000 0.000000 0.000000 0.000000 0.031597
#
#
# Mechanical properties :
#
#
# Convention : Reuss Voigt Hill
#
# Bulk Modulus (GPa) = 18.10773 50.88723 34.49748
# Shear Modulus (GPa) = 16.86563 26.84247 21.85405
#
# Velocity S-wave (km/s) = 3.04118 3.83665 3.46184
# Velocity P-wave (km/s) = 4.71822 6.89435 5.90736
#
# Compressibility (1/GPa) = 0.05522504
#
# Stress axis : x y z
#
# Youngs Moduli (GPa) = 61.24050 113.26794 12.55729
#
# Poissons Ratio (x) = 0.33339 0.14275
# Poissons Ratio (y) = 0.18025 0.13150
# Poissons Ratio (z) = 0.69619 1.18618
#
# Static dielectric constant tensor:
#      x y z
#    x 1.622310 0.000000 0.000000 
#    y 0.000000 1.668190 0.000000 
#    z 0.000000 0.000000 1.638880 
# 
# From -- ./inp_files/13160.got.cif
#   From: 2010.05.17/outbox.cif.g08.bks.cpg/sg40_7_cif.got.tgz:13160.got - 2010.06.03 18:35:42.
