data_PCOD9363806
_publ_section_title
;
Structure prediction by ZEFSAII (Michael W. Deem and Ramdas Pophale) SiO2 
 PCOD9363806
Probable space group: A M A 2
;
_chemical_formula_sum "Si O2"
_cell_formula_units_Z 64
_cell_length_a 8.230500
_cell_length_b 29.852105
_cell_length_c 13.449239
_cell_angle_alpha 90.000000
_cell_angle_beta 90.000000
_cell_angle_gamma 90.000000
_cell_volume 3304.447764
_symmetry_space_group_name_H-M "A M A 2"
_symmetry_group_IT_number 40
_symmetry_cell_setting 'orthorhombic'
loop_
_space_group_symop_operation_xyz
x,y,z
-x,-y,z
1/2-x,y,z
1/2+x,-y,z
x,1/2+y,1/2+z
-x,1/2-y,1/2+z
1/2-x,1/2+y,1/2+z
1/2+x,1/2-y,1/2+z
loop_
_atom_site_type_symbol
_atom_site_label
_atom_site_fract_x
_atom_site_fract_y
_atom_site_fract_z
Si Si1 0.939262 0.741846 0.929460
Si Si2 0.553278 0.384653 0.702242
Si Si3 0.055793 0.360408 0.914870
Si Si4 0.053798 0.051450 0.801852
Si Si5 0.431673 0.291779 0.252275
Si Si6 0.444931 0.622065 0.135461
Si Si7 0.445998 0.551269 0.524399
Si Si8 0.065073 0.207022 0.111052
O O1 0.750000 0.734116 0.955867
O O2 0.005417 0.691812 0.909363
O O3 0.951617 0.776922 0.840372
O O4 0.020730 0.768441 0.019845
O O5 0.750000 0.384858 0.703473
O O6 0.501095 0.386986 0.817042
O O7 0.497757 0.420892 0.620559
O O8 0.492038 0.336913 0.659830
O O9 0.250000 0.359691 0.912263
O O10 0.002380 0.380162 0.021276
O O11 0.250000 0.052532 0.801668
O O12 0.998086 0.082876 0.711008
O O13 0.000287 0.066907 0.913267
O O14 0.000000 0.000000 0.789446
O O15 0.250000 0.302614 0.289100
O O16 0.492664 0.331627 0.183177
O O17 0.421005 0.246229 0.190200
O O18 0.250000 0.622094 0.135406
O O19 0.500000 0.500000 0.533416
O O20 0.250000 0.553354 0.524263
O O21 0.250000 0.193626 0.079556
#
# Coordination Sequence:
#
# PCOD9363806 Si02
#       8
#     8   8   8   8   8   8   8   8
#     4  10  20  35  52  74 109 152 190 232 282 329
#     4  10  20  36  59  83 110 151 193 230 280 343
#     4  11  22  37  56  81 116 153 193 239 283 328
#     4   9  20  39  63  89 114 144 182 230 288 344
#     4  11  21  35  53  80 113 149 192 234 277 326
#     4  11  23  38  59  85 115 152 193 232 282 347
#     4   9  19  37  62  87 113 143 180 228 286 343
#     4   9  18  33  53  75 107 148 190 230 273 325
#
# _framework density 19.367833999999998
#
# number of rings (size 3 to 8) (size 9 to 14) (size 15 to 20)
#    0.000    2.000    2.500    1.125    1.750    2.000 
#    0.000    1.250    0.000    0.000    0.000    0.000 
#    0.000    0.000    0.000    0.000    0.000    0.000 
#
# Total GULP energy -178311.611293 kJ/mol
# GULP energy per Si atom -5572.237853 kJ/mol
# Density = 1.932375 g / cm^3
# Si number density = 19.367834 Si / 1000 Ang^3
#
#
#
# Elastic Constant Matrix: (Units=GPa)
#
#
# Indices 1 2 3 4 5 6 
#
# 1 24.5273 11.5823 16.7820 0.0000 0.0000 0.0000
# 2 11.5823 83.6302 70.2864 0.0000 0.0000 0.0000
# 3 16.7820 70.2864 148.7000 0.0000 0.0000 0.0000
# 4 0.0000 0.0000 0.0000 33.7386 0.0000 0.0000
# 5 0.0000 0.0000 0.0000 0.0000 9.1181 0.0000
# 6 0.0000 0.0000 0.0000 0.0000 0.0000 39.9353
#
#
#
# Elastic Compliance Matrix: (Units=1/GPa)
#
#
# Indices 1 2 3 4 5 6 
#
# 1 0.044705 -0.003237 -0.003515 0.000000 0.000000 0.000000
# 2 -0.003237 0.020073 -0.009122 0.000000 0.000000 0.000000
# 3 -0.003515 -0.009122 0.011434 0.000000 0.000000 0.000000
# 4 0.000000 0.000000 0.000000 0.029640 0.000000 0.000000
# 5 0.000000 0.000000 0.000000 0.000000 0.109672 0.000000
# 6 0.000000 0.000000 0.000000 0.000000 0.000000 0.025040
#
#
# Mechanical properties :
#
#
# Convention : Reuss Voigt Hill
#
# Bulk Modulus (GPa) = 22.49137 50.46210 36.47674
# Shear Modulus (GPa) = 17.41353 27.10553 22.25953
#
# Velocity S-wave (km/s) = 3.00174 3.74506 3.39382
# Velocity P-wave (km/s) = 4.86332 6.69416 5.85080
#
# Compressibility (1/GPa) = 0.04446150
#
# Stress axis : x y z
#
# Youngs Moduli (GPa) = 22.36905 49.81916 87.46146
#
# Poissons Ratio (x) = 0.16126 0.30745
# Poissons Ratio (y) = 0.07241 0.79786
# Poissons Ratio (z) = 0.07863 0.45447
#
# Static dielectric constant tensor:
#      x y z
#    x 1.708000 0.000000 0.000000 
#    y 0.000000 1.664860 0.000000 
#    z 0.000000 0.000000 1.755300 
# 
# From -- ./inp_files/10679.got.cif
#   From: 2010.05.17/outbox.cif.g08.bks.cpg/sg40_6_cif.got.tgz:10679.got - 2010.06.03 18:35:42.
