data_PCOD9363650
_publ_section_title
;
Structure prediction by ZEFSAII (Michael W. Deem and Ramdas Pophale) SiO2 
 PCOD9363650
Probable space group: A M A 2
;
_chemical_formula_sum "Si O2"
_cell_formula_units_Z 64
_cell_length_a 8.660430
_cell_length_b 20.760065
_cell_length_c 20.308789
_cell_angle_alpha 90.000000
_cell_angle_beta 90.000000
_cell_angle_gamma 90.000000
_cell_volume 3651.339305
_symmetry_space_group_name_H-M "A M A 2"
_symmetry_group_IT_number 40
_symmetry_cell_setting 'orthorhombic'
loop_
_space_group_symop_operation_xyz
x,y,z
-x,-y,z
1/2-x,y,z
1/2+x,-y,z
x,1/2+y,1/2+z
-x,1/2-y,1/2+z
1/2-x,1/2+y,1/2+z
1/2+x,1/2-y,1/2+z
loop_
_atom_site_type_symbol
_atom_site_label
_atom_site_fract_x
_atom_site_fract_y
_atom_site_fract_z
Si Si1 0.436648 0.674160 0.052200
Si Si2 0.565516 0.569665 0.301281
Si Si3 0.063372 0.930262 0.953144
Si Si4 0.436772 0.825381 0.205160
Si Si5 0.565826 0.570414 0.951272
Si Si6 0.064356 0.177047 0.705067
Si Si7 0.065714 0.070562 0.306089
Si Si8 0.437777 0.321161 0.553758
O O1 0.250000 0.669957 0.046455
O O2 0.476918 0.662989 0.128923
O O3 0.483786 0.747982 0.037136
O O4 0.512575 0.623272 0.003711
O O5 0.500000 0.500000 0.281228
O O6 0.750000 0.566852 0.299757
O O7 0.516423 0.581299 0.377239
O O8 0.507784 0.625940 0.254204
O O9 0.250000 0.932026 0.955082
O O10 0.008951 0.873995 0.001637
O O11 0.000000 0.000000 0.973048
O O12 0.250000 0.830360 0.209205
O O13 0.479286 0.751101 0.220355
O O14 0.511428 0.876056 0.254320
O O15 0.482606 0.836720 0.128924
O O16 0.500000 0.500000 0.969385
O O17 0.750000 0.567066 0.947620
O O18 0.499320 0.585941 0.878827
O O19 0.250000 0.173505 0.709328
O O20 0.250000 0.067331 0.309008
O O21 0.000000 0.000000 0.288118
O O22 0.250000 0.321108 0.553244
#
# Coordination Sequence:
#
# PCOD9363650 Si02
#       8
#     8   8   8   8   8   8   8   8
#     4   9  18  35  56  78 104 138 173 209 257 312
#     4  10  20  33  51  74 103 136 175 219 262 308
#     4   9  18  33  51  74 101 133 170 209 252 300
#     4   9  18  35  56  79 107 139 172 211 259 312
#     4  11  22  37  56  79 106 137 173 217 263 313
#     4   9  19  35  55  77 106 140 174 213 260 311
#     4  11  22  37  56  78 106 140 176 218 262 312
#     4   8  16  33  56  77 104 139 173 208 253 308
#
# _framework density 17.527816000000001
#
# number of rings (size 3 to 8) (size 9 to 14) (size 15 to 20)
#    0.000    2.500    0.000    4.875    0.000    3.500 
#    0.000    5.625    0.000    0.000    0.000    0.000 
#    0.000    0.000    0.000    0.000    0.000    0.000 
#
# Total GULP energy -178546.645475 kJ/mol
# GULP energy per Si atom -5579.582671 kJ/mol
# Density = 1.748792 g / cm^3
# Si number density = 17.527816 Si / 1000 Ang^3
#
#
#
# Elastic Constant Matrix: (Units=GPa)
#
#
# Indices 1 2 3 4 5 6 
#
# 1 64.9948 58.5018 50.5878 0.0000 0.0000 0.0000
# 2 58.5018 171.4599 131.6905 0.0000 0.0000 0.0000
# 3 50.5878 131.6905 119.1744 0.0000 0.0000 0.0000
# 4 0.0000 0.0000 0.0000 43.3946 0.0000 0.0000
# 5 0.0000 0.0000 0.0000 0.0000 20.8544 0.0000
# 6 0.0000 0.0000 0.0000 0.0000 0.0000 26.8132
#
#
#
# Elastic Compliance Matrix: (Units=1/GPa)
#
#
# Indices 1 2 3 4 5 6 
#
# 1 0.023116 -0.002318 -0.007251 0.000000 0.000000 0.000000
# 2 -0.002318 0.038785 -0.041874 0.000000 0.000000 0.000000
# 3 -0.007251 -0.041874 0.057741 0.000000 0.000000 0.000000
# 4 0.000000 0.000000 0.000000 0.023044 0.000000 0.000000
# 5 0.000000 0.000000 0.000000 0.000000 0.047952 0.000000
# 6 0.000000 0.000000 0.000000 0.000000 0.000000 0.037295
#
#
# Mechanical properties :
#
#
# Convention : Reuss Voigt Hill
#
# Bulk Modulus (GPa) = 59.68202 93.02104 76.35153
# Shear Modulus (GPa) = 14.86310 25.86903 20.36607
#
# Velocity S-wave (km/s) = 2.91516 3.84589 3.41241
# Velocity P-wave (km/s) = 6.74201 8.53855 7.69290
#
# Compressibility (1/GPa) = 0.01675547
#
# Stress axis : x y z
#
# Youngs Moduli (GPa) = 43.26014 25.78335 17.31880
#
# Poissons Ratio (x) = 0.05977 0.12558
# Poissons Ratio (y) = 0.10028 0.72521
# Poissons Ratio (z) = 0.31367 1.07965
#
# Static dielectric constant tensor:
#      x y z
#    x 1.588880 0.000000 0.000000 
#    y 0.000000 1.573480 0.000000 
#    z 0.000000 0.000000 1.581880 
# 
# From -- ./inp_files/19630.got.cif
#   From: 2010.05.17/outbox.cif.g08.bks.cpg/sg40_10_cif.got.tgz:19630.got - 2010.06.03 18:35:42.
