data_PCOD9363821
_publ_section_title
;
Structure prediction by ZEFSAII (Michael W. Deem and Ramdas Pophale) SiO2 
 PCOD9363821
Probable space group: A M A 2
;
_chemical_formula_sum "Si O2"
_cell_formula_units_Z 56
_cell_length_a 25.249944
_cell_length_b 10.816413
_cell_length_c 10.056089
_cell_angle_alpha 90.000000
_cell_angle_beta 90.000000
_cell_angle_gamma 90.000000
_cell_volume 2746.456907
_symmetry_space_group_name_H-M "A M A 2"
_symmetry_group_IT_number 40
_symmetry_cell_setting 'orthorhombic'
loop_
_space_group_symop_operation_xyz
x,y,z
-x,-y,z
1/2-x,y,z
1/2+x,-y,z
x,1/2+y,1/2+z
-x,1/2-y,1/2+z
1/2-x,1/2+y,1/2+z
1/2+x,1/2-y,1/2+z
loop_
_atom_site_type_symbol
_atom_site_label
_atom_site_fract_x
_atom_site_fract_y
_atom_site_fract_z
Si Si1 0.420714 0.514460 0.994230
Si Si2 0.308262 0.033004 0.388125
Si Si3 0.047654 0.738870 0.837293
Si Si4 0.442560 0.130754 0.762652
Si Si5 0.363793 0.641422 0.652099
Si Si6 0.864558 0.709936 0.890312
Si Si7 0.056259 0.466089 0.529244
O O1 0.359411 0.562975 0.979235
O O2 0.454802 0.602648 0.900106
O O3 0.413557 0.374994 0.945256
O O4 0.439966 0.536170 0.142163
O O5 0.250000 0.052653 0.443778
O O6 0.317203 0.108335 0.252646
O O7 0.319076 0.887927 0.358067
O O8 0.095664 0.730600 0.732160
O O9 0.995005 0.785946 0.764603
O O10 0.058393 0.830835 0.963103
O O11 0.389846 0.213591 0.770877
O O12 0.443133 0.055756 0.900251
O O13 0.348331 0.703657 0.513533
O O14 0.396343 0.514776 0.620746
O O15 0.000000 0.500000 0.595507
#
# Coordination Sequence:
#
# PCOD9363821 Si02
#       7
#     8   8   8   8   8   8   8
#     4   9  21  36  56  83 114 150 187 236 275 343
#     4   9  21  41  59  83 108 144 196 248 298 335
#     4  10  21  32  53  85 118 152 188 220 272 341
#     4  10  20  35  54  82 119 154 184 225 275 342
#     4  10  20  37  58  81 112 149 186 234 282 339
#     4   9  21  37  57  85 109 146 190 232 283 343
#     4   9  20  34  52  83 116 152 182 220 268 334
#
# _framework density 20.389908999999999
#
# number of rings (size 3 to 8) (size 9 to 14) (size 15 to 20)
#    0.857    1.714    0.000    0.857    8.000    1.143 
#    0.000    0.714    0.000    0.857    0.000    0.000 
#    0.000    0.000    0.000    0.000    0.000    0.000 
#
# Total GULP energy -156117.895603 kJ/mol
# GULP energy per Si atom -5575.639129 kJ/mol
# Density = 2.034350 g / cm^3
# Si number density = 20.389909 Si / 1000 Ang^3
#
#
#
# Elastic Constant Matrix: (Units=GPa)
#
#
# Indices 1 2 3 4 5 6 
#
# 1 75.1705 2.2042 12.0646 0.0000 0.0000 0.0000
# 2 2.2042 59.2383 6.0020 0.0000 0.0000 0.0000
# 3 12.0646 6.0020 39.6381 0.0000 0.0000 0.0000
# 4 0.0000 0.0000 0.0000 24.5962 0.0000 0.0000
# 5 0.0000 0.0000 0.0000 0.0000 14.8599 0.0000
# 6 0.0000 0.0000 0.0000 0.0000 0.0000 11.8927
#
#
#
# Elastic Compliance Matrix: (Units=1/GPa)
#
#
# Indices 1 2 3 4 5 6 
#
# 1 0.013987 -0.000090 -0.004243 0.000000 0.000000 0.000000
# 2 -0.000090 0.017145 -0.002569 0.000000 0.000000 0.000000
# 3 -0.004243 -0.002569 0.026909 0.000000 0.000000 0.000000
# 4 0.000000 0.000000 0.000000 0.040657 0.000000 0.000000
# 5 0.000000 0.000000 0.000000 0.000000 0.067295 0.000000
# 6 0.000000 0.000000 0.000000 0.000000 0.000000 0.084085
#
#
# Mechanical properties :
#
#
# Convention : Reuss Voigt Hill
#
# Bulk Modulus (GPa) = 22.60641 23.84318 23.22479
# Shear Modulus (GPa) = 17.94515 20.52152 19.23334
#
# Velocity S-wave (km/s) = 2.96987 3.17591 3.07461
# Velocity P-wave (km/s) = 4.78239 5.01673 4.90096
#
# Compressibility (1/GPa) = 0.04423525
#
# Stress axis : x y z
#
# Youngs Moduli (GPa) = 71.49601 58.32749 37.16266
#
# Poissons Ratio (x) = 0.00528 0.15770
# Poissons Ratio (y) = 0.00647 0.09545
# Poissons Ratio (z) = 0.30339 0.14981
#
# Static dielectric constant tensor:
#      x y z
#    x 1.731470 0.000000 0.000000 
#    y 0.000000 1.775660 0.000000 
#    z 0.000000 0.000000 1.720630 
# 
# From -- ./inp_files/14248.got.cif
#   From: 2010.05.17/outbox.cif.g08.bks.cpg/sg40_8_cif.got.tgz:14248.got - 2010.06.03 18:35:42.
