data_PCOD9363267
_publ_section_title
;
Structure prediction by ZEFSAII (Michael W. Deem and Ramdas Pophale) SiO2 
 PCOD9363267
Probable space group: A M A 2
;
_chemical_formula_sum "Si O2"
_cell_formula_units_Z 64
_cell_length_a 8.254206
_cell_length_b 34.294016
_cell_length_c 12.019640
_cell_angle_alpha 90.000000
_cell_angle_beta 90.000000
_cell_angle_gamma 90.000000
_cell_volume 3402.397964
_symmetry_space_group_name_H-M "A M A 2"
_symmetry_group_IT_number 40
_symmetry_cell_setting 'orthorhombic'
loop_
_space_group_symop_operation_xyz
x,y,z
-x,-y,z
1/2-x,y,z
1/2+x,-y,z
x,1/2+y,1/2+z
-x,1/2-y,1/2+z
1/2-x,1/2+y,1/2+z
1/2+x,1/2-y,1/2+z
loop_
_atom_site_type_symbol
_atom_site_label
_atom_site_fract_x
_atom_site_fract_y
_atom_site_fract_z
Si Si1 0.937335 0.319482 0.918390
Si Si2 0.559339 0.609199 0.789322
Si Si3 0.940560 0.689852 0.160339
Si Si4 0.556361 0.455219 0.193031
Si Si5 0.946543 0.120685 0.819988
Si Si6 0.053841 0.222931 0.197230
Si Si7 0.944234 0.455736 0.941888
Si Si8 0.444394 0.851769 0.063059
O O1 0.750000 0.310501 0.942995
O O2 0.997520 0.291391 0.819795
O O3 0.954374 0.361791 0.864337
O O4 0.036045 0.318316 0.030883
O O5 0.750000 0.618921 0.800623
O O6 0.513756 0.617859 0.661779
O O7 0.525872 0.567610 0.841987
O O8 0.750000 0.692122 0.187075
O O9 0.005785 0.654274 0.234419
O O10 0.008000 0.733316 0.179719
O O11 0.500000 0.500000 0.213352
O O12 0.750000 0.455989 0.193792
O O13 0.498682 0.422076 0.278426
O O14 0.504433 0.442866 0.067145
O O15 0.750000 0.120613 0.819900
O O16 0.003094 0.133489 0.943241
O O17 0.250000 0.222775 0.195767
O O18 0.000991 0.190697 0.106601
O O19 0.750000 0.452421 0.934390
O O20 0.000000 0.500000 0.934818
O O21 0.250000 0.849743 0.056195
#
# Coordination Sequence:
#
# PCOD9363267 Si02
#       8
#     8   8   8   8   8   8   8   8
#     4  10  20  34  53  76 103 136 176 220 267 320
#     4  10  19  34  55  78 106 139 178 221 267 321
#     4  10  21  35  53  78 108 141 179 225 275 327
#     4  10  21  37  58  84 114 144 181 225 276 331
#     4  10  21  37  57  80 110 147 187 229 276 330
#     4   9  20  36  53  76 106 141 180 225 276 325
#     4  10  20  34  55  84 114 142 176 221 273 327
#     4   9  20  37  57  78 105 146 188 226 272 327
#
# _framework density 18.810262999999999
#
# number of rings (size 3 to 8) (size 9 to 14) (size 15 to 20)
#    0.000    2.250    0.000    2.250    1.750    6.000 
#    0.000    0.625    0.000    0.000    0.000    0.000 
#    0.000    0.000    0.000    0.000    0.000    0.000 
#
# Total GULP energy -178455.111576 kJ/mol
# GULP energy per Si atom -5576.722237 kJ/mol
# Density = 1.876745 g / cm^3
# Si number density = 18.810263 Si / 1000 Ang^3
#
#
#
# Elastic Constant Matrix: (Units=GPa)
#
#
# Indices 1 2 3 4 5 6 
#
# 1 18.7394 14.5726 12.4827 0.0000 0.0000 0.0000
# 2 14.5726 107.6407 87.2011 0.0000 0.0000 0.0000
# 3 12.4827 87.2011 122.2647 0.0000 0.0000 0.0000
# 4 0.0000 0.0000 0.0000-1840.0820 0.0000 0.0000
# 5 0.0000 0.0000 0.0000 0.0000 19.5862 0.0000
# 6 0.0000 0.0000 0.0000 0.0000 0.0000 25.2067
#
#
#
# Elastic Compliance Matrix: (Units=1/GPa)
#
#
# Indices 1 2 3 4 5 6 
#
# 1 0.059674 -0.007445 -0.000783 0.000000 0.000000 0.000000
# 2 -0.007445 0.022932 -0.015596 0.000000 0.000000 0.000000
# 3 -0.000783 -0.015596 0.019382 0.000000 0.000000 0.000000
# 4 0.000000 0.000000 0.000000 -0.000543 0.000000 0.000000
# 5 0.000000 0.000000 0.000000 0.000000 0.051056 0.000000
# 6 0.000000 0.000000 0.000000 0.000000 0.000000 0.039672
#
#
# Mechanical properties :
#
#
# Convention : Reuss Voigt Hill
#
# Bulk Modulus (GPa) = 18.40184 53.01750 35.70967
# Shear Modulus (GPa) = 19.38484 -350.09861 -165.35688
#
# Velocity S-wave (km/s) = 3.21369 -13.65742 -9.38609
# Velocity P-wave (km/s) = 4.85536 14.84768 9.92167
#
# Compressibility (1/GPa) = 0.05434240
#
# Stress axis : x y z
#
# Youngs Moduli (GPa) = 16.75761 43.60689 51.59462
#
# Poissons Ratio (x) = 0.32464 0.04039
# Poissons Ratio (y) = 0.12475 0.80464
# Poissons Ratio (z) = 0.01312 0.68007
#
# Static dielectric constant tensor:
#      x y z
#    x 1.669120 0.000000 0.000000 
#    y 0.000000 366.465930 0.000000 
#    z 0.000000 0.000000 1.658490 
# 
# From -- ./inp_files/10582.got.cif
#   From: 2010.05.17/outbox.cif.g08.bks.cpg/sg40_6_cif.got.tgz:10582.got - 2010.06.03 18:35:42.
