data_PCOD9363788
_publ_section_title
;
Structure prediction by ZEFSAII (Michael W. Deem and Ramdas Pophale) SiO2 
 PCOD9363788
Probable space group: A M A 2
;
_chemical_formula_sum "Si O2"
_cell_formula_units_Z 64
_cell_length_a 15.401741
_cell_length_b 9.282152
_cell_length_c 23.147351
_cell_angle_alpha 90.000000
_cell_angle_beta 90.000000
_cell_angle_gamma 90.000000
_cell_volume 3309.175414
_symmetry_space_group_name_H-M "A M A 2"
_symmetry_group_IT_number 40
_symmetry_cell_setting 'orthorhombic'
loop_
_space_group_symop_operation_xyz
x,y,z
-x,-y,z
1/2-x,y,z
1/2+x,-y,z
x,1/2+y,1/2+z
-x,1/2-y,1/2+z
1/2-x,1/2+y,1/2+z
1/2+x,1/2-y,1/2+z
loop_
_atom_site_type_symbol
_atom_site_label
_atom_site_fract_x
_atom_site_fract_y
_atom_site_fract_z
Si Si1 0.969334 0.350842 0.290530
Si Si2 0.346955 0.379651 0.735694
Si Si3 0.347541 0.161772 0.022166
Si Si4 0.349648 0.218016 0.442584
Si Si5 0.584403 0.905166 0.330721
Si Si6 0.649844 0.460669 0.395770
Si Si7 0.093330 0.925010 0.110062
Si Si8 0.479103 0.162095 0.547431
O O1 0.912221 0.249835 0.249710
O O2 0.913407 0.399357 0.346816
O O3 0.000000 0.500000 0.262873
O O4 0.048929 0.249426 0.309822
O O5 0.250000 0.330343 0.747576
O O6 0.370394 0.509671 0.778896
O O7 0.356545 0.430190 0.669996
O O8 0.250000 0.215723 0.034795
O O9 0.427635 0.262401 0.038465
O O10 0.361524 0.013134 0.058054
O O11 0.354220 0.133333 0.953885
O O12 0.250000 0.219269 0.464464
O O13 0.357314 0.115954 0.386802
O O14 0.370781 0.378577 0.418894
O O15 0.420491 0.170070 0.489428
O O16 0.500000 0.000000 0.346740
O O17 0.750000 0.462393 0.374875
O O18 0.074197 0.761478 0.091765
O O19 0.000000 0.000000 0.119114
O O20 0.500000 0.000000 0.564783
#
# Coordination Sequence:
#
# PCOD9363788 Si02
#       8
#     8   8   8   8   8   8   8   8
#     4  11  21  36  60  85 121 160 203 250 305 365
#     4  11  24  42  62  88 120 158 207 257 306 365
#     4  10  21  39  65  92 119 161 210 256 301 363
#     4  11  21  35  58  91 131 168 204 249 307 371
#     4  10  21  37  58  85 120 164 206 251 304 363
#     4  10  20  34  58  91 124 158 205 250 296 359
#     4  10  21  41  67  87 116 159 212 251 298 364
#     4  11  24  39  61  94 128 161 196 255 321 376
#
# _framework density 19.340166
#
# number of rings (size 3 to 8) (size 9 to 14) (size 15 to 20)
#    0.000    1.500    2.500    3.375    0.000    2.500 
#    0.000    2.500    0.000    0.000    0.000    0.000 
#    0.000    0.000    0.000    0.000    0.000    0.000 
#
# Total GULP energy -178708.641496 kJ/mol
# GULP energy per Si atom -5584.645047 kJ/mol
# Density = 1.929615 g / cm^3
# Si number density = 19.340166 Si / 1000 Ang^3
#
#
#
# Elastic Constant Matrix: (Units=GPa)
#
#
# Indices 1 2 3 4 5 6 
#
# 1 71.3948 4.8848 13.9530 0.0000 0.0000 0.0000
# 2 4.8848 85.3800 14.9139 0.0000 0.0000 0.0000
# 3 13.9530 14.9139 66.7748 0.0000 0.0000 0.0000
# 4 0.0000 0.0000 0.0000 20.6451 0.0000 0.0000
# 5 0.0000 0.0000 0.0000 0.0000 12.3048 0.0000
# 6 0.0000 0.0000 0.0000 0.0000 0.0000 13.8686
#
#
#
# Elastic Compliance Matrix: (Units=1/GPa)
#
#
# Indices 1 2 3 4 5 6 
#
# 1 0.014611 -0.000315 -0.002983 0.000000 0.000000 0.000000
# 2 -0.000315 0.012195 -0.002658 0.000000 0.000000 0.000000
# 3 -0.002983 -0.002658 0.016193 0.000000 0.000000 0.000000
# 4 0.000000 0.000000 0.000000 0.048438 0.000000 0.000000
# 5 0.000000 0.000000 0.000000 0.000000 0.081269 0.000000
# 6 0.000000 0.000000 0.000000 0.000000 0.000000 0.072105
#
#
# Mechanical properties :
#
#
# Convention : Reuss Voigt Hill
#
# Bulk Modulus (GPa) = 32.16743 32.33922 32.25333
# Shear Modulus (GPa) = 18.72072 22.01689 20.36881
#
# Velocity S-wave (km/s) = 3.11460 3.37768 3.24880
# Velocity P-wave (km/s) = 5.44085 5.65413 5.54852
#
# Compressibility (1/GPa) = 0.03108734
#
# Stress axis : x y z
#
# Youngs Moduli (GPa) = 68.44107 82.00337 61.75663
#
# Poissons Ratio (x) = 0.02582 0.18420
# Poissons Ratio (y) = 0.02155 0.16414
# Poissons Ratio (z) = 0.20414 0.21795
#
# Static dielectric constant tensor:
#      x y z
#    x 1.684260 0.000000 0.000000 
#    y 0.000000 1.683180 0.000000 
#    z 0.000000 0.000000 1.653220 
# 
# From -- ./inp_files/24770.got.cif
#   From: 2010.05.17/outbox.cif.g08.bks.cpg/sg40_13_cif.got.tgz:24770.got - 2010.06.03 18:35:42.
