data_PCOD9363660
_publ_section_title
;
Structure prediction by ZEFSAII (Michael W. Deem and Ramdas Pophale) SiO2 
 PCOD9363660
Probable space group: A M A 2
;
_chemical_formula_sum "Si O2"
_cell_formula_units_Z 64
_cell_length_a 8.664943
_cell_length_b 15.011415
_cell_length_c 27.790799
_cell_angle_alpha 90.000000
_cell_angle_beta 90.000000
_cell_angle_gamma 90.000000
_cell_volume 3614.834136
_symmetry_space_group_name_H-M "A M A 2"
_symmetry_group_IT_number 40
_symmetry_cell_setting 'orthorhombic'
loop_
_space_group_symop_operation_xyz
x,y,z
-x,-y,z
1/2-x,y,z
1/2+x,-y,z
x,1/2+y,1/2+z
-x,1/2-y,1/2+z
1/2-x,1/2+y,1/2+z
1/2+x,1/2-y,1/2+z
loop_
_atom_site_type_symbol
_atom_site_label
_atom_site_fract_x
_atom_site_fract_y
_atom_site_fract_z
Si Si1 0.934680 0.096296 0.506370
Si Si2 0.934245 0.402604 0.624241
Si Si3 0.934903 0.096162 0.230513
Si Si4 0.934333 0.597197 0.281184
Si Si5 0.934073 0.275183 0.086854
Si Si6 0.565831 0.723973 0.819421
Si Si7 0.434149 0.595470 0.899212
Si Si8 0.065003 0.902171 0.668170
O O1 0.750000 0.093525 0.506871
O O2 0.996771 0.171775 0.541750
O O3 0.995283 0.110353 0.452170
O O4 0.000000 0.000000 0.522326
O O5 0.750000 0.403750 0.622832
O O6 0.000000 0.500000 0.611781
O O7 0.989732 0.383709 0.678967
O O8 0.000796 0.324304 0.591450
O O9 0.750000 0.090408 0.224571
O O10 0.970825 0.169309 0.270588
O O11 0.000000 0.000000 0.246031
O O12 0.750000 0.597376 0.286131
O O13 0.970654 0.613433 0.224514
O O14 0.000000 0.500000 0.293446
O O15 0.007777 0.675978 0.312013
O O16 0.750000 0.274110 0.084505
O O17 0.988571 0.329328 0.134091
O O18 0.750000 0.721798 0.826072
O O19 0.485505 0.672353 0.862995
O O20 0.500000 0.500000 0.881908
O O21 0.250000 0.589737 0.902562
O O22 0.250000 0.900856 0.661868
O O23 0.000000 0.000000 0.655799
#
# Coordination Sequence:
#
# PCOD9363660 Si02
#       8
#     8   8   8   8   8   8   8   8
#     4  11  22  39  60  84 113 143 176 217 268 322
#     4  11  22  37  55  77 107 144 184 226 271 317
#     4  10  20  33  51  77 110 146 182 222 267 317
#     4  10  21  36  54  76 106 144 184 227 271 317
#     4  12  23  36  55  80 109 143 183 224 268 319
#     4  11  22  35  54  80 109 143 183 224 268 320
#     4  11  22  38  59  84 113 143 176 217 268 322
#     4  10  20  34  52  78 111 146 183 223 269 320
#
# _framework density 17.704823000000001
#
# number of rings (size 3 to 8) (size 9 to 14) (size 15 to 20)
#    0.000    1.250    0.000    9.000    0.000    6.500 
#    0.000    0.000    0.000    0.750    0.000    5.250 
#    0.000    0.000    0.000    0.000    0.000    0.000 
#
# Total GULP energy -178978.693895 kJ/mol
# GULP energy per Si atom -5593.084184 kJ/mol
# Density = 1.766453 g / cm^3
# Si number density = 17.704823 Si / 1000 Ang^3
#
#
#
# Elastic Constant Matrix: (Units=GPa)
#
#
# Indices 1 2 3 4 5 6 
#
# 1 142.2889 73.0580 53.6398 0.0000 0.0000 0.0000
# 2 73.0580 144.8303 77.5269 0.0000 0.0000 0.0000
# 3 53.6398 77.5269 68.8588 0.0000 0.0000 0.0000
# 4 0.0000 0.0000 0.0000 27.6609 0.0000 0.0000
# 5 0.0000 0.0000 0.0000 0.0000 29.7118 0.0000
# 6 0.0000 0.0000 0.0000 0.0000 0.0000 29.9471
#
#
#
# Elastic Compliance Matrix: (Units=1/GPa)
#
#
# Indices 1 2 3 4 5 6 
#
# 1 0.010234 -0.002253 -0.005436 0.000000 0.000000 0.000000
# 2 -0.002253 0.017874 -0.018369 0.000000 0.000000 0.000000
# 3 -0.005436 -0.018369 0.039438 0.000000 0.000000 0.000000
# 4 0.000000 0.000000 0.000000 0.036152 0.000000 0.000000
# 5 0.000000 0.000000 0.000000 0.000000 0.033657 0.000000
# 6 0.000000 0.000000 0.000000 0.000000 0.000000 0.033392
#
#
# Mechanical properties :
#
#
# Convention : Reuss Voigt Hill
#
# Bulk Modulus (GPa) = 64.80487 84.93638 74.87063
# Shear Modulus (GPa) = 21.92933 27.58083 24.75508
#
# Velocity S-wave (km/s) = 3.52320 3.95120 3.74332
# Velocity P-wave (km/s) = 7.29610 8.30022 7.81430
#
# Compressibility (1/GPa) = 0.01543094
#
# Stress axis : x y z
#
# Youngs Moduli (GPa) = 97.71657 55.94798 25.35609
#
# Poissons Ratio (x) = 0.12602 0.13783
# Poissons Ratio (y) = 0.22011 0.46577
# Poissons Ratio (z) = 0.53117 1.02771
#
# Static dielectric constant tensor:
#      x y z
#    x 1.586450 0.000000 0.000000 
#    y 0.000000 1.594590 0.000000 
#    z 0.000000 0.000000 1.589390 
# 
# From -- ./inp_files/24327.got.cif
#   From: 2010.05.17/outbox.cif.g08.bks.cpg/sg40_13_cif.got.tgz:24327.got - 2010.06.03 18:35:42.
