data_PCOD9363676
_publ_section_title
;
Structure prediction by ZEFSAII (Michael W. Deem and Ramdas Pophale) SiO2 
 PCOD9363676
Probable space group: A M A 2
;
_chemical_formula_sum "Si O2"
_cell_formula_units_Z 64
_cell_length_a 17.465356
_cell_length_b 8.366793
_cell_length_c 21.913247
_cell_angle_alpha 90.000000
_cell_angle_beta 90.000000
_cell_angle_gamma 90.000000
_cell_volume 3202.161272
_symmetry_space_group_name_H-M "A M A 2"
_symmetry_group_IT_number 40
_symmetry_cell_setting 'orthorhombic'
loop_
_space_group_symop_operation_xyz
x,y,z
-x,-y,z
1/2-x,y,z
1/2+x,-y,z
x,1/2+y,1/2+z
-x,1/2-y,1/2+z
1/2-x,1/2+y,1/2+z
1/2+x,1/2-y,1/2+z
loop_
_atom_site_type_symbol
_atom_site_label
_atom_site_fract_x
_atom_site_fract_y
_atom_site_fract_z
Si Si1 0.158225 0.611829 0.919390
Si Si2 0.988077 0.311834 0.552403
Si Si3 0.570759 0.082805 0.318706
Si Si4 0.420495 0.596592 0.136253
Si Si5 0.470092 0.677532 0.421618
Si Si6 0.658939 0.369567 0.264744
Si Si7 0.660174 0.105114 0.539087
Si Si8 0.159862 0.981055 0.895208
O O1 0.250000 0.605288 0.914058
O O2 0.119433 0.537350 0.859781
O O3 0.139651 0.802685 0.917909
O O4 0.140071 0.495101 0.977015
O O5 0.004628 0.251903 0.483307
O O6 0.901325 0.243448 0.558233
O O7 0.000000 0.500000 0.547468
O O8 0.048026 0.255723 0.603321
O O9 0.528755 0.200887 0.366761
O O10 0.628960 0.193519 0.282393
O O11 0.500000 0.000000 0.283772
O O12 0.500000 0.500000 0.134821
O O13 0.387468 0.592309 0.203884
O O14 0.356067 0.522788 0.092576
O O15 0.500000 0.500000 0.405445
O O16 0.381381 0.624523 0.431547
O O17 0.750000 0.372373 0.254797
O O18 0.642515 0.484162 0.323338
O O19 0.750000 0.151762 0.536704
O O20 0.250000 0.999627 0.902268
#
# Coordination Sequence:
#
# PCOD9363676 Si02
#       8
#     8   8   8   8   8   8   8   8
#     4  10  20  35  57  91 126 155 195 249 310 372
#     4  10  22  38  59  88 127 165 207 260 311 370
#     4  11  22  33  59  89 121 156 197 247 308 372
#     4  10  23  40  64  85 119 164 217 260 311 368
#     4  10  20  33  53  82 119 157 192 237 300 361
#     4  10  22  43  63  85 121 166 212 258 309 373
#     4  10  21  38  62  91 123 164 208 255 313 373
#     4   9  20  36  58  87 118 155 198 246 302 369
#
# _framework density 19.986499999999999
#
# number of rings (size 3 to 8) (size 9 to 14) (size 15 to 20)
#    0.000    2.000    1.250    1.500    5.250    4.500 
#    0.000    2.500    0.000    0.000    0.000    0.000 
#    0.000    0.000    0.000    0.000    0.000    0.000 
#
# Total GULP energy -178226.890101 kJ/mol
# GULP energy per Si atom -5569.590316 kJ/mol
# Density = 1.994101 g / cm^3
# Si number density = 19.986500 Si / 1000 Ang^3
#
#
#
# Elastic Constant Matrix: (Units=GPa)
#
#
# Indices 1 2 3 4 5 6 
#
# 1 70.8259 23.4145 8.3333 0.0000 0.0000 0.0000
# 2 23.4145 58.5726 -6.4250 0.0000 0.0000 0.0000
# 3 8.3333 -6.4250 39.3086 0.0000 0.0000 0.0000
# 4 0.0000 0.0000 0.0000 13.1596 0.0000 0.0000
# 5 0.0000 0.0000 0.0000 0.0000 36.5235 0.0000
# 6 0.0000 0.0000 0.0000 0.0000 0.0000 28.4170
#
#
#
# Elastic Compliance Matrix: (Units=1/GPa)
#
#
# Indices 1 2 3 4 5 6 
#
# 1 0.017127 -0.007377 -0.004837 0.000000 0.000000 0.000000
# 2 -0.007377 0.020562 0.004925 0.000000 0.000000 0.000000
# 3 -0.004837 0.004925 0.027270 0.000000 0.000000 0.000000
# 4 0.000000 0.000000 0.000000 0.075990 0.000000 0.000000
# 5 0.000000 0.000000 0.000000 0.000000 0.027380 0.000000
# 6 0.000000 0.000000 0.000000 0.000000 0.000000 0.035190
#
#
# Mechanical properties :
#
#
# Convention : Reuss Voigt Hill
#
# Bulk Modulus (GPa) = 19.84868 24.37252 22.11060
# Shear Modulus (GPa) = 21.28649 25.17898 23.23273
#
# Velocity S-wave (km/s) = 3.26704 3.55322 3.41313
# Velocity P-wave (km/s) = 4.91772 5.39025 5.15940
#
# Compressibility (1/GPa) = 0.05038120
#
# Stress axis : x y z
#
# Youngs Moduli (GPa) = 58.38730 48.63332 36.67026
#
# Poissons Ratio (x) = 0.35877 0.17736
# Poissons Ratio (y) = 0.43073 -0.18059
# Poissons Ratio (z) = 0.28240 -0.23951
#
# Static dielectric constant tensor:
#      x y z
#    x 1.811860 0.000000 0.000000 
#    y 0.000000 1.729570 0.000000 
#    z 0.000000 0.000000 1.712730 
# 
# From -- ./inp_files/23351.got.cif
#   From: 2010.05.17/outbox.cif.g08.bks.cpg/sg40_12_cif.got.tgz:23351.got - 2010.06.03 18:35:42.
