data_PCOD9363251
_publ_section_title
;
Structure prediction by ZEFSAII (Michael W. Deem and Ramdas Pophale) SiO2 
 PCOD9363251
Probable space group: A M A 2
;
_chemical_formula_sum "Si O2"
_cell_formula_units_Z 64
_cell_length_a 8.808999
_cell_length_b 20.038767
_cell_length_c 21.096861
_cell_angle_alpha 90.000000
_cell_angle_beta 90.000000
_cell_angle_gamma 90.000000
_cell_volume 3724.049095
_symmetry_space_group_name_H-M "A M A 2"
_symmetry_group_IT_number 40
_symmetry_cell_setting 'orthorhombic'
loop_
_space_group_symop_operation_xyz
x,y,z
-x,-y,z
1/2-x,y,z
1/2+x,-y,z
x,1/2+y,1/2+z
-x,1/2-y,1/2+z
1/2-x,1/2+y,1/2+z
1/2+x,1/2-y,1/2+z
loop_
_atom_site_type_symbol
_atom_site_label
_atom_site_fract_x
_atom_site_fract_y
_atom_site_fract_z
Si Si1 0.933066 0.796287 0.484120
Si Si2 0.069055 0.570457 0.560451
Si Si3 0.067535 0.711645 0.230641
Si Si4 0.567620 0.930468 0.673348
Si Si5 0.068830 0.293045 0.363127
Si Si6 0.931452 0.570133 0.031990
Si Si7 0.931249 0.429423 0.410837
Si Si8 0.432768 0.793835 0.105865
O O1 0.750000 0.805460 0.485489
O O2 0.974340 0.755864 0.420882
O O3 0.975102 0.751620 0.545342
O O4 0.013454 0.867248 0.491126
O O5 0.250000 0.568234 0.565170
O O6 0.029199 0.578432 0.485656
O O7 0.000000 0.500000 0.581634
O O8 0.004307 0.633696 0.597330
O O9 0.250000 0.715575 0.237322
O O10 0.029960 0.634630 0.214193
O O11 0.022952 0.756474 0.170396
O O12 0.988956 0.732193 0.295542
O O13 0.750000 0.935415 0.668247
O O14 0.499207 0.920668 0.602961
O O15 0.500000 0.000000 0.698370
O O16 0.250000 0.299197 0.363585
O O17 0.996841 0.365542 0.375446
O O18 0.750000 0.566437 0.035277
O O19 0.000000 0.500000 0.008582
O O20 0.750000 0.431267 0.404632
O O21 0.000000 0.500000 0.389390
O O22 0.250000 0.799747 0.105151
#
# Coordination Sequence:
#
# PCOD9363251 Si02
#       8
#     8   8   8   8   8   8   8   8
#     4  10  20  37  58  81 110 144 184 225 274 325
#     4  10  20  33  54  84 113 142 180 228 275 325
#     4  10  22  38  55  76 110 151 185 225 274 326
#     4  10  19  34  53  77 109 148 186 224 269 319
#     4  11  23  37  56  80 111 148 183 228 275 325
#     4  11  21  33  55  84 113 143 179 227 275 324
#     4  10  20  34  53  78 111 148 187 226 268 323
#     4  10  19  36  59  80 109 146 183 227 275 322
#
# _framework density 17.185594999999999
#
# number of rings (size 3 to 8) (size 9 to 14) (size 15 to 20)
#    0.000    1.750    2.500    3.375    0.000    4.500 
#    0.000    1.250    0.000    0.750    0.000    5.250 
#    0.000    0.000    0.000    0.000    0.000    0.000 
#
# Total GULP energy -178741.013178 kJ/mol
# GULP energy per Si atom -5585.656662 kJ/mol
# Density = 1.714648 g / cm^3
# Si number density = 17.185595 Si / 1000 Ang^3
#
#
#
# Elastic Constant Matrix: (Units=GPa)
#
#
# Indices 1 2 3 4 5 6 
#
# 1 45.0000 42.7082 39.0083 0.0000 0.0000 0.0000
# 2 42.7082 127.7617 63.9669 0.0000 0.0000 0.0000
# 3 39.0083 63.9669 108.7585 0.0000 0.0000 0.0000
# 4 0.0000 0.0000 0.0000 20.7991 0.0000 0.0000
# 5 0.0000 0.0000 0.0000 0.0000 25.9858 0.0000
# 6 0.0000 0.0000 0.0000 0.0000 0.0000 33.0926
#
#
#
# Elastic Compliance Matrix: (Units=1/GPa)
#
#
# Indices 1 2 3 4 5 6 
#
# 1 0.037488 -0.008220 -0.008611 0.000000 0.000000 0.000000
# 2 -0.008220 0.012896 -0.004637 0.000000 0.000000 0.000000
# 3 -0.008611 -0.004637 0.015010 0.000000 0.000000 0.000000
# 4 0.000000 0.000000 0.000000 0.048079 0.000000 0.000000
# 5 0.000000 0.000000 0.000000 0.000000 0.038482 0.000000
# 6 0.000000 0.000000 0.000000 0.000000 0.000000 0.030218
#
#
# Mechanical properties :
#
#
# Convention : Reuss Voigt Hill
#
# Bulk Modulus (GPa) = 44.52579 63.65413 54.08996
# Shear Modulus (GPa) = 21.49636 25.03130 23.26383
#
# Velocity S-wave (km/s) = 3.54055 3.82059 3.68323
# Velocity P-wave (km/s) = 6.53292 7.52211 7.04490
#
# Compressibility (1/GPa) = 0.02245889
#
# Stress axis : x y z
#
# Youngs Moduli (GPa) = 26.67493 77.54073 66.62067
#
# Poissons Ratio (x) = 0.63741 0.57368
# Poissons Ratio (y) = 0.21928 0.30890
# Poissons Ratio (z) = 0.22970 0.35954
#
# Static dielectric constant tensor:
#      x y z
#    x 1.572060 0.000000 0.000000 
#    y 0.000000 1.570750 0.000000 
#    z 0.000000 0.000000 1.578930 
# 
# From -- ./inp_files/19566.got.cif
#   From: 2010.05.17/outbox.cif.g08.bks.cpg/sg40_10_cif.got.tgz:19566.got - 2010.06.03 18:35:42.
