data_PCOD9363071
_publ_section_title
;
Structure prediction by ZEFSAII (Michael W. Deem and Ramdas Pophale) SiO2 
 PCOD9363071
Probable space group: A M A 2
;
_chemical_formula_sum "Si O2"
_cell_formula_units_Z 64
_cell_length_a 8.912816
_cell_length_b 28.785658
_cell_length_c 14.793580
_cell_angle_alpha 90.000000
_cell_angle_beta 90.000000
_cell_angle_gamma 90.000000
_cell_volume 3795.459720
_symmetry_space_group_name_H-M "A M A 2"
_symmetry_group_IT_number 40
_symmetry_cell_setting 'orthorhombic'
loop_
_space_group_symop_operation_xyz
x,y,z
-x,-y,z
1/2-x,y,z
1/2+x,-y,z
x,1/2+y,1/2+z
-x,1/2-y,1/2+z
1/2-x,1/2+y,1/2+z
1/2+x,1/2-y,1/2+z
loop_
_atom_site_type_symbol
_atom_site_label
_atom_site_fract_x
_atom_site_fract_y
_atom_site_fract_z
Si Si1 0.927264 0.222481 0.674010
Si Si2 0.069329 0.049764 0.885931
Si Si3 0.430813 0.638826 0.062625
Si Si4 0.429646 0.674914 0.872129
Si Si5 0.571547 0.176735 0.178999
Si Si6 0.073413 0.782232 0.887025
Si Si7 0.069414 0.049640 0.677041
Si Si8 0.570715 0.862066 0.005163
O O1 0.750000 0.228801 0.658207
O O2 0.947221 0.209579 0.779854
O O3 0.993751 0.182021 0.612965
O O4 0.009640 0.271392 0.658867
O O5 0.250000 0.046402 0.888769
O O6 0.026641 0.060102 0.781435
O O7 0.023320 0.091612 0.951297
O O8 0.000000 0.000000 0.910182
O O9 0.250000 0.643418 0.071402
O O10 0.477238 0.591284 0.111357
O O11 0.465874 0.642071 0.956354
O O12 0.250000 0.674157 0.855129
O O13 0.513087 0.664519 0.779090
O O14 0.465769 0.728068 0.901200
O O15 0.750000 0.177049 0.176274
O O16 0.505304 0.143414 0.102366
O O17 0.250000 0.788182 0.908872
O O18 0.978450 0.817748 0.945600
O O19 0.250000 0.046237 0.673848
O O20 0.000000 0.000000 0.652828
O O21 0.750000 0.862447 0.014782
#
# Coordination Sequence:
#
# PCOD9363071 Si02
#       8
#     8   8   8   8   8   8   8   8
#     4  10  20  33  50  74 105 137 169 206 248 296
#     4   9  19  34  52  75 103 132 162 199 245 298
#     4  10  19  32  53  77 102 133 170 210 251 298
#     4   9  19  35  51  70  99 133 170 212 253 291
#     4  11  22  35  51  71  99 135 172 210 250 295
#     4   9  18  31  47  72 104 135 167 203 246 296
#     4   9  18  33  52  77 106 134 163 197 244 298
#     4  11  21  33  52  76 101 131 168 209 252 300
#
# _framework density 16.862252999999999
#
# number of rings (size 3 to 8) (size 9 to 14) (size 15 to 20)
#    0.000    2.250    0.000    4.125    0.000    6.500 
#    0.000    2.500    0.000    0.750    0.000    1.750 
#    0.000    0.000    0.000    0.000    0.000    0.000 
#
# Total GULP energy -178641.401928 kJ/mol
# GULP energy per Si atom -5582.543810 kJ/mol
# Density = 1.682387 g / cm^3
# Si number density = 16.862253 Si / 1000 Ang^3
#
#
#
# Elastic Constant Matrix: (Units=GPa)
#
#
# Indices 1 2 3 4 5 6 
#
# 1 52.3082 45.6065 58.1634 0.0000 0.0000 0.0000
# 2 45.6065 97.1348 98.2522 0.0000 0.0000 0.0000
# 3 58.1634 98.2522 120.0198 0.0000 0.0000 0.0000
# 4 0.0000 0.0000 0.0000 30.2468 0.0000 0.0000
# 5 0.0000 0.0000 0.0000 0.0000 29.8462 0.0000
# 6 0.0000 0.0000 0.0000 0.0000 0.0000 26.7243
#
#
#
# Elastic Compliance Matrix: (Units=1/GPa)
#
#
# Indices 1 2 3 4 5 6 
#
# 1 0.041876 0.005034 -0.024415 0.000000 0.000000 0.000000
# 2 0.005034 0.060478 -0.051949 0.000000 0.000000 0.000000
# 3 -0.024415 -0.051949 0.062691 0.000000 0.000000 0.000000
# 4 0.000000 0.000000 0.000000 0.033061 0.000000 0.000000
# 5 0.000000 0.000000 0.000000 0.000000 0.033505 0.000000
# 6 0.000000 0.000000 0.000000 0.000000 0.000000 0.037419
#
#
# Mechanical properties :
#
#
# Convention : Reuss Voigt Hill
#
# Bulk Modulus (GPa) = 44.67142 74.83413 59.75277
# Shear Modulus (GPa) = 11.92887 21.85950 16.89419
#
# Velocity S-wave (km/s) = 2.66264 3.60440 3.16870
# Velocity P-wave (km/s) = 6.00020 7.86119 6.99288
#
# Compressibility (1/GPa) = 0.02238568
#
# Stress axis : x y z
#
# Youngs Moduli (GPa) = 23.87995 16.53506 15.95127
#
# Poissons Ratio (x) = -0.08325 0.38945
# Poissons Ratio (y) = -0.12022 0.82865
# Poissons Ratio (z) = 0.58303 0.85898
#
# Static dielectric constant tensor:
#      x y z
#    x 1.561020 0.000000 0.000000 
#    y 0.000000 1.542200 0.000000 
#    z 0.000000 0.000000 1.576900 
# 
# From -- ./inp_files/15649.got.cif
#   From: 2010.05.17/outbox.cif.g08.bks.cpg/sg40_8_cif.got.tgz:15649.got - 2010.06.03 18:35:42.
