data_PCOD9363600
_publ_section_title
;
Structure prediction by ZEFSAII (Michael W. Deem and Ramdas Pophale) SiO2 
 PCOD9363600
Probable space group: A M A 2
;
_chemical_formula_sum "Si O2"
_cell_formula_units_Z 64
_cell_length_a 8.183344
_cell_length_b 24.194967
_cell_length_c 19.874994
_cell_angle_alpha 90.000000
_cell_angle_beta 90.000000
_cell_angle_gamma 90.000000
_cell_volume 3935.164105
_symmetry_space_group_name_H-M "A M A 2"
_symmetry_group_IT_number 40
_symmetry_cell_setting 'orthorhombic'
loop_
_space_group_symop_operation_xyz
x,y,z
-x,-y,z
1/2-x,y,z
1/2+x,-y,z
x,1/2+y,1/2+z
-x,1/2-y,1/2+z
1/2-x,1/2+y,1/2+z
1/2+x,1/2-y,1/2+z
loop_
_atom_site_type_symbol
_atom_site_label
_atom_site_fract_x
_atom_site_fract_y
_atom_site_fract_z
Si Si1 0.944172 0.062776 0.468980
Si Si2 0.050754 0.838102 0.380020
Si Si3 0.552518 0.937473 0.749585
Si Si4 0.055062 0.757555 0.609598
Si Si5 0.949263 0.336262 0.337351
Si Si6 0.055173 0.615354 0.109297
Si Si7 0.552853 0.727434 0.753237
Si Si8 0.948916 0.771131 0.963769
O O1 0.750000 0.063221 0.463690
O O2 0.009456 0.104860 0.411931
O O3 0.988341 0.087729 0.541722
O O4 0.000000 0.000000 0.462534
O O5 0.250000 0.839299 0.378890
O O6 0.997979 0.820027 0.305336
O O7 0.006241 0.787589 0.429828
O O8 0.750000 0.935512 0.748807
O O9 0.495074 0.893966 0.806110
O O10 0.494647 0.915437 0.676657
O O11 0.500000 0.000000 0.761080
O O12 0.250000 0.762052 0.605318
O O13 0.994956 0.728957 0.540684
O O14 0.987643 0.819963 0.612720
O O15 0.009812 0.725972 0.677646
O O16 0.750000 0.336986 0.338236
O O17 0.995429 0.285989 0.287389
O O18 0.004345 0.318534 0.411947
O O19 0.250000 0.610137 0.107808
O O20 0.750000 0.726889 0.751297
O O21 0.750000 0.773096 0.964119
#
# Coordination Sequence:
#
# PCOD9363600 Si02
#       8
#     8   8   8   8   8   8   8   8
#     4  11  21  34  49  69  94 126 163 197 235 277
#     4   8  15  29  49  67  87 121 160 192 226 275
#     4  10  20  32  46  64  87 120 156 189 219 259
#     4  11  19  28  46  73  99 122 149 191 240 280
#     4   8  14  28  47  64  84 116 157 187 216 270
#     4  11  21  33  46  65  94 130 166 193 221 269
#     4   9  16  30  50  67  88 121 158 191 227 280
#     4   8  14  26  46  67  87 116 151 186 225 274
#
# _framework density 16.263617
#
# number of rings (size 3 to 8) (size 9 to 14) (size 15 to 20)
#    0.000    2.500    2.500    3.000    0.000    2.000 
#    0.000    1.250    0.000    1.500    0.000    0.875 
#    0.000    6.000    0.000    0.000    0.000    0.000 
#
# Total GULP energy -178373.354279 kJ/mol
# GULP energy per Si atom -5574.167321 kJ/mol
# Density = 1.622660 g / cm^3
# Si number density = 16.263617 Si / 1000 Ang^3
#
#
#
# Elastic Constant Matrix: (Units=GPa)
#
#
# Indices 1 2 3 4 5 6 
#
# 1 7.4119 7.5229 1.3564 0.0000 0.0000 0.0000
# 2 7.5229 109.7990 77.7337 0.0000 0.0000 0.0000
# 3 1.3564 77.7337 140.8493 0.0000 0.0000 0.0000
# 4 0.0000 0.0000 0.0000 29.9649 0.0000 0.0000
# 5 0.0000 0.0000 0.0000 0.0000 -87.1953 0.0000
# 6 0.0000 0.0000 0.0000 0.0000 0.0000 563.3110
#
#
#
# Elastic Compliance Matrix: (Units=1/GPa)
#
#
# Indices 1 2 3 4 5 6 
#
# 1 0.148969 -0.015085 0.006891 0.000000 0.000000 0.000000
# 2 -0.015085 0.016476 -0.008948 0.000000 0.000000 0.000000
# 3 0.006891 -0.008948 0.011971 0.000000 0.000000 0.000000
# 4 0.000000 0.000000 0.000000 0.033372 0.000000 0.000000
# 5 0.000000 0.000000 0.000000 0.000000 -0.011469 0.000000
# 6 0.000000 0.000000 0.000000 0.000000 0.000000 0.001775
#
#
# Mechanical properties :
#
#
# Convention : Reuss Voigt Hill
#
# Bulk Modulus (GPa) = 6.98656 47.92070 27.45363
# Shear Modulus (GPa) = 17.66229 112.64592 65.15410
#
# Velocity S-wave (km/s) = 3.29903 8.33144 6.33626
# Velocity P-wave (km/s) = 4.33781 11.04896 8.39333
#
# Compressibility (1/GPa) = 0.14313204
#
# Stress axis : x y z
#
# Youngs Moduli (GPa) = 6.71283 60.69577 83.53174
#
# Poissons Ratio (x) = 0.91559 -0.57559
# Poissons Ratio (y) = 0.10126 0.74740
# Poissons Ratio (z) = -0.04626 0.54308
#
# Static dielectric constant tensor:
#      x y z
#    x 1.579350 0.000000 0.000000 
#    y 0.000000 1.510920 0.000000 
#    z 0.000000 0.000000 1.568960 
# 
# From -- ./inp_files/19701.got.cif
#   From: 2010.05.17/outbox.cif.g08.bks.cpg/sg40_10_cif.got.tgz:19701.got - 2010.06.03 18:35:42.
