data_PCOD9363990
_publ_section_title
;
Structure prediction by ZEFSAII (Michael W. Deem and Ramdas Pophale) SiO2 
 PCOD9363990
Probable space group: A M A 2
;
_chemical_formula_sum "Si O2"
_cell_formula_units_Z 64
_cell_length_a 16.268744
_cell_length_b 8.625084
_cell_length_c 24.399559
_cell_angle_alpha 90.000000
_cell_angle_beta 90.000000
_cell_angle_gamma 90.000000
_cell_volume 3423.728638
_symmetry_space_group_name_H-M "A M A 2"
_symmetry_group_IT_number 40
_symmetry_cell_setting 'orthorhombic'
loop_
_space_group_symop_operation_xyz
x,y,z
-x,-y,z
1/2-x,y,z
1/2+x,-y,z
x,1/2+y,1/2+z
-x,1/2-y,1/2+z
1/2-x,1/2+y,1/2+z
1/2+x,1/2-y,1/2+z
loop_
_atom_site_type_symbol
_atom_site_label
_atom_site_fract_x
_atom_site_fract_y
_atom_site_fract_z
Si Si1 0.603239 0.330560 0.324320
Si Si2 0.341749 0.304784 0.709490
Si Si3 0.842534 0.820325 0.208805
Si Si4 0.082271 0.105310 0.427742
Si Si5 0.999977 0.811061 0.138911
Si Si6 0.406538 0.307586 0.322522
Si Si7 0.491605 0.184660 0.012659
Si Si8 0.341919 0.295865 0.942214
O O1 0.646186 0.262800 0.270401
O O2 0.505634 0.305178 0.315940
O O3 0.617870 0.513920 0.330768
O O4 0.630971 0.250571 0.380602
O O5 0.250000 0.262002 0.689399
O O6 0.345412 0.492238 0.711794
O O7 0.418814 0.256301 0.671540
O O8 0.750000 0.775754 0.191853
O O9 0.915746 0.764486 0.169212
O O10 0.862882 0.756507 0.268800
O O11 0.109591 0.199262 0.374529
O O12 0.056674 0.226320 0.474516
O O13 0.149013 0.980918 0.445773
O O14 0.000000 0.000000 0.416384
O O15 0.999701 0.764013 0.075522
O O16 0.000000 0.000000 0.139763
O O17 0.404304 0.225695 0.985994
O O18 0.500000 0.000000 0.009593
O O19 0.250000 0.242613 0.951658
#
# Coordination Sequence:
#
# PCOD9363990 Si02
#       8
#     8   8   8   8   8   8   8   8
#     4  11  21  35  57  87 119 152 188 234 295 348
#     4  10  20  36  59  86 115 152 193 234 282 347
#     4  10  21  35  57  87 117 150 195 236 280 343
#     4  10  20  36  59  80 112 150 189 232 282 351
#     4   9  19  36  60  84 113 151 193 239 290 334
#     4  11  21  34  57  86 116 153 189 236 291 348
#     4  10  20  39  63  87 110 152 198 239 293 347
#     4  11  23  38  59  88 117 151 192 240 292 349
#
# _framework density 18.693071
#
# number of rings (size 3 to 8) (size 9 to 14) (size 15 to 20)
#    0.000    1.750    3.750    1.875    0.000    3.000 
#    0.000    8.125    0.000    0.000    0.000    0.000 
#    0.000    0.000    0.000    0.000    0.000    0.000 
#
# Total GULP energy -178631.497993 kJ/mol
# GULP energy per Si atom -5582.234312 kJ/mol
# Density = 1.865053 g / cm^3
# Si number density = 18.693071 Si / 1000 Ang^3
#
#
#
# Elastic Constant Matrix: (Units=GPa)
#
#
# Indices 1 2 3 4 5 6 
#
# 1 101.6108 33.0672 42.5720 0.0000 0.0000 0.0000
# 2 33.0672 55.1327 40.5831 0.0000 0.0000 0.0000
# 3 42.5720 40.5831 114.8503 0.0000 0.0000 0.0000
# 4 0.0000 0.0000 0.0000 26.3370 0.0000 0.0000
# 5 0.0000 0.0000 0.0000 0.0000 7.3575 0.0000
# 6 0.0000 0.0000 0.0000 0.0000 0.0000 11.5555
#
#
#
# Elastic Compliance Matrix: (Units=1/GPa)
#
#
# Indices 1 2 3 4 5 6 
#
# 1 0.012842 -0.005674 -0.002755 0.000000 0.000000 0.000000
# 2 -0.005674 0.027022 -0.007445 0.000000 0.000000 0.000000
# 3 -0.002755 -0.007445 0.012359 0.000000 0.000000 0.000000
# 4 0.000000 0.000000 0.000000 0.037969 0.000000 0.000000
# 5 0.000000 0.000000 0.000000 0.000000 0.135916 0.000000
# 6 0.000000 0.000000 0.000000 0.000000 0.000000 0.086539
#
#
# Mechanical properties :
#
#
# Convention : Reuss Voigt Hill
#
# Bulk Modulus (GPa) = 48.84274 56.00425 52.42349
# Shear Modulus (GPa) = 14.23603 19.40810 16.82206
#
# Velocity S-wave (km/s) = 2.76264 3.22569 3.00310
# Velocity P-wave (km/s) = 6.03007 6.62558 6.33483
#
# Compressibility (1/GPa) = 0.02047387
#
# Stress axis : x y z
#
# Youngs Moduli (GPa) = 77.86651 37.00744 80.91280
#
# Poissons Ratio (x) = 0.21000 0.22294
# Poissons Ratio (y) = 0.44185 0.60239
# Poissons Ratio (z) = 0.21454 0.27552
#
# Static dielectric constant tensor:
#      x y z
#    x 1.678590 0.000000 0.000000 
#    y 0.000000 1.645330 0.000000 
#    z 0.000000 0.000000 1.611030 
# 
# From -- ./inp_files/24940.got.cif
#   From: 2010.05.17/outbox.cif.g08.bks.cpg/sg40_13_cif.got.tgz:24940.got - 2010.06.03 18:35:42.
