data_PCOD9363442
_publ_section_title
;
Structure prediction by ZEFSAII (Michael W. Deem and Ramdas Pophale) SiO2 
 PCOD9363442
Probable space group: A M A 2
;
_chemical_formula_sum "Si O2"
_cell_formula_units_Z 40
_cell_length_a 15.273246
_cell_length_b 13.862114
_cell_length_c 9.883096
_cell_angle_alpha 90.000000
_cell_angle_beta 90.000000
_cell_angle_gamma 90.000000
_cell_volume 2092.443918
_symmetry_space_group_name_H-M "A M A 2"
_symmetry_group_IT_number 40
_symmetry_cell_setting 'orthorhombic'
loop_
_space_group_symop_operation_xyz
x,y,z
-x,-y,z
1/2-x,y,z
1/2+x,-y,z
x,1/2+y,1/2+z
-x,1/2-y,1/2+z
1/2-x,1/2+y,1/2+z
1/2+x,1/2-y,1/2+z
loop_
_atom_site_type_symbol
_atom_site_label
_atom_site_fract_x
_atom_site_fract_y
_atom_site_fract_z
Si Si1 0.410217 0.938732 0.702580
Si Si2 0.063437 0.908745 0.999739
Si Si3 0.980441 0.702891 0.986839
Si Si4 0.649909 0.108391 0.283417
Si Si5 0.346428 0.073267 0.474591
O O1 0.431741 0.842038 0.617977
O O2 0.500000 0.000000 0.710321
O O3 0.350406 0.006357 0.609142
O O4 0.386197 0.918314 0.856770
O O5 0.126801 0.898094 0.126811
O O6 0.000000 0.000000 0.019488
O O7 0.002116 0.814566 0.993520
O O8 0.919123 0.676374 0.860076
O O9 0.072939 0.646396 0.975778
O O10 0.750000 0.140071 0.305291
O O11 0.640566 0.003252 0.353191
O O12 0.250000 0.118158 0.463959
#
# Coordination Sequence:
#
# PCOD9363442 Si02
#       5
#     8   8   8   8   8
#     4   8  17  32  51  76 105 140 182 224 273 325
#     4  11  21  34  53  81 114 149 183 228 280 325
#     4  10  19  36  58  79 109 153 192 225 268 332
#     4  10  21  37  58  84 112 144 184 231 281 332
#     4   9  18  35  58  80 106 144 188 230 274 330
#
# _framework density 19.116401
#
# number of rings (size 3 to 8) (size 9 to 14) (size 15 to 20)
#    0.000    2.400    0.000    4.200    0.000    1.600 
#    0.000    1.000    0.000    8.400    0.000    0.000 
#    0.000    0.000    0.000    0.000    0.000    0.000 
#
# Total GULP energy -111609.124463 kJ/mol
# GULP energy per Si atom -5580.456223 kJ/mol
# Density = 1.907289 g / cm^3
# Si number density = 19.116401 Si / 1000 Ang^3
#
#
#
# Elastic Constant Matrix: (Units=GPa)
#
#
# Indices 1 2 3 4 5 6 
#
# 1 107.5934 48.9526 31.7320 0.0000 0.0000 0.0000
# 2 48.9526 109.7143 27.2920 0.0000 0.0000 0.0000
# 3 31.7320 27.2920 144.6239 0.0000 0.0000 0.0000
# 4 0.0000 0.0000 0.0000 -5.4671 0.0000 0.0000
# 5 0.0000 0.0000 0.0000 0.0000 -8.9926 0.0000
# 6 0.0000 0.0000 0.0000 0.0000 0.0000 5.8441
#
#
#
# Elastic Compliance Matrix: (Units=1/GPa)
#
#
# Indices 1 2 3 4 5 6 
#
# 1 0.012051 -0.004952 -0.001710 0.000000 0.000000 0.000000
# 2 -0.004952 0.011598 -0.001102 0.000000 0.000000 0.000000
# 3 -0.001710 -0.001102 0.007498 0.000000 0.000000 0.000000
# 4 0.000000 0.000000 0.000000 -0.182914 0.000000 0.000000
# 5 0.000000 0.000000 0.000000 0.000000 -0.111202 0.000000
# 6 0.000000 0.000000 0.000000 0.000000 0.000000 0.171114
#
#
# Mechanical properties :
#
#
# Convention : Reuss Voigt Hill
#
# Bulk Modulus (GPa) = 64.02187 64.20943 64.11565
# Shear Modulus (GPa) = -70.30313 15.20722 -27.54796
#
# Velocity S-wave (km/s) = -6.07093 2.82353 -3.80025
# Velocity P-wave (km/s) = 3.94694 6.65518 3.78900
#
# Compressibility (1/GPa) = 0.01561966
#
# Stress axis : x y z
#
# Youngs Moduli (GPa) = 82.97740 86.22037 133.37563
#
# Poissons Ratio (x) = 0.42695 0.22804
# Poissons Ratio (y) = 0.41089 0.14701
# Poissons Ratio (z) = 0.14187 0.09503
#
# Static dielectric constant tensor:
#      x y z
#    x 1.649910 0.000000 0.000000 
#    y 0.000000 1.639990 0.000000 
#    z 0.000000 0.000000 1.693760 
# 
# From -- ./inp_files/6139.got.cif
#   From: 2010.05.17/outbox.cif.g08.bks.cpg/sg40_4_cif.got.tgz:6139.got - 2010.06.03 18:35:42.
