data_PCOD9363846
_publ_section_title
;
Structure prediction by ZEFSAII (Michael W. Deem and Ramdas Pophale) SiO2 
 PCOD9363846
Probable space group: A M A 2
;
_chemical_formula_sum "Si O2"
_cell_formula_units_Z 56
_cell_length_a 8.070353
_cell_length_b 21.420570
_cell_length_c 14.515057
_cell_angle_alpha 90.000000
_cell_angle_beta 90.000000
_cell_angle_gamma 90.000000
_cell_volume 2509.240567
_symmetry_space_group_name_H-M "A M A 2"
_symmetry_group_IT_number 40
_symmetry_cell_setting 'orthorhombic'
loop_
_space_group_symop_operation_xyz
x,y,z
-x,-y,z
1/2-x,y,z
1/2+x,-y,z
x,1/2+y,1/2+z
-x,1/2-y,1/2+z
1/2-x,1/2+y,1/2+z
1/2+x,1/2-y,1/2+z
loop_
_atom_site_type_symbol
_atom_site_label
_atom_site_fract_x
_atom_site_fract_y
_atom_site_fract_z
Si Si1 0.560446 0.069377 0.538190
Si Si2 0.951890 0.247660 0.061654
Si Si3 0.552043 0.068643 0.866270
Si Si4 0.047165 0.396186 0.568111
Si Si5 0.054515 0.433784 0.764132
Si Si6 0.063711 0.667640 0.902472
Si Si7 0.552484 0.855549 0.701018
O O1 0.750000 0.077096 0.506162
O O2 0.441341 0.113696 0.480010
O O3 0.542641 0.092061 0.642394
O O4 0.500000 0.000000 0.529692
O O5 0.750000 0.249904 0.056644
O O6 0.001194 0.176477 0.072479
O O7 0.997755 0.290941 0.149729
O O8 0.013258 0.276431 0.963681
O O9 0.750000 0.071683 0.866056
O O10 0.488371 0.126851 0.805521
O O11 0.500000 0.000000 0.831039
O O12 0.490805 0.075387 0.971504
O O13 0.250000 0.398508 0.568867
O O14 0.984067 0.428782 0.660764
O O15 0.250000 0.437399 0.759009
O O16 0.000000 0.500000 0.807653
O O17 0.014758 0.369501 0.817553
O O18 0.250000 0.685205 0.876375
O O19 0.750000 0.861660 0.689135
#
# Coordination Sequence:
#
# PCOD9363846 Si02
#       7
#     8   8   8   8   8   8   8
#     4  11  20  32  51  77 110 145 184 227 275 331
#     4   8  17  36  59  83 113 147 182 224 280 338
#     4  11  22  37  58  83 113 148 190 235 280 331
#     4   9  20  38  59  82 110 148 190 235 282 329
#     4  11  22  37  58  83 113 148 190 235 280 331
#     4  10  20  35  56  82 113 146 181 225 278 335
#     4  10  20  35  56  82 113 146 181 225 278 335
#
# _framework density 22.317509999999999
#
# number of rings (size 3 to 8) (size 9 to 14) (size 15 to 20)
#    0.000    2.000    0.000    5.143    0.000    1.143 
#    0.000    2.143    0.000   18.857    0.000    0.000 
#    0.000    0.000    0.000    0.000    0.000    0.000 
#
# Total GULP energy -156238.450261 kJ/mol
# GULP energy per Si atom -5579.944652 kJ/mol
# Density = 2.226671 g / cm^3
# Si number density = 22.317510 Si / 1000 Ang^3
#
#
#
# Elastic Constant Matrix: (Units=GPa)
#
#
# Indices 1 2 3 4 5 6 
#
# 1 51.0649 -0.4421 1.4352 0.0000 0.0000 0.0000
# 2 -0.4421 101.1032 16.7573 0.0000 0.0000 0.0000
# 3 1.4352 16.7573 93.7258 0.0000 0.0000 0.0000
# 4 0.0000 0.0000 0.0000 21.7225 0.0000 0.0000
# 5 0.0000 0.0000 0.0000 0.0000 16.0839 0.0000
# 6 0.0000 0.0000 0.0000 0.0000 0.0000 7.5857
#
#
#
# Elastic Compliance Matrix: (Units=1/GPa)
#
#
# Indices 1 2 3 4 5 6 
#
# 1 0.019593 0.000140 -0.000325 0.000000 0.000000 0.000000
# 2 0.000140 0.010194 -0.001825 0.000000 0.000000 0.000000
# 3 -0.000325 -0.001825 0.011001 0.000000 0.000000 0.000000
# 4 0.000000 0.000000 0.000000 0.046035 0.000000 0.000000
# 5 0.000000 0.000000 0.000000 0.000000 0.062174 0.000000
# 6 0.000000 0.000000 0.000000 0.000000 0.000000 0.131826
#
#
# Mechanical properties :
#
#
# Convention : Reuss Voigt Hill
#
# Bulk Modulus (GPa) = 27.19791 31.26608 29.23199
# Shear Modulus (GPa) = 16.82938 24.28800 20.55869
#
# Velocity S-wave (km/s) = 2.74905 3.30251 3.03841
# Velocity P-wave (km/s) = 4.72119 5.34623 5.04340
#
# Compressibility (1/GPa) = 0.03676753
#
# Stress axis : x y z
#
# Youngs Moduli (GPa) = 51.03794 98.09755 90.90380
#
# Poissons Ratio (x) = -0.01369 0.02954
# Poissons Ratio (y) = -0.00712 0.16587
# Poissons Ratio (z) = 0.01659 0.17900
#
# Static dielectric constant tensor:
#      x y z
#    x 1.925760 0.000000 0.000000 
#    y 0.000000 1.810020 0.000000 
#    z 0.000000 0.000000 1.896750 
# 
# From -- ./inp_files/15298.got.cif
#   From: 2010.05.17/outbox.cif.g08.bks.cpg/sg40_8_cif.got.tgz:15298.got - 2010.06.03 18:35:42.
