data_PCOD9363074
_publ_section_title
;
Structure prediction by ZEFSAII (Michael W. Deem and Ramdas Pophale) SiO2 
 PCOD9363074
Probable space group: A M A 2
;
_chemical_formula_sum "Si O2"
_cell_formula_units_Z 64
_cell_length_a 9.111107
_cell_length_b 19.984285
_cell_length_c 20.890800
_cell_angle_alpha 90.000000
_cell_angle_beta 90.000000
_cell_angle_gamma 90.000000
_cell_volume 3803.775116
_symmetry_space_group_name_H-M "A M A 2"
_symmetry_group_IT_number 40
_symmetry_cell_setting 'orthorhombic'
loop_
_space_group_symop_operation_xyz
x,y,z
-x,-y,z
1/2-x,y,z
1/2+x,-y,z
x,1/2+y,1/2+z
-x,1/2-y,1/2+z
1/2-x,1/2+y,1/2+z
1/2+x,1/2-y,1/2+z
loop_
_atom_site_type_symbol
_atom_site_label
_atom_site_fract_x
_atom_site_fract_y
_atom_site_fract_z
Si Si1 0.574572 0.204177 0.717770
Si Si2 0.923787 0.930251 0.913043
Si Si3 0.924592 0.568956 0.877972
Si Si4 0.922860 0.930760 0.759197
Si Si5 0.075730 0.931887 0.530473
Si Si6 0.925478 0.203534 0.960533
Si Si7 0.425994 0.284892 0.073473
Si Si8 0.925649 0.296602 0.837277
O O1 0.750000 0.192483 0.723001
O O2 0.494553 0.133703 0.727051
O O3 0.545494 0.232536 0.647215
O O4 0.532237 0.254692 0.774390
O O5 0.750000 0.932094 0.925851
O O6 0.943524 0.922931 0.836119
O O7 0.999328 0.867489 0.946942
O O8 0.000000 0.000000 0.931529
O O9 0.750000 0.565627 0.869594
O O10 0.000000 0.500000 0.856804
O O11 0.991639 0.633488 0.843938
O O12 0.954547 0.575696 0.954401
O O13 0.750000 0.934380 0.746254
O O14 0.000000 0.000000 0.739949
O O15 0.250000 0.939261 0.538766
O O16 0.029937 0.862602 0.563083
O O17 0.000000 0.000000 0.553254
O O18 0.750000 0.196134 0.964860
O O19 0.957779 0.251438 0.899669
O O20 0.990451 0.238843 0.023179
O O21 0.250000 0.280843 0.061499
O O22 0.750000 0.308091 0.835654
#
# Coordination Sequence:
#
# PCOD9363074 Si02
#       8
#     8   8   8   8   8   8   8   8
#     4  10  21  37  55  76 109 147 182 223 271 322
#     4  10  20  34  55  82 111 142 179 224 273 323
#     4  10  19  32  53  79 107 137 172 219 266 313
#     4  10  20  33  52  77 109 146 184 224 266 320
#     4   9  18  31  48  72 102 137 176 212 254 307
#     4  11  21  34  56  82 109 141 180 227 271 318
#     4  10  21  37  54  76 108 146 183 221 269 322
#     4  10  20  34  54  80 107 140 179 220 266 315
#
# _framework density 16.825389999999999
#
# number of rings (size 3 to 8) (size 9 to 14) (size 15 to 20)
#    0.000    2.000    2.500    1.500    0.000    4.000 
#    0.000    1.250    0.000    0.750    0.000    3.500 
#    0.000    0.000    0.000    0.000    0.000    0.000 
#
# Total GULP energy -178660.543309 kJ/mol
# GULP energy per Si atom -5583.141978 kJ/mol
# Density = 1.678709 g / cm^3
# Si number density = 16.825390 Si / 1000 Ang^3
#
#
#
# Elastic Constant Matrix: (Units=GPa)
#
#
# Indices 1 2 3 4 5 6 
#
# 1 56.5396 64.7895 56.5867 0.0000 0.0000 0.0000
# 2 64.7895 134.0749 63.0302 0.0000 0.0000 0.0000
# 3 56.5867 63.0302 90.9979 0.0000 0.0000 0.0000
# 4 0.0000 0.0000 0.0000 19.8131 0.0000 0.0000
# 5 0.0000 0.0000 0.0000 0.0000 17.9971 0.0000
# 6 0.0000 0.0000 0.0000 0.0000 0.0000 37.9110
#
#
#
# Elastic Compliance Matrix: (Units=1/GPa)
#
#
# Indices 1 2 3 4 5 6 
#
# 1 0.070890 -0.020067 -0.030183 0.000000 0.000000 0.000000
# 2 -0.020067 0.016740 0.000883 0.000000 0.000000 0.000000
# 3 -0.030183 0.000883 0.029147 0.000000 0.000000 0.000000
# 4 0.000000 0.000000 0.000000 0.050472 0.000000 0.000000
# 5 0.000000 0.000000 0.000000 0.000000 0.055564 0.000000
# 6 0.000000 0.000000 0.000000 0.000000 0.000000 0.026378
#
#
# Mechanical properties :
#
#
# Convention : Reuss Voigt Hill
#
# Bulk Modulus (GPa) = 55.42208 72.26947 63.84577
# Shear Modulus (GPa) = 14.12674 21.62464 17.87569
#
# Velocity S-wave (km/s) = 2.90074 3.58891 3.26302
# Velocity P-wave (km/s) = 6.65057 7.76013 7.22668
#
# Compressibility (1/GPa) = 0.01804335
#
# Stress axis : x y z
#
# Youngs Moduli (GPa) = 14.10638 59.73617 34.30917
#
# Poissons Ratio (x) = 1.19872 1.03556
# Poissons Ratio (y) = 0.28307 -0.03030
# Poissons Ratio (z) = 0.42578 -0.05276
#
# Static dielectric constant tensor:
#      x y z
#    x 1.558680 0.000000 0.000000 
#    y 0.000000 1.538950 0.000000 
#    z 0.000000 0.000000 1.565610 
# 
# From -- ./inp_files/19569.got.cif
#   From: 2010.05.17/outbox.cif.g08.bks.cpg/sg40_10_cif.got.tgz:19569.got - 2010.06.03 18:35:42.
