data_PCOD9363085
_publ_section_title
;
Structure prediction by ZEFSAII (Michael W. Deem and Ramdas Pophale) SiO2 
 PCOD9363085
Probable space group: A M A 2
;
_chemical_formula_sum "Si O2"
_cell_formula_units_Z 48
_cell_length_a 14.594164
_cell_length_b 9.572975
_cell_length_c 12.220650
_cell_angle_alpha 90.000000
_cell_angle_beta 90.000000
_cell_angle_gamma 90.000000
_cell_volume 1707.341721
_symmetry_space_group_name_H-M "A M A 2"
_symmetry_group_IT_number 40
_symmetry_cell_setting 'orthorhombic'
loop_
_space_group_symop_operation_xyz
x,y,z
-x,-y,z
1/2-x,y,z
1/2+x,-y,z
x,1/2+y,1/2+z
-x,1/2-y,1/2+z
1/2-x,1/2+y,1/2+z
1/2+x,1/2-y,1/2+z
loop_
_atom_site_type_symbol
_atom_site_label
_atom_site_fract_x
_atom_site_fract_y
_atom_site_fract_z
Si Si1 0.140778 0.952356 0.864890
Si Si2 0.136891 0.257733 0.790077
Si Si3 0.143849 0.551820 0.843434
Si Si4 0.859333 0.829228 0.555351
Si Si5 0.639762 0.646264 0.132765
Si Si6 0.597403 0.940167 0.095823
O O1 0.250000 0.941900 0.849826
O O2 0.106938 0.864014 0.759529
O O3 0.108100 0.109914 0.837857
O O4 0.129762 0.959309 0.996715
O O5 0.250000 0.259514 0.794894
O O6 0.101671 0.396669 0.848948
O O7 0.107779 0.252616 0.662723
O O8 0.250000 0.538890 0.877481
O O9 0.147487 0.571013 0.712730
O O10 0.109055 0.669998 0.928361
O O11 0.750000 0.802338 0.557430
O O12 0.876902 0.992503 0.585033
O O13 0.750000 0.665988 0.127322
O O14 0.597495 0.775486 0.066841
O O15 0.500000 0.000000 0.122844
#
# Coordination Sequence:
#
# PCOD9363085 Si02
#       6
#     8   8   8   8   8   8
#     4   9  18  37  65  88 107 146 201 249 293 341
#     4   8  15  30  57  89 108 127 180 244 288 333
#     4  10  19  32  54  80 109 148 186 231 287 339
#     4   8  15  30  57  87 106 131 180 240 292 331
#     4   9  18  37  64  87 109 145 199 252 291 340
#     4  12  25  38  49  82 126 160 191 231 295 362
#
# _framework density 28.113880000000002
#
# number of rings (size 3 to 8) (size 9 to 14) (size 15 to 20)
#    0.000    2.667    0.000    4.500    0.000    4.000 
#    6.000    3.333    0.000    0.000    0.000    0.000 
#    0.000    0.000    0.000    0.000    0.000    0.000 
#
# Total GULP energy -134048.444562 kJ/mol
# GULP energy per Si atom -5585.351857 kJ/mol
# Density = 2.804989 g / cm^3
# Si number density = 28.113880 Si / 1000 Ang^3
#
#
#
# Elastic Constant Matrix: (Units=GPa)
#
#
# Indices 1 2 3 4 5 6 
#
# 1 59.2237 -5.3863 1.1249 0.0000 0.0000 0.0000
# 2 -5.3863 29.1140 7.8657 0.0000 0.0000 0.0000
# 3 1.1249 7.8657 186.2244 0.0000 0.0000 0.0000
# 4 0.0000 0.0000 0.0000 89.2065 0.0000 0.0000
# 5 0.0000 0.0000 0.0000 0.0000 -1.3209 0.0000
# 6 0.0000 0.0000 0.0000 0.0000 0.0000 38.9138
#
#
#
# Elastic Compliance Matrix: (Units=1/GPa)
#
#
# Indices 1 2 3 4 5 6 
#
# 1 0.017185 0.003244 -0.000241 0.000000 0.000000 0.000000
# 2 0.003244 0.035357 -0.001513 0.000000 0.000000 0.000000
# 3 -0.000241 -0.001513 0.005435 0.000000 0.000000 0.000000
# 4 0.000000 0.000000 0.000000 0.011210 0.000000 0.000000
# 5 0.000000 0.000000 0.000000 0.000000 -0.757063 0.000000
# 6 0.000000 0.000000 0.000000 0.000000 0.000000 0.025698
#
#
# Mechanical properties :
#
#
# Convention : Reuss Voigt Hill
#
# Bulk Modulus (GPa) = 16.40475 31.30784 23.85629
# Shear Modulus (GPa) = -7.75386 43.42372 17.83493
#
# Velocity S-wave (km/s) = -1.66253 3.93436 2.52143
# Velocity P-wave (km/s) = 1.47052 5.63907 4.12078
#
# Compressibility (1/GPa) = 0.06095797
#
# Stress axis : x y z
#
# Youngs Moduli (GPa) = 58.19097 28.28310 183.98498
#
# Poissons Ratio (x) = -0.09176 0.04431
# Poissons Ratio (y) = -0.18880 0.27837
# Poissons Ratio (z) = 0.01401 0.04279
#
# Static dielectric constant tensor:
#      x y z
#    x 2.117560 0.000000 0.000000 
#    y 0.000000 2.316610 0.000000 
#    z 0.000000 0.000000 2.385980 
# 
# From -- ./inp_files/12868.got.cif
#   From: 2010.05.17/outbox.cif.g08.bks.cpg/sg40_7_cif.got.tgz:12868.got - 2010.06.03 18:35:42.
