data_PCOD9363890
_publ_section_title
;
Structure prediction by ZEFSAII (Michael W. Deem and Ramdas Pophale) SiO2 
 PCOD9363890
Probable space group: A M A 2
;
_chemical_formula_sum "Si O2"
_cell_formula_units_Z 48
_cell_length_a 14.518936
_cell_length_b 18.221424
_cell_length_c 9.243970
_cell_angle_alpha 90.000000
_cell_angle_beta 90.000000
_cell_angle_gamma 90.000000
_cell_volume 2445.544851
_symmetry_space_group_name_H-M "A M A 2"
_symmetry_group_IT_number 40
_symmetry_cell_setting 'orthorhombic'
loop_
_space_group_symop_operation_xyz
x,y,z
-x,-y,z
1/2-x,y,z
1/2+x,-y,z
x,1/2+y,1/2+z
-x,1/2-y,1/2+z
1/2-x,1/2+y,1/2+z
1/2+x,1/2-y,1/2+z
loop_
_atom_site_type_symbol
_atom_site_label
_atom_site_fract_x
_atom_site_fract_y
_atom_site_fract_z
Si Si1 0.982169 0.151976 0.654670
Si Si2 0.644397 0.032168 0.354944
Si Si3 0.142418 0.712993 0.635465
Si Si4 0.854658 0.862225 0.831431
Si Si5 0.034854 0.612445 0.840179
Si Si6 0.146548 0.973288 0.707625
O O1 0.905731 0.209566 0.602252
O O2 0.929501 0.087640 0.741618
O O3 0.064699 0.182048 0.752175
O O4 0.031701 0.120891 0.512558
O O5 0.750000 0.042925 0.310852
O O6 0.571513 0.093648 0.304779
O O7 0.643122 0.024943 0.531130
O O8 0.599700 0.956455 0.301418
O O9 0.250000 0.722271 0.671554
O O10 0.137105 0.657149 0.500183
O O11 0.081947 0.680561 0.764745
O O12 0.750000 0.842368 0.787672
O O13 0.867084 0.947468 0.782517
O O14 0.250000 0.949144 0.746802
#
# Coordination Sequence:
#
# PCOD9363890 Si02
#       6
#     8   8   8   8   8   8
#     4  11  20  37  60  86 113 153 200 244 283 355
#     4   9  17  33  59  87 108 140 195 249 286 334
#     4  11  24  39  55  83 124 159 189 239 308 362
#     4  10  21  37  58  85 116 154 195 242 297 356
#     4  10  20  35  59  84 113 153 195 238 292 352
#     4   9  17  33  60  87 109 143 196 247 287 336
#
# _framework density 19.627528000000002
#
# number of rings (size 3 to 8) (size 9 to 14) (size 15 to 20)
#    0.000    2.000    1.667    2.500    0.000    1.333 
#    6.000    0.833    0.000    1.000    0.000    0.000 
#    0.000    0.000    0.000    0.000    0.000    0.000 
#
# Total GULP energy -133742.708309 kJ/mol
# GULP energy per Si atom -5572.612846 kJ/mol
# Density = 1.958285 g / cm^3
# Si number density = 19.627528 Si / 1000 Ang^3
#
#
#
# Elastic Constant Matrix: (Units=GPa)
#
#
# Indices 1 2 3 4 5 6 
#
# 1 172.8635 37.8763 44.1009 0.0000 0.0000 0.0000
# 2 37.8763 45.8206 13.8635 0.0000 0.0000 0.0000
# 3 44.1009 13.8635 22.6219 0.0000 0.0000 0.0000
# 4 0.0000 0.0000 0.0000 16.3560 0.0000 0.0000
# 5 0.0000 0.0000 0.0000 0.0000 18.6943 0.0000
# 6 0.0000 0.0000 0.0000 0.0000 0.0000 28.9827
#
#
#
# Elastic Compliance Matrix: (Units=1/GPa)
#
#
# Indices 1 2 3 4 5 6 
#
# 1 0.011942 -0.003471 -0.021154 0.000000 0.000000 0.000000
# 2 -0.003471 0.027801 -0.010270 0.000000 0.000000 0.000000
# 3 -0.021154 -0.010270 0.091737 0.000000 0.000000 0.000000
# 4 0.000000 0.000000 0.000000 0.061140 0.000000 0.000000
# 5 0.000000 0.000000 0.000000 0.000000 0.053492 0.000000
# 6 0.000000 0.000000 0.000000 0.000000 0.000000 0.034503
#
#
# Mechanical properties :
#
#
# Convention : Reuss Voigt Hill
#
# Bulk Modulus (GPa) = 16.20996 48.10969 32.15982
# Shear Modulus (GPa) = 13.47818 22.50429 17.99124
#
# Velocity S-wave (km/s) = 2.62334 3.38977 3.03088
# Velocity P-wave (km/s) = 4.17763 6.31548 5.35434
#
# Compressibility (1/GPa) = 0.06169048
#
# Stress axis : x y z
#
# Youngs Moduli (GPa) = 83.73608 35.96978 10.90068
#
# Poissons Ratio (x) = 0.12487 0.23059
# Poissons Ratio (y) = 0.29069 0.11195
# Poissons Ratio (z) = 1.77133 0.36941
#
# Static dielectric constant tensor:
#      x y z
#    x 1.702350 0.000000 0.000000 
#    y 0.000000 1.724450 0.000000 
#    z 0.000000 0.000000 1.688300 
# 
# From -- ./inp_files/6428.got.cif
#   From: 2010.05.17/outbox.cif.g08.bks.cpg/sg40_4_cif.got.tgz:6428.got - 2010.06.03 18:35:42.
