data_PCOD9363983
_publ_section_title
;
Structure prediction by ZEFSAII (Michael W. Deem and Ramdas Pophale) SiO2 
 PCOD9363983
Probable space group: A M A 2
;
_chemical_formula_sum "Si O2"
_cell_formula_units_Z 64
_cell_length_a 18.611090
_cell_length_b 5.577265
_cell_length_c 29.451084
_cell_angle_alpha 90.000000
_cell_angle_beta 90.000000
_cell_angle_gamma 90.000000
_cell_volume 3056.992505
_symmetry_space_group_name_H-M "A M A 2"
_symmetry_group_IT_number 40
_symmetry_cell_setting 'orthorhombic'
loop_
_space_group_symop_operation_xyz
x,y,z
-x,-y,z
1/2-x,y,z
1/2+x,-y,z
x,1/2+y,1/2+z
-x,1/2-y,1/2+z
1/2-x,1/2+y,1/2+z
1/2+x,1/2-y,1/2+z
loop_
_atom_site_type_symbol
_atom_site_label
_atom_site_fract_x
_atom_site_fract_y
_atom_site_fract_z
Si Si1 0.427847 0.884793 0.950650
Si Si2 0.586959 0.725540 0.730917
Si Si3 0.170016 0.549124 0.998653
Si Si4 0.836228 0.723438 0.084873
Si Si5 0.338014 0.283325 0.634633
Si Si6 0.829120 0.223577 0.403720
Si Si7 0.920878 0.719951 0.265814
Si Si8 0.430073 0.626146 0.858573
O O1 0.450059 0.711480 0.909021
O O2 0.500000 0.000000 0.968302
O O3 0.376959 0.062891 0.922616
O O4 0.384778 0.762831 0.991186
O O5 0.613347 0.692033 0.679503
O O6 0.611660 0.482982 0.756338
O O7 0.501467 0.754832 0.743622
O O8 0.616200 0.987459 0.744666
O O9 0.250000 0.631999 0.013403
O O10 0.143527 0.346679 0.033271
O O11 0.176676 0.443946 0.948247
O O12 0.750000 0.737619 0.085038
O O13 0.854187 0.479318 0.112884
O O14 0.858336 0.983231 0.103916
O O15 0.250000 0.291670 0.642517
O O16 0.750000 0.307189 0.390593
O O17 0.866950 0.064088 0.365707
O O18 0.917019 0.677377 0.320173
O O19 0.500000 0.500000 0.838898
#
# Coordination Sequence:
#
# PCOD9363983 Si02
#       8
#     8   8   8   8   8   8   8   8
#     4  11  22  33  62  86 122 168 210 261 322 377
#     4  10  20  36  58  88 114 150 196 262 303 366
#     4   9  20  37  57  88 123 162 212 260 314 377
#     4   9  19  35  61  89 118 161 205 248 302 381
#     4  10  20  36  60  91 122 153 198 255 318 378
#     4  10  22  38  59  88 125 162 207 265 316 369
#     4  10  22  36  64  83 114 155 215 247 298 378
#     4  11  21  38  60  88 118 166 217 262 307 383
#
# _framework density 20.935608999999999
#
# number of rings (size 3 to 8) (size 9 to 14) (size 15 to 20)
#    0.000    2.000    2.500    1.125    5.250    0.500 
#    0.000    1.250    2.750    1.500    0.000    0.000 
#    0.000    0.000    0.000    0.000    0.000    0.000 
#
# Total GULP energy -178201.807832 kJ/mol
# GULP energy per Si atom -5568.806495 kJ/mol
# Density = 2.088796 g / cm^3
# Si number density = 20.935609 Si / 1000 Ang^3
#
#
#
# Elastic Constant Matrix: (Units=GPa)
#
#
# Indices 1 2 3 4 5 6 
#
# 1 63.5530 29.0244 18.0456 0.0000 0.0000 0.0000
# 2 29.0244 122.6208 26.2913 0.0000 0.0000 0.0000
# 3 18.0456 26.2913 86.7231 0.0000 0.0000 0.0000
# 4 0.0000 0.0000 0.0000 59.7827 0.0000 0.0000
# 5 0.0000 0.0000 0.0000 0.0000 22.8938 0.0000
# 6 0.0000 0.0000 0.0000 0.0000 0.0000 18.1485
#
#
#
# Elastic Compliance Matrix: (Units=1/GPa)
#
#
# Indices 1 2 3 4 5 6 
#
# 1 0.018195 -0.003738 -0.002653 0.000000 0.000000 0.000000
# 2 -0.003738 0.009490 -0.002099 0.000000 0.000000 0.000000
# 3 -0.002653 -0.002099 0.012719 0.000000 0.000000 0.000000
# 4 0.000000 0.000000 0.000000 0.016727 0.000000 0.000000
# 5 0.000000 0.000000 0.000000 0.000000 0.043680 0.000000
# 6 0.000000 0.000000 0.000000 0.000000 0.000000 0.055101
#
#
# Mechanical properties :
#
#
# Convention : Reuss Voigt Hill
#
# Bulk Modulus (GPa) = 42.69036 46.62438 44.65737
# Shear Modulus (GPa) = 27.66995 33.46737 30.56866
#
# Velocity S-wave (km/s) = 3.63942 4.00257 3.82531
# Velocity P-wave (km/s) = 6.17220 6.60904 6.39435
#
# Compressibility (1/GPa) = 0.02342449
#
# Stress axis : x y z
#
# Youngs Moduli (GPa) = 54.95916 105.37285 78.62009
#
# Poissons Ratio (x) = 0.39389 0.20857
# Poissons Ratio (y) = 0.20544 0.16504
# Poissons Ratio (z) = 0.14580 0.22120
#
# Static dielectric constant tensor:
#      x y z
#    x 1.751380 0.000000 0.000000 
#    y 0.000000 1.908690 0.000000 
#    z 0.000000 0.000000 1.773750 
# 
# From -- ./inp_files/25859.got.cif
#   From: 2010.05.17/outbox.cif.g08.bks.cpg/sg40_13_cif.got.tgz:25859.got - 2010.06.03 18:35:42.
