data_PCOD9363044
_publ_section_title
;
Structure prediction by ZEFSAII (Michael W. Deem and Ramdas Pophale) SiO2 
 PCOD9363044
Probable space group: A M A 2
;
_chemical_formula_sum "Si O2"
_cell_formula_units_Z 64
_cell_length_a 8.621469
_cell_length_b 28.576938
_cell_length_c 15.001872
_cell_angle_alpha 90.000000
_cell_angle_beta 90.000000
_cell_angle_gamma 90.000000
_cell_volume 3696.088991
_symmetry_space_group_name_H-M "A M A 2"
_symmetry_group_IT_number 40
_symmetry_cell_setting 'orthorhombic'
loop_
_space_group_symop_operation_xyz
x,y,z
-x,-y,z
1/2-x,y,z
1/2+x,-y,z
x,1/2+y,1/2+z
-x,1/2-y,1/2+z
1/2-x,1/2+y,1/2+z
1/2+x,1/2-y,1/2+z
loop_
_atom_site_type_symbol
_atom_site_label
_atom_site_fract_x
_atom_site_fract_y
_atom_site_fract_z
Si Si1 0.434698 0.666284 0.191730
Si Si2 0.064657 0.135660 0.887753
Si Si3 0.067637 0.263496 0.769088
Si Si4 0.565370 0.051294 0.000454
Si Si5 0.433612 0.365854 0.811249
Si Si6 0.070753 0.270418 0.447706
Si Si7 0.565883 0.448975 0.696796
Si Si8 0.060934 0.669442 0.999701
O O1 0.250000 0.657498 0.192033
O O2 0.492415 0.645354 0.285796
O O3 0.451891 0.722773 0.197311
O O4 0.491733 0.649280 0.095383
O O5 0.250000 0.131513 0.885714
O O6 0.020631 0.181062 0.947097
O O7 0.991379 0.090082 0.931273
O O8 0.250000 0.259519 0.799440
O O9 0.041434 0.318226 0.753025
O O10 0.951959 0.248417 0.847110
O O11 0.750000 0.049565 0.002899
O O12 0.503668 0.062853 0.099587
O O13 0.500000 0.000000 0.977838
O O14 0.250000 0.374738 0.813373
O O15 0.518401 0.409350 0.766762
O O16 0.491893 0.354136 0.911273
O O17 0.250000 0.279515 0.469209
O O18 0.015821 0.224515 0.499962
O O19 0.500000 0.500000 0.721954
O O20 0.750000 0.452138 0.688899
O O21 0.750000 0.332213 0.993802
#
# Coordination Sequence:
#
# PCOD9363044 Si02
#       8
#     8   8   8   8   8   8   8   8
#     4   8  15  29  49  71  99 138 179 214 249 293
#     4  10  19  33  52  74 102 137 175 213 257 308
#     4   8  15  28  45  65  95 135 173 209 250 295
#     4  11  22  38  58  80 104 129 161 204 256 311
#     4  10  19  32  51  76 105 138 174 212 257 306
#     4   9  16  26  43  68  98 132 172 215 254 293
#     4  11  22  38  58  80 104 130 163 205 255 309
#     4   9  17  30  48  72 103 141 181 218 257 299
#
# _framework density 17.315601000000001
#
# number of rings (size 3 to 8) (size 9 to 14) (size 15 to 20)
#    0.000    2.500    0.000    4.875    0.000    2.000 
#    0.000    5.625    0.000    0.750    0.000    3.500 
#    0.000    0.000    0.000    0.000    0.000    0.000 
#
# Total GULP energy -178207.118466 kJ/mol
# GULP energy per Si atom -5568.972452 kJ/mol
# Density = 1.727619 g / cm^3
# Si number density = 17.315601 Si / 1000 Ang^3
#
#
#
# Elastic Constant Matrix: (Units=GPa)
#
#
# Indices 1 2 3 4 5 6 
#
# 1 80.1346 46.3966 34.4894 0.0000 0.0000 0.0000
# 2 46.3966 107.3067 72.8230 0.0000 0.0000 0.0000
# 3 34.4894 72.8230 98.6800 0.0000 0.0000 0.0000
# 4 0.0000 0.0000 0.0000 20.0313 0.0000 0.0000
# 5 0.0000 0.0000 0.0000 0.0000 18.4860 0.0000
# 6 0.0000 0.0000 0.0000 0.0000 0.0000 27.0960
#
#
#
# Elastic Compliance Matrix: (Units=1/GPa)
#
#
# Indices 1 2 3 4 5 6 
#
# 1 0.016697 -0.006529 -0.001018 0.000000 0.000000 0.000000
# 2 -0.006529 0.021221 -0.013379 0.000000 0.000000 0.000000
# 3 -0.001018 -0.013379 0.020363 0.000000 0.000000 0.000000
# 4 0.000000 0.000000 0.000000 0.049922 0.000000 0.000000
# 5 0.000000 0.000000 0.000000 0.000000 0.054095 0.000000
# 6 0.000000 0.000000 0.000000 0.000000 0.000000 0.036906
#
#
# Mechanical properties :
#
#
# Convention : Reuss Voigt Hill
#
# Bulk Modulus (GPa) = 60.86275 65.94884 63.40580
# Shear Modulus (GPa) = 20.28137 21.95016 21.11577
#
# Velocity S-wave (km/s) = 3.42611 3.56427 3.49587
# Velocity P-wave (km/s) = 7.13276 7.42346 7.27956
#
# Compressibility (1/GPa) = 0.01643041
#
# Stress axis : x y z
#
# Youngs Moduli (GPa) = 59.89092 47.12204 49.10903
#
# Poissons Ratio (x) = 0.30764 0.04998
# Poissons Ratio (y) = 0.39101 0.65703
# Poissons Ratio (z) = 0.06096 0.63045
#
# Static dielectric constant tensor:
#      x y z
#    x 1.584670 0.000000 0.000000 
#    y 0.000000 1.584240 0.000000 
#    z 0.000000 0.000000 1.608170 
# 
# From -- ./inp_files/15917.got.cif
#   From: 2010.05.17/outbox.cif.g08.bks.cpg/sg40_8_cif.got.tgz:15917.got - 2010.06.03 18:35:42.
