data_PCOD9363738
_publ_section_title
;
Structure prediction by ZEFSAII (Michael W. Deem and Ramdas Pophale) SiO2 
 PCOD9363738
Probable space group: A M A 2
;
_chemical_formula_sum "Si O2"
_cell_formula_units_Z 56
_cell_length_a 8.912635
_cell_length_b 24.275722
_cell_length_c 13.967828
_cell_angle_alpha 90.000000
_cell_angle_beta 90.000000
_cell_angle_gamma 90.000000
_cell_volume 3022.088339
_symmetry_space_group_name_H-M "A M A 2"
_symmetry_group_IT_number 40
_symmetry_cell_setting 'orthorhombic'
loop_
_space_group_symop_operation_xyz
x,y,z
-x,-y,z
1/2-x,y,z
1/2+x,-y,z
x,1/2+y,1/2+z
-x,1/2-y,1/2+z
1/2-x,1/2+y,1/2+z
1/2+x,1/2-y,1/2+z
loop_
_atom_site_type_symbol
_atom_site_label
_atom_site_fract_x
_atom_site_fract_y
_atom_site_fract_z
Si Si1 0.928834 0.882251 0.417000
Si Si2 0.571675 0.335397 0.409040
Si Si3 0.429063 0.940504 0.589433
Si Si4 0.430260 0.161186 0.129611
Si Si5 0.071905 0.731711 0.810493
Si Si6 0.928383 0.058906 0.814445
Si Si7 0.429442 0.941022 0.235643
O O1 0.750000 0.891854 0.415379
O O2 0.955700 0.819905 0.381550
O O3 0.996676 0.896081 0.519871
O O4 0.007644 0.921570 0.338903
O O5 0.750000 0.340831 0.400474
O O6 0.535565 0.324479 0.520483
O O7 0.514455 0.285157 0.344806
O O8 0.495756 0.391830 0.375708
O O9 0.250000 0.942137 0.575537
O O10 0.459726 0.930204 0.701613
O O11 0.500000 0.000000 0.565560
O O12 0.250000 0.152058 0.139418
O O13 0.469833 0.208929 0.205427
O O14 0.513763 0.105895 0.162739
O O15 0.250000 0.743283 0.810806
O O16 0.750000 0.055988 0.826406
O O17 0.000000 0.000000 0.838881
O O18 0.250000 0.943852 0.237438
O O19 0.500000 0.000000 0.211730
#
# Coordination Sequence:
#
# PCOD9363738 Si02
#       7
#     8   8   8   8   8   8   8
#     4  10  20  35  55  81 115 152 189 233 281 330
#     4  11  23  39  62  87 112 145 186 229 278 335
#     4  10  20  34  54  81 113 150 190 233 279 331
#     4   9  21  41  59  80 112 148 186 232 280 328
#     4   9  20  39  59  80 111 147 184 228 278 328
#     4  10  22  40  60  83 114 148 186 232 280 330
#     4  11  21  34  55  82 113 150 190 233 280 334
#
# _framework density 18.530232000000002
#
# number of rings (size 3 to 8) (size 9 to 14) (size 15 to 20)
#    0.000    2.000    0.000    4.286    0.000    7.429 
#    0.000    4.286    0.000    0.000    0.000    0.000 
#    0.000    0.000    0.000    0.000    0.000    0.000 
#
# Total GULP energy -156432.708437 kJ/mol
# GULP energy per Si atom -5586.882444 kJ/mol
# Density = 1.848806 g / cm^3
# Si number density = 18.530232 Si / 1000 Ang^3
#
#
#
# Elastic Constant Matrix: (Units=GPa)
#
#
# Indices 1 2 3 4 5 6 
#
# 1 75.5832 64.4601 58.6790 0.0000 0.0000 0.0000
# 2 64.4601 117.0311 82.2218 0.0000 0.0000 0.0000
# 3 58.6790 82.2218 102.5828 0.0000 0.0000 0.0000
# 4 0.0000 0.0000 0.0000 15.5030 0.0000 0.0000
# 5 0.0000 0.0000 0.0000 0.0000 41.8120 0.0000
# 6 0.0000 0.0000 0.0000 0.0000 0.0000 35.4425
#
#
#
# Elastic Compliance Matrix: (Units=1/GPa)
#
#
# Indices 1 2 3 4 5 6 
#
# 1 0.027718 -0.009448 -0.008282 0.000000 0.000000 0.000000
# 2 -0.009448 0.022779 -0.012853 0.000000 0.000000 0.000000
# 3 -0.008282 -0.012853 0.024788 0.000000 0.000000 0.000000
# 4 0.000000 0.000000 0.000000 0.064504 0.000000 0.000000
# 5 0.000000 0.000000 0.000000 0.000000 0.023917 0.000000
# 6 0.000000 0.000000 0.000000 0.000000 0.000000 0.028215
#
#
# Mechanical properties :
#
#
# Convention : Reuss Voigt Hill
#
# Bulk Modulus (GPa) = 70.83366 78.43542 74.63454
# Shear Modulus (GPa) = 19.39537 24.54058 21.96797
#
# Velocity S-wave (km/s) = 3.23877 3.64311 3.44687
# Velocity P-wave (km/s) = 7.23154 7.75349 7.49706
#
# Compressibility (1/GPa) = 0.01411758
#
# Stress axis : x y z
#
# Youngs Moduli (GPa) = 36.07735 43.90027 40.34220
#
# Poissons Ratio (x) = 0.41478 0.33413
# Poissons Ratio (y) = 0.34086 0.51853
# Poissons Ratio (z) = 0.29881 0.56426
#
# Static dielectric constant tensor:
#      x y z
#    x 1.607150 0.000000 0.000000 
#    y 0.000000 1.606160 0.000000 
#    z 0.000000 0.000000 1.643380 
# 
# From -- ./inp_files/15358.got.cif
#   From: 2010.05.17/outbox.cif.g08.bks.cpg/sg40_8_cif.got.tgz:15358.got - 2010.06.03 18:35:42.
