data_PCOD9363662
_publ_section_title
;
Structure prediction by ZEFSAII (Michael W. Deem and Ramdas Pophale) SiO2 
 PCOD9363662
Probable space group: A M A 2
;
_chemical_formula_sum "Si O2"
_cell_formula_units_Z 56
_cell_length_a 9.401988
_cell_length_b 15.547334
_cell_length_c 19.500982
_cell_angle_alpha 90.000000
_cell_angle_beta 90.000000
_cell_angle_gamma 90.000000
_cell_volume 2850.572575
_symmetry_space_group_name_H-M "A M A 2"
_symmetry_group_IT_number 40
_symmetry_cell_setting 'orthorhombic'
loop_
_space_group_symop_operation_xyz
x,y,z
-x,-y,z
1/2-x,y,z
1/2+x,-y,z
x,1/2+y,1/2+z
-x,1/2-y,1/2+z
1/2-x,1/2+y,1/2+z
1/2+x,1/2-y,1/2+z
loop_
_atom_site_type_symbol
_atom_site_label
_atom_site_fract_x
_atom_site_fract_y
_atom_site_fract_z
Si Si1 0.079655 0.410404 0.387380
Si Si2 0.588596 0.919927 0.655518
Si Si3 0.095257 0.111624 0.497936
Si Si4 0.413211 0.735914 0.812457
Si Si5 0.586399 0.256081 0.654112
Si Si6 0.584172 0.081690 0.374554
Si Si7 0.913754 0.684740 0.529301
O O1 0.250000 0.424244 0.385577
O O2 0.047709 0.334165 0.332620
O O3 0.043931 0.372086 0.463386
O O4 0.000000 0.500000 0.375228
O O5 0.750000 0.915238 0.682533
O O6 0.598988 0.928340 0.573109
O O7 0.502857 0.831692 0.661401
O O8 0.500000 0.000000 0.684055
O O9 0.250000 0.091817 0.464398
O O10 0.086982 0.215019 0.506500
O O11 0.959704 0.084364 0.454504
O O12 0.250000 0.725489 0.837713
O O13 0.413326 0.712704 0.732267
O O14 0.518907 0.669959 0.847360
O O15 0.750000 0.238485 0.633804
O O16 0.512670 0.315593 0.596672
O O17 0.750000 0.075757 0.362854
O O18 0.500000 0.000000 0.344567
O O19 0.750000 0.663245 0.547466
#
# Coordination Sequence:
#
# PCOD9363662 Si02
#       7
#     8   8   8   8   8   8   8
#     4  10  21  39  63  90 122 162 206 254 307 362
#     4  10  20  33  51  77 113 151 190 234 283 346
#     4   9  17  33  55  79 111 149 185 228 285 341
#     4  10  22  43  62  83 121 162 200 247 307 365
#     4  10  21  36  59  84 112 153 197 247 304 362
#     4  12  24  36  57  86 115 149 189 239 294 355
#     4   9  18  36  60  83 115 157 194 242 298 351
#
# _framework density 19.645178000000001
#
# number of rings (size 3 to 8) (size 9 to 14) (size 15 to 20)
#    0.000    2.000    1.429    3.429    0.000    6.857 
#    0.000    2.143    0.000    1.714    0.000    0.000 
#    0.000    0.000    0.000    0.000    0.000    0.000 
#
# Total GULP energy -156173.438070 kJ/mol
# GULP energy per Si atom -5577.622788 kJ/mol
# Density = 1.960046 g / cm^3
# Si number density = 19.645178 Si / 1000 Ang^3
#
#
#
# Elastic Constant Matrix: (Units=GPa)
#
#
# Indices 1 2 3 4 5 6 
#
# 1 126.3083 40.3555 27.4508 0.0000 0.0000 0.0000
# 2 40.3555 78.3165 8.8718 0.0000 0.0000 0.0000
# 3 27.4508 8.8718 63.7303 0.0000 0.0000 0.0000
# 4 0.0000 0.0000 0.0000 8.5136 0.0000 0.0000
# 5 0.0000 0.0000 0.0000 0.0000 19.0297 0.0000
# 6 0.0000 0.0000 0.0000 0.0000 0.0000 22.2204
#
#
#
# Elastic Compliance Matrix: (Units=1/GPa)
#
#
# Indices 1 2 3 4 5 6 
#
# 1 0.010291 -0.004878 -0.003754 0.000000 0.000000 0.000000
# 2 -0.004878 0.015285 -0.000027 0.000000 0.000000 0.000000
# 3 -0.003754 -0.000027 0.017312 0.000000 0.000000 0.000000
# 4 0.000000 0.000000 0.000000 0.117459 0.000000 0.000000
# 5 0.000000 0.000000 0.000000 0.000000 0.052549 0.000000
# 6 0.000000 0.000000 0.000000 0.000000 0.000000 0.045004
#
#
# Mechanical properties :
#
#
# Convention : Reuss Voigt Hill
#
# Bulk Modulus (GPa) = 39.10600 46.85681 42.98141
# Shear Modulus (GPa) = 17.62167 22.73121 20.17644
#
# Velocity S-wave (km/s) = 2.99824 3.40529 3.20823
# Velocity P-wave (km/s) = 5.65113 6.27413 5.97076
#
# Compressibility (1/GPa) = 0.02557152
#
# Stress axis : x y z
#
# Youngs Moduli (GPa) = 97.16835 65.42280 57.76424
#
# Poissons Ratio (x) = 0.31912 0.21684
# Poissons Ratio (y) = 0.47397 0.00155
# Poissons Ratio (z) = 0.36475 0.00175
#
# Static dielectric constant tensor:
#      x y z
#    x 1.682970 0.000000 0.000000 
#    y 0.000000 1.693420 0.000000 
#    z 0.000000 0.000000 1.734610 
# 
# From -- ./inp_files/22189.got.cif
#   From: 2010.05.17/outbox.cif.g08.bks.cpg/sg40_12_cif.got.tgz:22189.got - 2010.06.03 18:35:42.
