data_PCOD9363295
_publ_section_title
;
Structure prediction by ZEFSAII (Michael W. Deem and Ramdas Pophale) SiO2 
 PCOD9363295
Probable space group: A M A 2
;
_chemical_formula_sum "Si O2"
_cell_formula_units_Z 48
_cell_length_a 17.524140
_cell_length_b 9.018091
_cell_length_c 16.560272
_cell_angle_alpha 90.000000
_cell_angle_beta 90.000000
_cell_angle_gamma 90.000000
_cell_volume 2617.090815
_symmetry_space_group_name_H-M "A M A 2"
_symmetry_group_IT_number 40
_symmetry_cell_setting 'orthorhombic'
loop_
_space_group_symop_operation_xyz
x,y,z
-x,-y,z
1/2-x,y,z
1/2+x,-y,z
x,1/2+y,1/2+z
-x,1/2-y,1/2+z
1/2-x,1/2+y,1/2+z
1/2+x,1/2-y,1/2+z
loop_
_atom_site_type_symbol
_atom_site_label
_atom_site_fract_x
_atom_site_fract_y
_atom_site_fract_z
Si Si1 0.084457 0.433409 0.245460
Si Si2 0.839075 0.316528 0.153621
Si Si3 0.837768 0.646409 0.827191
Si Si4 0.581282 0.916804 0.233271
Si Si5 0.158369 0.063336 0.904794
Si Si6 0.088714 0.951078 0.069737
O O1 0.129682 0.519935 0.174389
O O2 0.076887 0.258202 0.236527
O O3 0.126138 0.470788 0.329523
O O4 0.000000 0.500000 0.248026
O O5 0.750000 0.317110 0.128260
O O6 0.842271 0.233689 0.241122
O O7 0.892466 0.219479 0.094168
O O8 0.750000 0.618247 0.846306
O O9 0.877939 0.491642 0.809631
O O10 0.869075 0.766041 0.890805
O O11 0.500000 0.000000 0.230640
O O12 0.619920 0.960136 0.148050
O O13 0.250000 0.064790 0.900091
O O14 0.130575 0.996726 0.988415
O O15 0.000000 0.000000 0.060776
#
# Coordination Sequence:
#
# PCOD9363295 Si02
#       6
#     8   8   8   8   8   8
#     4  11  20  34  57  81 108 144 189 239 287 347
#     4   9  18  34  54  79 111 147 184 229 284 345
#     4   8  16  31  51  73 102 137 175 215 263 327
#     4  10  20  34  54  80 107 137 182 235 285 337
#     4  10  20  35  54  79 110 147 186 229 285 347
#     4  10  19  34  56  82 111 146 189 231 281 345
#
# _framework density 18.340976999999999
#
# number of rings (size 3 to 8) (size 9 to 14) (size 15 to 20)
#    0.000    2.333    0.000    6.500    0.000    2.000 
#    0.000    1.667    0.000    6.000    0.000    0.000 
#    0.000    0.000    0.000    0.000    0.000    0.000 
#
# Total GULP energy -133713.425659 kJ/mol
# GULP energy per Si atom -5571.392736 kJ/mol
# Density = 1.829923 g / cm^3
# Si number density = 18.340977 Si / 1000 Ang^3
#
#
#
# Elastic Constant Matrix: (Units=GPa)
#
#
# Indices 1 2 3 4 5 6 
#
# 1 72.6936 42.7084 24.3907 0.0000 0.0000 0.0000
# 2 42.7084 179.6257 49.6008 0.0000 0.0000 0.0000
# 3 24.3907 49.6008 79.0283 0.0000 0.0000 0.0000
# 4 0.0000 0.0000 0.0000 22.6989 0.0000 0.0000
# 5 0.0000 0.0000 0.0000 0.0000 -24.5247 0.0000
# 6 0.0000 0.0000 0.0000 0.0000 0.0000 24.6642
#
#
#
# Elastic Compliance Matrix: (Units=1/GPa)
#
#
# Indices 1 2 3 4 5 6 
#
# 1 0.016636 -0.003070 -0.003208 0.000000 0.000000 0.000000
# 2 -0.003070 0.007301 -0.003635 0.000000 0.000000 0.000000
# 3 -0.003208 -0.003635 0.015925 0.000000 0.000000 0.000000
# 4 0.000000 0.000000 0.000000 0.044055 0.000000 0.000000
# 5 0.000000 0.000000 0.000000 0.000000 -0.040775 0.000000
# 6 0.000000 0.000000 0.000000 0.000000 0.000000 0.040545
#
#
# Mechanical properties :
#
#
# Convention : Reuss Voigt Hill
#
# Bulk Modulus (GPa) = 49.90681 62.74971 56.32826
# Shear Modulus (GPa) = 45.37629 18.87754 32.12692
#
# Velocity S-wave (km/s) = 4.97937 3.21168 4.18981
# Velocity P-wave (km/s) = 7.76714 6.93111 7.36100
#
# Compressibility (1/GPa) = 0.02003734
#
# Stress axis : x y z
#
# Youngs Moduli (GPa) = 60.11008 136.97391 62.79432
#
# Poissons Ratio (x) = 0.42047 0.20143
# Poissons Ratio (y) = 0.18452 0.22824
# Poissons Ratio (z) = 0.19282 0.49786
#
# Static dielectric constant tensor:
#      x y z
#    x 1.679280 0.000000 0.000000 
#    y 0.000000 1.653160 0.000000 
#    z 0.000000 0.000000 1.625340 
# 
# From -- ./inp_files/18083.got.cif
#   From: 2010.05.17/outbox.cif.g08.bks.cpg/sg40_10_cif.got.tgz:18083.got - 2010.06.03 18:35:42.
