data_PCOD9363222
_publ_section_title
;
Structure prediction by ZEFSAII (Michael W. Deem and Ramdas Pophale) SiO2 
 PCOD9363222
Probable space group: A M A 2
;
_chemical_formula_sum "Si O2"
_cell_formula_units_Z 64
_cell_length_a 13.569623
_cell_length_b 18.464849
_cell_length_c 11.952241
_cell_angle_alpha 90.000000
_cell_angle_beta 90.000000
_cell_angle_gamma 90.000000
_cell_volume 2994.765931
_symmetry_space_group_name_H-M "A M A 2"
_symmetry_group_IT_number 40
_symmetry_cell_setting 'orthorhombic'
loop_
_space_group_symop_operation_xyz
x,y,z
-x,-y,z
1/2-x,y,z
1/2+x,-y,z
x,1/2+y,1/2+z
-x,1/2-y,1/2+z
1/2-x,1/2+y,1/2+z
1/2+x,1/2-y,1/2+z
loop_
_atom_site_type_symbol
_atom_site_label
_atom_site_fract_x
_atom_site_fract_y
_atom_site_fract_z
Si Si1 0.065244 0.178663 0.660710
Si Si2 0.642020 0.700318 0.056876
Si Si3 0.859136 0.371612 0.523402
Si Si4 0.037828 0.928047 0.154606
Si Si5 0.933758 0.690820 0.819487
Si Si6 0.632214 0.089738 0.920646
Si Si7 0.131663 0.047084 0.792262
Si Si8 0.366278 0.739161 0.921437
O O1 0.095224 0.233268 0.760972
O O2 0.091442 0.096502 0.692230
O O3 0.116055 0.208894 0.547307
O O4 0.948052 0.185139 0.639018
O O5 0.750000 0.679260 0.100132
O O6 0.643018 0.785269 0.026126
O O7 0.617386 0.669018 0.935198
O O8 0.750000 0.399170 0.549190
O O9 0.888647 0.406659 0.405367
O O10 0.937921 0.391308 0.614359
O O11 0.091258 0.871152 0.231497
O O12 0.095860 0.942216 0.039367
O O13 0.000000 0.000000 0.213743
O O14 0.051098 0.698940 0.846863
O O15 0.750000 0.087863 0.920205
O O16 0.605901 0.174946 0.917130
O O17 0.598857 0.035171 0.821843
O O18 0.250000 0.044928 0.778289
O O19 0.250000 0.731303 0.891006
#
# Coordination Sequence:
#
# PCOD9363222 Si02
#       8
#     8   8   8   8   8   8   8   8
#     4  11  20  35  61  91 126 165 218 255 315 390
#     4  10  21  37  58  85 122 164 213 265 307 366
#     4  10  19  33  55  86 122 159 196 245 309 376
#     4  12  22  36  60  89 126 158 197 253 329 383
#     4  11  22  36  57  91 119 159 217 264 311 387
#     4  10  21  37  59  92 130 161 200 259 322 381
#     4  10  20  34  58  93 130 166 202 252 326 393
#     4  10  22  39  60  90 128 165 210 270 315 371
#
# _framework density 21.370619000000001
#
# number of rings (size 3 to 8) (size 9 to 14) (size 15 to 20)
#    0.000    1.500    5.000    1.125    0.000    2.000 
#    0.000    0.000    0.000    6.750    0.000    0.000 
#    0.000    0.000    0.000    0.000    0.000    0.000 
#
# Total GULP energy -178726.997126 kJ/mol
# GULP energy per Si atom -5585.218660 kJ/mol
# Density = 2.132198 g / cm^3
# Si number density = 21.370619 Si / 1000 Ang^3
#
#
#
# Elastic Constant Matrix: (Units=GPa)
#
#
# Indices 1 2 3 4 5 6 
#
# 1 55.5799 19.3718 -2.6801 0.0000 0.0000 0.0000
# 2 19.3718 96.8634 30.0829 0.0000 0.0000 0.0000
# 3 -2.6801 30.0829 58.9204 0.0000 0.0000 0.0000
# 4 0.0000 0.0000 0.0000 27.9244 0.0000 0.0000
# 5 0.0000 0.0000 0.0000 0.0000 24.4972 0.0000
# 6 0.0000 0.0000 0.0000 0.0000 0.0000 25.5720
#
#
#
# Elastic Compliance Matrix: (Units=1/GPa)
#
#
# Indices 1 2 3 4 5 6 
#
# 1 0.019928 -0.005071 0.003496 0.000000 0.000000 0.000000
# 2 -0.005071 0.013560 -0.007154 0.000000 0.000000 0.000000
# 3 0.003496 -0.007154 0.020784 0.000000 0.000000 0.000000
# 4 0.000000 0.000000 0.000000 0.035811 0.000000 0.000000
# 5 0.000000 0.000000 0.000000 0.000000 0.040821 0.000000
# 6 0.000000 0.000000 0.000000 0.000000 0.000000 0.039105
#
#
# Mechanical properties :
#
#
# Convention : Reuss Voigt Hill
#
# Bulk Modulus (GPa) = 27.16442 33.87920 30.52181
# Shear Modulus (GPa) = 25.03274 26.57132 25.80203
#
# Velocity S-wave (km/s) = 3.42623 3.52995 3.47848
# Velocity P-wave (km/s) = 5.32830 5.70102 5.51781
#
# Compressibility (1/GPa) = 0.03681286
#
# Stress axis : x y z
#
# Youngs Moduli (GPa) = 50.18022 73.74758 48.11488
#
# Poissons Ratio (x) = 0.37398 -0.16819
# Poissons Ratio (y) = 0.25447 0.34421
# Poissons Ratio (z) = -0.17541 0.52758
#
# Static dielectric constant tensor:
#      x y z
#    x 1.785970 0.000000 0.000000 
#    y 0.000000 1.904000 0.000000 
#    z 0.000000 0.000000 1.764890 
# 
# From -- ./inp_files/12411.got.cif
#   From: 2010.05.17/outbox.cif.g08.bks.cpg/sg40_7_cif.got.tgz:12411.got - 2010.06.03 18:35:42.
