data_PCOD9363092
_publ_section_title
;
Structure prediction by ZEFSAII (Michael W. Deem and Ramdas Pophale) SiO2 
 PCOD9363092
Probable space group: A M A 2
;
_chemical_formula_sum "Si O2"
_cell_formula_units_Z 64
_cell_length_a 8.705186
_cell_length_b 21.137338
_cell_length_c 20.056588
_cell_angle_alpha 90.000000
_cell_angle_beta 90.000000
_cell_angle_gamma 90.000000
_cell_volume 3690.501621
_symmetry_space_group_name_H-M "A M A 2"
_symmetry_group_IT_number 40
_symmetry_cell_setting 'orthorhombic'
loop_
_space_group_symop_operation_xyz
x,y,z
-x,-y,z
1/2-x,y,z
1/2+x,-y,z
x,1/2+y,1/2+z
-x,1/2-y,1/2+z
1/2-x,1/2+y,1/2+z
1/2+x,1/2-y,1/2+z
loop_
_atom_site_type_symbol
_atom_site_label
_atom_site_fract_x
_atom_site_fract_y
_atom_site_fract_z
Si Si1 0.065581 0.566729 0.527900
Si Si2 0.565231 0.814873 0.529753
Si Si3 0.434780 0.117743 0.168470
Si Si4 0.565764 0.258586 0.167545
Si Si5 0.565953 0.686272 0.449232
Si Si6 0.567743 0.066032 0.451807
Si Si7 0.065248 0.617053 0.817130
Si Si8 0.065856 0.740866 0.318000
O O1 0.250000 0.565812 0.526298
O O2 0.012980 0.578166 0.604659
O O3 0.000000 0.500000 0.504093
O O4 0.005241 0.625606 0.485130
O O5 0.750000 0.822848 0.525687
O O6 0.520186 0.803556 0.606682
O O7 0.526585 0.750171 0.490394
O O8 0.487426 0.874613 0.495516
O O9 0.250000 0.117913 0.168601
O O10 0.491204 0.189653 0.159198
O O11 0.484026 0.096414 0.242523
O O12 0.750000 0.250110 0.163003
O O13 0.530709 0.281074 0.242473
O O14 0.750000 0.680879 0.448323
O O15 0.501380 0.696660 0.375216
O O16 0.750000 0.063240 0.450606
O O17 0.505638 0.077546 0.376995
O O18 0.500000 0.000000 0.477268
O O19 0.250000 0.615430 0.821702
O O20 0.008664 0.689510 0.825342
O O21 0.250000 0.746404 0.325044
#
# Coordination Sequence:
#
# PCOD9363092 Si02
#       8
#     8   8   8   8   8   8   8   8
#     4  11  23  38  55  79 112 148 189 232 277 330
#     4  10  20  36  58  83 112 144 183 227 275 327
#     4   9  19  33  52  78 110 146 184 226 268 321
#     4   9  18  33  55  82 111 143 179 225 274 323
#     4  11  21  35  58  83 112 148 184 227 278 326
#     4  12  25  39  56  79 110 148 188 230 277 329
#     4  10  19  34  53  78 112 148 186 225 269 321
#     4  10  19  32  54  84 113 143 183 227 275 324
#
# _framework density 17.341816000000001
#
# number of rings (size 3 to 8) (size 9 to 14) (size 15 to 20)
#    0.000    1.750    2.500    2.625    0.000    3.000 
#    0.000    1.250    0.000    0.750    0.000    3.500 
#    0.000    0.000    0.000    0.000    0.000    0.000 
#
# Total GULP energy -178678.846553 kJ/mol
# GULP energy per Si atom -5583.713955 kJ/mol
# Density = 1.730235 g / cm^3
# Si number density = 17.341816 Si / 1000 Ang^3
#
#
#
# Elastic Constant Matrix: (Units=GPa)
#
#
# Indices 1 2 3 4 5 6 
#
# 1 56.9539 43.5938 38.0095 0.0000 0.0000 0.0000
# 2 43.5938 111.8685 57.9824 0.0000 0.0000 0.0000
# 3 38.0095 57.9824 105.8616 0.0000 0.0000 0.0000
# 4 0.0000 0.0000 0.0000 19.6273 0.0000 0.0000
# 5 0.0000 0.0000 0.0000 0.0000 24.2836 0.0000
# 6 0.0000 0.0000 0.0000 0.0000 0.0000 24.9252
#
#
#
# Elastic Compliance Matrix: (Units=1/GPa)
#
#
# Indices 1 2 3 4 5 6 
#
# 1 0.027151 -0.007719 -0.005521 0.000000 0.000000 0.000000
# 2 -0.007719 0.014677 -0.005268 0.000000 0.000000 0.000000
# 3 -0.005521 -0.005268 0.014314 0.000000 0.000000 0.000000
# 4 0.000000 0.000000 0.000000 0.050949 0.000000 0.000000
# 5 0.000000 0.000000 0.000000 0.000000 0.041180 0.000000
# 6 0.000000 0.000000 0.000000 0.000000 0.000000 0.040120
#
#
# Mechanical properties :
#
#
# Convention : Reuss Voigt Hill
#
# Bulk Modulus (GPa) = 52.28115 61.53949 56.91032
# Shear Modulus (GPa) = 21.57212 22.77379 22.17295
#
# Velocity S-wave (km/s) = 3.53077 3.62778 3.57961
# Velocity P-wave (km/s) = 6.84359 7.28773 7.06915
#
# Compressibility (1/GPa) = 0.01912735
#
# Stress axis : x y z
#
# Youngs Moduli (GPa) = 36.83161 68.13273 69.86370
#
# Poissons Ratio (x) = 0.52591 0.38569
# Poissons Ratio (y) = 0.28430 0.36801
# Poissons Ratio (z) = 0.20333 0.35889
#
# Static dielectric constant tensor:
#      x y z
#    x 1.578200 0.000000 0.000000 
#    y 0.000000 1.558640 0.000000 
#    z 0.000000 0.000000 1.615020 
# 
# From -- ./inp_files/19597.got.cif
#   From: 2010.05.17/outbox.cif.g08.bks.cpg/sg40_10_cif.got.tgz:19597.got - 2010.06.03 18:35:42.
