data_PCOD9363535
_publ_section_title
;
Structure prediction by ZEFSAII (Michael W. Deem and Ramdas Pophale) SiO2 
 PCOD9363535
Probable space group: A M A 2
;
_chemical_formula_sum "Si O2"
_cell_formula_units_Z 64
_cell_length_a 17.770347
_cell_length_b 10.650618
_cell_length_c 16.806417
_cell_angle_alpha 90.000000
_cell_angle_beta 90.000000
_cell_angle_gamma 90.000000
_cell_volume 3180.869499
_symmetry_space_group_name_H-M "A M A 2"
_symmetry_group_IT_number 40
_symmetry_cell_setting 'orthorhombic'
loop_
_space_group_symop_operation_xyz
x,y,z
-x,-y,z
1/2-x,y,z
1/2+x,-y,z
x,1/2+y,1/2+z
-x,1/2-y,1/2+z
1/2-x,1/2+y,1/2+z
1/2+x,1/2-y,1/2+z
loop_
_atom_site_type_symbol
_atom_site_label
_atom_site_fract_x
_atom_site_fract_y
_atom_site_fract_z
Si Si1 0.659444 0.738800 0.281060
Si Si2 0.835739 0.040890 0.519886
Si Si3 0.394861 0.059710 0.980996
Si Si4 0.164359 0.722479 0.606095
Si Si5 0.435349 0.090220 0.398808
Si Si6 0.548928 0.194552 0.022858
Si Si7 0.839469 0.941975 0.808373
Si Si8 0.162512 0.692715 0.142142
O O1 0.750000 0.757108 0.294661
O O2 0.635060 0.791531 0.194592
O O3 0.609446 0.817370 0.341581
O O4 0.644999 0.588598 0.286876
O O5 0.750000 0.070647 0.498621
O O6 0.877108 0.002384 0.440802
O O7 0.835528 0.927971 0.583422
O O8 0.872748 0.160159 0.561767
O O9 0.381442 0.097988 0.889577
O O10 0.335332 0.108140 0.045168
O O11 0.469539 0.122168 0.019887
O O12 0.398473 0.909311 0.979907
O O13 0.250000 0.764092 0.621733
O O14 0.462181 0.180456 0.471038
O O15 0.500000 0.000000 0.364793
O O16 0.595017 0.224861 0.103810
O O17 0.750000 0.934163 0.824461
O O18 0.854821 0.856288 0.731059
O O19 0.250000 0.743162 0.141063
#
# Coordination Sequence:
#
# PCOD9363535 Si02
#       8
#     8   8   8   8   8   8   8   8
#     4  10  20  38  63  94 124 159 205 257 316 376
#     4   9  17  33  60  90 119 156 204 260 308 364
#     4  11  22  40  57  88 130 165 205 250 324 381
#     4  10  20  37  61  88 123 162 203 252 313 380
#     4  11  21  37  60  88 124 164 209 256 306 371
#     4  10  23  40  57  85 127 170 208 258 309 378
#     4  10  19  37  67  96 122 153 206 269 318 371
#     4   9  18  36  64  96 120 154 213 269 314 366
#
# _framework density 20.120284999999999
#
# number of rings (size 3 to 8) (size 9 to 14) (size 15 to 20)
#    0.000    2.000    2.500    1.500    0.000    1.500 
#    4.500    1.250    2.750    3.000    0.000    0.000 
#    0.000    0.000    0.000    0.000    0.000    0.000 
#
# Total GULP energy -178184.985889 kJ/mol
# GULP energy per Si atom -5568.280809 kJ/mol
# Density = 2.007449 g / cm^3
# Si number density = 20.120285 Si / 1000 Ang^3
#
#
#
# Elastic Constant Matrix: (Units=GPa)
#
#
# Indices 1 2 3 4 5 6 
#
# 1 72.2305 34.4636 56.5838 0.0000 0.0000 0.0000
# 2 34.4636 43.8678 25.7904 0.0000 0.0000 0.0000
# 3 56.5838 25.7904 123.1619 0.0000 0.0000 0.0000
# 4 0.0000 0.0000 0.0000 27.5181 0.0000 0.0000
# 5 0.0000 0.0000 0.0000 0.0000 683.2475 0.0000
# 6 0.0000 0.0000 0.0000 0.0000 0.0000 -125.1961
#
#
#
# Elastic Compliance Matrix: (Units=1/GPa)
#
#
# Indices 1 2 3 4 5 6 
#
# 1 0.030359 -0.017848 -0.010210 0.000000 0.000000 0.000000
# 2 -0.017848 0.036489 0.000559 0.000000 0.000000 0.000000
# 3 -0.010210 0.000559 0.012693 0.000000 0.000000 0.000000
# 4 0.000000 0.000000 0.000000 0.036340 0.000000 0.000000
# 5 0.000000 0.000000 0.000000 0.000000 0.001464 0.000000
# 6 0.000000 0.000000 0.000000 0.000000 0.000000 -0.007987
#
#
# Mechanical properties :
#
#
# Convention : Reuss Voigt Hill
#
# Bulk Modulus (GPa) = 40.74564 52.54843 46.64704
# Shear Modulus (GPa) = 28.97932 125.27539 77.12735
#
# Velocity S-wave (km/s) = 3.79925 7.89927 6.19809
# Velocity P-wave (km/s) = 6.28814 10.45809 8.62880
#
# Compressibility (1/GPa) = 0.02454250
#
# Stress axis : x y z
#
# Youngs Moduli (GPa) = 32.93910 27.40549 78.78213
#
# Poissons Ratio (x) = 0.48914 0.80439
# Poissons Ratio (y) = 0.58790 -0.04404
# Poissons Ratio (z) = 0.33632 -0.01532
#
# Static dielectric constant tensor:
#      x y z
#    x -15.110770 0.000000 0.000000 
#    y 0.000000 1.729420 0.000000 
#    z 0.000000 0.000000 1.714920 
# 
# From -- ./inp_files/17850.got.cif
#   From: 2010.05.17/outbox.cif.g08.bks.cpg/sg40_9_cif.got.tgz:17850.got - 2010.06.03 18:35:42.
