data_PCOD9363891
_publ_section_title
;
Structure prediction by ZEFSAII (Michael W. Deem and Ramdas Pophale) SiO2 
 PCOD9363891
Probable space group: A M A 2
;
_chemical_formula_sum "Si O2"
_cell_formula_units_Z 64
_cell_length_a 16.070314
_cell_length_b 9.226059
_cell_length_c 21.881620
_cell_angle_alpha 90.000000
_cell_angle_beta 90.000000
_cell_angle_gamma 90.000000
_cell_volume 3244.292943
_symmetry_space_group_name_H-M "A M A 2"
_symmetry_group_IT_number 40
_symmetry_cell_setting 'orthorhombic'
loop_
_space_group_symop_operation_xyz
x,y,z
-x,-y,z
1/2-x,y,z
1/2+x,-y,z
x,1/2+y,1/2+z
-x,1/2-y,1/2+z
1/2-x,1/2+y,1/2+z
1/2+x,1/2-y,1/2+z
loop_
_atom_site_type_symbol
_atom_site_label
_atom_site_fract_x
_atom_site_fract_y
_atom_site_fract_z
Si Si1 0.659934 0.308666 0.914360
Si Si2 0.845350 0.793187 0.943077
Si Si3 0.849350 0.282834 0.094671
Si Si4 0.958802 0.841327 0.822909
Si Si5 0.912716 0.578790 0.486502
Si Si6 0.849630 0.681431 0.731310
Si Si7 0.902148 0.023824 0.514752
Si Si8 0.076043 0.082875 0.303903
O O1 0.750000 0.239776 0.920180
O O2 0.591145 0.188155 0.928850
O O3 0.647989 0.429470 0.965341
O O4 0.649387 0.385509 0.850184
O O5 0.750000 0.756550 0.924690
O O6 0.910891 0.795964 0.886258
O O7 0.877024 0.685296 0.996453
O O8 0.848162 0.952620 0.972000
O O9 0.750000 0.278085 0.087279
O O10 0.869660 0.225265 0.161887
O O11 0.890127 0.176500 0.044556
O O12 0.878792 0.446555 0.078614
O O13 0.885148 0.809535 0.774148
O O14 0.031829 0.737292 0.794973
O O15 0.000000 0.000000 0.827382
O O16 0.000000 0.500000 0.493532
O O17 0.750000 0.666755 0.737683
O O18 0.893566 0.529424 0.752322
O O19 0.000000 0.000000 0.505511
O O20 0.000000 0.000000 0.337792
#
# Coordination Sequence:
#
# PCOD9363891 Si02
#       8
#     8   8   8   8   8   8   8   8
#     4  11  20  34  55  81 116 153 191 233 288 346
#     4  12  22  35  58  89 122 153 192 237 292 356
#     4  10  22  42  62  82 114 154 195 243 299 354
#     4  11  23  39  59  87 127 164 200 249 307 366
#     4  11  22  36  56  84 118 155 192 236 293 350
#     4  10  22  42  64  85 113 154 207 259 307 359
#     4  11  21  35  56  85 117 151 191 234 286 349
#     4  10  20  35  59  87 114 152 201 249 297 354
#
# _framework density 19.726948
#
# number of rings (size 3 to 8) (size 9 to 14) (size 15 to 20)
#    0.000    1.250    0.000    9.750    0.000    2.000 
#    0.000    3.125    0.000    3.000    0.000    0.000 
#    0.000    0.000    0.000    0.000    0.000    0.000 
#
# Total GULP energy -178366.802687 kJ/mol
# GULP energy per Si atom -5573.962584 kJ/mol
# Density = 1.968205 g / cm^3
# Si number density = 19.726948 Si / 1000 Ang^3
#
#
#
# Elastic Constant Matrix: (Units=GPa)
#
#
# Indices 1 2 3 4 5 6 
#
# 1 115.7199 27.3133 40.1541 0.0000 0.0000 0.0000
# 2 27.3133 112.8133 47.4122 0.0000 0.0000 0.0000
# 3 40.1541 47.4122 112.1697 0.0000 0.0000 0.0000
# 4 0.0000 0.0000 0.0000 30.5665 0.0000 0.0000
# 5 0.0000 0.0000 0.0000 0.0000 22.0767 0.0000
# 6 0.0000 0.0000 0.0000 0.0000 0.0000 31.0947
#
#
#
# Elastic Compliance Matrix: (Units=1/GPa)
#
#
# Indices 1 2 3 4 5 6 
#
# 1 0.009981 -0.001112 -0.003103 0.000000 0.000000 0.000000
# 2 -0.001112 0.010903 -0.004210 0.000000 0.000000 0.000000
# 3 -0.003103 -0.004210 0.011805 0.000000 0.000000 0.000000
# 4 0.000000 0.000000 0.000000 0.032716 0.000000 0.000000
# 5 0.000000 0.000000 0.000000 0.000000 0.045297 0.000000
# 6 0.000000 0.000000 0.000000 0.000000 0.000000 0.032160
#
#
# Mechanical properties :
#
#
# Convention : Reuss Voigt Hill
#
# Bulk Modulus (GPa) = 63.13811 63.38466 63.26139
# Shear Modulus (GPa) = 30.30461 31.80246 31.05353
#
# Velocity S-wave (km/s) = 3.92370 4.01949 3.97188
# Velocity P-wave (km/s) = 7.25277 7.33093 7.29195
#
# Compressibility (1/GPa) = 0.01583829
#
# Stress axis : x y z
#
# Youngs Moduli (GPa) = 100.19300 91.71782 84.70738
#
# Poissons Ratio (x) = 0.10204 0.26282
# Poissons Ratio (y) = 0.11146 0.35664
# Poissons Ratio (z) = 0.31086 0.38616
#
# Static dielectric constant tensor:
#      x y z
#    x 1.734710 0.000000 0.000000 
#    y 0.000000 1.759130 0.000000 
#    z 0.000000 0.000000 1.710340 
# 
# From -- ./inp_files/24785.got.cif
#   From: 2010.05.17/outbox.cif.g08.bks.cpg/sg40_13_cif.got.tgz:24785.got - 2010.06.03 18:35:42.
