data_PCOD9363062
_publ_section_title
;
Structure prediction by ZEFSAII (Michael W. Deem and Ramdas Pophale) SiO2 
 PCOD9363062
Probable space group: A M A 2
;
_chemical_formula_sum "Si O2"
_cell_formula_units_Z 64
_cell_length_a 7.591011
_cell_length_b 17.361699
_cell_length_c 21.471463
_cell_angle_alpha 90.000000
_cell_angle_beta 90.000000
_cell_angle_gamma 90.000000
_cell_volume 2829.785261
_symmetry_space_group_name_H-M "A M A 2"
_symmetry_group_IT_number 40
_symmetry_cell_setting 'orthorhombic'
loop_
_space_group_symop_operation_xyz
x,y,z
-x,-y,z
1/2-x,y,z
1/2+x,-y,z
x,1/2+y,1/2+z
-x,1/2-y,1/2+z
1/2-x,1/2+y,1/2+z
1/2+x,1/2-y,1/2+z
loop_
_atom_site_type_symbol
_atom_site_label
_atom_site_fract_x
_atom_site_fract_y
_atom_site_fract_z
Si Si1 0.543797 0.288764 0.180630
Si Si2 0.034519 0.616275 0.545601
Si Si3 0.047220 0.611782 0.412043
Si Si4 0.960130 0.202981 0.545601
Si Si5 0.952780 0.888218 0.179159
Si Si6 0.043797 0.211236 0.410571
Si Si7 0.461608 0.584082 0.276174
Si Si8 0.961608 0.415918 0.815027
O O1 0.750000 0.274059 0.191871
O O2 0.525170 0.326681 0.112153
O O3 0.453685 0.205268 0.180252
O O4 0.473646 0.346184 0.233305
O O5 0.250000 0.611901 0.545601
O O6 0.968884 0.586870 0.478748
O O7 0.987231 0.706775 0.545601
O O8 0.968883 0.586870 0.612454
O O9 0.250000 0.585596 0.412302
O O10 0.965490 0.586932 0.346659
O O11 0.046315 0.705268 0.410950
O O12 0.750000 0.198592 0.545600
O O13 0.025171 0.173319 0.479048
O O14 0.750000 0.914404 0.178899
O O15 0.034510 0.913069 0.244543
O O16 0.250000 0.225941 0.399330
O O17 0.973646 0.153816 0.357897
O O18 0.500000 0.500000 0.249315
O O19 0.250000 0.593265 0.279723
O O20 0.750000 0.406735 0.811479
O O21 0.000000 0.500000 0.841887
#
# Coordination Sequence:
#
# PCOD9363062 Si02
#       8
#     8   8   8   8   8   8   8   8
#     4  10  19  32  52  79 104 129 166 215 260 302
#     4   7  12  25  48  73  97 123 157 199 242 289
#     4   9  17  32  53  77 102 134 172 208 251 305
#     4   9  17  31  52  77 102 131 163 203 255 311
#     4   9  17  32  53  77 102 134 172 208 251 305
#     4  10  19  32  52  79 104 129 166 215 260 302
#     4  10  22  36  50  71 103 139 176 215 255 299
#     4  10  22  36  50  71 103 139 176 215 255 299
#
# _framework density 22.616555999999999
#
# number of rings (size 3 to 8) (size 9 to 14) (size 15 to 20)
#    0.000    2.750    0.000    3.375    0.000    3.000 
#    0.000    1.250    0.000    0.000    0.000    0.000 
#    0.000    0.000    0.000    0.000    0.000    0.000 
#
# Total GULP energy -178548.670142 kJ/mol
# GULP energy per Si atom -5579.645942 kJ/mol
# Density = 2.256508 g / cm^3
# Si number density = 22.616556 Si / 1000 Ang^3
#
#
#
# Elastic Constant Matrix: (Units=GPa)
#
#
# Indices 1 2 3 4 5 6 
#
# 1 61.0500 -8.9113 2.7013 0.0000 0.0000 0.0000
# 2 -8.9113 81.0351 50.6137 0.0000 0.0000 0.0000
# 3 2.7013 50.6137 139.5868 0.0000 0.0000 0.0000
# 4 0.0000 0.0000 0.0000 -45.2707 0.0000 0.0000
# 5 0.0000 0.0000 0.0000 0.0000 3.4138 0.0000
# 6 0.0000 0.0000 0.0000 0.0000 0.0000 5.5248
#
#
#
# Elastic Compliance Matrix: (Units=1/GPa)
#
#
# Indices 1 2 3 4 5 6 
#
# 1 0.016825 0.002655 -0.001288 0.000000 0.000000 0.000000
# 2 0.002655 0.016372 -0.005988 0.000000 0.000000 0.000000
# 3 -0.001288 -0.005988 0.009360 0.000000 0.000000 0.000000
# 4 0.000000 0.000000 0.000000 -0.022089 0.000000 0.000000
# 5 0.000000 0.000000 0.000000 0.000000 0.292931 0.000000
# 6 0.000000 0.000000 0.000000 0.000000 0.000000 0.181003
#
#
# Mechanical properties :
#
#
# Convention : Reuss Voigt Hill
#
# Bulk Modulus (GPa) = 30.01722 41.16437 35.59080
# Shear Modulus (GPa) = 9.71347 8.55145 9.13246
#
# Velocity S-wave (km/s) = 2.07465 1.94660 2.01165
# Velocity P-wave (km/s) = 4.36348 4.82627 4.60070
#
# Compressibility (1/GPa) = 0.03331421
#
# Stress axis : x y z
#
# Youngs Moduli (GPa) = 59.43710 61.07898 106.83628
#
# Poissons Ratio (x) = -0.16215 0.13763
# Poissons Ratio (y) = -0.15779 0.63972
# Poissons Ratio (z) = 0.07657 0.36573
#
# Static dielectric constant tensor:
#      x y z
#    x 1.839200 0.000000 0.000000 
#    y 0.000000 1.789650 0.000000 
#    z 0.000000 0.000000 1.915230 
# 
# From -- ./inp_files/22403.got.cif
#   From: 2010.05.17/outbox.cif.g08.bks.cpg/sg40_12_cif.got.tgz:22403.got - 2010.06.03 18:35:42.
