data_PCOD9363055
_publ_section_title
;
Structure prediction by ZEFSAII (Michael W. Deem and Ramdas Pophale) SiO2 
 PCOD9363055
Probable space group: A M A 2
;
_chemical_formula_sum "Si O2"
_cell_formula_units_Z 56
_cell_length_a 8.940127
_cell_length_b 20.912452
_cell_length_c 13.850613
_cell_angle_alpha 90.000000
_cell_angle_beta 90.000000
_cell_angle_gamma 90.000000
_cell_volume 2589.510285
_symmetry_space_group_name_H-M "A M A 2"
_symmetry_group_IT_number 40
_symmetry_cell_setting 'orthorhombic'
loop_
_space_group_symop_operation_xyz
x,y,z
-x,-y,z
1/2-x,y,z
1/2+x,-y,z
x,1/2+y,1/2+z
-x,1/2-y,1/2+z
1/2-x,1/2+y,1/2+z
1/2+x,1/2-y,1/2+z
loop_
_atom_site_type_symbol
_atom_site_label
_atom_site_fract_x
_atom_site_fract_y
_atom_site_fract_z
Si Si1 0.927133 0.657051 0.088210
Si Si2 0.422302 0.934239 0.146742
Si Si3 0.079678 0.903375 0.924930
Si Si4 0.425996 0.566618 0.233916
Si Si5 0.927508 0.748100 0.441972
Si Si6 0.082338 0.666334 0.769340
Si Si7 0.418771 0.564622 0.939260
O O1 0.750000 0.662318 0.099498
O O2 0.001707 0.630039 0.185639
O O3 0.992439 0.719711 0.034208
O O4 0.977037 0.601692 0.014096
O O5 0.250000 0.936541 0.176986
O O6 0.490241 0.867357 0.185060
O O7 0.500000 0.000000 0.179883
O O8 0.432062 0.932696 0.030890
O O9 0.250000 0.914466 0.888194
O O10 0.058810 0.827473 0.938266
O O11 0.963811 0.928997 0.847204
O O12 0.500000 0.500000 0.197401
O O13 0.250000 0.565337 0.216445
O O14 0.750000 0.765105 0.448637
O O15 0.980404 0.777670 0.338686
O O16 0.250000 0.684525 0.736379
O O17 0.093062 0.608693 0.845980
O O18 0.500000 0.500000 0.914521
O O19 0.250000 0.555327 0.977565
#
# Coordination Sequence:
#
# PCOD9363055 Si02
#       7
#     8   8   8   8   8   8   8
#     4  11  22  37  59  87 120 157 198 244 295 356
#     4  11  23  38  59  86 118 154 194 242 292 346
#     4  10  23  43  64  88 120 158 200 250 302 353
#     4  12  25  42  64  90 121 158 203 253 307 364
#     4   9  20  41  64  89 123 159 197 243 297 356
#     4   9  19  35  57  83 114 152 192 237 288 346
#     4  10  19  32  51  79 114 152 193 241 298 355
#
# _framework density 21.625710000000002
#
# number of rings (size 3 to 8) (size 9 to 14) (size 15 to 20)
#    0.000    1.714    0.000    5.571    0.000    8.000 
#    0.000    2.857    0.000    0.000    0.000    0.000 
#    0.000    0.000    0.000    0.000    0.000    0.000 
#
# Total GULP energy -156418.618710 kJ/mol
# GULP energy per Si atom -5586.379240 kJ/mol
# Density = 2.157649 g / cm^3
# Si number density = 21.625710 Si / 1000 Ang^3
#
#
#
# Elastic Constant Matrix: (Units=GPa)
#
#
# Indices 1 2 3 4 5 6 
#
# 1 125.0088 31.6888 28.5326 0.0000 0.0000 0.0000
# 2 31.6888 80.4850 -4.8570 0.0000 0.0000 0.0000
# 3 28.5326 -4.8570 48.8929 0.0000 0.0000 0.0000
# 4 0.0000 0.0000 0.0000 33.5426 0.0000 0.0000
# 5 0.0000 0.0000 0.0000 0.0000 5.3607 0.0000
# 6 0.0000 0.0000 0.0000 0.0000 0.0000 1.7942
#
#
#
# Elastic Compliance Matrix: (Units=1/GPa)
#
#
# Indices 1 2 3 4 5 6 
#
# 1 0.010700 -0.004617 -0.006703 0.000000 0.000000 0.000000
# 2 -0.004617 0.014492 0.004134 0.000000 0.000000 0.000000
# 3 -0.006703 0.004134 0.024775 0.000000 0.000000 0.000000
# 4 0.000000 0.000000 0.000000 0.029813 0.000000 0.000000
# 5 0.000000 0.000000 0.000000 0.000000 0.186544 0.000000
# 6 0.000000 0.000000 0.000000 0.000000 0.000000 0.557347
#
#
# Mechanical properties :
#
#
# Convention : Reuss Voigt Hill
#
# Bulk Modulus (GPa) = 28.09371 40.56840 34.33105
# Shear Modulus (GPa) = 5.88299 21.40765 13.64532
#
# Velocity S-wave (km/s) = 1.65114 3.14971 2.51465
# Velocity P-wave (km/s) = 4.08095 5.65929 4.93365
#
# Compressibility (1/GPa) = 0.03559516
#
# Stress axis : x y z
#
# Youngs Moduli (GPa) = 93.46026 69.00335 40.36313
#
# Poissons Ratio (x) = 0.31860 0.27054
# Poissons Ratio (y) = 0.43153 -0.16687
# Poissons Ratio (z) = 0.62644 -0.28527
#
# Static dielectric constant tensor:
#      x y z
#    x 1.781370 0.000000 0.000000 
#    y 0.000000 1.862760 0.000000 
#    z 0.000000 0.000000 1.845990 
# 
# From -- ./inp_files/15307.got.cif
#   From: 2010.05.17/outbox.cif.g08.bks.cpg/sg40_8_cif.got.tgz:15307.got - 2010.06.03 18:35:42.
