data_PCOD9363883
_publ_section_title
;
Structure prediction by ZEFSAII (Michael W. Deem and Ramdas Pophale) SiO2 
 PCOD9363883
Probable space group: A M A 2
;
_chemical_formula_sum "Si O2"
_cell_formula_units_Z 64
_cell_length_a 15.534363
_cell_length_b 12.516310
_cell_length_c 16.540454
_cell_angle_alpha 90.000000
_cell_angle_beta 90.000000
_cell_angle_gamma 90.000000
_cell_volume 3216.008488
_symmetry_space_group_name_H-M "A M A 2"
_symmetry_group_IT_number 40
_symmetry_cell_setting 'orthorhombic'
loop_
_space_group_symop_operation_xyz
x,y,z
-x,-y,z
1/2-x,y,z
1/2+x,-y,z
x,1/2+y,1/2+z
-x,1/2-y,1/2+z
1/2-x,1/2+y,1/2+z
1/2+x,1/2-y,1/2+z
loop_
_atom_site_type_symbol
_atom_site_label
_atom_site_fract_x
_atom_site_fract_y
_atom_site_fract_z
Si Si1 0.146361 0.399614 0.939410
Si Si2 0.396070 0.886327 0.253226
Si Si3 0.880407 0.814178 0.651120
Si Si4 0.347475 0.139098 0.470108
Si Si5 0.398743 0.625725 0.718148
Si Si6 0.917919 0.200375 0.599508
Si Si7 0.848412 0.699687 0.347764
Si Si8 0.600105 0.027277 0.726382
O O1 0.250000 0.396163 0.952457
O O2 0.126162 0.369776 0.847134
O O3 0.114331 0.522386 0.952995
O O4 0.101002 0.326825 0.007097
O O5 0.358287 0.795307 0.195474
O O6 0.499756 0.878079 0.241814
O O7 0.367450 0.005042 0.227187
O O8 0.841658 0.838465 0.564296
O O9 0.982256 0.808849 0.626489
O O10 0.858750 0.912299 0.710761
O O11 0.250000 0.132320 0.436677
O O12 0.389143 0.240637 0.425061
O O13 0.389300 0.683524 0.631572
O O14 0.354847 0.707033 0.780497
O O15 0.873331 0.107494 0.653827
O O16 0.750000 0.670888 0.365251
O O17 0.888129 0.594167 0.308125
O O18 0.500000 0.000000 0.719256
#
# Coordination Sequence:
#
# PCOD9363883 Si02
#       8
#     8   8   8   8   8   8   8   8
#     4  11  22  36  56  88 118 147 194 248 299 347
#     4  10  21  36  59  84 118 155 194 244 293 353
#     4  10  20  36  57  83 114 152 195 236 295 351
#     4  10  21  35  54  84 115 148 195 240 288 349
#     4   9  19  36  56  85 115 154 199 235 294 353
#     4   9  19  34  57  83 112 148 193 247 286 344
#     4  10  20  35  58  87 116 149 195 248 295 350
#     4   9  18  35  56  82 117 149 197 241 289 351
#
# _framework density 19.900442999999999
#
# number of rings (size 3 to 8) (size 9 to 14) (size 15 to 20)
#    0.000    2.250    2.500    0.750    1.750    3.000 
#    0.000    1.250    2.750    1.500    0.000    0.000 
#    0.000    0.000    0.000    0.000    0.000    0.000 
#
# Total GULP energy -178354.710072 kJ/mol
# GULP energy per Si atom -5573.584690 kJ/mol
# Density = 1.985515 g / cm^3
# Si number density = 19.900443 Si / 1000 Ang^3
#
#
#
# Elastic Constant Matrix: (Units=GPa)
#
#
# Indices 1 2 3 4 5 6 
#
# 1 22.5928 18.7084 7.9258 0.0000 0.0000 0.0000
# 2 18.7084 117.9360 66.3707 0.0000 0.0000 0.0000
# 3 7.9258 66.3707 112.2788 0.0000 0.0000 0.0000
# 4 0.0000 0.0000 0.0000 38.2092 0.0000 0.0000
# 5 0.0000 0.0000 0.0000 0.0000 4.3351 0.0000
# 6 0.0000 0.0000 0.0000 0.0000 0.0000 -9.0321
#
#
#
# Elastic Compliance Matrix: (Units=1/GPa)
#
#
# Indices 1 2 3 4 5 6 
#
# 1 0.051191 -0.009121 0.001778 0.000000 0.000000 0.000000
# 2 -0.009121 0.014331 -0.007828 0.000000 0.000000 0.000000
# 3 0.001778 -0.007828 0.013408 0.000000 0.000000 0.000000
# 4 0.000000 0.000000 0.000000 0.026172 0.000000 0.000000
# 5 0.000000 0.000000 0.000000 0.000000 0.230677 0.000000
# 6 0.000000 0.000000 0.000000 0.000000 0.000000 -0.110716
#
#
# Mechanical properties :
#
#
# Convention : Reuss Voigt Hill
#
# Bulk Modulus (GPa) = 20.58083 48.75749 34.66916
# Shear Modulus (GPa) = 18.40935 17.35595 17.88265
#
# Velocity S-wave (km/s) = 3.04480 2.95640 3.00093
# Velocity P-wave (km/s) = 4.76712 6.01728 5.42831
#
# Compressibility (1/GPa) = 0.04858891
#
# Stress axis : x y z
#
# Youngs Moduli (GPa) = 19.53464 69.77758 74.58229
#
# Poissons Ratio (x) = 0.63646 -0.13262
# Poissons Ratio (y) = 0.17818 0.58381
# Poissons Ratio (z) = -0.03474 0.54620
#
# Static dielectric constant tensor:
#      x y z
#    x 1.929020 0.000000 0.000000 
#    y 0.000000 1.720110 0.000000 
#    z 0.000000 0.000000 1.693110 
# 
# From -- ./inp_files/17889.got.cif
#   From: 2010.05.17/outbox.cif.g08.bks.cpg/sg40_9_cif.got.tgz:17889.got - 2010.06.03 18:35:42.
