data_PCOD9363843
_publ_section_title
;
Structure prediction by ZEFSAII (Michael W. Deem and Ramdas Pophale) SiO2 
 PCOD9363843
Probable space group: A M A 2
;
_chemical_formula_sum "Si O2"
_cell_formula_units_Z 48
_cell_length_a 15.611571
_cell_length_b 8.556977
_cell_length_c 18.126834
_cell_angle_alpha 90.000000
_cell_angle_beta 90.000000
_cell_angle_gamma 90.000000
_cell_volume 2421.524854
_symmetry_space_group_name_H-M "A M A 2"
_symmetry_group_IT_number 40
_symmetry_cell_setting 'orthorhombic'
loop_
_space_group_symop_operation_xyz
x,y,z
-x,-y,z
1/2-x,y,z
1/2+x,-y,z
x,1/2+y,1/2+z
-x,1/2-y,1/2+z
1/2-x,1/2+y,1/2+z
1/2+x,1/2-y,1/2+z
loop_
_atom_site_type_symbol
_atom_site_label
_atom_site_fract_x
_atom_site_fract_y
_atom_site_fract_z
Si Si1 0.088942 0.405937 0.227680
Si Si2 0.847511 0.768470 0.085654
Si Si3 0.151269 0.365651 0.625220
Si Si4 0.986423 0.317231 0.848295
Si Si5 0.155328 0.214800 0.784364
Si Si6 0.014493 0.814796 0.001048
O O1 0.129954 0.343482 0.153323
O O2 0.150326 0.532745 0.264651
O O3 0.000000 0.500000 0.214005
O O4 0.067312 0.265115 0.283522
O O5 0.750000 0.745332 0.059722
O O6 0.854265 0.946965 0.116167
O O7 0.922272 0.749756 0.025945
O O8 0.250000 0.319966 0.608073
O O9 0.134258 0.308540 0.708505
O O10 0.081310 0.299186 0.568577
O O11 0.081458 0.244961 0.842485
O O12 0.000000 0.500000 0.837980
O O13 0.951897 0.270363 0.928289
O O14 0.250000 0.260820 0.808409
O O15 0.000000 0.000000 0.986262
#
# Coordination Sequence:
#
# PCOD9363843 Si02
#       6
#     8   8   8   8   8   8
#     4  10  20  35  56  82 109 144 186 229 278 328
#     4  10  20  35  58  85 112 145 184 225 274 334
#     4   9  19  36  59  85 112 146 185 226 274 327
#     4  11  23  38  56  79 111 151 188 227 278 330
#     4  10  20  36  59  84 111 142 183 233 277 325
#     4  10  20  36  55  79 114 150 185 226 274 330
#
# _framework density 19.822220000000002
#
# number of rings (size 3 to 8) (size 9 to 14) (size 15 to 20)
#    0.000    2.000    0.000    5.000    0.000    4.000 
#    0.000    6.667    0.000    0.000    0.000    0.000 
#    0.000    0.000    0.000    0.000    0.000    0.000 
#
# Total GULP energy -134025.115926 kJ/mol
# GULP energy per Si atom -5584.379830 kJ/mol
# Density = 1.977710 g / cm^3
# Si number density = 19.822220 Si / 1000 Ang^3
#
#
#
# Elastic Constant Matrix: (Units=GPa)
#
#
# Indices 1 2 3 4 5 6 
#
# 1 70.9328 -8.3410 7.5405 0.0000 0.0000 0.0000
# 2 -8.3410 41.2859 4.9127 0.0000 0.0000 0.0000
# 3 7.5405 4.9127 30.7319 0.0000 0.0000 0.0000
# 4 0.0000 0.0000 0.0000 21.5943 0.0000 0.0000
# 5 0.0000 0.0000 0.0000 0.0000 7.6889 0.0000
# 6 0.0000 0.0000 0.0000 0.0000 0.0000 12.4791
#
#
#
# Elastic Compliance Matrix: (Units=1/GPa)
#
#
# Indices 1 2 3 4 5 6 
#
# 1 0.014963 0.003527 -0.004235 0.000000 0.000000 0.000000
# 2 0.003527 0.025522 -0.004945 0.000000 0.000000 0.000000
# 3 -0.004235 -0.004945 0.034369 0.000000 0.000000 0.000000
# 4 0.000000 0.000000 0.000000 0.046308 0.000000 0.000000
# 5 0.000000 0.000000 0.000000 0.000000 0.130058 0.000000
# 6 0.000000 0.000000 0.000000 0.000000 0.000000 0.080134
#
#
# Mechanical properties :
#
#
# Convention : Reuss Voigt Hill
#
# Bulk Modulus (GPa) = 15.73632 16.79721 16.26677
# Shear Modulus (GPa) = 13.74214 17.60835 15.67525
#
# Velocity S-wave (km/s) = 2.63586 2.98369 2.81515
# Velocity P-wave (km/s) = 4.14965 4.51245 4.33485
#
# Compressibility (1/GPa) = 0.06354726
#
# Stress axis : x y z
#
# Youngs Moduli (GPa) = 66.83244 39.18140 29.09584
#
# Poissons Ratio (x) = -0.13819 0.12322
# Poissons Ratio (y) = -0.23571 0.14389
# Poissons Ratio (z) = 0.28304 0.19376
#
# Static dielectric constant tensor:
#      x y z
#    x 1.717510 0.000000 0.000000 
#    y 0.000000 1.708500 0.000000 
#    z 0.000000 0.000000 1.664130 
# 
# From -- ./inp_files/17624.got.cif
#   From: 2010.05.17/outbox.cif.g08.bks.cpg/sg40_9_cif.got.tgz:17624.got - 2010.06.03 18:35:42.
