data_PCOD9363764
_publ_section_title
;
Structure prediction by ZEFSAII (Michael W. Deem and Ramdas Pophale) SiO2 
 PCOD9363764
Probable space group: A M A 2
;
_chemical_formula_sum "Si O2"
_cell_formula_units_Z 48
_cell_length_a 8.973310
_cell_length_b 23.612155
_cell_length_c 12.105232
_cell_angle_alpha 90.000000
_cell_angle_beta 90.000000
_cell_angle_gamma 90.000000
_cell_volume 2564.846710
_symmetry_space_group_name_H-M "A M A 2"
_symmetry_group_IT_number 40
_symmetry_cell_setting 'orthorhombic'
loop_
_space_group_symop_operation_xyz
x,y,z
-x,-y,z
1/2-x,y,z
1/2+x,-y,z
x,1/2+y,1/2+z
-x,1/2-y,1/2+z
1/2-x,1/2+y,1/2+z
1/2+x,1/2-y,1/2+z
loop_
_atom_site_type_symbol
_atom_site_label
_atom_site_fract_x
_atom_site_fract_y
_atom_site_fract_z
Si Si1 0.430517 0.137539 0.504110
Si Si2 0.918683 0.443106 0.809693
Si Si3 0.927959 0.727636 0.850047
Si Si4 0.577850 0.838838 0.151743
Si Si5 0.930361 0.937602 0.716888
Si Si6 0.430696 0.645873 0.404036
O O1 0.250000 0.144106 0.497594
O O2 0.481720 0.091059 0.413844
O O3 0.501819 0.195407 0.456871
O O4 0.466444 0.108910 0.621393
O O5 0.750000 0.457293 0.840155
O O6 0.918869 0.400085 0.708708
O O7 0.000000 0.500000 0.783193
O O8 0.750000 0.721576 0.856014
O O9 0.965518 0.794001 0.848221
O O10 0.989235 0.699832 0.737772
O O11 0.750000 0.818173 0.144963
O O12 0.515309 0.847175 0.029484
O O13 0.750000 0.943548 0.716138
O O14 0.979863 0.907701 0.831510
O O15 0.000000 0.000000 0.699998
O O16 0.250000 0.641379 0.409594
#
# Coordination Sequence:
#
# PCOD9363764 Si02
#       6
#     8   8   8   8   8   8
#     4   9  19  35  55  79 110 148 180 220 279 332
#     4   9  17  29  48  73  99 133 173 212 259 309
#     4  10  20  34  56  85 109 136 184 236 277 324
#     4   9  19  37  54  73 106 145 178 215 275 337
#     4  10  21  38  58  82 115 153 191 229 277 335
#     4   9  20  37  56  78 110 149 181 222 281 337
#
# _framework density 18.714569000000001
#
# number of rings (size 3 to 8) (size 9 to 14) (size 15 to 20)
#    0.000    2.667    0.000    2.000    2.333    4.000 
#    0.000    3.333    0.000    0.000    0.000    0.000 
#    0.000    0.000    0.000    0.000    0.000    0.000 
#
# Total GULP energy -133697.722033 kJ/mol
# GULP energy per Si atom -5570.738418 kJ/mol
# Density = 1.867197 g / cm^3
# Si number density = 18.714569 Si / 1000 Ang^3
#
#
#
# Elastic Constant Matrix: (Units=GPa)
#
#
# Indices 1 2 3 4 5 6 
#
# 1 24.4564 20.3925 11.8807 0.0000 0.0000 0.0000
# 2 20.3925 64.5775 22.7322 0.0000 0.0000 0.0000
# 3 11.8807 22.7322 89.8814 0.0000 0.0000 0.0000
# 4 0.0000 0.0000 0.0000 6.8718 0.0000 0.0000
# 5 0.0000 0.0000 0.0000 0.0000 17.9558 0.0000
# 6 0.0000 0.0000 0.0000 0.0000 0.0000 20.2759
#
#
#
# Elastic Compliance Matrix: (Units=1/GPa)
#
#
# Indices 1 2 3 4 5 6 
#
# 1 0.056348 -0.016655 -0.003236 0.000000 0.000000 0.000000
# 2 -0.016655 0.021921 -0.003343 0.000000 0.000000 0.000000
# 3 -0.003236 -0.003343 0.012399 0.000000 0.000000 0.000000
# 4 0.000000 0.000000 0.000000 0.145521 0.000000 0.000000
# 5 0.000000 0.000000 0.000000 0.000000 0.055692 0.000000
# 6 0.000000 0.000000 0.000000 0.000000 0.000000 0.049320
#
#
# Mechanical properties :
#
#
# Convention : Reuss Voigt Hill
#
# Bulk Modulus (GPa) = 22.62363 32.10290 27.36326
# Shear Modulus (GPa) = 12.42536 17.28137 14.85336
#
# Velocity S-wave (km/s) = 2.57950 3.04208 2.82029
# Velocity P-wave (km/s) = 4.58113 5.43417 5.02578
#
# Compressibility (1/GPa) = 0.04420158
#
# Stress axis : x y z
#
# Youngs Moduli (GPa) = 17.74672 45.61784 80.65204
#
# Poissons Ratio (x) = 0.75975 0.26099
# Poissons Ratio (y) = 0.29557 0.26960
# Poissons Ratio (z) = 0.05743 0.15249
#
# Static dielectric constant tensor:
#      x y z
#    x 1.645690 0.000000 0.000000 
#    y 0.000000 1.635520 0.000000 
#    z 0.000000 0.000000 1.676280 
# 
# From -- ./inp_files/10229.got.cif
#   From: 2010.05.17/outbox.cif.g08.bks.cpg/sg40_6_cif.got.tgz:10229.got - 2010.06.03 18:35:42.
