data_PCOD9363643
_publ_section_title
;
Structure prediction by ZEFSAII (Michael W. Deem and Ramdas Pophale) SiO2 
 PCOD9363643
Probable space group: A M A 2
;
_chemical_formula_sum "Si O2"
_cell_formula_units_Z 64
_cell_length_a 8.683760
_cell_length_b 31.033188
_cell_length_c 14.729432
_cell_angle_alpha 90.000000
_cell_angle_beta 90.000000
_cell_angle_gamma 90.000000
_cell_volume 3969.357398
_symmetry_space_group_name_H-M "A M A 2"
_symmetry_group_IT_number 40
_symmetry_cell_setting 'orthorhombic'
loop_
_space_group_symop_operation_xyz
x,y,z
-x,-y,z
1/2-x,y,z
1/2+x,-y,z
x,1/2+y,1/2+z
-x,1/2-y,1/2+z
1/2-x,1/2+y,1/2+z
1/2+x,1/2-y,1/2+z
loop_
_atom_site_type_symbol
_atom_site_label
_atom_site_fract_x
_atom_site_fract_y
_atom_site_fract_z
Si Si1 0.432989 0.768261 0.411000
Si Si2 0.563440 0.787000 0.215259
Si Si3 0.567790 0.864353 0.745028
Si Si4 0.933462 0.954160 0.828065
Si Si5 0.433509 0.301341 0.107100
Si Si6 0.932795 0.546429 0.530084
Si Si7 0.931374 0.868731 0.094046
Si Si8 0.071135 0.824835 0.922916
O O1 0.250000 0.758145 0.408685
O O2 0.486295 0.785773 0.313836
O O3 0.460237 0.797390 0.499561
O O4 0.529340 0.725066 0.427853
O O5 0.750000 0.786551 0.223813
O O6 0.522087 0.743878 0.157376
O O7 0.519077 0.830708 0.162382
O O8 0.750000 0.858217 0.761251
O O9 0.534129 0.914869 0.759882
O O10 0.520525 0.841202 0.652453
O O11 0.471676 0.840282 0.822773
O O12 0.750000 0.957645 0.839530
O O13 0.004418 0.944949 0.927713
O O14 0.000000 0.000000 0.797667
O O15 0.250000 0.306272 0.121633
O O16 0.750000 0.544107 0.525624
O O17 0.000000 0.500000 0.557355
O O18 0.984704 0.585385 0.594734
O O19 0.750000 0.875609 0.105493
O O20 0.966287 0.849536 0.994786
O O21 0.250000 0.832949 0.942802
#
# Coordination Sequence:
#
# PCOD9363643 Si02
#       8
#     8   8   8   8   8   8   8   8
#     4  11  22  37  53  72 103 138 175 220 261 298
#     4  10  21  36  53  75 104 136 175 215 257 307
#     4  11  22  34  51  75 103 138 175 214 256 304
#     4  10  20  33  50  73 104 136 171 211 257 307
#     4  10  21  36  52  74 103 137 175 214 255 305
#     4  11  21  33  51  76 105 138 174 211 256 310
#     4  11  21  36  53  73 105 140 175 217 260 304
#     4  12  22  31  49  74 103 139 177 213 254 306
#
# _framework density 16.123517
#
# number of rings (size 3 to 8) (size 9 to 14) (size 15 to 20)
#    0.000    1.250    3.750    4.500    0.000    3.500 
#    0.000    0.000    0.000    0.000    0.000    0.875 
#    0.000    4.000    0.000    0.000    0.000    0.000 
#
# Total GULP energy -178655.778041 kJ/mol
# GULP energy per Si atom -5582.993064 kJ/mol
# Density = 1.608682 g / cm^3
# Si number density = 16.123517 Si / 1000 Ang^3
#
#
#
# Elastic Constant Matrix: (Units=GPa)
#
#
# Indices 1 2 3 4 5 6 
#
# 1 54.5815 32.6428 11.4001 0.0000 0.0000 0.0000
# 2 32.6428 89.5233 9.3918 0.0000 0.0000 0.0000
# 3 11.4001 9.3918 47.2325 0.0000 0.0000 0.0000
# 4 0.0000 0.0000 0.0000 9.6841 0.0000 0.0000
# 5 0.0000 0.0000 0.0000 0.0000 32.2908 0.0000
# 6 0.0000 0.0000 0.0000 0.0000 0.0000 25.1434
#
#
#
# Elastic Compliance Matrix: (Units=1/GPa)
#
#
# Indices 1 2 3 4 5 6 
#
# 1 0.024211 -0.008390 -0.004175 0.000000 0.000000 0.000000
# 2 -0.008390 0.014316 -0.000822 0.000000 0.000000 0.000000
# 3 -0.004175 -0.000822 0.022343 0.000000 0.000000 0.000000
# 4 0.000000 0.000000 0.000000 0.103262 0.000000 0.000000
# 5 0.000000 0.000000 0.000000 0.000000 0.030969 0.000000
# 6 0.000000 0.000000 0.000000 0.000000 0.000000 0.039772
#
#
# Mechanical properties :
#
#
# Convention : Reuss Voigt Hill
#
# Bulk Modulus (GPa) = 29.32899 33.13407 31.23153
# Shear Modulus (GPa) = 18.31425 22.61716 20.46571
#
# Velocity S-wave (km/s) = 3.37393 3.74939 3.56660
# Velocity P-wave (km/s) = 5.77992 6.27205 6.03101
#
# Compressibility (1/GPa) = 0.03409596
#
# Stress axis : x y z
#
# Youngs Moduli (GPa) = 41.30350 69.85334 44.75679
#
# Poissons Ratio (x) = 0.58607 0.18687
# Poissons Ratio (y) = 0.34654 0.03677
# Poissons Ratio (z) = 0.17246 0.05739
#
# Static dielectric constant tensor:
#      x y z
#    x 1.538710 0.000000 0.000000 
#    y 0.000000 1.557260 0.000000 
#    z 0.000000 0.000000 1.525290 
# 
# From -- ./inp_files/15931.got.cif
#   From: 2010.05.17/outbox.cif.g08.bks.cpg/sg40_8_cif.got.tgz:15931.got - 2010.06.03 18:35:42.
