data_PCOD9363277
_publ_section_title
;
Structure prediction by ZEFSAII (Michael W. Deem and Ramdas Pophale) SiO2 
 PCOD9363277
Probable space group: A M A 2
;
_chemical_formula_sum "Si O2"
_cell_formula_units_Z 64
_cell_length_a 8.723276
_cell_length_b 20.100271
_cell_length_c 21.113699
_cell_angle_alpha 90.000000
_cell_angle_beta 90.000000
_cell_angle_gamma 90.000000
_cell_volume 3702.080450
_symmetry_space_group_name_H-M "A M A 2"
_symmetry_group_IT_number 40
_symmetry_cell_setting 'orthorhombic'
loop_
_space_group_symop_operation_xyz
x,y,z
-x,-y,z
1/2-x,y,z
1/2+x,-y,z
x,1/2+y,1/2+z
-x,1/2-y,1/2+z
1/2-x,1/2+y,1/2+z
1/2+x,1/2-y,1/2+z
loop_
_atom_site_type_symbol
_atom_site_label
_atom_site_fract_x
_atom_site_fract_y
_atom_site_fract_z
Si Si1 0.433679 0.704098 0.408040
Si Si2 0.567808 0.795325 0.765789
Si Si3 0.932972 0.070181 0.715392
Si Si4 0.434197 0.711613 0.651593
Si Si5 0.434177 0.069598 0.099742
Si Si6 0.934837 0.203896 0.525737
Si Si7 0.432902 0.570049 0.073432
Si Si8 0.567524 0.569557 0.457778
O O1 0.250000 0.693936 0.414300
O O2 0.465461 0.728444 0.337069
O O3 0.479400 0.755251 0.463166
O O4 0.514050 0.633556 0.419189
O O5 0.750000 0.804547 0.759464
O O6 0.487856 0.866364 0.754513
O O7 0.510555 0.745178 0.712048
O O8 0.750000 0.066888 0.713117
O O9 0.997162 0.079413 0.643948
O O10 0.000000 0.000000 0.739068
O O11 0.250000 0.715824 0.658379
O O12 0.475599 0.634741 0.639866
O O13 0.474524 0.752697 0.588006
O O14 0.250000 0.066095 0.095094
O O15 0.500000 0.000000 0.124867
O O16 0.500909 0.077831 0.028935
O O17 0.750000 0.195398 0.525499
O O18 0.014125 0.132760 0.532500
O O19 0.500000 0.500000 0.049567
O O20 0.250000 0.566447 0.078135
O O21 0.500000 0.500000 0.432684
O O22 0.750000 0.565144 0.460509
#
# Coordination Sequence:
#
# PCOD9363277 Si02
#       8
#     8   8   8   8   8   8   8   8
#     4  10  22  40  57  77 110 148 184 225 273 324
#     4  11  23  37  56  81 110 145 185 227 271 324
#     4  11  21  35  54  77 110 148 185 224 268 321
#     4  10  20  35  58  81 110 146 180 225 276 323
#     4  10  19  34  55  82 112 144 180 225 275 322
#     4  10  19  36  59  81 109 145 182 224 275 322
#     4  11  21  34  55  84 113 141 180 226 273 324
#     4  11  21  33  53  79 110 147 185 226 267 320
#
# _framework density 17.287578
#
# number of rings (size 3 to 8) (size 9 to 14) (size 15 to 20)
#    0.000    1.500    2.500    5.625    0.000    3.000 
#    0.000    0.000    0.000    0.750    0.000    1.750 
#    0.000    0.000    0.000    0.000    0.000    0.000 
#
# Total GULP energy -178773.446527 kJ/mol
# GULP energy per Si atom -5586.670204 kJ/mol
# Density = 1.724823 g / cm^3
# Si number density = 17.287578 Si / 1000 Ang^3
#
#
#
# Elastic Constant Matrix: (Units=GPa)
#
#
# Indices 1 2 3 4 5 6 
#
# 1 85.7700 58.5532 51.8859 0.0000 0.0000 0.0000
# 2 58.5532 133.2843 66.7849 0.0000 0.0000 0.0000
# 3 51.8859 66.7849 102.0812 0.0000 0.0000 0.0000
# 4 0.0000 0.0000 0.0000 22.3689 0.0000 0.0000
# 5 0.0000 0.0000 0.0000 0.0000 35.4958 0.0000
# 6 0.0000 0.0000 0.0000 0.0000 0.0000 22.8341
#
#
#
# Elastic Compliance Matrix: (Units=1/GPa)
#
#
# Indices 1 2 3 4 5 6 
#
# 1 0.018998 -0.005218 -0.006242 0.000000 0.000000 0.000000
# 2 -0.005218 0.012595 -0.005588 0.000000 0.000000 0.000000
# 3 -0.006242 -0.005588 0.016625 0.000000 0.000000 0.000000
# 4 0.000000 0.000000 0.000000 0.044705 0.000000 0.000000
# 5 0.000000 0.000000 0.000000 0.000000 0.028172 0.000000
# 6 0.000000 0.000000 0.000000 0.000000 0.000000 0.043794
#
#
# Mechanical properties :
#
#
# Convention : Reuss Voigt Hill
#
# Bulk Modulus (GPa) = 70.81671 75.06482 72.94076
# Shear Modulus (GPa) = 24.54687 25.73385 25.14036
#
# Velocity S-wave (km/s) = 3.77226 3.86239 3.81759
# Velocity P-wave (km/s) = 7.74765 7.96280 7.85597
#
# Compressibility (1/GPa) = 0.01412096
#
# Stress axis : x y z
#
# Youngs Moduli (GPa) = 52.63848 79.39668 60.15133
#
# Poissons Ratio (x) = 0.41429 0.37548
# Poissons Ratio (y) = 0.27467 0.33612
# Poissons Ratio (z) = 0.32859 0.44366
#
# Static dielectric constant tensor:
#      x y z
#    x 1.578720 0.000000 0.000000 
#    y 0.000000 1.587130 0.000000 
#    z 0.000000 0.000000 1.578220 
# 
# From -- ./inp_files/19612.got.cif
#   From: 2010.05.17/outbox.cif.g08.bks.cpg/sg40_10_cif.got.tgz:19612.got - 2010.06.03 18:35:42.
