data_PCOD9363544
_publ_section_title
;
Structure prediction by ZEFSAII (Michael W. Deem and Ramdas Pophale) SiO2 
 PCOD9363544
Probable space group: A M A 2
;
_chemical_formula_sum "Si O2"
_cell_formula_units_Z 52
_cell_length_a 25.516235
_cell_length_b 12.288618
_cell_length_c 7.322552
_cell_angle_alpha 90.000000
_cell_angle_beta 90.000000
_cell_angle_gamma 90.000000
_cell_volume 2296.054021
_symmetry_space_group_name_H-M "A M A 2"
_symmetry_group_IT_number 40
_symmetry_cell_setting 'orthorhombic'
loop_
_space_group_symop_operation_xyz
x,y,z
-x,-y,z
1/2-x,y,z
1/2+x,-y,z
x,1/2+y,1/2+z
-x,1/2-y,1/2+z
1/2-x,1/2+y,1/2+z
1/2+x,1/2-y,1/2+z
loop_
_atom_site_type_symbol
_atom_site_label
_atom_site_fract_x
_atom_site_fract_y
_atom_site_fract_z
Si Si1 0.976544 0.885253 0.187140
Si Si2 0.863578 0.645844 0.406831
Si Si3 0.750000 0.470239 0.091460
Si Si4 0.250000 0.352470 0.378186
Si Si5 0.363475 0.553280 0.682207
Si Si6 0.250000 0.055101 0.158483
Si Si7 0.050363 0.195598 0.550911
Si Si8 0.135327 0.541593 0.120217
O O1 0.915825 0.883085 0.128480
O O2 0.977557 0.882998 0.407397
O O3 0.009598 0.779969 0.132926
O O4 0.000000 0.000000 0.119945
O O5 0.806184 0.702221 0.403778
O O6 0.864919 0.561062 0.575139
O O7 0.909007 0.730974 0.435369
O O8 0.870415 0.571185 0.228096
O O9 0.750000 0.590134 0.180767
O O10 0.804871 0.419404 0.158476
O O11 0.750000 0.476190 0.872921
O O12 0.250000 0.451714 0.523849
O O13 0.307441 0.607112 0.631956
O O14 0.367014 0.531361 0.899998
O O15 0.088871 0.123481 0.675772
#
# Coordination Sequence:
#
# PCOD9363544 Si02
#       8
#     8   8   4   4   8   4   8   8
#     4  11  24  42  59  86 123 156 205 258 296 360
#     4  10  19  38  62  90 126 159 201 251 308 360
#     4   8  14  31  55  83 125 154 191 250 303 359
#     4   8  16  29  57  91 119 156 195 244 301 367
#     4   9  18  36  60  85 122 153 193 249 297 358
#     4   8  14  28  56  86 110 156 188 228 310 354
#     4  11  25  39  62  91 113 168 212 245 315 358
#     4   9  20  36  59  92 121 160 203 250 307 364
#
# _framework density 22.647549999999999
#
# number of rings (size 3 to 8) (size 9 to 14) (size 15 to 20)
#    0.000    2.462    1.538    0.000    2.154    3.077 
#    0.000    0.769    0.000    0.000    0.000   22.615 
#    0.000    0.000    0.000    0.000    0.000    0.000 
#
# Total GULP energy -144996.423619 kJ/mol
# GULP energy per Si atom -5576.785524 kJ/mol
# Density = 2.259600 g / cm^3
# Si number density = 22.647550 Si / 1000 Ang^3
#
#
#
# Elastic Constant Matrix: (Units=GPa)
#
#
# Indices 1 2 3 4 5 6 
#
# 1 143.9231 24.5003 17.3613 0.0000 0.0000 0.0000
# 2 24.5003 59.7925 9.9820 0.0000 0.0000 0.0000
# 3 17.3613 9.9820 66.7777 0.0000 0.0000 0.0000
# 4 0.0000 0.0000 0.0000 37.4794 0.0000 0.0000
# 5 0.0000 0.0000 0.0000 0.0000 1.0304 0.0000
# 6 0.0000 0.0000 0.0000 0.0000 0.0000 25.4285
#
#
#
# Elastic Compliance Matrix: (Units=1/GPa)
#
#
# Indices 1 2 3 4 5 6 
#
# 1 0.007623 -0.002864 -0.001554 0.000000 0.000000 0.000000
# 2 -0.002864 0.018229 -0.001980 0.000000 0.000000 0.000000
# 3 -0.001554 -0.001980 0.015675 0.000000 0.000000 0.000000
# 4 0.000000 0.000000 0.000000 0.026681 0.000000 0.000000
# 5 0.000000 0.000000 0.000000 0.000000 0.970470 0.000000
# 6 0.000000 0.000000 0.000000 0.000000 0.000000 0.039326
#
#
# Mechanical properties :
#
#
# Convention : Reuss Voigt Hill
#
# Bulk Modulus (GPa) = 34.80618 41.57561 38.19090
# Shear Modulus (GPa) = 4.54389 27.36430 15.95410
#
# Velocity S-wave (km/s) = 1.41799 3.47979 2.65703
# Velocity P-wave (km/s) = 4.25240 5.87731 5.12960
#
# Compressibility (1/GPa) = 0.02873053
#
# Stress axis : x y z
#
# Youngs Moduli (GPa) = 131.17899 54.85843 63.79574
#
# Poissons Ratio (x) = 0.15713 0.09912
# Poissons Ratio (y) = 0.37573 0.12633
# Poissons Ratio (z) = 0.20382 0.10863
#
# Static dielectric constant tensor:
#      x y z
#    x 1.871040 0.000000 0.000000 
#    y 0.000000 1.855060 0.000000 
#    z 0.000000 0.000000 1.878360 
# 
# From -- ./inp_files/8853.got.cif
#   From: 2010.05.17/outbox.cif.g08.bks.cpg/sg40_5_cif.got.tgz:8853.got - 2010.06.03 18:35:42.
