data_PCOD9363018
_publ_section_title
;
Structure prediction by ZEFSAII (Michael W. Deem and Ramdas Pophale) SiO2 
 PCOD9363018
Probable space group: A M A 2
;
_chemical_formula_sum "Si O2"
_cell_formula_units_Z 64
_cell_length_a 8.700023
_cell_length_b 30.757710
_cell_length_c 14.628995
_cell_angle_alpha 90.000000
_cell_angle_beta 90.000000
_cell_angle_gamma 90.000000
_cell_volume 3914.613505
_symmetry_space_group_name_H-M "A M A 2"
_symmetry_group_IT_number 40
_symmetry_cell_setting 'orthorhombic'
loop_
_space_group_symop_operation_xyz
x,y,z
-x,-y,z
1/2-x,y,z
1/2+x,-y,z
x,1/2+y,1/2+z
-x,1/2-y,1/2+z
1/2-x,1/2+y,1/2+z
1/2+x,1/2-y,1/2+z
loop_
_atom_site_type_symbol
_atom_site_label
_atom_site_fract_x
_atom_site_fract_y
_atom_site_fract_z
Si Si1 0.566255 0.954255 0.861470
Si Si2 0.066504 0.634393 0.606378
Si Si3 0.570905 0.184486 0.940629
Si Si4 0.429854 0.776095 0.426451
Si Si5 0.565971 0.546822 0.566566
Si Si6 0.432581 0.636750 0.272525
Si Si7 0.567815 0.301171 0.111272
Si Si8 0.067518 0.719484 0.724863
O O1 0.750000 0.957651 0.874060
O O2 0.535169 0.913484 0.795300
O O3 0.500000 0.000000 0.826769
O O4 0.491312 0.946983 0.961379
O O5 0.250000 0.632431 0.591092
O O6 0.034835 0.672777 0.678539
O O7 0.979797 0.649611 0.515082
O O8 0.002752 0.586421 0.625385
O O9 0.750000 0.195522 0.949091
O O10 0.467303 0.226673 0.955428
O O11 0.532269 0.165217 0.842043
O O12 0.250000 0.782269 0.413226
O O13 0.490001 0.803395 0.512378
O O14 0.513529 0.781929 0.329653
O O15 0.500000 0.500000 0.595249
O O16 0.750000 0.546887 0.568404
O O17 0.250000 0.643952 0.292441
O O18 0.461290 0.656075 0.172525
O O19 0.750000 0.296282 0.098804
O O20 0.510673 0.259008 0.168978
O O21 0.250000 0.726887 0.720976
#
# Coordination Sequence:
#
# PCOD9363018 Si02
#       8
#     8   8   8   8   8   8   8   8
#     4  10  19  32  50  73 105 138 173 213 262 313
#     4  11  22  36  53  75 107 141 177 219 267 316
#     4  12  22  31  51  76 104 140 182 220 259 311
#     4  12  24  38  53  73 107 143 179 224 268 308
#     4  11  21  33  51  76 106 140 177 215 261 314
#     4  10  21  35  52  74 105 142 176 217 265 312
#     4  11  22  36  55  77 104 139 181 220 265 317
#     4  11  23  37  55  78 105 139 180 221 266 316
#
# _framework density 16.348997000000001
#
# number of rings (size 3 to 8) (size 9 to 14) (size 15 to 20)
#    0.000    1.000    3.750    5.625    0.000    2.500 
#    0.000    0.000    0.000    0.000    0.000    0.875 
#    0.000    2.000    0.000    0.000    0.000    0.000 
#
# Total GULP energy -178723.201401 kJ/mol
# GULP energy per Si atom -5585.100044 kJ/mol
# Density = 1.631179 g / cm^3
# Si number density = 16.348997 Si / 1000 Ang^3
#
#
#
# Elastic Constant Matrix: (Units=GPa)
#
#
# Indices 1 2 3 4 5 6 
#
# 1 54.7558 16.3223 4.1601 0.0000 0.0000 0.0000
# 2 16.3223 70.2008 1.8078 0.0000 0.0000 0.0000
# 3 4.1601 1.8078 38.8797 0.0000 0.0000 0.0000
# 4 0.0000 0.0000 0.0000 21.3483 0.0000 0.0000
# 5 0.0000 0.0000 0.0000 0.0000 27.6950 0.0000
# 6 0.0000 0.0000 0.0000 0.0000 0.0000 -15.0456
#
#
#
# Elastic Compliance Matrix: (Units=1/GPa)
#
#
# Indices 1 2 3 4 5 6 
#
# 1 0.019763 -0.004546 -0.001903 0.000000 0.000000 0.000000
# 2 -0.004546 0.015308 -0.000225 0.000000 0.000000 0.000000
# 3 -0.001903 -0.000225 0.025934 0.000000 0.000000 0.000000
# 4 0.000000 0.000000 0.000000 0.046842 0.000000 0.000000
# 5 0.000000 0.000000 0.000000 0.000000 0.036108 0.000000
# 6 0.000000 0.000000 0.000000 0.000000 0.000000 -0.066465
#
#
# Mechanical properties :
#
#
# Convention : Reuss Voigt Hill
#
# Bulk Modulus (GPa) = 20.98385 23.15740 22.07063
# Shear Modulus (GPa) = 46.84976 16.23594 31.54285
#
# Velocity S-wave (km/s) = 5.35894 3.15474 4.39720
# Velocity P-wave (km/s) = 7.15219 5.24071 6.26972
#
# Compressibility (1/GPa) = 0.04765570
#
# Stress axis : x y z
#
# Youngs Moduli (GPa) = 50.60053 65.32692 38.55869
#
# Poissons Ratio (x) = 0.29697 0.07339
# Poissons Ratio (y) = 0.23003 0.00869
# Poissons Ratio (z) = 0.09630 0.01472
#
# Static dielectric constant tensor:
#      x y z
#    x 1.544000 0.000000 0.000000 
#    y 0.000000 1.574910 0.000000 
#    z 0.000000 0.000000 1.539210 
# 
# From -- ./inp_files/15922.got.cif
#   From: 2010.05.17/outbox.cif.g08.bks.cpg/sg40_8_cif.got.tgz:15922.got - 2010.06.03 18:35:42.
