data_PCOD9363410
_publ_section_title
;
Structure prediction by ZEFSAII (Michael W. Deem and Ramdas Pophale) SiO2 
 PCOD9363410
Probable space group: A M A 2
;
_chemical_formula_sum "Si O2"
_cell_formula_units_Z 56
_cell_length_a 22.761827
_cell_length_b 9.060315
_cell_length_c 13.633170
_cell_angle_alpha 90.000000
_cell_angle_beta 90.000000
_cell_angle_gamma 90.000000
_cell_volume 2811.559414
_symmetry_space_group_name_H-M "A M A 2"
_symmetry_group_IT_number 40
_symmetry_cell_setting 'orthorhombic'
loop_
_space_group_symop_operation_xyz
x,y,z
-x,-y,z
1/2-x,y,z
1/2+x,-y,z
x,1/2+y,1/2+z
-x,1/2-y,1/2+z
1/2-x,1/2+y,1/2+z
1/2+x,1/2-y,1/2+z
loop_
_atom_site_type_symbol
_atom_site_label
_atom_site_fract_x
_atom_site_fract_y
_atom_site_fract_z
Si Si1 0.377507 0.163879 0.307510
Si Si2 0.315993 0.249569 0.928299
Si Si3 0.573457 0.664589 0.813747
Si Si4 0.819253 0.444813 0.616868
Si Si5 0.183834 0.581008 0.003746
Si Si6 0.972844 0.161193 0.904871
Si Si7 0.095313 0.777988 0.104182
O O1 0.331891 0.153687 0.398087
O O2 0.420864 0.298645 0.328912
O O3 0.415421 0.011099 0.314230
O O4 0.345021 0.157178 0.203743
O O5 0.250000 0.231364 0.888316
O O6 0.317792 0.406588 0.984488
O O7 0.327435 0.127019 0.010189
O O8 0.365366 0.260324 0.846370
O O9 0.523931 0.719323 0.887385
O O10 0.559363 0.721478 0.704796
O O11 0.750000 0.467274 0.633270
O O12 0.855716 0.595117 0.619043
O O13 0.250000 0.622576 0.034133
O O14 0.132840 0.633920 0.076382
O O15 0.000000 0.500000 0.391948
O O16 0.945290 0.180336 0.012507
#
# Coordination Sequence:
#
# PCOD9363410 Si02
#       7
#     8   8   8   8   8   8   8
#     4   9  20  36  57  81 108 146 190 224 270 339
#     4   9  19  34  55  82 113 145 180 225 279 334
#     4  10  21  38  57  78 108 148 188 226 275 337
#     4  10  19  35  60  88 115 146 183 231 284 337
#     4   9  17  33  54  80 112 142 176 225 277 329
#     4  11  23  38  55  79 111 145 185 238 285 326
#     4  10  22  36  56  82 107 144 190 233 277 334
#
# _framework density 19.917773
#
# number of rings (size 3 to 8) (size 9 to 14) (size 15 to 20)
#    0.000    2.286    0.000    2.143    0.000    8.571 
#    0.000    2.857    0.000    7.714    0.000    0.000 
#    0.000    0.000    0.000    0.000    0.000    0.000 
#
# Total GULP energy -156309.232954 kJ/mol
# GULP energy per Si atom -5582.472605 kJ/mol
# Density = 1.987244 g / cm^3
# Si number density = 19.917773 Si / 1000 Ang^3
#
#
#
# Elastic Constant Matrix: (Units=GPa)
#
#
# Indices 1 2 3 4 5 6 
#
# 1 59.0308 19.2530 30.9474 0.0000 0.0000 0.0000
# 2 19.2530 22.0969 7.3557 0.0000 0.0000 0.0000
# 3 30.9474 7.3557 78.5528 0.0000 0.0000 0.0000
# 4 0.0000 0.0000 0.0000 14.1550 0.0000 0.0000
# 5 0.0000 0.0000 0.0000 0.0000 27.4880 0.0000
# 6 0.0000 0.0000 0.0000 0.0000 0.0000 30.3319
#
#
#
# Elastic Compliance Matrix: (Units=1/GPa)
#
#
# Indices 1 2 3 4 5 6 
#
# 1 0.029117 -0.022245 -0.009388 0.000000 0.000000 0.000000
# 2 -0.022245 0.063706 0.002798 0.000000 0.000000 0.000000
# 3 -0.009388 0.002798 0.016167 0.000000 0.000000 0.000000
# 4 0.000000 0.000000 0.000000 0.070647 0.000000 0.000000
# 5 0.000000 0.000000 0.000000 0.000000 0.036380 0.000000
# 6 0.000000 0.000000 0.000000 0.000000 0.000000 0.032969
#
#
# Mechanical properties :
#
#
# Convention : Reuss Voigt Hill
#
# Bulk Modulus (GPa) = 19.48540 30.53251 25.00896
# Shear Modulus (GPa) = 15.44346 21.20324 18.32335
#
# Velocity S-wave (km/s) = 2.78755 3.26627 3.03636
# Velocity P-wave (km/s) = 4.49052 5.43941 4.98758
#
# Compressibility (1/GPa) = 0.05132046
#
# Stress axis : x y z
#
# Youngs Moduli (GPa) = 34.34362 15.69717 61.85441
#
# Poissons Ratio (x) = 0.34918 0.58071
# Poissons Ratio (y) = 0.76397 -0.17309
# Poissons Ratio (z) = 0.32243 -0.04393
#
# Static dielectric constant tensor:
#      x y z
#    x 1.708630 0.000000 0.000000 
#    y 0.000000 1.695870 0.000000 
#    z 0.000000 0.000000 1.693090 
# 
# From -- ./inp_files/13568.got.cif
#   From: 2010.05.17/outbox.cif.g08.bks.cpg/sg40_7_cif.got.tgz:13568.got - 2010.06.03 18:35:42.
