data_PCOD9363538
_publ_section_title
;
Structure prediction by ZEFSAII (Michael W. Deem and Ramdas Pophale) SiO2 
 PCOD9363538
Probable space group: A M A 2
;
_chemical_formula_sum "Si O2"
_cell_formula_units_Z 56
_cell_length_a 21.523592
_cell_length_b 8.877347
_cell_length_c 14.897103
_cell_angle_alpha 90.000000
_cell_angle_beta 90.000000
_cell_angle_gamma 90.000000
_cell_volume 2846.425147
_symmetry_space_group_name_H-M "A M A 2"
_symmetry_group_IT_number 40
_symmetry_cell_setting 'orthorhombic'
loop_
_space_group_symop_operation_xyz
x,y,z
-x,-y,z
1/2-x,y,z
1/2+x,-y,z
x,1/2+y,1/2+z
-x,1/2-y,1/2+z
1/2-x,1/2+y,1/2+z
1/2+x,1/2-y,1/2+z
loop_
_atom_site_type_symbol
_atom_site_label
_atom_site_fract_x
_atom_site_fract_y
_atom_site_fract_z
Si Si1 0.324799 0.377419 0.559120
Si Si2 0.181175 0.391442 0.883594
Si Si3 0.570870 0.530745 0.124013
Si Si4 0.119017 0.703363 0.525558
Si Si5 0.899467 0.349561 0.940522
Si Si6 0.982573 0.825724 0.867052
Si Si7 0.621068 0.282132 0.233204
O O1 0.250000 0.367463 0.566707
O O2 0.348245 0.547248 0.546451
O O3 0.350620 0.273184 0.478122
O O4 0.359475 0.316241 0.648032
O O5 0.250000 0.451488 0.876219
O O6 0.168922 0.314491 0.979500
O O7 0.132868 0.528031 0.876670
O O8 0.169203 0.262265 0.810381
O O9 0.500000 0.500000 0.150374
O O10 0.616206 0.451545 0.195488
O O11 0.587965 0.703621 0.106519
O O12 0.578281 0.442822 0.028697
O O13 0.065405 0.680323 0.450780
O O14 0.957093 0.268327 0.894056
O O15 0.945380 0.758404 0.782065
O O16 0.000000 0.000000 0.853150
#
# Coordination Sequence:
#
# PCOD9363538 Si02
#       7
#     8   8   8   8   8   8   8
#     4  11  22  42  62  90 121 161 215 257 305 371
#     4  10  21  41  60  85 120 164 211 251 305 374
#     4  10  19  38  59  90 125 156 199 251 313 382
#     4  10  21  36  67  91 118 161 205 264 310 364
#     4  10  21  37  66  91 116 163 205 258 309 367
#     4  11  20  40  61  94 130 154 203 257 324 383
#     4  10  24  38  60  86 126 169 192 256 317 367
#
# _framework density 19.6738
#
# number of rings (size 3 to 8) (size 9 to 14) (size 15 to 20)
#    0.000    1.714    2.857    1.714    0.000    0.000 
#    7.714    2.143    0.000    0.000    0.000    0.000 
#    0.000    0.000    0.000    0.000    0.000    0.000 
#
# Total GULP energy -156216.346989 kJ/mol
# GULP energy per Si atom -5579.155250 kJ/mol
# Density = 1.962902 g / cm^3
# Si number density = 19.673800 Si / 1000 Ang^3
#
#
#
# Elastic Constant Matrix: (Units=GPa)
#
#
# Indices 1 2 3 4 5 6 
#
# 1 131.3512 53.8491 41.7615 0.0000 0.0000 0.0000
# 2 53.8491 103.1327 24.0575 0.0000 0.0000 0.0000
# 3 41.7615 24.0575 59.2846 0.0000 0.0000 0.0000
# 4 0.0000 0.0000 0.0000 19.5105 0.0000 0.0000
# 5 0.0000 0.0000 0.0000 0.0000 12.5079 0.0000
# 6 0.0000 0.0000 0.0000 0.0000 0.0000 30.0977
#
#
#
# Elastic Compliance Matrix: (Units=1/GPa)
#
#
# Indices 1 2 3 4 5 6 
#
# 1 0.011448 -0.004525 -0.006228 0.000000 0.000000 0.000000
# 2 -0.004525 0.012498 -0.001884 0.000000 0.000000 0.000000
# 3 -0.006228 -0.001884 0.022020 0.000000 0.000000 0.000000
# 4 0.000000 0.000000 0.000000 0.051255 0.000000 0.000000
# 5 0.000000 0.000000 0.000000 0.000000 0.079949 0.000000
# 6 0.000000 0.000000 0.000000 0.000000 0.000000 0.033225
#
#
# Mechanical properties :
#
#
# Convention : Reuss Voigt Hill
#
# Bulk Modulus (GPa) = 48.32904 59.23385 53.78144
# Shear Modulus (GPa) = 20.61276 24.02990 22.32133
#
# Velocity S-wave (km/s) = 3.24037 3.49867 3.37199
# Velocity P-wave (km/s) = 6.21438 6.81867 6.52353
#
# Compressibility (1/GPa) = 0.02069149
#
# Stress axis : x y z
#
# Youngs Moduli (GPa) = 87.34860 80.01068 45.41337
#
# Poissons Ratio (x) = 0.36202 0.28285
# Poissons Ratio (y) = 0.39523 0.08558
# Poissons Ratio (z) = 0.54404 0.15078
#
# Static dielectric constant tensor:
#      x y z
#    x 1.697260 0.000000 0.000000 
#    y 0.000000 1.683110 0.000000 
#    z 0.000000 0.000000 1.732440 
# 
# From -- ./inp_files/18193.got.cif
#   From: 2010.05.17/outbox.cif.g08.bks.cpg/sg40_10_cif.got.tgz:18193.got - 2010.06.03 18:35:42.
