data_PCOD9363851
_publ_section_title
;
Structure prediction by ZEFSAII (Michael W. Deem and Ramdas Pophale) SiO2 
 PCOD9363851
Probable space group: A M A 2
;
_chemical_formula_sum "Si O2"
_cell_formula_units_Z 64
_cell_length_a 8.798092
_cell_length_b 25.522362
_cell_length_c 15.421925
_cell_angle_alpha 90.000000
_cell_angle_beta 90.000000
_cell_angle_gamma 90.000000
_cell_volume 3462.963786
_symmetry_space_group_name_H-M "A M A 2"
_symmetry_group_IT_number 40
_symmetry_cell_setting 'orthorhombic'
loop_
_space_group_symop_operation_xyz
x,y,z
-x,-y,z
1/2-x,y,z
1/2+x,-y,z
x,1/2+y,1/2+z
-x,1/2-y,1/2+z
1/2-x,1/2+y,1/2+z
1/2+x,1/2-y,1/2+z
loop_
_atom_site_type_symbol
_atom_site_label
_atom_site_fract_x
_atom_site_fract_y
_atom_site_fract_z
Si Si1 0.066030 0.942182 0.533440
Si Si2 0.932764 0.556716 0.395817
Si Si3 0.569096 0.352083 0.513157
Si Si4 0.429135 0.217145 0.684860
Si Si5 0.067045 0.858283 0.388834
Si Si6 0.067685 0.892365 0.716065
Si Si7 0.070123 0.740486 0.982350
Si Si8 0.567046 0.664137 0.700699
O O1 0.250000 0.944711 0.534477
O O2 0.020375 0.904321 0.454253
O O3 0.014370 0.916767 0.624775
O O4 0.000000 0.000000 0.524345
O O5 0.750000 0.555110 0.398616
O O6 0.982126 0.574117 0.298858
O O7 0.000000 0.500000 0.416226
O O8 0.993304 0.600714 0.460969
O O9 0.750000 0.354969 0.507733
O O10 0.512029 0.296342 0.475397
O O11 0.515076 0.353230 0.613297
O O12 0.250000 0.210242 0.700500
O O13 0.514568 0.167531 0.722958
O O14 0.454541 0.220290 0.581112
O O15 0.473288 0.274773 0.717735
O O16 0.250000 0.852762 0.394602
O O17 0.030079 0.867247 0.287922
O O18 0.993992 0.804188 0.420567
O O19 0.250000 0.892823 0.714455
O O20 0.250000 0.747987 0.970329
O O21 0.750000 0.662769 0.685538
#
# Coordination Sequence:
#
# PCOD9363851 Si02
#       8
#     8   8   8   8   8   8   8   8
#     4  10  21  37  57  83 116 155 196 236 284 342
#     4  11  24  42  62  87 117 154 199 253 302 355
#     4  11  23  40  62  86 115 156 199 247 301 356
#     4   9  18  32  52  81 117 153 191 232 284 344
#     4  10  20  36  59  86 119 157 197 242 295 352
#     4  10  21  36  56  84 119 154 191 238 290 347
#     4  10  20  35  56  86 120 155 193 240 292 349
#     4   9  20  38  58  85 120 156 194 244 298 350
#
# _framework density 18.481278
#
# number of rings (size 3 to 8) (size 9 to 14) (size 15 to 20)
#    0.000    2.000    1.250    3.000    1.750    4.500 
#    0.000    0.625    0.000    1.500    0.000    0.000 
#    0.000    0.000    0.000    0.000    0.000    0.000 
#
# Total GULP energy -178721.489284 kJ/mol
# GULP energy per Si atom -5585.046540 kJ/mol
# Density = 1.843921 g / cm^3
# Si number density = 18.481278 Si / 1000 Ang^3
#
#
#
# Elastic Constant Matrix: (Units=GPa)
#
#
# Indices 1 2 3 4 5 6 
#
# 1 37.1969 35.5711 31.5420 0.0000 0.0000 0.0000
# 2 35.5711 122.1683 63.8824 0.0000 0.0000 0.0000
# 3 31.5420 63.8824 97.1887 0.0000 0.0000 0.0000
# 4 0.0000 0.0000 0.0000 21.8596 0.0000 0.0000
# 5 0.0000 0.0000 0.0000 0.0000 20.2429 0.0000
# 6 0.0000 0.0000 0.0000 0.0000 0.0000 34.9433
#
#
#
# Elastic Compliance Matrix: (Units=1/GPa)
#
#
# Indices 1 2 3 4 5 6 
#
# 1 0.041298 -0.007643 -0.008379 0.000000 0.000000 0.000000
# 2 -0.007643 0.013887 -0.006647 0.000000 0.000000 0.000000
# 3 -0.008379 -0.006647 0.017378 0.000000 0.000000 0.000000
# 4 0.000000 0.000000 0.000000 0.045747 0.000000 0.000000
# 5 0.000000 0.000000 0.000000 0.000000 0.049400 0.000000
# 6 0.000000 0.000000 0.000000 0.000000 0.000000 0.028618
#
#
# Mechanical properties :
#
#
# Convention : Reuss Voigt Hill
#
# Bulk Modulus (GPa) = 36.73259 57.61610 47.17434
# Shear Modulus (GPa) = 19.94086 23.77971 21.86028
#
# Velocity S-wave (km/s) = 3.28834 3.59094 3.44297
# Velocity P-wave (km/s) = 5.85972 6.95961 6.43321
#
# Compressibility (1/GPa) = 0.02722378
#
# Stress axis : x y z
#
# Youngs Moduli (GPa) = 24.21401 72.01141 57.54405
#
# Poissons Ratio (x) = 0.55038 0.48218
# Poissons Ratio (y) = 0.18507 0.38251
# Poissons Ratio (z) = 0.20290 0.47868
#
# Static dielectric constant tensor:
#      x y z
#    x 1.617680 0.000000 0.000000 
#    y 0.000000 1.599470 0.000000 
#    z 0.000000 0.000000 1.658660 
# 
# From -- ./inp_files/15549.got.cif
#   From: 2010.05.17/outbox.cif.g08.bks.cpg/sg40_8_cif.got.tgz:15549.got - 2010.06.03 18:35:42.
