data_PCOD9363540
_publ_section_title
;
Structure prediction by ZEFSAII (Michael W. Deem and Ramdas Pophale) SiO2 
 PCOD9363540
Probable space group: A M A 2
;
_chemical_formula_sum "Si O2"
_cell_formula_units_Z 48
_cell_length_a 22.531642
_cell_length_b 12.372081
_cell_length_c 7.080793
_cell_angle_alpha 90.000000
_cell_angle_beta 90.000000
_cell_angle_gamma 90.000000
_cell_volume 1973.865222
_symmetry_space_group_name_H-M "A M A 2"
_symmetry_group_IT_number 40
_symmetry_cell_setting 'orthorhombic'
loop_
_space_group_symop_operation_xyz
x,y,z
-x,-y,z
1/2-x,y,z
1/2+x,-y,z
x,1/2+y,1/2+z
-x,1/2-y,1/2+z
1/2-x,1/2+y,1/2+z
1/2+x,1/2-y,1/2+z
loop_
_atom_site_type_symbol
_atom_site_label
_atom_site_fract_x
_atom_site_fract_y
_atom_site_fract_z
Si Si1 0.862905 0.791109 0.519070
Si Si2 0.899526 0.381241 0.433851
Si Si3 0.317195 0.977424 0.457998
Si Si4 0.019004 0.311273 0.343460
Si Si5 0.423325 0.336620 0.968836
Si Si6 0.814623 0.067176 0.910329
O O1 0.877260 0.840170 0.727001
O O2 0.924748 0.741700 0.443276
O O3 0.821190 0.687087 0.491955
O O4 0.832162 0.896555 0.428719
O O5 0.889006 0.270789 0.547378
O O6 0.865441 0.487893 0.484371
O O7 0.970718 0.389459 0.439826
O O8 0.250000 0.952696 0.393879
O O9 0.374322 0.912924 0.382545
O O10 0.318927 0.941947 0.681342
O O11 0.041225 0.371429 0.155190
O O12 0.973880 0.207400 0.326789
O O13 0.750000 0.022126 0.958420
#
# Coordination Sequence:
#
# PCOD9363540 Si02
#       6
#     8   8   8   8   8   8
#     4  11  20  39  62  90 121 161 216 260 309 383
#     4   9  21  39  59  90 121 160 204 262 319 378
#     4  10  22  39  63  90 124 170 213 259 318 383
#     4  10  19  38  60  92 119 159 207 258 325 377
#     4  10  20  41  62  92 124 159 206 262 325 383
#     4  10  21  38  62  88 120 169 216 259 314 383
#
# _framework density 24.317771
#
# number of rings (size 3 to 8) (size 9 to 14) (size 15 to 20)
#    1.000    1.000    3.333    0.500    0.000    2.667 
#    3.000    0.000    0.000    0.000    0.000    0.000 
#    0.000    0.000    0.000    0.000    0.000    0.000 
#
# Total GULP energy -133638.335615 kJ/mol
# GULP energy per Si atom -5568.263984 kJ/mol
# Density = 2.426242 g / cm^3
# Si number density = 24.317771 Si / 1000 Ang^3
#
#
#
# Elastic Constant Matrix: (Units=GPa)
#
#
# Indices 1 2 3 4 5 6 
#
# 1 180.2290 54.4475 12.3776 0.0000 0.0000 0.0000
# 2 54.4475 128.9277 5.3939 0.0000 0.0000 0.0000
# 3 12.3776 5.3939 74.4344 0.0000 0.0000 0.0000
# 4 0.0000 0.0000 0.0000 21.7798 0.0000 0.0000
# 5 0.0000 0.0000 0.0000 0.0000 -6.1944 0.0000
# 6 0.0000 0.0000 0.0000 0.0000 0.0000 42.5923
#
#
#
# Elastic Compliance Matrix: (Units=1/GPa)
#
#
# Indices 1 2 3 4 5 6 
#
# 1 0.006416 -0.002673 -0.000873 0.000000 0.000000 0.000000
# 2 -0.002673 0.008893 -0.000200 0.000000 0.000000 0.000000
# 3 -0.000873 -0.000200 0.013594 0.000000 0.000000 0.000000
# 4 0.000000 0.000000 0.000000 0.045914 0.000000 0.000000
# 5 0.000000 0.000000 0.000000 0.000000 -0.161437 0.000000
# 6 0.000000 0.000000 0.000000 0.000000 0.000000 0.023478
#
#
# Mechanical properties :
#
#
# Convention : Reuss Voigt Hill
#
# Bulk Modulus (GPa) = 46.70401 58.66991 52.68696
# Shear Modulus (GPa) = -103.07026 32.39367 -35.33829
#
# Velocity S-wave (km/s) = -6.51742 3.65375 -3.81621
# Velocity P-wave (km/s) = 6.11460 6.47909 1.51498
#
# Compressibility (1/GPa) = 0.02141144
#
# Stress axis : x y z
#
# Youngs Moduli (GPa) = 155.86073 112.44186 73.56001
#
# Poissons Ratio (x) = 0.30056 0.06423
# Poissons Ratio (y) = 0.41662 0.01471
# Poissons Ratio (z) = 0.13610 0.02249
#
# Static dielectric constant tensor:
#      x y z
#    x 2.000080 0.000000 0.000000 
#    y 0.000000 1.995960 0.000000 
#    z 0.000000 0.000000 2.153230 
# 
# From -- ./inp_files/13922.got.cif
#   From: 2010.05.17/outbox.cif.g08.bks.cpg/sg40_7_cif.got.tgz:13922.got - 2010.06.03 18:35:42.
