data_PCOD9363373
_publ_section_title
;
Structure prediction by ZEFSAII (Michael W. Deem and Ramdas Pophale) SiO2 
 PCOD9363373
Probable space group: A M A 2
;
_chemical_formula_sum "Si O2"
_cell_formula_units_Z 48
_cell_length_a 8.419736
_cell_length_b 31.794177
_cell_length_c 9.362645
_cell_angle_alpha 90.000000
_cell_angle_beta 90.000000
_cell_angle_gamma 90.000000
_cell_volume 2506.366740
_symmetry_space_group_name_H-M "A M A 2"
_symmetry_group_IT_number 40
_symmetry_cell_setting 'orthorhombic'
loop_
_space_group_symop_operation_xyz
x,y,z
-x,-y,z
1/2-x,y,z
1/2+x,-y,z
x,1/2+y,1/2+z
-x,1/2-y,1/2+z
1/2-x,1/2+y,1/2+z
1/2+x,1/2-y,1/2+z
loop_
_atom_site_type_symbol
_atom_site_label
_atom_site_fract_x
_atom_site_fract_y
_atom_site_fract_z
Si Si1 0.942139 0.790087 0.305950
Si Si2 0.942238 0.374289 0.305411
Si Si3 0.056112 0.627148 0.634041
Si Si4 0.057897 0.708836 0.135165
Si Si5 0.061159 0.954116 0.633044
Si Si6 0.059584 0.545939 0.810055
O O1 0.750000 0.790167 0.306178
O O2 0.995456 0.832297 0.224468
O O3 0.995902 0.789809 0.470591
O O4 0.999633 0.749178 0.221939
O O5 0.750000 0.374985 0.303735
O O6 0.994688 0.370324 0.469652
O O7 0.994521 0.333932 0.213471
O O8 0.002221 0.416977 0.234144
O O9 0.250000 0.627190 0.634906
O O10 0.004613 0.583997 0.709680
O O11 0.250000 0.709002 0.135315
O O12 0.250000 0.954977 0.628378
O O13 0.997426 0.946982 0.472277
O O14 0.000000 0.000000 0.679772
O O15 0.250000 0.545452 0.810907
O O16 0.000000 0.500000 0.763884
#
# Coordination Sequence:
#
# PCOD9363373 Si02
#       6
#     8   8   8   8   8   8
#     4  10  20  36  57  81 109 143 185 226 268 323
#     4  10  20  37  58  80 109 144 182 223 272 325
#     4   9  19  35  57  81 107 143 182 224 274 326
#     4  10  21  36  57  83 111 145 182 224 274 323
#     4  11  22  37  57  82 110 143 183 224 270 320
#     4  10  19  35  57  81 109 142 182 225 273 325
#
# _framework density 19.151226000000001
#
# number of rings (size 3 to 8) (size 9 to 14) (size 15 to 20)
#    0.000    2.000    0.000    5.000    0.000    6.000 
#    0.000    7.500    0.000    0.000    0.000    0.000 
#    0.000    0.000    0.000    0.000    0.000    0.000 
#
# Total GULP energy -134088.372964 kJ/mol
# GULP energy per Si atom -5587.015540 kJ/mol
# Density = 1.910764 g / cm^3
# Si number density = 19.151226 Si / 1000 Ang^3
#
#
#
# Elastic Constant Matrix: (Units=GPa)
#
#
# Indices 1 2 3 4 5 6 
#
# 1 30.5747 28.1919 29.2116 0.0000 0.0000 0.0000
# 2 28.1919 206.6178 144.1261 0.0000 0.0000 0.0000
# 3 29.2116 144.1261 188.3217 0.0000 0.0000 0.0000
# 4 0.0000 0.0000 0.0000 43.1204 0.0000 0.0000
# 5 0.0000 0.0000 0.0000 0.0000 25.3586 0.0000
# 6 0.0000 0.0000 0.0000 0.0000 0.0000 34.8545
#
#
#
# Elastic Compliance Matrix: (Units=1/GPa)
#
#
# Indices 1 2 3 4 5 6 
#
# 1 0.038926 -0.002358 -0.004233 0.000000 0.000000 0.000000
# 2 -0.002358 0.010525 -0.007689 0.000000 0.000000 0.000000
# 3 -0.004233 -0.007689 0.011852 0.000000 0.000000 0.000000
# 4 0.000000 0.000000 0.000000 0.023191 0.000000 0.000000
# 5 0.000000 0.000000 0.000000 0.000000 0.039434 0.000000
# 6 0.000000 0.000000 0.000000 0.000000 0.000000 0.028691
#
#
# Mechanical properties :
#
#
# Convention : Reuss Voigt Hill
#
# Bulk Modulus (GPa) = 30.54293 92.06371 61.30332
# Shear Modulus (GPa) = 26.02892 35.59903 30.81397
#
# Velocity S-wave (km/s) = 3.69063 4.31610 4.01556
# Velocity P-wave (km/s) = 5.84328 8.54486 7.31979
#
# Compressibility (1/GPa) = 0.03274080
#
# Stress axis : x y z
#
# Youngs Moduli (GPa) = 25.68999 95.00778 84.37705
#
# Poissons Ratio (x) = 0.22408 0.35716
# Poissons Ratio (y) = 0.06059 0.64882
# Poissons Ratio (z) = 0.10874 0.73056
#
# Static dielectric constant tensor:
#      x y z
#    x 1.665980 0.000000 0.000000 
#    y 0.000000 1.637560 0.000000 
#    z 0.000000 0.000000 1.645810 
# 
# From -- ./inp_files/4558.got.cif
#   From: 2010.05.17/outbox.cif.g08.bks.cpg/sg40_3_cif.got.tgz:4558.got - 2010.06.03 18:35:42.
