data_PCOD9363762
_publ_section_title
;
Structure prediction by ZEFSAII (Michael W. Deem and Ramdas Pophale) SiO2 
 PCOD9363762
Probable space group: A M A 2
;
_chemical_formula_sum "Si O2"
_cell_formula_units_Z 40
_cell_length_a 8.712513
_cell_length_b 9.225170
_cell_length_c 26.745868
_cell_angle_alpha 90.000000
_cell_angle_beta 90.000000
_cell_angle_gamma 90.000000
_cell_volume 2149.683455
_symmetry_space_group_name_H-M "A M A 2"
_symmetry_group_IT_number 40
_symmetry_cell_setting 'orthorhombic'
loop_
_space_group_symop_operation_xyz
x,y,z
-x,-y,z
1/2-x,y,z
1/2+x,-y,z
x,1/2+y,1/2+z
-x,1/2-y,1/2+z
1/2-x,1/2+y,1/2+z
1/2+x,1/2-y,1/2+z
loop_
_atom_site_type_symbol
_atom_site_label
_atom_site_fract_x
_atom_site_fract_y
_atom_site_fract_z
Si Si1 0.433578 0.338519 0.277830
Si Si2 0.066685 0.336935 0.982065
Si Si3 0.565501 0.161541 0.184214
Si Si4 0.066664 0.662538 0.084315
Si Si5 0.065419 0.836442 0.370959
O O1 0.500000 0.500000 0.275511
O O2 0.250000 0.341977 0.277166
O O3 0.495392 0.248899 0.230531
O O4 0.492693 0.260202 0.327899
O O5 0.250000 0.342599 0.986969
O O6 0.029693 0.277346 0.926914
O O7 0.000000 0.500000 0.981187
O O8 0.996546 0.271117 0.032411
O O9 0.750000 0.158434 0.188921
O O10 0.525807 0.242887 0.132535
O O11 0.500000 0.000000 0.184012
O O12 0.250000 0.651679 0.080924
O O13 0.000000 0.500000 0.090006
O O14 0.250000 0.841811 0.365674
O O15 0.000000 0.000000 0.367165
#
# Coordination Sequence:
#
# PCOD9363762 Si02
#       5
#     8   8   8   8   8
#     4  12  25  41  61  84 112 147 186 233 283 336
#     4   9  17  30  53  82 113 148 186 227 272 324
#     4  11  24  41  60  84 113 148 188 232 282 336
#     4  10  20  34  56  84 114 148 187 230 277 328
#     4  10  20  36  58  86 117 151 190 232 278 330
#
# _framework density 18.607392000000001
#
# number of rings (size 3 to 8) (size 9 to 14) (size 15 to 20)
#    0.000    1.600    0.000    6.600    0.000    7.200 
#    0.000    1.000    0.000    2.400    0.000    0.000 
#    0.000    0.000    0.000    0.000    0.000    0.000 
#
# Total GULP energy -111717.016589 kJ/mol
# GULP energy per Si atom -5585.850829 kJ/mol
# Density = 1.856504 g / cm^3
# Si number density = 18.607392 Si / 1000 Ang^3
#
#
#
# Elastic Constant Matrix: (Units=GPa)
#
#
# Indices 1 2 3 4 5 6 
#
# 1 107.5901 53.4746 94.1762 0.0000 0.0000 0.0000
# 2 53.4746 112.9518 97.6184 0.0000 0.0000 0.0000
# 3 94.1762 97.6184 230.6863 0.0000 0.0000 0.0000
# 4 0.0000 0.0000 0.0000 30.0830 0.0000 0.0000
# 5 0.0000 0.0000 0.0000 0.0000 37.6870 0.0000
# 6 0.0000 0.0000 0.0000 0.0000 0.0000 24.3797
#
#
#
# Elastic Compliance Matrix: (Units=1/GPa)
#
#
# Indices 1 2 3 4 5 6 
#
# 1 0.015026 -0.002857 -0.004925 0.000000 0.000000 0.000000
# 2 -0.002857 0.014501 -0.004970 0.000000 0.000000 0.000000
# 3 -0.004925 -0.004970 0.008449 0.000000 0.000000 0.000000
# 4 0.000000 0.000000 0.000000 0.033241 0.000000 0.000000
# 5 0.000000 0.000000 0.000000 0.000000 0.026534 0.000000
# 6 0.000000 0.000000 0.000000 0.000000 0.000000 0.041018
#
#
# Mechanical properties :
#
#
# Convention : Reuss Voigt Hill
#
# Bulk Modulus (GPa) = 80.18490 104.64074 92.41282
# Shear Modulus (GPa) = 29.68581 32.16054 30.92317
#
# Velocity S-wave (km/s) = 3.99855 4.16188 4.08103
# Velocity P-wave (km/s) = 8.03147 8.91365 8.48403
#
# Compressibility (1/GPa) = 0.01247118
#
# Stress axis : x y z
#
# Youngs Moduli (GPa) = 66.55297 68.95921 118.36130
#
# Poissons Ratio (x) = 0.19702 0.58294
# Poissons Ratio (y) = 0.19014 0.58827
# Poissons Ratio (z) = 0.32778 0.34273
#
# Static dielectric constant tensor:
#      x y z
#    x 1.621330 0.000000 0.000000 
#    y 0.000000 1.604290 0.000000 
#    z 0.000000 0.000000 1.671240 
# 
# From -- ./inp_files/23809.got.cif
#   From: 2010.05.17/outbox.cif.g08.bks.cpg/sg40_12_cif.got.tgz:23809.got - 2010.06.03 18:35:42.
