data_PCOD9363376
_publ_section_title
;
Structure prediction by ZEFSAII (Michael W. Deem and Ramdas Pophale) SiO2 
 PCOD9363376
Probable space group: A M A 2
;
_chemical_formula_sum "Si O2"
_cell_formula_units_Z 64
_cell_length_a 8.779675
_cell_length_b 20.163116
_cell_length_c 21.011770
_cell_angle_alpha 90.000000
_cell_angle_beta 90.000000
_cell_angle_gamma 90.000000
_cell_volume 3719.621306
_symmetry_space_group_name_H-M "A M A 2"
_symmetry_group_IT_number 40
_symmetry_cell_setting 'orthorhombic'
loop_
_space_group_symop_operation_xyz
x,y,z
-x,-y,z
1/2-x,y,z
1/2+x,-y,z
x,1/2+y,1/2+z
-x,1/2-y,1/2+z
1/2-x,1/2+y,1/2+z
1/2+x,1/2-y,1/2+z
loop_
_atom_site_type_symbol
_atom_site_label
_atom_site_fract_x
_atom_site_fract_y
_atom_site_fract_z
Si Si1 0.432525 0.569952 0.119650
Si Si2 0.932629 0.568996 0.738873
Si Si3 0.432716 0.070890 0.769760
Si Si4 0.434036 0.287184 0.695966
Si Si5 0.933793 0.789156 0.566775
Si Si6 0.932692 0.713537 0.932923
Si Si7 0.432868 0.430777 0.887896
Si Si8 0.931772 0.206285 0.814759
O O1 0.500000 0.500000 0.097737
O O2 0.250000 0.566313 0.115842
O O3 0.471802 0.579129 0.194485
O O4 0.483039 0.635219 0.082142
O O5 0.750000 0.564661 0.737383
O O6 0.977886 0.635748 0.702498
O O7 0.978076 0.576030 0.813330
O O8 0.000000 0.500000 0.714585
O O9 0.250000 0.071249 0.775034
O O10 0.503294 0.132175 0.807414
O O11 0.500000 0.000000 0.789707
O O12 0.250000 0.282311 0.704128
O O13 0.472121 0.255022 0.628272
O O14 0.509686 0.246712 0.753189
O O15 0.750000 0.788626 0.559952
O O16 0.010592 0.765436 0.502189
O O17 0.750000 0.716293 0.928137
O O18 0.981014 0.636604 0.922392
O O19 0.003784 0.757382 0.877038
O O20 0.500000 0.500000 0.912428
O O21 0.250000 0.434889 0.890505
O O22 0.750000 0.205411 0.816043
#
# Coordination Sequence:
#
# PCOD9363376 Si02
#       8
#     8   8   8   8   8   8   8   8
#     4   9  18  32  52  76 109 148 183 222 266 321
#     4   9  17  31  53  79 107 139 175 218 272 326
#     4  10  19  35  57  84 115 147 182 227 280 331
#     4  10  19  37  59  79 110 148 182 224 281 332
#     4  10  21  37  55  78 108 146 187 228 276 329
#     4  11  23  39  55  76 110 150 187 231 281 330
#     4   9  18  32  51  74 105 143 181 219 266 322
#     4  12  23  35  57  86 111 143 188 234 277 330
#
# _framework density 17.206052
#
# number of rings (size 3 to 8) (size 9 to 14) (size 15 to 20)
#    0.000    2.000    2.500    1.875    0.000    3.500 
#    0.000    2.500    0.000    0.750    0.000    3.500 
#    0.000    0.000    0.000    0.000    0.000    0.000 
#
# Total GULP energy -178641.452348 kJ/mol
# GULP energy per Si atom -5582.545386 kJ/mol
# Density = 1.716689 g / cm^3
# Si number density = 17.206052 Si / 1000 Ang^3
#
#
#
# Elastic Constant Matrix: (Units=GPa)
#
#
# Indices 1 2 3 4 5 6 
#
# 1 43.9210 45.5674 44.9221 0.0000 0.0000 0.0000
# 2 45.5674 138.7397 69.1218 0.0000 0.0000 0.0000
# 3 44.9221 69.1218 107.9933 0.0000 0.0000 0.0000
# 4 0.0000 0.0000 0.0000 20.8599 0.0000 0.0000
# 5 0.0000 0.0000 0.0000 0.0000 26.6600 0.0000
# 6 0.0000 0.0000 0.0000 0.0000 0.0000 29.5332
#
#
#
# Elastic Compliance Matrix: (Units=1/GPa)
#
#
# Indices 1 2 3 4 5 6 
#
# 1 0.044959 -0.008000 -0.013581 0.000000 0.000000 0.000000
# 2 -0.008000 0.012006 -0.004357 0.000000 0.000000 0.000000
# 3 -0.013581 -0.004357 0.017698 0.000000 0.000000 0.000000
# 4 0.000000 0.000000 0.000000 0.047939 0.000000 0.000000
# 5 0.000000 0.000000 0.000000 0.000000 0.037509 0.000000
# 6 0.000000 0.000000 0.000000 0.000000 0.000000 0.033860
#
#
# Mechanical properties :
#
#
# Convention : Reuss Voigt Hill
#
# Bulk Modulus (GPa) = 43.88508 67.76409 55.82458
# Shear Modulus (GPa) = 19.72843 24.14679 21.93761
#
# Velocity S-wave (km/s) = 3.38982 3.75025 3.57458
# Velocity P-wave (km/s) = 6.39391 7.63032 7.03932
#
# Compressibility (1/GPa) = 0.02278679
#
# Stress axis : x y z
#
# Youngs Moduli (GPa) = 22.24268 83.29354 56.50457
#
# Poissons Ratio (x) = 0.66634 0.76740
# Poissons Ratio (y) = 0.17794 0.24617
# Poissons Ratio (z) = 0.30208 0.36288
#
# Static dielectric constant tensor:
#      x y z
#    x 1.577580 0.000000 0.000000 
#    y 0.000000 1.585800 0.000000 
#    z 0.000000 0.000000 1.569790 
# 
# From -- ./inp_files/19637.got.cif
#   From: 2010.05.17/outbox.cif.g08.bks.cpg/sg40_10_cif.got.tgz:19637.got - 2010.06.03 18:35:42.
