data_PCOD9363008
_publ_section_title
;
Structure prediction by ZEFSAII (Michael W. Deem and Ramdas Pophale) SiO2 
 PCOD9363008
Probable space group: A M A 2
;
_chemical_formula_sum "Si O2"
_cell_formula_units_Z 64
_cell_length_a 8.725001
_cell_length_b 15.176093
_cell_length_c 28.074626
_cell_angle_alpha 90.000000
_cell_angle_beta 90.000000
_cell_angle_gamma 90.000000
_cell_volume 3717.401280
_symmetry_space_group_name_H-M "A M A 2"
_symmetry_group_IT_number 40
_symmetry_cell_setting 'orthorhombic'
loop_
_space_group_symop_operation_xyz
x,y,z
-x,-y,z
1/2-x,y,z
1/2+x,-y,z
x,1/2+y,1/2+z
-x,1/2-y,1/2+z
1/2-x,1/2+y,1/2+z
1/2+x,1/2-y,1/2+z
loop_
_atom_site_type_symbol
_atom_site_label
_atom_site_fract_x
_atom_site_fract_y
_atom_site_fract_z
Si Si1 0.565505 0.405351 0.035520
Si Si2 0.434852 0.594348 0.145744
Si Si3 0.565380 0.221372 0.184368
Si Si4 0.567380 0.404529 0.491721
Si Si5 0.935377 0.269300 0.953971
Si Si6 0.434419 0.594544 0.873069
Si Si7 0.433991 0.404888 0.596600
Si Si8 0.066704 0.094822 0.262918
O O1 0.500000 0.500000 0.020458
O O2 0.750000 0.410038 0.034207
O O3 0.518819 0.390197 0.090422
O O4 0.519164 0.327852 0.999968
O O5 0.500000 0.500000 0.160652
O O6 0.250000 0.590771 0.146496
O O7 0.484198 0.677809 0.176876
O O8 0.750000 0.219597 0.189080
O O9 0.527819 0.167218 0.136268
O O10 0.493099 0.170913 0.228632
O O11 0.500000 0.500000 0.478296
O O12 0.750000 0.409346 0.493256
O O13 0.510541 0.325957 0.458193
O O14 0.503459 0.384767 0.544860
O O15 0.750000 0.260028 0.954416
O O16 0.980502 0.326646 0.907975
O O17 0.500000 0.500000 0.888574
O O18 0.250000 0.588876 0.874778
O O19 0.480465 0.609019 0.818064
O O20 0.500000 0.500000 0.611298
O O21 0.250000 0.409999 0.592159
O O22 0.250000 0.090633 0.260931
O O23 0.000000 0.000000 0.247715
#
# Coordination Sequence:
#
# PCOD9363008 Si02
#       8
#     8   8   8   8   8   8   8   8
#     4   9  17  29  47  71 100 131 160 195 237 284
#     4   9  18  32  47  67  96 128 163 200 240 284
#     4  10  20  33  51  73  98 131 169 208 250 296
#     4  11  22  35  51  72  99 132 169 207 248 293
#     4  10  19  33  52  73 100 133 167 203 244 289
#     4   9  19  34  53  77 105 134 162 199 246 296
#     4  10  19  32  49  71 101 133 165 202 246 295
#     4  10  20  34  52  76 104 132 163 200 247 299
#
# _framework density 17.216329000000002
#
# number of rings (size 3 to 8) (size 9 to 14) (size 15 to 20)
#    0.000    2.250    0.000    4.125    0.000    6.000 
#    0.000    2.500    0.000    0.750    0.000    1.750 
#    0.000    0.000    0.000    0.000    0.000    0.000 
#
# Total GULP energy -178625.046341 kJ/mol
# GULP energy per Si atom -5582.032698 kJ/mol
# Density = 1.717714 g / cm^3
# Si number density = 17.216329 Si / 1000 Ang^3
#
#
#
# Elastic Constant Matrix: (Units=GPa)
#
#
# Indices 1 2 3 4 5 6 
#
# 1 37.4281 43.8060 30.1967 0.0000 0.0000 0.0000
# 2 43.8060 158.7969 83.8889 0.0000 0.0000 0.0000
# 3 30.1967 83.8889 73.3406 0.0000 0.0000 0.0000
# 4 0.0000 0.0000 0.0000 29.2471 0.0000 0.0000
# 5 0.0000 0.0000 0.0000 0.0000 19.0563 0.0000
# 6 0.0000 0.0000 0.0000 0.0000 0.0000 31.1169
#
#
#
# Elastic Compliance Matrix: (Units=1/GPa)
#
#
# Indices 1 2 3 4 5 6 
#
# 1 0.042321 -0.006240 -0.010287 0.000000 0.000000 0.000000
# 2 -0.006240 0.016833 -0.016685 0.000000 0.000000 0.000000
# 3 -0.010287 -0.016685 0.036955 0.000000 0.000000 0.000000
# 4 0.000000 0.000000 0.000000 0.034191 0.000000 0.000000
# 5 0.000000 0.000000 0.000000 0.000000 0.052476 0.000000
# 6 0.000000 0.000000 0.000000 0.000000 0.000000 0.032137
#
#
# Mechanical properties :
#
#
# Convention : Reuss Voigt Hill
#
# Bulk Modulus (GPa) = 33.68724 65.03875 49.36300
# Shear Modulus (GPa) = 17.16839 23.32898 20.24868
#
# Velocity S-wave (km/s) = 3.16130 3.68509 3.43320
# Velocity P-wave (km/s) = 5.73887 7.48104 6.66710
#
# Compressibility (1/GPa) = 0.02968483
#
# Stress axis : x y z
#
# Youngs Moduli (GPa) = 23.62878 59.40729 27.05998
#
# Poissons Ratio (x) = 0.37072 0.27837
# Poissons Ratio (y) = 0.14745 0.45149
# Poissons Ratio (z) = 0.24307 0.99119
#
# Static dielectric constant tensor:
#      x y z
#    x 1.579200 0.000000 0.000000 
#    y 0.000000 1.576250 0.000000 
#    z 0.000000 0.000000 1.582390 
# 
# From -- ./inp_files/24311.got.cif
#   From: 2010.05.17/outbox.cif.g08.bks.cpg/sg40_13_cif.got.tgz:24311.got - 2010.06.03 18:35:42.
