data_PCOD9363916
_publ_section_title
;
Structure prediction by ZEFSAII (Michael W. Deem and Ramdas Pophale) SiO2 
 PCOD9363916
Probable space group: A M A 2
;
_chemical_formula_sum "Si O2"
_cell_formula_units_Z 40
_cell_length_a 19.824242
_cell_length_b 5.250403
_cell_length_c 18.340522
_cell_angle_alpha 90.000000
_cell_angle_beta 90.000000
_cell_angle_gamma 90.000000
_cell_volume 1908.977995
_symmetry_space_group_name_H-M "A M A 2"
_symmetry_group_IT_number 40
_symmetry_cell_setting 'orthorhombic'
loop_
_space_group_symop_operation_xyz
x,y,z
-x,-y,z
1/2-x,y,z
1/2+x,-y,z
x,1/2+y,1/2+z
-x,1/2-y,1/2+z
1/2-x,1/2+y,1/2+z
1/2+x,1/2-y,1/2+z
loop_
_atom_site_type_symbol
_atom_site_label
_atom_site_fract_x
_atom_site_fract_y
_atom_site_fract_z
Si Si1 0.177157 0.259061 0.875000
Si Si2 0.572397 0.071239 0.940658
Si Si3 0.328119 0.186136 0.551859
Si Si4 0.171494 0.687382 0.648338
Si Si5 0.870096 0.230378 0.802804
O O1 0.250000 0.245058 0.911447
O O2 0.167562 0.526117 0.836125
O O3 0.117765 0.181303 0.929538
O O4 0.171133 0.030458 0.816080
O O5 0.567281 0.187948 0.858434
O O6 0.500000 0.000000 0.970698
O O7 0.618325 0.255990 0.988824
O O8 0.250000 0.200289 0.525501
O O9 0.337011 0.416603 0.609457
O O10 0.337928 0.917922 0.591843
O O11 0.250000 0.701373 0.674040
O O12 0.123012 0.722866 0.717633
#
# Coordination Sequence:
#
# PCOD9363916 Si02
#       5
#     8   8   8   8   8
#     4  10  20  35  63  94 117 150 203 257 306 358
#     4  10  25  43  61  90 126 171 209 253 303 371
#     4  10  22  38  61  91 122 157 204 253 309 365
#     4  10  20  37  61  93 122 152 198 260 313 364
#     4  10  22  37  64  91 123 155 204 253 315 364
#
# _framework density 20.953621999999999
#
# number of rings (size 3 to 8) (size 9 to 14) (size 15 to 20)
#    1.200    0.800    0.000    3.600    2.800    2.400 
#    0.000    2.000    0.000    0.000    0.000    0.000 
#    0.000    0.000    0.000    0.000    0.000    0.000 
#
# Total GULP energy -111543.142843 kJ/mol
# GULP energy per Si atom -5577.157142 kJ/mol
# Density = 2.090593 g / cm^3
# Si number density = 20.953622 Si / 1000 Ang^3
#
#
#
# Elastic Constant Matrix: (Units=GPa)
#
#
# Indices 1 2 3 4 5 6 
#
# 1 67.9588 -6.1184 10.0450 0.0000 0.0000 0.0000
# 2 -6.1184 99.9718 5.2248 0.0000 0.0000 0.0000
# 3 10.0450 5.2248 76.3166 0.0000 0.0000 0.0000
# 4 0.0000 0.0000 0.0000 29.5028 0.0000 0.0000
# 5 0.0000 0.0000 0.0000 0.0000 15.2985 0.0000
# 6 0.0000 0.0000 0.0000 0.0000 0.0000 -14.8509
#
#
#
# Elastic Compliance Matrix: (Units=1/GPa)
#
#
# Indices 1 2 3 4 5 6 
#
# 1 0.015112 0.001033 -0.002060 0.000000 0.000000 0.000000
# 2 0.001033 0.010109 -0.000828 0.000000 0.000000 0.000000
# 3 -0.002060 -0.000828 0.013431 0.000000 0.000000 0.000000
# 4 0.000000 0.000000 0.000000 0.033895 0.000000 0.000000
# 5 0.000000 0.000000 0.000000 0.000000 0.065366 0.000000
# 6 0.000000 0.000000 0.000000 0.000000 0.000000 -0.067336
#
#
# Mechanical properties :
#
#
# Convention : Reuss Voigt Hill
#
# Bulk Modulus (GPa) = 28.61879 29.17222 28.89550
# Shear Modulus (GPa) = 58.18296 21.66312 39.92304
#
# Velocity S-wave (km/s) = 5.27520 3.21886 4.36972
# Velocity P-wave (km/s) = 7.12682 5.26946 6.26733
#
# Compressibility (1/GPa) = 0.03494208
#
# Stress axis : x y z
#
# Youngs Moduli (GPa) = 66.17165 98.91896 74.45398
#
# Poissons Ratio (x) = -0.10214 0.15336
# Poissons Ratio (y) = -0.06832 0.06165
# Poissons Ratio (z) = 0.13630 0.08191
#
# Static dielectric constant tensor:
#      x y z
#    x 1.729670 0.000000 0.000000 
#    y 0.000000 1.754320 0.000000 
#    z 0.000000 0.000000 1.795000 
# 
# From -- ./inp_files/20908.got.cif
#   From: 2010.05.17/outbox.cif.g08.bks.cpg/sg40_11_cif.got.tgz:20908.got - 2010.06.03 18:35:42.
