data_PCOD9363579
_publ_section_title
;
Structure prediction by ZEFSAII (Michael W. Deem and Ramdas Pophale) SiO2 
 PCOD9363579
Probable space group: A M A 2
;
_chemical_formula_sum "Si O2"
_cell_formula_units_Z 56
_cell_length_a 14.574293
_cell_length_b 5.536770
_cell_length_c 30.787740
_cell_angle_alpha 90.000000
_cell_angle_beta 90.000000
_cell_angle_gamma 90.000000
_cell_volume 2484.401540
_symmetry_space_group_name_H-M "A M A 2"
_symmetry_group_IT_number 40
_symmetry_cell_setting 'orthorhombic'
loop_
_space_group_symop_operation_xyz
x,y,z
-x,-y,z
1/2-x,y,z
1/2+x,-y,z
x,1/2+y,1/2+z
-x,1/2-y,1/2+z
1/2-x,1/2+y,1/2+z
1/2+x,1/2-y,1/2+z
loop_
_atom_site_type_symbol
_atom_site_label
_atom_site_fract_x
_atom_site_fract_y
_atom_site_fract_z
Si Si1 0.403882 0.861802 0.556340
Si Si2 0.608273 0.726431 0.335947
Si Si3 0.500000 0.000000 0.000639
Si Si4 0.137611 0.843983 0.201747
Si Si5 0.359555 0.844369 0.657321
Si Si6 0.750000 0.504205 0.988708
Si Si7 0.398486 0.771668 0.301793
Si Si8 0.412584 0.652812 0.929747
O O1 0.422762 0.611785 0.531472
O O2 0.377608 0.827127 0.606088
O O3 0.500000 0.000000 0.554686
O O4 0.328715 0.992326 0.527262
O O5 0.501649 0.747339 0.320791
O O6 0.645294 0.488001 0.312507
O O7 0.617440 0.697228 0.387657
O O8 0.645520 0.989861 0.323017
O O9 0.451793 0.814648 0.968427
O O10 0.250000 0.845571 0.202759
O O11 0.107458 0.604639 0.175130
O O12 0.101921 0.814909 0.250504
O O13 0.107170 0.100349 0.181219
O O14 0.250000 0.846744 0.663839
O O15 0.669224 0.497755 0.950911
O O16 0.500000 0.500000 0.914362
#
# Coordination Sequence:
#
# PCOD9363579 Si02
#       8
#     8   8   4   8   8   4   8   8
#     4  12  26  48  68 107 145 188 247 301 375 443
#     4  10  22  39  66  92 136 183 229 295 349 427
#     4  12  24  44  74  98 142 184 242 312 354 446
#     4  10  22  42  67 101 138 184 240 296 358 431
#     4  10  23  44  70  98 142 189 236 304 359 434
#     4  12  24  48  72 102 144 194 240 306 376 448
#     4  10  19  40  65  94 130 185 223 285 359 417
#     4  12  24  47  69 103 144 186 245 301 373 433
#
# _framework density 22.540641999999998
#
# number of rings (size 3 to 8) (size 9 to 14) (size 15 to 20)
#    0.000    1.143    5.000    1.714    2.000    0.571 
#   12.857    0.000    0.000    0.000    0.000    0.000 
#    0.000    0.000    0.000    0.000    0.000    0.000 
#
# Total GULP energy -155975.036068 kJ/mol
# GULP energy per Si atom -5570.537002 kJ/mol
# Density = 2.248934 g / cm^3
# Si number density = 22.540642 Si / 1000 Ang^3
#
#
#
# Elastic Constant Matrix: (Units=GPa)
#
#
# Indices 1 2 3 4 5 6 
#
# 1 93.8449 19.9991 8.5567 0.0000 0.0000 0.0000
# 2 19.9991 138.9918 41.8203 0.0000 0.0000 0.0000
# 3 8.5567 41.8203 157.0756 0.0000 0.0000 0.0000
# 4 0.0000 0.0000 0.0000 21.6417 0.0000 0.0000
# 5 0.0000 0.0000 0.0000 0.0000 125.0645 0.0000
# 6 0.0000 0.0000 0.0000 0.0000 0.0000 -8.5704
#
#
#
# Elastic Compliance Matrix: (Units=1/GPa)
#
#
# Indices 1 2 3 4 5 6 
#
# 1 0.010998 -0.001524 -0.000193 0.000000 0.000000 0.000000
# 2 -0.001524 0.008032 -0.002056 0.000000 0.000000 0.000000
# 3 -0.000193 -0.002056 0.006924 0.000000 0.000000 0.000000
# 4 0.000000 0.000000 0.000000 0.046207 0.000000 0.000000
# 5 0.000000 0.000000 0.000000 0.000000 0.007996 0.000000
# 6 0.000000 0.000000 0.000000 0.000000 0.000000 -0.116680
#
#
# Mechanical properties :
#
#
# Convention : Reuss Voigt Hill
#
# Bulk Modulus (GPa) = 54.32242 58.96273 56.64258
# Shear Modulus (GPa) = -218.91643 48.92956 -84.99344
#
# Velocity S-wave (km/s) = -9.86568 4.66416 -6.14724
# Velocity P-wave (km/s) = 10.27732 7.43109 5.02008
#
# Compressibility (1/GPa) = 0.01840860
#
# Stress axis : x y z
#
# Youngs Moduli (GPa) = 90.92267 124.49442 144.42164
#
# Poissons Ratio (x) = 0.18977 0.02791
# Poissons Ratio (y) = 0.13860 0.29687
# Poissons Ratio (z) = 0.01757 0.25591
#
# Static dielectric constant tensor:
#      x y z
#    x 1.835690 0.000000 0.000000 
#    y 0.000000 1.922240 0.000000 
#    z 0.000000 0.000000 1.759990 
# 
# From -- ./inp_files/26661.got.cif
#   From: 2010.05.17/outbox.cif.g08.bks.cpg/sg40_14_cif.got.tgz:26661.got - 2010.06.03 18:35:42.
