data_PCOD9363079
_publ_section_title
;
Structure prediction by ZEFSAII (Michael W. Deem and Ramdas Pophale) SiO2 
 PCOD9363079
Probable space group: A M A 2
;
_chemical_formula_sum "Si O2"
_cell_formula_units_Z 48
_cell_length_a 7.834322
_cell_length_b 23.420176
_cell_length_c 12.025829
_cell_angle_alpha 90.000000
_cell_angle_beta 90.000000
_cell_angle_gamma 90.000000
_cell_volume 2206.513537
_symmetry_space_group_name_H-M "A M A 2"
_symmetry_group_IT_number 40
_symmetry_cell_setting 'orthorhombic'
loop_
_space_group_symop_operation_xyz
x,y,z
-x,-y,z
1/2-x,y,z
1/2+x,-y,z
x,1/2+y,1/2+z
-x,1/2-y,1/2+z
1/2-x,1/2+y,1/2+z
1/2+x,1/2-y,1/2+z
loop_
_atom_site_type_symbol
_atom_site_label
_atom_site_fract_x
_atom_site_fract_y
_atom_site_fract_z
Si Si1 0.055555 0.849817 0.427500
Si Si2 0.545002 0.236272 0.245999
Si Si3 0.046724 0.065384 0.242134
Si Si4 0.045870 0.149457 0.053999
Si Si5 0.456879 0.639905 0.302391
Si Si6 0.050279 0.934439 0.607556
O O1 0.250000 0.832869 0.457739
O O2 0.978167 0.796891 0.357015
O O3 0.971254 0.883775 0.530385
O O4 0.054030 0.898887 0.333647
O O5 0.750000 0.236363 0.257493
O O6 0.505844 0.201695 0.133916
O O7 0.486080 0.301328 0.243387
O O8 0.250000 0.073496 0.260743
O O9 0.002281 0.092915 0.123668
O O10 0.000000 0.000000 0.248393
O O11 0.250000 0.153066 0.045708
O O12 0.980346 0.145384 0.929032
O O13 0.250000 0.638119 0.302862
O O14 0.517121 0.585384 0.233296
O O15 0.250000 0.932393 0.583634
O O16 0.000000 0.000000 0.586019
#
# Coordination Sequence:
#
# PCOD9363079 Si02
#       6
#     8   8   8   8   8   8
#     4   9  19  36  58  85 114 148 186 234 288 338
#     4   9  19  36  59  86 115 147 187 237 291 344
#     4  10  19  32  53  81 109 144 184 230 281 332
#     4   9  20  37  56  80 112 147 185 232 284 339
#     4  10  22  39  59  83 116 154 191 237 289 344
#     4  11  24  40  60  85 118 158 200 242 288 347
#
# _framework density 21.753774
#
# number of rings (size 3 to 8) (size 9 to 14) (size 15 to 20)
#    0.000    2.333    0.000    1.500    2.333    5.333 
#    0.000    1.667    0.000    0.000    0.000    0.000 
#    0.000    0.000    0.000    0.000    0.000    0.000 
#
# Total GULP energy -133891.271912 kJ/mol
# GULP energy per Si atom -5578.802996 kJ/mol
# Density = 2.170426 g / cm^3
# Si number density = 21.753774 Si / 1000 Ang^3
#
#
#
# Elastic Constant Matrix: (Units=GPa)
#
#
# Indices 1 2 3 4 5 6 
#
# 1 25.2117 -0.3930 1.8252 0.0000 0.0000 0.0000
# 2 -0.3930 62.0510 6.6813 0.0000 0.0000 0.0000
# 3 1.8252 6.6813 90.1900 0.0000 0.0000 0.0000
# 4 0.0000 0.0000 0.0000 15.9885 0.0000 0.0000
# 5 0.0000 0.0000 0.0000 0.0000 11.1812 0.0000
# 6 0.0000 0.0000 0.0000 0.0000 0.0000 -20.8988
#
#
#
# Elastic Compliance Matrix: (Units=1/GPa)
#
#
# Indices 1 2 3 4 5 6 
#
# 1 0.039729 0.000341 -0.000829 0.000000 0.000000 0.000000
# 2 0.000341 0.016248 -0.001211 0.000000 0.000000 0.000000
# 3 -0.000829 -0.001211 0.011194 0.000000 0.000000 0.000000
# 4 0.000000 0.000000 0.000000 0.062545 0.000000 0.000000
# 5 0.000000 0.000000 0.000000 0.000000 0.089436 0.000000
# 6 0.000000 0.000000 0.000000 0.000000 0.000000 -0.047850
#
#
# Mechanical properties :
#
#
# Convention : Reuss Voigt Hill
#
# Bulk Modulus (GPa) = 15.68039 21.51999 18.60019
# Shear Modulus (GPa) = 25.51551 12.54345 19.02948
#
# Velocity S-wave (km/s) = 3.42851 2.40388 2.96085
# Velocity P-wave (km/s) = 4.78505 4.19748 4.50086
#
# Compressibility (1/GPa) = 0.06377392
#
# Stress axis : x y z
#
# Youngs Moduli (GPa) = 25.17028 61.54499 89.33224
#
# Poissons Ratio (x) = -0.02098 0.07408
# Poissons Ratio (y) = -0.00858 0.10814
# Poissons Ratio (z) = 0.02087 0.07450
#
# Static dielectric constant tensor:
#      x y z
#    x 1.807930 0.000000 0.000000 
#    y 0.000000 1.779150 0.000000 
#    z 0.000000 0.000000 1.826730 
# 
# From -- ./inp_files/10242.got.cif
#   From: 2010.05.17/outbox.cif.g08.bks.cpg/sg40_6_cif.got.tgz:10242.got - 2010.06.03 18:35:42.
