data_PCOD9363857
_publ_section_title
;
Structure prediction by ZEFSAII (Michael W. Deem and Ramdas Pophale) SiO2 
 PCOD9363857
Probable space group: A M A 2
;
_chemical_formula_sum "Si O2"
_cell_formula_units_Z 64
_cell_length_a 13.687288
_cell_length_b 16.684497
_cell_length_c 12.667245
_cell_angle_alpha 90.000000
_cell_angle_beta 90.000000
_cell_angle_gamma 90.000000
_cell_volume 2892.761935
_symmetry_space_group_name_H-M "A M A 2"
_symmetry_group_IT_number 40
_symmetry_cell_setting 'orthorhombic'
loop_
_space_group_symop_operation_xyz
x,y,z
-x,-y,z
1/2-x,y,z
1/2+x,-y,z
x,1/2+y,1/2+z
-x,1/2-y,1/2+z
1/2-x,1/2+y,1/2+z
1/2+x,1/2-y,1/2+z
loop_
_atom_site_type_symbol
_atom_site_label
_atom_site_fract_x
_atom_site_fract_y
_atom_site_fract_z
Si Si1 0.359264 0.146058 0.306990
Si Si2 0.369146 0.195961 0.666715
Si Si3 0.131531 0.051603 0.521477
Si Si4 0.365934 0.287474 0.866794
Si Si5 0.960505 0.083995 0.224464
Si Si6 0.632247 0.644179 0.532754
Si Si7 0.130042 0.370064 0.071152
Si Si8 0.862654 0.665004 0.307498
O O1 0.250000 0.120749 0.276475
O O2 0.389636 0.096590 0.411184
O O3 0.439913 0.134541 0.218104
O O4 0.357775 0.240056 0.330152
O O5 0.250000 0.194454 0.671150
O O6 0.399160 0.112167 0.614774
O O7 0.403759 0.219860 0.785136
O O8 0.392944 0.270500 0.588697
O O9 0.250000 0.048384 0.524664
O O10 0.099411 0.959680 0.535784
O O11 0.250000 0.276244 0.874018
O O12 0.389368 0.369983 0.804360
O O13 0.403391 0.304384 0.984586
O O14 0.906961 0.078671 0.113750
O O15 0.000000 0.000000 0.262652
O O16 0.750000 0.642645 0.528692
O O17 0.592342 0.631590 0.415152
O O18 0.250000 0.367915 0.069213
O O19 0.098760 0.351115 0.190512
O O20 0.750000 0.635249 0.302871
#
# Coordination Sequence:
#
# PCOD9363857 Si02
#       8
#     8   8   8   8   8   8   8   8
#     4  10  20  35  57  82 114 153 193 236 287 345
#     4   8  13  25  50  78 103 136 183 226 265 324
#     4   9  15  27  51  83 111 141 185 237 279 329
#     4   9  18  34  53  80 116 152 184 228 285 341
#     4  11  22  34  54  85 116 145 186 241 288 343
#     4   9  17  34  60  82 104 147 197 236 276 339
#     4   9  17  29  52  84 117 147 182 233 292 335
#     4   9  17  34  58  82 110 149 194 235 280 346
#
# _framework density 22.124186000000002
#
# number of rings (size 3 to 8) (size 9 to 14) (size 15 to 20)
#    0.000    2.750    1.250    1.875    0.000    2.000 
#    2.250    0.000    2.750    2.250    0.000    0.000 
#    0.000    0.000    0.000    0.000    0.000    0.000 
#
# Total GULP energy -178527.045468 kJ/mol
# GULP energy per Si atom -5578.970171 kJ/mol
# Density = 2.207383 g / cm^3
# Si number density = 22.124186 Si / 1000 Ang^3
#
#
#
# Elastic Constant Matrix: (Units=GPa)
#
#
# Indices 1 2 3 4 5 6 
#
# 1 59.3848 4.8524 27.3962 0.0000 0.0000 0.0000
# 2 4.8524 55.9560 28.0261 0.0000 0.0000 0.0000
# 3 27.3962 28.0261 171.3212 0.0000 0.0000 0.0000
# 4 0.0000 0.0000 0.0000 -11.0634 0.0000 0.0000
# 5 0.0000 0.0000 0.0000 0.0000 20.6808 0.0000
# 6 0.0000 0.0000 0.0000 0.0000 0.0000 23.9995
#
#
#
# Elastic Compliance Matrix: (Units=1/GPa)
#
#
# Indices 1 2 3 4 5 6 
#
# 1 0.018181 -0.000131 -0.002886 0.000000 0.000000 0.000000
# 2 -0.000131 0.019467 -0.003164 0.000000 0.000000 0.000000
# 3 -0.002886 -0.003164 0.006816 0.000000 0.000000 0.000000
# 4 0.000000 0.000000 0.000000 -0.090388 0.000000 0.000000
# 5 0.000000 0.000000 0.000000 0.000000 0.048354 0.000000
# 6 0.000000 0.000000 0.000000 0.000000 0.000000 0.041667
#
#
# Mechanical properties :
#
#
# Convention : Reuss Voigt Hill
#
# Bulk Modulus (GPa) = 31.14974 45.24571 38.19773
# Shear Modulus (GPa) = 74.44836 21.81587 48.13211
#
# Velocity S-wave (km/s) = 5.80717 3.14357 4.66933
# Velocity P-wave (km/s) = 7.68599 5.80269 6.80976
#
# Compressibility (1/GPa) = 0.03210300
#
# Stress axis : x y z
#
# Youngs Moduli (GPa) = 55.00122 51.36874 146.71339
#
# Poissons Ratio (x) = 0.00674 0.42341
# Poissons Ratio (y) = 0.00722 0.46414
# Poissons Ratio (z) = 0.15873 0.16251
#
# Static dielectric constant tensor:
#      x y z
#    x 1.875020 0.000000 0.000000 
#    y 0.000000 1.874400 0.000000 
#    z 0.000000 0.000000 1.832670 
# 
# From -- ./inp_files/12442.got.cif
#   From: 2010.05.17/outbox.cif.g08.bks.cpg/sg40_7_cif.got.tgz:12442.got - 2010.06.03 18:35:42.
