data_PCOD9363059
_publ_section_title
;
Structure prediction by ZEFSAII (Michael W. Deem and Ramdas Pophale) SiO2 
 PCOD9363059
Probable space group: A M A 2
;
_chemical_formula_sum "Si O2"
_cell_formula_units_Z 64
_cell_length_a 14.930304
_cell_length_b 12.900196
_cell_length_c 15.073928
_cell_angle_alpha 90.000000
_cell_angle_beta 90.000000
_cell_angle_gamma 90.000000
_cell_volume 2903.296536
_symmetry_space_group_name_H-M "A M A 2"
_symmetry_group_IT_number 40
_symmetry_cell_setting 'orthorhombic'
loop_
_space_group_symop_operation_xyz
x,y,z
-x,-y,z
1/2-x,y,z
1/2+x,-y,z
x,1/2+y,1/2+z
-x,1/2-y,1/2+z
1/2-x,1/2+y,1/2+z
1/2+x,1/2-y,1/2+z
loop_
_atom_site_type_symbol
_atom_site_label
_atom_site_fract_x
_atom_site_fract_y
_atom_site_fract_z
Si Si1 0.589219 0.792527 0.831340
Si Si2 0.641052 0.519043 0.652601
Si Si3 0.851475 0.723145 0.548577
Si Si4 0.607806 0.488837 0.215022
Si Si5 0.358638 0.942546 0.341245
Si Si6 0.144421 0.552748 0.020130
Si Si7 0.604784 0.121058 0.869784
Si Si8 0.354807 0.573974 0.478769
O O1 0.608638 0.672963 0.818701
O O2 0.484859 0.818803 0.843293
O O3 0.632322 0.821120 0.926420
O O4 0.627311 0.874425 0.757876
O O5 0.750000 0.523606 0.654167
O O6 0.611036 0.629376 0.608910
O O7 0.613373 0.495681 0.752539
O O8 0.615505 0.433278 0.579983
O O9 0.750000 0.738085 0.582188
O O10 0.898243 0.834623 0.542294
O O11 0.847871 0.686611 0.446090
O O12 0.500000 0.500000 0.219205
O O13 0.646666 0.577686 0.279309
O O14 0.636664 0.503587 0.114266
O O15 0.250000 0.938269 0.345597
O O16 0.390534 0.992460 0.433762
O O17 0.250000 0.570802 0.001443
O O18 0.593081 0.012189 0.922244
O O19 0.250000 0.544625 0.474773
#
# Coordination Sequence:
#
# PCOD9363059 Si02
#       8
#     8   8   8   8   8   8   8   8
#     4  10  19  32  52  77 103 132 163 201 250 303
#     4   8  15  29  51  73  95 124 162 202 241 287
#     4   9  17  32  54  77  97 128 170 208 246 294
#     4   9  19  34  52  74 102 133 167 205 251 301
#     4  10  20  34  49  71 101 132 166 207 248 293
#     4  10  21  34  51  75 102 133 173 212 250 295
#     4   9  18  32  51  77 104 128 163 209 251 294
#     4   9  16  29  52  80 101 124 160 204 249 293
#
# _framework density 22.043907000000001
#
# number of rings (size 3 to 8) (size 9 to 14) (size 15 to 20)
#    0.000    2.750    0.000    3.375    0.000    5.000 
#    0.000    2.500    0.000    9.000    0.000    0.000 
#    0.000    0.000    0.000    0.000    0.000    0.000 
#
# Total GULP energy -178252.113675 kJ/mol
# GULP energy per Si atom -5570.378552 kJ/mol
# Density = 2.199373 g / cm^3
# Si number density = 22.043907 Si / 1000 Ang^3
#
#
#
# Elastic Constant Matrix: (Units=GPa)
#
#
# Indices 1 2 3 4 5 6 
#
# 1 55.5473 -5.7323 -4.3807 0.0000 0.0000 0.0000
# 2 -5.7323 9.2715 27.1668 0.0000 0.0000 0.0000
# 3 -4.3807 27.1668 186.3832 0.0000 0.0000 0.0000
# 4 0.0000 0.0000 0.0000 22.3443 0.0000 0.0000
# 5 0.0000 0.0000 0.0000 0.0000 37.9178 0.0000
# 6 0.0000 0.0000 0.0000 0.0000 0.0000 13.5143
#
#
#
# Elastic Compliance Matrix: (Units=1/GPa)
#
#
# Indices 1 2 3 4 5 6 
#
# 1 0.019779 0.018967 -0.002300 0.000000 0.000000 0.000000
# 2 0.018967 0.206450 -0.029646 0.000000 0.000000 0.000000
# 3 -0.002300 -0.029646 0.009632 0.000000 0.000000 0.000000
# 4 0.000000 0.000000 0.000000 0.044754 0.000000 0.000000
# 5 0.000000 0.000000 0.000000 0.000000 0.026373 0.000000
# 6 0.000000 0.000000 0.000000 0.000000 0.000000 0.073995
#
#
# Mechanical properties :
#
#
# Convention : Reuss Voigt Hill
#
# Bulk Modulus (GPa) = 4.76409 31.70108 18.23259
# Shear Modulus (GPa) = 10.48419 30.36517 20.42468
#
# Velocity S-wave (km/s) = 2.18320 3.71548 3.04722
# Velocity P-wave (km/s) = 2.91908 5.72874 4.54640
#
# Compressibility (1/GPa) = 0.20990376
#
# Stress axis : x y z
#
# Youngs Moduli (GPa) = 50.55959 4.84379 103.81672
#
# Poissons Ratio (x) = -0.09187 0.23875
# Poissons Ratio (y) = -0.95897 3.07774
# Poissons Ratio (z) = 0.11627 0.14360
#
# Static dielectric constant tensor:
#      x y z
#    x 1.858100 0.000000 0.000000 
#    y 0.000000 1.830950 0.000000 
#    z 0.000000 0.000000 1.870950 
# 
# From -- ./inp_files/17952.got.cif
#   From: 2010.05.17/outbox.cif.g08.bks.cpg/sg40_9_cif.got.tgz:17952.got - 2010.06.03 18:35:42.
