data_PCOD9363027
_publ_section_title
;
Structure prediction by ZEFSAII (Michael W. Deem and Ramdas Pophale) SiO2 
 PCOD9363027
Probable space group: A M A 2
;
_chemical_formula_sum "Si O2"
_cell_formula_units_Z 56
_cell_length_a 8.306762
_cell_length_b 15.934843
_cell_length_c 20.633660
_cell_angle_alpha 90.000000
_cell_angle_beta 90.000000
_cell_angle_gamma 90.000000
_cell_volume 2731.214607
_symmetry_space_group_name_H-M "A M A 2"
_symmetry_group_IT_number 40
_symmetry_cell_setting 'orthorhombic'
loop_
_space_group_symop_operation_xyz
x,y,z
-x,-y,z
1/2-x,y,z
1/2+x,-y,z
x,1/2+y,1/2+z
-x,1/2-y,1/2+z
1/2-x,1/2+y,1/2+z
1/2+x,1/2-y,1/2+z
loop_
_atom_site_type_symbol
_atom_site_label
_atom_site_fract_x
_atom_site_fract_y
_atom_site_fract_z
Si Si1 0.067461 0.123950 0.977840
Si Si2 0.937543 0.770941 0.654083
Si Si3 0.439980 0.252963 0.795105
Si Si4 0.064399 0.420535 0.612058
Si Si5 0.555455 0.307697 0.011349
Si Si6 0.068472 0.912735 0.850891
Si Si7 0.055795 0.405395 0.887808
O O1 0.250000 0.112225 0.955268
O O2 0.025001 0.222145 0.985694
O O3 0.941614 0.084083 0.928600
O O4 0.044342 0.085966 0.048568
O O5 0.750000 0.797872 0.658871
O O6 0.013001 0.775141 0.725508
O O7 0.943693 0.670858 0.642877
O O8 0.997704 0.814304 0.587331
O O9 0.250000 0.269370 0.784579
O O10 0.463906 0.169073 0.836229
O O11 0.500527 0.334375 0.835237
O O12 0.250000 0.432977 0.594943
O O13 0.000000 0.500000 0.652029
O O14 0.750000 0.297273 0.011818
O O15 0.508474 0.378128 0.959134
O O16 0.250000 0.899836 0.829247
O O17 0.000000 0.000000 0.824488
O O18 0.250000 0.402675 0.889485
O O19 0.000000 0.500000 0.872355
#
# Coordination Sequence:
#
# PCOD9363027 Si02
#       7
#     8   8   8   8   8   8   8
#     4  11  20  33  54  82 115 150 186 231 289 348
#     4   8  18  36  59  82 112 157 198 244 306 365
#     4  10  21  41  63  87 121 160 203 251 309 370
#     4  10  19  32  50  78 113 150 191 237 288 347
#     4  10  19  36  61  88 119 154 199 248 300 359
#     4  12  24  38  58  85 116 151 192 240 297 359
#     4  11  23  38  62  92 126 166 212 262 312 367
#
# _framework density 20.503698
#
# number of rings (size 3 to 8) (size 9 to 14) (size 15 to 20)
#    0.000    1.714    1.429    5.143    0.000    1.143 
#    0.000    5.000    0.000    0.000    0.000    0.000 
#    0.000    0.000    0.000    0.000    0.000    0.000 
#
# Total GULP energy -156049.841240 kJ/mol
# GULP energy per Si atom -5573.208616 kJ/mol
# Density = 2.045703 g / cm^3
# Si number density = 20.503698 Si / 1000 Ang^3
#
#
#
# Elastic Constant Matrix: (Units=GPa)
#
#
# Indices 1 2 3 4 5 6 
#
# 1 59.1521 2.5727 9.4423 0.0000 0.0000 0.0000
# 2 2.5727 85.6563 18.4623 0.0000 0.0000 0.0000
# 3 9.4423 18.4623 100.9974 0.0000 0.0000 0.0000
# 4 0.0000 0.0000 0.0000 1.8931 0.0000 0.0000
# 5 0.0000 0.0000 0.0000 0.0000 12.7598 0.0000
# 6 0.0000 0.0000 0.0000 0.0000 0.0000 25.9798
#
#
#
# Elastic Compliance Matrix: (Units=1/GPa)
#
#
# Indices 1 2 3 4 5 6 
#
# 1 0.017164 -0.000177 -0.001572 0.000000 0.000000 0.000000
# 2 -0.000177 0.012155 -0.002205 0.000000 0.000000 0.000000
# 3 -0.001572 -0.002205 0.010451 0.000000 0.000000 0.000000
# 4 0.000000 0.000000 0.000000 0.528228 0.000000 0.000000
# 5 0.000000 0.000000 0.000000 0.000000 0.078371 0.000000
# 6 0.000000 0.000000 0.000000 0.000000 0.000000 0.038491
#
#
# Mechanical properties :
#
#
# Convention : Reuss Voigt Hill
#
# Bulk Modulus (GPa) = 31.38545 34.08451 32.73498
# Shear Modulus (GPa) = 7.10842 22.48179 14.79511
#
# Velocity S-wave (km/s) = 1.86398 3.31490 2.68914
# Velocity P-wave (km/s) = 4.46912 5.59563 5.06380
#
# Compressibility (1/GPa) = 0.03186190
#
# Stress axis : x y z
#
# Youngs Moduli (GPa) = 58.26063 82.26910 95.68088
#
# Poissons Ratio (x) = 0.01453 0.15045
# Poissons Ratio (y) = 0.01029 0.21102
# Poissons Ratio (z) = 0.09161 0.18144
#
# Static dielectric constant tensor:
#      x y z
#    x 1.715840 0.000000 0.000000 
#    y 0.000000 1.780260 0.000000 
#    z 0.000000 0.000000 1.788360 
# 
# From -- ./inp_files/22157.got.cif
#   From: 2010.05.17/outbox.cif.g08.bks.cpg/sg40_12_cif.got.tgz:22157.got - 2010.06.03 18:35:42.
