data_PCOD9363129
_publ_section_title
;
Structure prediction by ZEFSAII (Michael W. Deem and Ramdas Pophale) SiO2 
 PCOD9363129
Probable space group: A M A 2
;
_chemical_formula_sum "Si O2"
_cell_formula_units_Z 48
_cell_length_a 16.767152
_cell_length_b 16.660774
_cell_length_c 8.219851
_cell_angle_alpha 90.000000
_cell_angle_beta 90.000000
_cell_angle_gamma 90.000000
_cell_volume 2296.246038
_symmetry_space_group_name_H-M "A M A 2"
_symmetry_group_IT_number 40
_symmetry_cell_setting 'orthorhombic'
loop_
_space_group_symop_operation_xyz
x,y,z
-x,-y,z
1/2-x,y,z
1/2+x,-y,z
x,1/2+y,1/2+z
-x,1/2-y,1/2+z
1/2-x,1/2+y,1/2+z
1/2+x,1/2-y,1/2+z
loop_
_atom_site_type_symbol
_atom_site_label
_atom_site_fract_x
_atom_site_fract_y
_atom_site_fract_z
Si Si1 0.930317 0.239081 0.566760
Si Si2 0.111745 0.924101 0.216138
Si Si3 0.342706 0.417805 0.097209
Si Si4 0.841230 0.911155 0.568036
Si Si5 0.580712 0.904898 0.221297
Si Si6 0.391936 0.754713 0.185574
O O1 0.895498 0.158241 0.647169
O O2 0.895773 0.321158 0.640651
O O3 0.910853 0.237259 0.376551
O O4 0.024698 0.242531 0.592961
O O5 0.144153 0.925852 0.401272
O O6 0.143888 0.841780 0.136669
O O7 0.015400 0.912570 0.214756
O O8 0.121359 0.014387 0.149213
O O9 0.250000 0.401252 0.130829
O O10 0.365276 0.506721 0.161083
O O11 0.750000 0.925346 0.515617
O O12 0.895782 0.902868 0.409885
O O13 0.844597 0.827066 0.660234
#
# Coordination Sequence:
#
# PCOD9363129 Si02
#       6
#     8   8   8   8   8   8
#     4  10  20  34  54  77 103 133 169 211 253 302
#     4   8  16  31  54  74  98 130 165 204 244 309
#     4   9  18  32  50  72  99 135 172 202 243 304
#     4  10  20  34  52  74 101 133 170 209 249 297
#     4   9  17  34  55  77  99 126 165 208 257 302
#     4  10  19  33  51  76 104 133 169 208 252 298
#
# _framework density 20.903683000000001
#
# number of rings (size 3 to 8) (size 9 to 14) (size 15 to 20)
#    0.000    2.667    0.000    3.000    0.000    5.333 
#    0.000    8.333    0.000    0.000    0.000    2.333 
#    0.000    0.000    0.000    0.000    0.000    0.000 
#
# Total GULP energy -133685.613151 kJ/mol
# GULP energy per Si atom -5570.233881 kJ/mol
# Density = 2.085611 g / cm^3
# Si number density = 20.903683 Si / 1000 Ang^3
#
#
#
# Elastic Constant Matrix: (Units=GPa)
#
#
# Indices 1 2 3 4 5 6 
#
# 1 23.1097 28.3248 -3.5636 0.0000 0.0000 0.0000
# 2 28.3248 232.5967 13.5458 0.0000 0.0000 0.0000
# 3 -3.5636 13.5458 10.7953 0.0000 0.0000 0.0000
# 4 0.0000 0.0000 0.0000 32.9593 0.0000 0.0000
# 5 0.0000 0.0000 0.0000 0.0000 -10.2956 0.0000
# 6 0.0000 0.0000 0.0000 0.0000 0.0000 -0.4844
#
#
#
# Elastic Compliance Matrix: (Units=1/GPa)
#
#
# Indices 1 2 3 4 5 6 
#
# 1 0.059016 -0.008977 0.030746 0.000000 0.000000 0.000000
# 2 -0.008977 0.006004 -0.010497 0.000000 0.000000 0.000000
# 3 0.030746 -0.010497 0.115954 0.000000 0.000000 0.000000
# 4 0.000000 0.000000 0.000000 0.030340 0.000000 0.000000
# 5 0.000000 0.000000 0.000000 0.000000 -0.097129 0.000000
# 6 0.000000 0.000000 0.000000 0.000000 0.000000 -2.064408
#
#
# Mechanical properties :
#
#
# Convention : Reuss Voigt Hill
#
# Bulk Modulus (GPa) = 4.91359 38.12399 21.51879
# Shear Modulus (GPa) = -2.62477 19.64883 8.51203
#
# Velocity S-wave (km/s) = -1.12177 3.06922 2.02011
# Velocity P-wave (km/s) = 0.82332 5.55317 3.96960
#
# Compressibility (1/GPa) = 0.20351727
#
# Stress axis : x y z
#
# Youngs Moduli (GPa) = 16.94450 166.56001 8.62413
#
# Poissons Ratio (x) = 1.49527 -0.26516
# Poissons Ratio (y) = 0.15212 0.09053
# Poissons Ratio (z) = -0.52098 1.74838
#
# Static dielectric constant tensor:
#      x y z
#    x 1.745330 0.000000 0.000000 
#    y 0.000000 1.896550 0.000000 
#    z 0.000000 0.000000 1.734380 
# 
# From -- ./inp_files/7567.got.cif
#   From: 2010.05.17/outbox.cif.g08.bks.cpg/sg40_4_cif.got.tgz:7567.got - 2010.06.03 18:35:42.
