data_PCOD9363455
_publ_section_title
;
Structure prediction by ZEFSAII (Michael W. Deem and Ramdas Pophale) SiO2 
 PCOD9363455
Probable space group: A M A 2
;
_chemical_formula_sum "Si O2"
_cell_formula_units_Z 28
_cell_length_a 5.465500
_cell_length_b 32.709112
_cell_length_c 7.549163
_cell_angle_alpha 90.000000
_cell_angle_beta 90.000000
_cell_angle_gamma 90.000000
_cell_volume 1349.576338
_symmetry_space_group_name_H-M "A M A 2"
_symmetry_group_IT_number 40
_symmetry_cell_setting 'orthorhombic'
loop_
_space_group_symop_operation_xyz
x,y,z
-x,-y,z
1/2-x,y,z
1/2+x,-y,z
x,1/2+y,1/2+z
-x,1/2-y,1/2+z
1/2-x,1/2+y,1/2+z
1/2+x,1/2-y,1/2+z
loop_
_atom_site_type_symbol
_atom_site_label
_atom_site_fract_x
_atom_site_fract_y
_atom_site_fract_z
Si Si1 0.750000 0.585642 0.562300
Si Si2 0.250000 0.137940 0.593594
Si Si3 0.750000 0.287432 0.369959
Si Si4 0.250000 0.088730 0.914281
Si Si5 0.750000 0.710866 0.602125
Si Si6 0.750000 0.635695 0.872829
Si Si7 0.250000 0.998446 0.842427
O O1 0.500068 0.605858 0.492496
O O2 0.750000 0.591995 0.771746
O O3 0.750000 0.540902 0.470497
O O4 0.250000 0.173097 0.742558
O O5 0.250000 0.096020 0.705505
O O6 0.500362 0.140503 0.483265
O O7 0.499953 0.287081 0.486042
O O8 0.750000 0.248454 0.240030
O O9 0.250000 0.040341 0.953940
O O10 0.750000 0.670168 0.721223
O O11 0.500000 0.000000 0.735933
#
# Coordination Sequence:
#
# PCOD9363455 Si02
#       7
#     4   4   4   4   4   4   4
#     4  10  19  36  60  84 110 152 199 241 290 354
#     4  12  24  39  59  89 124 157 197 247 299 352
#     4  12  24  42  64  90 122 160 202 244 295 350
#     4  10  19  36  60  84 110 152 199 241 290 354
#     4  12  24  42  64  90 122 160 202 244 295 350
#     4  12  24  39  59  89 124 157 197 247 299 352
#     4   8  16  30  56  80 104 140 192 238 282 344
#
# _framework density 20.747250999999999
#
# number of rings (size 3 to 8) (size 9 to 14) (size 15 to 20)
#    0.000    1.143    0.000    7.714    0.000    0.000 
#    0.000    0.000    0.000   46.286    0.000    0.000 
#    0.000    0.000    0.000    0.000    0.000    0.000 
#
# Total GULP energy -78057.652297 kJ/mol
# GULP energy per Si atom -5575.546593 kJ/mol
# Density = 2.070003 g / cm^3
# Si number density = 20.747251 Si / 1000 Ang^3
#
#
#
# Elastic Constant Matrix: (Units=GPa)
#
#
# Indices 1 2 3 4 5 6 
#
# 1 290.1934 28.6527 100.1326 0.0000 0.0000 0.0000
# 2 28.6527 85.7124 43.8605 0.0000 0.0000 0.0000
# 3 100.1326 43.8605 121.2661 0.0000 0.0000 0.0000
# 4 0.0000 0.0000 0.0000 16.2117 0.0000 0.0000
# 5 0.0000 0.0000 0.0000 0.0000 63.5545 0.0000
# 6 0.0000 0.0000 0.0000 0.0000 0.0000 -128.2412
#
#
#
# Elastic Compliance Matrix: (Units=1/GPa)
#
#
# Indices 1 2 3 4 5 6 
#
# 1 0.004838 0.000524 -0.004184 0.000000 0.000000 0.000000
# 2 0.000524 0.014373 -0.005631 0.000000 0.000000 0.000000
# 3 -0.004184 -0.005631 0.013738 0.000000 0.000000 0.000000
# 4 0.000000 0.000000 0.000000 0.061684 0.000000 0.000000
# 5 0.000000 0.000000 0.000000 0.000000 0.015735 0.000000
# 6 0.000000 0.000000 0.000000 0.000000 0.000000 -0.007798
#
#
# Mechanical properties :
#
#
# Convention : Reuss Voigt Hill
#
# Bulk Modulus (GPa) = 69.60801 93.60707 81.60754
# Shear Modulus (GPa) = 39.70055 11.94006 25.82031
#
# Velocity S-wave (km/s) = 4.37914 2.40156 3.53160
# Velocity P-wave (km/s) = 7.69366 7.27364 7.48660
#
# Compressibility (1/GPa) = 0.01436616
#
# Stress axis : x y z
#
# Youngs Moduli (GPa) = 206.69201 69.57285 72.78898
#
# Poissons Ratio (x) = -0.03645 0.30458
# Poissons Ratio (y) = -0.10829 0.40990
# Poissons Ratio (z) = 0.86490 0.39179
#
# Static dielectric constant tensor:
#      x y z
#    x 1.811680 0.000000 0.000000 
#    y 0.000000 1.821450 0.000000 
#    z 0.000000 0.000000 1.712820 
# 
# From -- ./inp_files/119.got.cif
#   From: 2010.05.17/outbox.cif.g08.bks.cpg/sg40_1_cif.got.tgz:119.got - 2010.06.03 18:35:42.
