data_PCOD9363872
_publ_section_title
;
Structure prediction by ZEFSAII (Michael W. Deem and Ramdas Pophale) SiO2 
 PCOD9363872
Probable space group: A M A 2
;
_chemical_formula_sum "Si O2"
_cell_formula_units_Z 60
_cell_length_a 10.959118
_cell_length_b 34.098772
_cell_length_c 8.274546
_cell_angle_alpha 90.000000
_cell_angle_beta 90.000000
_cell_angle_gamma 90.000000
_cell_volume 3092.135500
_symmetry_space_group_name_H-M "A M A 2"
_symmetry_group_IT_number 40
_symmetry_cell_setting 'orthorhombic'
loop_
_space_group_symop_operation_xyz
x,y,z
-x,-y,z
1/2-x,y,z
1/2+x,-y,z
x,1/2+y,1/2+z
-x,1/2-y,1/2+z
1/2-x,1/2+y,1/2+z
1/2+x,1/2-y,1/2+z
loop_
_atom_site_type_symbol
_atom_site_label
_atom_site_fract_x
_atom_site_fract_y
_atom_site_fract_z
Si Si1 0.614349 0.072775 0.941950
Si Si2 0.000000 0.500000 0.887097
Si Si3 0.608466 0.574934 0.059175
Si Si4 0.113715 0.837977 0.065230
Si Si5 0.046081 0.134060 0.347893
Si Si6 0.106825 0.279978 0.271684
Si Si7 0.615087 0.290114 0.019906
Si Si8 0.882704 0.942716 0.149519
O O1 0.750000 0.055180 0.973086
O O2 0.593308 0.074871 0.751223
O O3 0.618877 0.117161 0.006390
O O4 0.499234 0.054194 0.032165
O O5 0.098438 0.522440 0.776971
O O6 0.060694 0.466107 0.991546
O O7 0.750000 0.578908 0.020885
O O8 0.540824 0.610025 0.968625
O O9 0.250000 0.825352 0.113852
O O10 0.026121 0.839466 0.217916
O O11 0.078248 0.811704 0.912389
O O12 0.116368 0.165265 0.456505
O O13 0.109413 0.099075 0.245069
O O14 0.250000 0.286391 0.218437
O O15 0.103188 0.238714 0.365949
O O16 0.001895 0.283327 0.136059
O O17 0.750000 0.281539 0.094128
O O18 0.750000 0.945109 0.069829
#
# Coordination Sequence:
#
# PCOD9363872 Si02
#       8
#     8   4   8   8   8   8   8   8
#     4   9  19  35  57  83 112 143 185 233 276 325
#     4  10  22  36  56  82 112 146 186 234 284 336
#     4  10  20  37  59  85 113 148 190 235 284 340
#     4   9  17  33  56  84 112 144 187 233 273 325
#     4  10  20  35  58  84 112 148 186 230 283 336
#     4  10  22  38  58  83 115 152 192 233 280 335
#     4  11  23  39  57  84 118 151 189 238 287 336
#     4  10  21  38  57  80 110 147 185 226 277 337
#
# _framework density 19.404064999999999
#
# number of rings (size 3 to 8) (size 9 to 14) (size 15 to 20)
#    0.000    2.133    0.000    2.800    0.000    6.933 
#    0.000   11.333    0.000    0.000    0.000    0.000 
#    0.000    0.000    0.000    0.000    0.000    0.000 
#
# Total GULP energy -167295.411466 kJ/mol
# GULP energy per Si atom -5576.513716 kJ/mol
# Density = 1.935990 g / cm^3
# Si number density = 19.404065 Si / 1000 Ang^3
#
#
#
# Elastic Constant Matrix: (Units=GPa)
#
#
# Indices 1 2 3 4 5 6 
#
# 1 160.2206 34.4377 81.5092 0.0000 0.0000 0.0000
# 2 34.4377 36.7244 14.3217 0.0000 0.0000 0.0000
# 3 81.5092 14.3217 62.7546 0.0000 0.0000 0.0000
# 4 0.0000 0.0000 0.0000 29.3147 0.0000 0.0000
# 5 0.0000 0.0000 0.0000 0.0000 63.2525 0.0000
# 6 0.0000 0.0000 0.0000 0.0000 0.0000 8.9983
#
#
#
# Elastic Compliance Matrix: (Units=1/GPa)
#
#
# Indices 1 2 3 4 5 6 
#
# 1 0.021342 -0.010102 -0.025415 0.000000 0.000000 0.000000
# 2 -0.010102 0.034672 0.005208 0.000000 0.000000 0.000000
# 3 -0.025415 0.005208 0.047756 0.000000 0.000000 0.000000
# 4 0.000000 0.000000 0.000000 0.034113 0.000000 0.000000
# 5 0.000000 0.000000 0.000000 0.000000 0.015810 0.000000
# 6 0.000000 0.000000 0.000000 0.000000 0.000000 0.111132
#
#
# Mechanical properties :
#
#
# Convention : Reuss Voigt Hill
#
# Bulk Modulus (GPa) = 23.17321 57.80407 40.48864
# Shear Modulus (GPa) = 14.71346 28.94184 21.82765
#
# Velocity S-wave (km/s) = 2.75665 3.86623 3.35759
# Velocity P-wave (km/s) = 4.70112 7.05582 5.99521
#
# Compressibility (1/GPa) = 0.04315328
#
# Stress axis : x y z
#
# Youngs Moduli (GPa) = 46.85632 28.84206 20.93965
#
# Poissons Ratio (x) = 0.29136 0.53217
# Poissons Ratio (y) = 0.47333 -0.10906
# Poissons Ratio (z) = 1.19083 -0.15021
#
# Static dielectric constant tensor:
#      x y z
#    x 1.693170 0.000000 0.000000 
#    y 0.000000 1.673650 0.000000 
#    z 0.000000 0.000000 1.659460 
# 
# From -- ./inp_files/5687.got.cif
#   From: 2010.05.17/outbox.cif.g08.bks.cpg/sg40_3_cif.got.tgz:5687.got - 2010.06.03 18:35:42.
