data_PCOD9363656
_publ_section_title
;
Structure prediction by ZEFSAII (Michael W. Deem and Ramdas Pophale) SiO2 
 PCOD9363656
Probable space group: A M A 2
;
_chemical_formula_sum "Si O2"
_cell_formula_units_Z 64
_cell_length_a 8.717286
_cell_length_b 14.807366
_cell_length_c 28.280799
_cell_angle_alpha 90.000000
_cell_angle_beta 90.000000
_cell_angle_gamma 90.000000
_cell_volume 3650.486789
_symmetry_space_group_name_H-M "A M A 2"
_symmetry_group_IT_number 40
_symmetry_cell_setting 'orthorhombic'
loop_
_space_group_symop_operation_xyz
x,y,z
-x,-y,z
1/2-x,y,z
1/2+x,-y,z
x,1/2+y,1/2+z
-x,1/2-y,1/2+z
1/2-x,1/2+y,1/2+z
1/2+x,1/2-y,1/2+z
loop_
_atom_site_type_symbol
_atom_site_label
_atom_site_fract_x
_atom_site_fract_y
_atom_site_fract_z
Si Si1 0.066992 0.098660 0.532550
Si Si2 0.066531 0.214667 0.720760
Si Si3 0.933998 0.599844 0.135730
Si Si4 0.076282 0.352705 0.315294
Si Si5 0.067448 0.790128 0.447635
Si Si6 0.432583 0.591870 0.411736
Si Si7 0.923452 0.852405 0.353953
Si Si8 0.935408 0.906503 0.252112
O O1 0.250000 0.092791 0.536979
O O2 0.993790 0.122855 0.583212
O O3 0.018440 0.168677 0.492321
O O4 0.000000 0.000000 0.519796
O O5 0.250000 0.216999 0.719385
O O6 0.997744 0.169563 0.674043
O O7 0.010805 0.155197 0.765764
O O8 0.001430 0.315939 0.728422
O O9 0.750000 0.597377 0.136437
O O10 0.000000 0.500000 0.146503
O O11 0.250000 0.386889 0.308867
O O12 0.086275 0.250116 0.334614
O O13 0.990121 0.402058 0.357630
O O14 0.250000 0.793164 0.454793
O O15 0.021535 0.685997 0.436847
O O16 0.023860 0.847881 0.400911
O O17 0.500000 0.500000 0.433071
O O18 0.250000 0.587705 0.412161
O O19 0.750000 0.882849 0.365427
O O20 0.983692 0.902720 0.307593
O O21 0.750000 0.903774 0.250713
O O22 0.000000 0.000000 0.231741
#
# Coordination Sequence:
#
# PCOD9363656 Si02
#       8
#     8   8   8   8   8   8   8   8
#     4  11  22  38  59  82 107 135 169 212 265 320
#     4  11  21  35  55  80 109 142 180 220 266 318
#     4  11  22  39  60  83 109 135 169 214 266 321
#     4   9  17  31  49  71 101 136 175 217 260 304
#     4  10  20  34  53  78 107 140 178 219 264 313
#     4  10  20  33  51  76 108 145 183 221 262 310
#     4   8  16  30  47  69 100 136 174 215 257 302
#     4  10  20  34  52  77 109 147 186 224 266 312
#
# _framework density 17.531908000000001
#
# number of rings (size 3 to 8) (size 9 to 14) (size 15 to 20)
#    0.000    2.000    0.000    6.375    0.000    6.000 
#    0.000    3.750    0.000    0.750    0.000    3.500 
#    0.000    0.000    0.000    0.000    0.000    0.000 
#
# Total GULP energy -178565.548639 kJ/mol
# GULP energy per Si atom -5580.173395 kJ/mol
# Density = 1.749201 g / cm^3
# Si number density = 17.531908 Si / 1000 Ang^3
#
#
#
# Elastic Constant Matrix: (Units=GPa)
#
#
# Indices 1 2 3 4 5 6 
#
# 1 124.0049 51.6851 61.9920 0.0000 0.0000 0.0000
# 2 51.6851 102.1310 74.9674 0.0000 0.0000 0.0000
# 3 61.9920 74.9674 101.2370 0.0000 0.0000 0.0000
# 4 0.0000 0.0000 0.0000 21.3183 0.0000 0.0000
# 5 0.0000 0.0000 0.0000 0.0000 29.3075 0.0000
# 6 0.0000 0.0000 0.0000 0.0000 0.0000 0.2838
#
#
#
# Elastic Compliance Matrix: (Units=1/GPa)
#
#
# Indices 1 2 3 4 5 6 
#
# 1 0.011719 -0.001453 -0.006100 0.000000 0.000000 0.000000
# 2 -0.001453 0.021632 -0.015129 0.000000 0.000000 0.000000
# 3 -0.006100 -0.015129 0.024817 0.000000 0.000000 0.000000
# 4 0.000000 0.000000 0.000000 0.046908 0.000000 0.000000
# 5 0.000000 0.000000 0.000000 0.000000 0.034121 0.000000
# 6 0.000000 0.000000 0.000000 0.000000 0.000000 3.523225
#
#
# Mechanical properties :
#
#
# Convention : Reuss Voigt Hill
#
# Bulk Modulus (GPa) = 78.10547 78.29579 78.20063
# Shear Modulus (GPa) = 1.34696 19.43048 10.38872
#
# Velocity S-wave (km/s) = 0.87747 3.33271 2.43690
# Velocity P-wave (km/s) = 6.75824 7.71785 7.25393
#
# Compressibility (1/GPa) = 0.01280320
#
# Stress axis : x y z
#
# Youngs Moduli (GPa) = 85.32789 46.22839 40.29561
#
# Poissons Ratio (x) = 0.06716 0.24582
# Poissons Ratio (y) = 0.12397 0.60963
# Poissons Ratio (z) = 0.52054 0.69939
#
# Static dielectric constant tensor:
#      x y z
#    x 1.593760 0.000000 0.000000 
#    y 0.000000 1.620190 0.000000 
#    z 0.000000 0.000000 1.575790 
# 
# From -- ./inp_files/24339.got.cif
#   From: 2010.05.17/outbox.cif.g08.bks.cpg/sg40_13_cif.got.tgz:24339.got - 2010.06.03 18:35:42.
