data_PCOD9363723
_publ_section_title
;
Structure prediction by ZEFSAII (Michael W. Deem and Ramdas Pophale) SiO2 
 PCOD9363723
Probable space group: A M A 2
;
_chemical_formula_sum "Si O2"
_cell_formula_units_Z 60
_cell_length_a 30.122740
_cell_length_b 7.963237
_cell_length_c 12.115186
_cell_angle_alpha 90.000000
_cell_angle_beta 90.000000
_cell_angle_gamma 90.000000
_cell_volume 2906.124399
_symmetry_space_group_name_H-M "A M A 2"
_symmetry_group_IT_number 40
_symmetry_cell_setting 'orthorhombic'
loop_
_space_group_symop_operation_xyz
x,y,z
-x,-y,z
1/2-x,y,z
1/2+x,-y,z
x,1/2+y,1/2+z
-x,1/2-y,1/2+z
1/2-x,1/2+y,1/2+z
1/2+x,1/2-y,1/2+z
loop_
_atom_site_type_symbol
_atom_site_label
_atom_site_fract_x
_atom_site_fract_y
_atom_site_fract_z
Si Si1 0.426700 0.580739 0.602570
Si Si2 0.111539 0.715292 0.151351
Si Si3 0.069308 0.247748 0.869760
Si Si4 0.333984 0.753934 0.652533
Si Si5 0.000000 0.000000 0.270741
Si Si6 0.355332 0.477607 0.966439
Si Si7 0.197442 0.287331 0.375847
Si Si8 0.699852 0.607309 0.621174
O O1 0.412013 0.386049 0.609205
O O2 0.437824 0.636253 0.478166
O O3 0.384601 0.690697 0.641535
O O4 0.466400 0.597354 0.689171
O O5 0.084642 0.654285 0.258149
O O6 0.115012 0.580785 0.054553
O O7 0.162311 0.775000 0.174103
O O8 0.027964 0.367762 0.842212
O O9 0.111388 0.368978 0.894010
O O10 0.324469 0.855277 0.764113
O O11 0.305468 0.584198 0.657586
O O12 0.324866 0.859717 0.542887
O O13 0.326296 0.609579 0.899540
O O14 0.250000 0.271107 0.360847
O O15 0.190286 0.389357 0.489020
O O16 0.750000 0.667552 0.639249
#
# Coordination Sequence:
#
# PCOD9363723 Si02
#       8
#     8   8   8   8   4   8   8   8
#     4   9  20  38  57  80 109 140 177 218 265 323
#     4   9  19  36  57  79 109 145 180 218 264 315
#     4  10  21  38  58  81 109 140 174 218 270 318
#     4  10  20  35  55  77 106 141 179 219 264 316
#     4  10  20  36  58  82 110 136 170 220 268 320
#     4  10  21  35  56  81 105 140 184 221 260 318
#     4  10  20  34  53  78 109 144 178 219 268 309
#     4   9  18  33  53  78 109 142 179 221 262 309
#
# _framework density 20.646052999999998
#
# number of rings (size 3 to 8) (size 9 to 14) (size 15 to 20)
#    0.000    2.400    0.000    2.800    0.000    7.467 
#    0.000    4.000    0.000    7.200    0.000    0.000 
#    0.000    0.000    0.000    0.000    0.000    0.000 
#
# Total GULP energy -167499.617991 kJ/mol
# GULP energy per Si atom -5583.320600 kJ/mol
# Density = 2.059906 g / cm^3
# Si number density = 20.646053 Si / 1000 Ang^3
#
#
#
# Elastic Constant Matrix: (Units=GPa)
#
#
# Indices 1 2 3 4 5 6 
#
# 1 42.8901 -9.0368 29.1143 0.0000 0.0000 0.0000
# 2 -9.0368 28.7863 18.3826 0.0000 0.0000 0.0000
# 3 29.1143 18.3826 91.9047 0.0000 0.0000 0.0000
# 4 0.0000 0.0000 0.0000 21.2138 0.0000 0.0000
# 5 0.0000 0.0000 0.0000 0.0000 31.6938 0.0000
# 6 0.0000 0.0000 0.0000 0.0000 0.0000 8.2056
#
#
#
# Elastic Compliance Matrix: (Units=1/GPa)
#
#
# Indices 1 2 3 4 5 6 
#
# 1 0.040205 0.023794 -0.017496 0.000000 0.000000 0.000000
# 2 0.023794 0.053907 -0.018320 0.000000 0.000000 0.000000
# 3 -0.017496 -0.018320 0.020088 0.000000 0.000000 0.000000
# 4 0.000000 0.000000 0.000000 0.047139 0.000000 0.000000
# 5 0.000000 0.000000 0.000000 0.000000 0.031552 0.000000
# 6 0.000000 0.000000 0.000000 0.000000 0.000000 0.121868
#
#
# Mechanical properties :
#
#
# Convention : Reuss Voigt Hill
#
# Bulk Modulus (GPa) = 11.09189 26.72236 18.90713
# Shear Modulus (GPa) = 13.55551 20.56403 17.05977
#
# Velocity S-wave (km/s) = 2.56514 3.15941 2.87766
# Velocity P-wave (km/s) = 3.76262 5.12644 4.49654
#
# Compressibility (1/GPa) = 0.09015598
#
# Stress axis : x y z
#
# Youngs Moduli (GPa) = 24.87263 18.55042 49.78207
#
# Poissons Ratio (x) = -0.44138 0.87097
# Poissons Ratio (y) = -0.59181 0.91201
# Poissons Ratio (z) = 0.43516 0.33984
#
# Static dielectric constant tensor:
#      x y z
#    x 1.727800 0.000000 0.000000 
#    y 0.000000 1.734800 0.000000 
#    z 0.000000 0.000000 1.769580 
# 
# From -- ./inp_files/14387.got.cif
#   From: 2010.05.17/outbox.cif.g08.bks.cpg/sg40_8_cif.got.tgz:14387.got - 2010.06.03 18:35:42.
