data_PCOD9363093
_publ_section_title
;
Structure prediction by ZEFSAII (Michael W. Deem and Ramdas Pophale) SiO2 
 PCOD9363093
Probable space group: A M A 2
;
_chemical_formula_sum "Si O2"
_cell_formula_units_Z 64
_cell_length_a 8.531892
_cell_length_b 33.435212
_cell_length_c 12.054612
_cell_angle_alpha 90.000000
_cell_angle_beta 90.000000
_cell_angle_gamma 90.000000
_cell_volume 3438.766339
_symmetry_space_group_name_H-M "A M A 2"
_symmetry_group_IT_number 40
_symmetry_cell_setting 'orthorhombic'
loop_
_space_group_symop_operation_xyz
x,y,z
-x,-y,z
1/2-x,y,z
1/2+x,-y,z
x,1/2+y,1/2+z
-x,1/2-y,1/2+z
1/2-x,1/2+y,1/2+z
1/2+x,1/2-y,1/2+z
loop_
_atom_site_type_symbol
_atom_site_label
_atom_site_fract_x
_atom_site_fract_y
_atom_site_fract_z
Si Si1 0.061036 0.044842 0.608890
Si Si2 0.936103 0.379863 0.472283
Si Si3 0.566921 0.672872 0.047754
Si Si4 0.065785 0.814661 0.805752
Si Si5 0.940647 0.849820 0.215318
Si Si6 0.068088 0.601336 0.920458
Si Si7 0.566348 0.727565 0.842518
Si Si8 0.563664 0.545361 0.346487
O O1 0.250000 0.046449 0.610768
O O2 0.000005 0.066957 0.498697
O O3 0.000185 0.060929 0.727097
O O4 0.000000 0.000000 0.605253
O O5 0.750000 0.386250 0.477554
O O6 0.987519 0.362243 0.591580
O O7 0.974480 0.346427 0.380435
O O8 0.013105 0.421929 0.437091
O O9 0.750000 0.659558 0.036815
O O10 0.533295 0.679873 0.175500
O O11 0.451874 0.640118 0.997591
O O12 0.551169 0.711039 0.968007
O O13 0.250000 0.821627 0.824029
O O14 0.022788 0.769096 0.832650
O O15 0.750000 0.847838 0.220053
O O16 0.996675 0.883976 0.302514
O O17 0.004072 0.807485 0.260981
O O18 0.250000 0.591514 0.901904
O O19 0.750000 0.733899 0.819506
O O20 0.500000 0.500000 0.364614
O O21 0.750000 0.542855 0.340173
#
# Coordination Sequence:
#
# PCOD9363093 Si02
#       8
#     8   8   8   8   8   8   8   8
#     4  10  19  32  54  84 115 144 179 225 278 337
#     4  11  23  39  59  84 115 152 194 239 287 340
#     4   9  20  36  53  74 103 137 174 220 273 327
#     4  11  23  37  55  81 112 146 186 232 283 337
#     4   9  20  39  59  78 109 151 189 232 284 338
#     4   9  18  34  56  79 104 138 180 222 269 328
#     4  10  21  37  56  80 108 142 185 231 283 338
#     4  11  22  38  60  86 118 152 190 235 288 343
#
# _framework density 18.611325000000001
#
# number of rings (size 3 to 8) (size 9 to 14) (size 15 to 20)
#    0.000    2.000    0.000    4.125    1.750    5.500 
#    0.000    0.625    0.000    1.500    0.000    0.000 
#    0.000    0.000    0.000    0.000    0.000    0.000 
#
# Total GULP energy -178514.154691 kJ/mol
# GULP energy per Si atom -5578.567334 kJ/mol
# Density = 1.856896 g / cm^3
# Si number density = 18.611325 Si / 1000 Ang^3
#
#
#
# Elastic Constant Matrix: (Units=GPa)
#
#
# Indices 1 2 3 4 5 6 
#
# 1 42.4018 7.9058 27.4269 0.0000 0.0000 0.0000
# 2 7.9058 60.3640 41.0260 0.0000 0.0000 0.0000
# 3 27.4269 41.0260 103.5903 0.0000 0.0000 0.0000
# 4 0.0000 0.0000 0.0000 48.3318 0.0000 0.0000
# 5 0.0000 0.0000 0.0000 0.0000 18.5337 0.0000
# 6 0.0000 0.0000 0.0000 0.0000 0.0000 29.0313
#
#
#
# Elastic Compliance Matrix: (Units=1/GPa)
#
#
# Indices 1 2 3 4 5 6 
#
# 1 0.028619 0.001918 -0.008337 0.000000 0.000000 0.000000
# 2 0.001918 0.022796 -0.009536 0.000000 0.000000 0.000000
# 3 -0.008337 -0.009536 0.015637 0.000000 0.000000 0.000000
# 4 0.000000 0.000000 0.000000 0.020690 0.000000 0.000000
# 5 0.000000 0.000000 0.000000 0.000000 0.053956 0.000000
# 6 0.000000 0.000000 0.000000 0.000000 0.000000 0.034446
#
#
# Mechanical properties :
#
#
# Convention : Reuss Voigt Hill
#
# Bulk Modulus (GPa) = 28.45561 39.89706 34.17633
# Shear Modulus (GPa) = 22.75129 27.84584 25.29856
#
# Velocity S-wave (km/s) = 3.50014 3.87224 3.69088
# Velocity P-wave (km/s) = 5.62648 6.44017 6.04703
#
# Compressibility (1/GPa) = 0.03514246
#
# Stress axis : x y z
#
# Youngs Moduli (GPa) = 34.94205 43.86724 63.94962
#
# Poissons Ratio (x) = -0.08413 0.53313
# Poissons Ratio (y) = -0.06701 0.60982
# Poissons Ratio (z) = 0.29130 0.41832
#
# Static dielectric constant tensor:
#      x y z
#    x 1.646990 0.000000 0.000000 
#    y 0.000000 1.494490 0.000000 
#    z 0.000000 0.000000 1.660340 
# 
# From -- ./inp_files/10568.got.cif
#   From: 2010.05.17/outbox.cif.g08.bks.cpg/sg40_6_cif.got.tgz:10568.got - 2010.06.03 18:35:42.
