data_PCOD9363014
_publ_section_title
;
Structure prediction by ZEFSAII (Michael W. Deem and Ramdas Pophale) SiO2 
 PCOD9363014
Probable space group: A M A 2
;
_chemical_formula_sum "Si O2"
_cell_formula_units_Z 64
_cell_length_a 14.735780
_cell_length_b 7.500668
_cell_length_c 22.961429
_cell_angle_alpha 90.000000
_cell_angle_beta 90.000000
_cell_angle_gamma 90.000000
_cell_volume 2537.885268
_symmetry_space_group_name_H-M "A M A 2"
_symmetry_group_IT_number 40
_symmetry_cell_setting 'orthorhombic'
loop_
_space_group_symop_operation_xyz
x,y,z
-x,-y,z
1/2-x,y,z
1/2+x,-y,z
x,1/2+y,1/2+z
-x,1/2-y,1/2+z
1/2-x,1/2+y,1/2+z
1/2+x,1/2-y,1/2+z
loop_
_atom_site_type_symbol
_atom_site_label
_atom_site_fract_x
_atom_site_fract_y
_atom_site_fract_z
Si Si1 0.394932 0.568865 0.746700
Si Si2 0.355323 0.969647 0.116360
Si Si3 0.099251 0.582593 0.121612
Si Si4 0.896869 0.423617 0.996772
Si Si5 0.603028 0.433840 0.871422
Si Si6 0.607245 0.013821 0.746069
Si Si7 0.358921 0.502847 0.494272
Si Si8 0.142479 0.482032 0.371350
O O1 0.500000 0.500000 0.745172
O O2 0.359313 0.534648 0.682040
O O3 0.357754 0.501090 0.809317
O O4 0.375135 0.778236 0.751133
O O5 0.250000 0.917578 0.106068
O O6 0.414509 0.792953 0.117584
O O7 0.384809 0.077631 0.058214
O O8 0.142984 0.524220 0.060123
O O9 0.145620 0.551352 0.184274
O O10 0.000000 0.500000 0.123680
O O11 0.887338 0.206985 0.995358
O O12 0.000000 0.500000 0.997371
O O13 0.856068 0.483423 0.934519
O O14 0.500000 0.500000 0.872079
O O15 0.601090 0.217234 0.869762
O O16 0.629099 0.927804 0.808537
O O17 0.500000 0.000000 0.741444
O O18 0.250000 0.517415 0.491975
O O19 0.391783 0.573462 0.431276
O O20 0.250000 0.454228 0.376282
#
# Coordination Sequence:
#
# PCOD9363014 Si02
#       8
#     8   8   8   8   8   8   8   8
#     4  10  19  32  50  71 102 140 173 211 260 310
#     4  10  20  34  54  79 106 138 177 218 259 307
#     4   9  17  31  52  77 107 140 172 211 257 305
#     4   8  13  24  45  72  99 131 171 208 244 297
#     4   8  15  27  46  73 102 133 168 208 253 300
#     4  10  20  33  50  73 104 137 169 211 262 311
#     4   8  15  29  48  71 100 132 167 212 261 301
#     4   9  17  30  50  74  99 131 173 215 254 303
#
# _framework density 25.217848
#
# number of rings (size 3 to 8) (size 9 to 14) (size 15 to 20)
#    0.000    3.000    0.000    1.500    0.000    2.500 
#    0.000    0.625    0.000    9.000    0.000    0.000 
#    0.000    4.000    0.000    0.000    0.000    0.000 
#
# Total GULP energy -178137.516797 kJ/mol
# GULP energy per Si atom -5566.797400 kJ/mol
# Density = 2.516045 g / cm^3
# Si number density = 25.217848 Si / 1000 Ang^3
#
#
#
# Elastic Constant Matrix: (Units=GPa)
#
#
# Indices 1 2 3 4 5 6 
#
# 1 62.9194 -15.8882 20.4276 0.0000 0.0000 0.0000
# 2 -15.8882 41.7817 25.2902 0.0000 0.0000 0.0000
# 3 20.4276 25.2902 384.6655 0.0000 0.0000 0.0000
# 4 0.0000 0.0000 0.0000 16.3078 0.0000 0.0000
# 5 0.0000 0.0000 0.0000 0.0000 21.8398 0.0000
# 6 0.0000 0.0000 0.0000 0.0000 0.0000 -365.2086
#
#
#
# Elastic Compliance Matrix: (Units=1/GPa)
#
#
# Indices 1 2 3 4 5 6 
#
# 1 0.018371 0.007890 -0.001494 0.000000 0.000000 0.000000
# 2 0.007890 0.028315 -0.002281 0.000000 0.000000 0.000000
# 3 -0.001494 -0.002281 0.002829 0.000000 0.000000 0.000000
# 4 0.000000 0.000000 0.000000 0.061320 0.000000 0.000000
# 5 0.000000 0.000000 0.000000 0.000000 0.045788 0.000000
# 6 0.000000 0.000000 0.000000 0.000000 0.000000 -0.002738
#
#
# Mechanical properties :
#
#
# Convention : Reuss Voigt Hill
#
# Bulk Modulus (GPa) = 17.31734 61.00288 39.16011
# Shear Modulus (GPa) = 30.32092 -34.77642 -2.22775
#
# Velocity S-wave (km/s) = 3.47127 -3.71757 -0.94091
# Velocity P-wave (km/s) = 4.79044 2.41159 3.79236
#
# Compressibility (1/GPa) = 0.05774559
#
# Stress axis : x y z
#
# Youngs Moduli (GPa) = 54.43376 35.31721 353.48693
#
# Poissons Ratio (x) = -0.27867 0.52823
# Poissons Ratio (y) = -0.42950 0.80616
# Poissons Ratio (z) = 0.08134 0.08054
#
# Static dielectric constant tensor:
#      x y z
#    x 1.997110 0.000000 0.000000 
#    y 0.000000 1.979400 0.000000 
#    z 0.000000 0.000000 2.192780 
# 
# From -- ./inp_files/24843.got.cif
#   From: 2010.05.17/outbox.cif.g08.bks.cpg/sg40_13_cif.got.tgz:24843.got - 2010.06.03 18:35:42.
