data_PCOD9363669
_publ_section_title
;
Structure prediction by ZEFSAII (Michael W. Deem and Ramdas Pophale) SiO2 
 PCOD9363669
Probable space group: A M A 2
;
_chemical_formula_sum "Si O2"
_cell_formula_units_Z 64
_cell_length_a 9.221361
_cell_length_b 16.402204
_cell_length_c 22.651643
_cell_angle_alpha 90.000000
_cell_angle_beta 90.000000
_cell_angle_gamma 90.000000
_cell_volume 3426.075598
_symmetry_space_group_name_H-M "A M A 2"
_symmetry_group_IT_number 40
_symmetry_cell_setting 'orthorhombic'
loop_
_space_group_symop_operation_xyz
x,y,z
-x,-y,z
1/2-x,y,z
1/2+x,-y,z
x,1/2+y,1/2+z
-x,1/2-y,1/2+z
1/2-x,1/2+y,1/2+z
1/2+x,1/2-y,1/2+z
loop_
_atom_site_type_symbol
_atom_site_label
_atom_site_fract_x
_atom_site_fract_y
_atom_site_fract_z
Si Si1 0.077624 0.759433 0.232830
Si Si2 0.573686 0.416200 0.932000
Si Si3 0.912862 0.200041 0.099369
Si Si4 0.084543 0.111647 0.564852
Si Si5 0.423911 0.240582 0.350433
Si Si6 0.421283 0.586520 0.379723
Si Si7 0.415097 0.580014 0.521422
Si Si8 0.423544 0.576526 0.193894
O O1 0.250000 0.769479 0.244798
O O2 0.048065 0.797931 0.168577
O O3 0.049667 0.662737 0.224407
O O4 0.980631 0.788981 0.286607
O O5 0.500000 0.500000 0.909209
O O6 0.750000 0.423878 0.930626
O O7 0.539376 0.332070 0.896975
O O8 0.522811 0.406632 0.000491
O O9 0.750000 0.165782 0.094119
O O10 0.907144 0.292018 0.075574
O O11 0.020678 0.153625 0.057688
O O12 0.250000 0.079586 0.563629
O O13 0.017099 0.082667 0.626525
O O14 0.250000 0.251936 0.351801
O O15 0.501195 0.328747 0.360583
O O16 0.500000 0.500000 0.363703
O O17 0.250000 0.585330 0.361648
O O18 0.427476 0.590595 0.451088
O O19 0.500000 0.500000 0.538804
O O20 0.250000 0.568640 0.536361
O O21 0.500000 0.500000 0.223278
O O22 0.250000 0.566010 0.192198
#
# Coordination Sequence:
#
# PCOD9363669 Si02
#       8
#     8   8   8   8   8   8   8   8
#     4   9  20  37  54  73 101 140 182 221 265 318
#     4  10  21  36  55  80 108 140 179 223 271 322
#     4   9  17  33  56  77 102 139 176 214 267 325
#     4   8  15  30  52  77 105 134 165 204 255 318
#     4  11  23  38  57  80 108 146 190 235 279 322
#     4  10  21  37  58  85 116 148 182 223 275 336
#     4  10  20  33  52  80 110 137 169 214 268 327
#     4   9  17  30  50  76 104 134 165 200 249 308
#
# _framework density 18.680264000000001
#
# number of rings (size 3 to 8) (size 9 to 14) (size 15 to 20)
#    0.000    2.500    0.000    3.750    0.000    5.000 
#    0.000    4.375    0.000    1.500    0.000    0.000 
#    0.000    0.000    0.000    0.000    0.000    0.000 
#
# Total GULP energy -178290.791661 kJ/mol
# GULP energy per Si atom -5571.587239 kJ/mol
# Density = 1.863775 g / cm^3
# Si number density = 18.680264 Si / 1000 Ang^3
#
#
#
# Elastic Constant Matrix: (Units=GPa)
#
#
# Indices 1 2 3 4 5 6 
#
# 1 56.6800 37.3837 41.2860 0.0000 0.0000 0.0000
# 2 37.3837 74.9103 35.5508 0.0000 0.0000 0.0000
# 3 41.2860 35.5508 74.0403 0.0000 0.0000 0.0000
# 4 0.0000 0.0000 0.0000 2.8800 0.0000 0.0000
# 5 0.0000 0.0000 0.0000 0.0000 22.9387 0.0000
# 6 0.0000 0.0000 0.0000 0.0000 0.0000 30.3803
#
#
#
# Elastic Compliance Matrix: (Units=1/GPa)
#
#
# Indices 1 2 3 4 5 6 
#
# 1 0.035302 -0.010717 -0.014539 0.000000 0.000000 0.000000
# 2 -0.010717 0.020543 -0.003888 0.000000 0.000000 0.000000
# 3 -0.014539 -0.003888 0.023480 0.000000 0.000000 0.000000
# 4 0.000000 0.000000 0.000000 0.347216 0.000000 0.000000
# 5 0.000000 0.000000 0.000000 0.000000 0.043595 0.000000
# 6 0.000000 0.000000 0.000000 0.000000 0.000000 0.032916
#
#
# Mechanical properties :
#
#
# Convention : Reuss Voigt Hill
#
# Bulk Modulus (GPa) = 47.53552 48.23018 47.88285
# Shear Modulus (GPa) = 8.79738 17.33380 13.06559
#
# Velocity S-wave (km/s) = 2.17248 3.04948 2.64755
# Velocity P-wave (km/s) = 5.63871 6.18660 5.91900
#
# Compressibility (1/GPa) = 0.02103690
#
# Stress axis : x y z
#
# Youngs Moduli (GPa) = 28.32719 48.67911 42.58972
#
# Poissons Ratio (x) = 0.52171 0.61920
# Poissons Ratio (y) = 0.30359 0.16557
# Poissons Ratio (z) = 0.41184 0.18924
#
# Static dielectric constant tensor:
#      x y z
#    x 1.645570 0.000000 0.000000 
#    y 0.000000 1.678010 0.000000 
#    z 0.000000 0.000000 1.670010 
# 
# From -- ./inp_files/24343.got.cif
#   From: 2010.05.17/outbox.cif.g08.bks.cpg/sg40_13_cif.got.tgz:24343.got - 2010.06.03 18:35:42.
