data_PCOD9363221
_publ_section_title
;
Structure prediction by ZEFSAII (Michael W. Deem and Ramdas Pophale) SiO2 
 PCOD9363221
Probable space group: A M A 2
;
_chemical_formula_sum "Si O2"
_cell_formula_units_Z 64
_cell_length_a 8.681507
_cell_length_b 25.429989
_cell_length_c 15.323850
_cell_angle_alpha 90.000000
_cell_angle_beta 90.000000
_cell_angle_gamma 90.000000
_cell_volume 3383.055980
_symmetry_space_group_name_H-M "A M A 2"
_symmetry_group_IT_number 40
_symmetry_cell_setting 'orthorhombic'
loop_
_space_group_symop_operation_xyz
x,y,z
-x,-y,z
1/2-x,y,z
1/2+x,-y,z
x,1/2+y,1/2+z
-x,1/2-y,1/2+z
1/2-x,1/2+y,1/2+z
1/2+x,1/2-y,1/2+z
loop_
_atom_site_type_symbol
_atom_site_label
_atom_site_fract_x
_atom_site_fract_y
_atom_site_fract_z
Si Si1 0.932575 0.283794 0.385480
Si Si2 0.065016 0.556440 0.582818
Si Si3 0.064116 0.835772 0.399713
Si Si4 0.064982 0.150352 0.208427
Si Si5 0.932698 0.606720 0.411917
Si Si6 0.065534 0.370884 0.083950
Si Si7 0.566069 0.731061 0.195769
Si Si8 0.433280 0.058663 0.735195
O O1 0.750000 0.290152 0.399034
O O2 0.979533 0.225414 0.415507
O O3 0.018414 0.332891 0.427673
O O4 0.973215 0.284032 0.282592
O O5 0.250000 0.555081 0.582574
O O6 0.011238 0.603069 0.647205
O O7 0.000000 0.500000 0.609548
O O8 0.006197 0.570747 0.486468
O O9 0.250000 0.836601 0.394572
O O10 0.016903 0.870040 0.483030
O O11 0.997730 0.852754 0.306805
O O12 0.250000 0.147736 0.211697
O O13 0.025521 0.208769 0.172941
O O14 0.750000 0.601493 0.412500
O O15 0.996286 0.589529 0.317695
O O16 0.250000 0.380347 0.088508
O O17 0.038767 0.312400 0.122591
O O18 0.981914 0.411550 0.146945
O O19 0.750000 0.729669 0.216315
O O20 0.250000 0.057458 0.743718
O O21 0.500000 0.000000 0.735249
#
# Coordination Sequence:
#
# PCOD9363221 Si02
#       8
#     8   8   8   8   8   8   8   8
#     4  10  19  33  55  86 121 157 196 235 287 347
#     4  11  24  42  63  87 116 153 200 250 300 352
#     4   9  20  36  59  88 123 160 196 245 295 349
#     4   9  20  38  61  86 116 157 199 246 298 351
#     4  12  24  39  59  87 121 158 196 240 293 353
#     4  10  20  36  59  88 122 160 199 241 294 348
#     4   9  17  32  56  83 117 156 193 235 289 348
#     4  12  25  42  63  87 118 157 199 246 294 351
#
# _framework density 18.917808999999998
#
# number of rings (size 3 to 8) (size 9 to 14) (size 15 to 20)
#    0.000    1.750    1.250    3.375    1.750    2.000 
#    0.000    0.625    0.000    1.500    0.000    0.000 
#    0.000    0.000    0.000    0.000    0.000    0.000 
#
# Total GULP energy -178773.532432 kJ/mol
# GULP energy per Si atom -5586.672889 kJ/mol
# Density = 1.887475 g / cm^3
# Si number density = 18.917809 Si / 1000 Ang^3
#
#
#
# Elastic Constant Matrix: (Units=GPa)
#
#
# Indices 1 2 3 4 5 6 
#
# 1 60.2678 31.9757 16.0191 0.0000 0.0000 0.0000
# 2 31.9757 99.5985 29.6225 0.0000 0.0000 0.0000
# 3 16.0191 29.6225 50.1898 0.0000 0.0000 0.0000
# 4 0.0000 0.0000 0.0000 29.6856 0.0000 0.0000
# 5 0.0000 0.0000 0.0000 0.0000 23.0403 0.0000
# 6 0.0000 0.0000 0.0000 0.0000 0.0000 29.5728
#
#
#
# Elastic Compliance Matrix: (Units=1/GPa)
#
#
# Indices 1 2 3 4 5 6 
#
# 1 0.020417 -0.005600 -0.003212 0.000000 0.000000 0.000000
# 2 -0.005600 0.013714 -0.006307 0.000000 0.000000 0.000000
# 3 -0.003212 -0.006307 0.024672 0.000000 0.000000 0.000000
# 4 0.000000 0.000000 0.000000 0.033686 0.000000 0.000000
# 5 0.000000 0.000000 0.000000 0.000000 0.043402 0.000000
# 6 0.000000 0.000000 0.000000 0.000000 0.000000 0.033815
#
#
# Mechanical properties :
#
#
# Convention : Reuss Voigt Hill
#
# Bulk Modulus (GPa) = 35.00580 40.58785 37.79682
# Shear Modulus (GPa) = 23.87039 25.28899 24.57969
#
# Velocity S-wave (km/s) = 3.55603 3.66017 3.60847
# Velocity P-wave (km/s) = 5.95019 6.27406 6.11427
#
# Compressibility (1/GPa) = 0.02856670
#
# Stress axis : x y z
#
# Youngs Moduli (GPa) = 48.97835 72.91911 40.53218
#
# Poissons Ratio (x) = 0.40832 0.13017
# Poissons Ratio (y) = 0.27426 0.25563
# Poissons Ratio (z) = 0.15730 0.45989
#
# Static dielectric constant tensor:
#      x y z
#    x 1.635960 0.000000 0.000000 
#    y 0.000000 1.658520 0.000000 
#    z 0.000000 0.000000 1.643010 
# 
# From -- ./inp_files/15599.got.cif
#   From: 2010.05.17/outbox.cif.g08.bks.cpg/sg40_8_cif.got.tgz:15599.got - 2010.06.03 18:35:42.
