data_PCOD9363243
_publ_section_title
;
Structure prediction by ZEFSAII (Michael W. Deem and Ramdas Pophale) SiO2 
 PCOD9363243
Probable space group: A M A 2
;
_chemical_formula_sum "Si O2"
_cell_formula_units_Z 64
_cell_length_a 8.637658
_cell_length_b 29.481556
_cell_length_c 13.452026
_cell_angle_alpha 90.000000
_cell_angle_beta 90.000000
_cell_angle_gamma 90.000000
_cell_volume 3425.579918
_symmetry_space_group_name_H-M "A M A 2"
_symmetry_group_IT_number 40
_symmetry_cell_setting 'orthorhombic'
loop_
_space_group_symop_operation_xyz
x,y,z
-x,-y,z
1/2-x,y,z
1/2+x,-y,z
x,1/2+y,1/2+z
-x,1/2-y,1/2+z
1/2-x,1/2+y,1/2+z
1/2+x,1/2-y,1/2+z
loop_
_atom_site_type_symbol
_atom_site_label
_atom_site_fract_x
_atom_site_fract_y
_atom_site_fract_z
Si Si1 0.433212 0.386497 0.478710
Si Si2 0.073183 0.703909 0.560687
Si Si3 0.568187 0.744629 0.248254
Si Si4 0.439388 0.359875 0.263002
Si Si5 0.564451 0.448992 0.875190
Si Si6 0.076342 0.291223 0.923719
Si Si7 0.564777 0.949156 0.152301
Si Si8 0.935832 0.618051 0.041902
O O1 0.250000 0.394501 0.477530
O O2 0.472172 0.336443 0.518536
O O3 0.489599 0.385727 0.363488
O O4 0.506945 0.420304 0.558759
O O5 0.250000 0.686967 0.581538
O O6 0.999747 0.728375 0.655688
O O7 0.086750 0.744789 0.484075
O O8 0.750000 0.738926 0.225668
O O9 0.509659 0.693303 0.265757
O O10 0.543141 0.778662 0.338774
O O11 0.250000 0.359592 0.264563
O O12 0.487873 0.381353 0.157296
O O13 0.500000 0.500000 0.884725
O O14 0.750000 0.450312 0.878101
O O15 0.517995 0.431908 0.763644
O O16 0.505277 0.418264 0.965721
O O17 0.250000 0.301252 0.883922
O O18 0.032059 0.332379 0.995258
O O19 0.750000 0.950268 0.150383
O O20 0.500000 0.000000 0.144537
O O21 0.750000 0.612254 0.042983
#
# Coordination Sequence:
#
# PCOD9363243 Si02
#       8
#     8   8   8   8   8   8   8   8
#     4  11  22  36  58  85 114 150 195 236 279 336
#     4  10  20  34  52  76 111 153 193 234 283 330
#     4  10  19  34  52  71 106 152 193 234 280 326
#     4   9  18  35  56  79 110 153 195 232 277 326
#     4  10  22  41  64  89 114 142 178 225 282 340
#     4  10  20  33  51  78 110 147 191 234 277 326
#     4  10  22  42  65  88 116 144 178 227 285 341
#     4  10  20  37  59  82 113 151 190 232 280 334
#
# _framework density 18.682967999999999
#
# number of rings (size 3 to 8) (size 9 to 14) (size 15 to 20)
#    0.000    2.000    2.500    1.125    1.750    2.500 
#    0.000    2.500    0.000    0.000    0.000    0.000 
#    0.000    0.000    0.000    0.000    0.000    0.000 
#
# Total GULP energy -178342.488756 kJ/mol
# GULP energy per Si atom -5573.202774 kJ/mol
# Density = 1.864044 g / cm^3
# Si number density = 18.682968 Si / 1000 Ang^3
#
#
#
# Elastic Constant Matrix: (Units=GPa)
#
#
# Indices 1 2 3 4 5 6 
#
# 1 19.5272 20.1173 32.8491 0.0000 0.0000 0.0000
# 2 20.1173 71.4606 61.3878 0.0000 0.0000 0.0000
# 3 32.8491 61.3878 154.7734 0.0000 0.0000 0.0000
# 4 0.0000 0.0000 0.0000 32.2286 0.0000 0.0000
# 5 0.0000 0.0000 0.0000 0.0000 27.3723 0.0000
# 6 0.0000 0.0000 0.0000 0.0000 0.0000 29.8205
#
#
#
# Elastic Compliance Matrix: (Units=1/GPa)
#
#
# Indices 1 2 3 4 5 6 
#
# 1 0.087041 -0.013096 -0.013279 0.000000 0.000000 0.000000
# 2 -0.013096 0.023196 -0.006421 0.000000 0.000000 0.000000
# 3 -0.013279 -0.006421 0.011826 0.000000 0.000000 0.000000
# 4 0.000000 0.000000 0.000000 0.031028 0.000000 0.000000
# 5 0.000000 0.000000 0.000000 0.000000 0.036533 0.000000
# 6 0.000000 0.000000 0.000000 0.000000 0.000000 0.033534
#
#
# Mechanical properties :
#
#
# Convention : Reuss Voigt Hill
#
# Bulk Modulus (GPa) = 17.70816 52.71884 35.21350
# Shear Modulus (GPa) = 16.25621 26.64475 21.45048
#
# Velocity S-wave (km/s) = 2.95296 3.78054 3.39208
# Velocity P-wave (km/s) = 4.59624 6.88008 5.85068
#
# Compressibility (1/GPa) = 0.05647115
#
# Stress axis : x y z
#
# Youngs Moduli (GPa) = 11.48885 43.11046 84.55819
#
# Poissons Ratio (x) = 0.56457 1.12288
# Poissons Ratio (y) = 0.15046 0.54294
# Poissons Ratio (z) = 0.15256 0.27681
#
# Static dielectric constant tensor:
#      x y z
#    x 1.664390 0.000000 0.000000 
#    y 0.000000 1.615210 0.000000 
#    z 0.000000 0.000000 1.758920 
# 
# From -- ./inp_files/10664.got.cif
#   From: 2010.05.17/outbox.cif.g08.bks.cpg/sg40_6_cif.got.tgz:10664.got - 2010.06.03 18:35:42.
