data_PCOD9363711
_publ_section_title
;
Structure prediction by ZEFSAII (Michael W. Deem and Ramdas Pophale) SiO2 
 PCOD9363711
Probable space group: A M A 2
;
_chemical_formula_sum "Si O2"
_cell_formula_units_Z 64
_cell_length_a 8.391467
_cell_length_b 20.978339
_cell_length_c 20.340403
_cell_angle_alpha 90.000000
_cell_angle_beta 90.000000
_cell_angle_gamma 90.000000
_cell_volume 3580.705006
_symmetry_space_group_name_H-M "A M A 2"
_symmetry_group_IT_number 40
_symmetry_cell_setting 'orthorhombic'
loop_
_space_group_symop_operation_xyz
x,y,z
-x,-y,z
1/2-x,y,z
1/2+x,-y,z
x,1/2+y,1/2+z
-x,1/2-y,1/2+z
1/2-x,1/2+y,1/2+z
1/2+x,1/2-y,1/2+z
loop_
_atom_site_type_symbol
_atom_site_label
_atom_site_fract_x
_atom_site_fract_y
_atom_site_fract_z
Si Si1 0.057330 0.570223 0.948190
Si Si2 0.057522 0.570268 0.099179
Si Si3 0.440739 0.429700 0.599026
Si Si4 0.057424 0.429755 0.447963
Si Si5 0.057223 0.322163 0.346656
Si Si6 0.058928 0.679546 0.198865
Si Si7 0.559217 0.821217 0.196883
Si Si8 0.944201 0.322264 0.847396
O O1 0.250000 0.570606 0.947698
O O2 0.999981 0.624828 0.898689
O O3 0.000000 0.500000 0.928378
O O4 0.005106 0.581326 0.023664
O O5 0.250000 0.570244 0.099566
O O6 0.002233 0.625733 0.147956
O O7 0.000000 0.500000 0.119141
O O8 0.500000 0.500000 0.618901
O O9 0.250000 0.429826 0.599398
O O10 0.495165 0.418746 0.523452
O O11 0.500527 0.374739 0.647036
O O12 0.250000 0.429440 0.447644
O O13 0.001322 0.375018 0.398328
O O14 0.000000 0.500000 0.428076
O O15 0.250000 0.322833 0.346426
O O16 0.006673 0.250008 0.364417
O O17 0.000681 0.334599 0.272518
O O18 0.250000 0.679579 0.198928
O O19 0.001141 0.750331 0.180231
O O20 0.750000 0.820062 0.196719
O O21 0.506180 0.835059 0.272118
O O22 0.750000 0.323265 0.848371
#
# Coordination Sequence:
#
# PCOD9363711 Si02
#       8
#     8   8   8   8   8   8   8   8
#     4   9  17  32  51  71  95 125 159 199 241 288
#     4   9  19  33  51  73  99 130 165 204 248 294
#     4  10  20  35  54  77 104 136 172 213 257 306
#     4   9  19  34  53  75 101 132 168 209 255 305
#     4   9  18  34  53  73  97 131 169 206 249 299
#     4  10  20  34  51  75 103 133 169 211 254 300
#     4  10  20  35  53  75 103 136 170 209 255 305
#     4   8  16  31  51  71  94 125 163 201 242 291
#
# _framework density 17.873574999999999
#
# number of rings (size 3 to 8) (size 9 to 14) (size 15 to 20)
#    0.000    2.750    0.000    1.875    0.000    4.000 
#    0.000   10.625    0.000    0.000    0.000    0.000 
#    0.000    0.000    0.000    0.000    0.000    0.000 
#
# Total GULP energy -178451.827916 kJ/mol
# GULP energy per Si atom -5576.619622 kJ/mol
# Density = 1.783289 g / cm^3
# Si number density = 17.873575 Si / 1000 Ang^3
#
#
#
# Elastic Constant Matrix: (Units=GPa)
#
#
# Indices 1 2 3 4 5 6 
#
# 1 16.3767 24.3531 18.5935 0.0000 0.0000 0.0000
# 2 24.3531 196.8277 138.1865 0.0000 0.0000 0.0000
# 3 18.5935 138.1865 116.4001 0.0000 0.0000 0.0000
# 4 0.0000 0.0000 0.0000 45.3172 0.0000 0.0000
# 5 0.0000 0.0000 0.0000 0.0000 22.3787 0.0000
# 6 0.0000 0.0000 0.0000 0.0000 0.0000 30.0039
#
#
#
# Elastic Compliance Matrix: (Units=1/GPa)
#
#
# Indices 1 2 3 4 5 6 
#
# 1 0.075483 -0.005249 -0.005825 0.000000 0.000000 0.000000
# 2 -0.005249 0.030874 -0.035814 0.000000 0.000000 0.000000
# 3 -0.005825 -0.035814 0.052039 0.000000 0.000000 0.000000
# 4 0.000000 0.000000 0.000000 0.022067 0.000000 0.000000
# 5 0.000000 0.000000 0.000000 0.000000 0.044685 0.000000
# 6 0.000000 0.000000 0.000000 0.000000 0.000000 0.033329
#
#
# Mechanical properties :
#
#
# Convention : Reuss Voigt Hill
#
# Bulk Modulus (GPa) = 15.47565 76.87450 46.17508
# Shear Modulus (GPa) = 13.37631 29.43805 21.40718
#
# Velocity S-wave (km/s) = 2.73863 4.06275 3.46453
# Velocity P-wave (km/s) = 4.32173 8.06916 6.47258
#
# Compressibility (1/GPa) = 0.06461763
#
# Stress axis : x y z
#
# Youngs Moduli (GPa) = 13.24808 32.38945 19.21623
#
# Poissons Ratio (x) = 0.17003 0.11194
# Poissons Ratio (y) = 0.06955 0.68822
# Poissons Ratio (z) = 0.07718 1.16001
#
# Static dielectric constant tensor:
#      x y z
#    x 1.619530 0.000000 0.000000 
#    y 0.000000 1.587900 0.000000 
#    z 0.000000 0.000000 1.606780 
# 
# From -- ./inp_files/19603.got.cif
#   From: 2010.05.17/outbox.cif.g08.bks.cpg/sg40_10_cif.got.tgz:19603.got - 2010.06.03 18:35:42.
