data_PCOD9363572
_publ_section_title
;
Structure prediction by ZEFSAII (Michael W. Deem and Ramdas Pophale) SiO2 
 PCOD9363572
Probable space group: A M A 2
;
_chemical_formula_sum "Si O2"
_cell_formula_units_Z 40
_cell_length_a 13.726081
_cell_length_b 9.322837
_cell_length_c 12.417728
_cell_angle_alpha 90.000000
_cell_angle_beta 90.000000
_cell_angle_gamma 90.000000
_cell_volume 1589.047178
_symmetry_space_group_name_H-M "A M A 2"
_symmetry_group_IT_number 40
_symmetry_cell_setting 'orthorhombic'
loop_
_space_group_symop_operation_xyz
x,y,z
-x,-y,z
1/2-x,y,z
1/2+x,-y,z
x,1/2+y,1/2+z
-x,1/2-y,1/2+z
1/2-x,1/2+y,1/2+z
1/2+x,1/2-y,1/2+z
loop_
_atom_site_type_symbol
_atom_site_label
_atom_site_fract_x
_atom_site_fract_y
_atom_site_fract_z
Si Si1 0.961799 0.146688 0.691010
Si Si2 0.574501 0.163989 0.453466
Si Si3 0.355886 0.739411 0.886884
Si Si4 0.642238 0.639119 0.722105
Si Si5 0.614208 0.476941 0.516386
O O1 0.918968 0.106179 0.574529
O O2 0.881695 0.221403 0.764430
O O3 0.055225 0.253486 0.685921
O O4 0.000000 0.000000 0.744321
O O5 0.457595 0.175102 0.432060
O O6 0.618719 0.097611 0.345193
O O7 0.625765 0.320435 0.466040
O O8 0.250000 0.667341 0.899874
O O9 0.347245 0.891930 0.947362
O O10 0.750000 0.706433 0.716425
O O11 0.643258 0.506325 0.639750
O O12 0.500000 0.500000 0.517186
#
# Coordination Sequence:
#
# PCOD9363572 Si02
#       5
#     8   8   8   8   8
#     4  11  23  40  63  89 130 175 210 274 338 396
#     4  10  23  41  63  93 135 170 217 272 336 402
#     4  10  20  38  64  91 118 162 220 270 329 397
#     4  11  23  41  68  97 127 172 227 275 331 407
#     4  10  19  39  67  91 122 166 220 278 334 392
#
# _framework density 25.172319000000002
#
# number of rings (size 3 to 8) (size 9 to 14) (size 15 to 20)
#    0.000    1.600    4.000    3.600    0.000    5.600 
#    0.000    0.000    0.000    0.000    0.000    0.000 
#    0.000    0.000    0.000    0.000    0.000    0.000 
#
# Total GULP energy -111801.252587 kJ/mol
# GULP energy per Si atom -5590.062629 kJ/mol
# Density = 2.511503 g / cm^3
# Si number density = 25.172319 Si / 1000 Ang^3
#
#
#
# Elastic Constant Matrix: (Units=GPa)
#
#
# Indices 1 2 3 4 5 6 
#
# 1 145.0076 7.3134 29.8031 0.0000 0.0000 0.0000
# 2 7.3134 74.4306 21.0083 0.0000 0.0000 0.0000
# 3 29.8031 21.0083 185.5061 0.0000 0.0000 0.0000
# 4 0.0000 0.0000 0.0000 13.9667 0.0000 0.0000
# 5 0.0000 0.0000 0.0000 0.0000 71.2975 0.0000
# 6 0.0000 0.0000 0.0000 0.0000 0.0000 21.6639
#
#
#
# Elastic Compliance Matrix: (Units=1/GPa)
#
#
# Indices 1 2 3 4 5 6 
#
# 1 0.007143 -0.000390 -0.001103 0.000000 0.000000 0.000000
# 2 -0.000390 0.013900 -0.001511 0.000000 0.000000 0.000000
# 3 -0.001103 -0.001511 0.005739 0.000000 0.000000 0.000000
# 4 0.000000 0.000000 0.000000 0.071599 0.000000 0.000000
# 5 0.000000 0.000000 0.000000 0.000000 0.014026 0.000000
# 6 0.000000 0.000000 0.000000 0.000000 0.000000 0.046160
#
#
# Mechanical properties :
#
#
# Convention : Reuss Voigt Hill
#
# Bulk Modulus (GPa) = 48.14253 57.91046 53.02649
# Shear Modulus (GPa) = 29.15440 44.50692 36.83066
#
# Velocity S-wave (km/s) = 3.40692 4.20943 3.82925
# Velocity P-wave (km/s) = 5.88581 6.83237 6.37668
#
# Compressibility (1/GPa) = 0.02077165
#
# Stress axis : x y z
#
# Youngs Moduli (GPa) = 140.00419 71.94083 174.24380
#
# Poissons Ratio (x) = 0.02809 0.19225
# Poissons Ratio (y) = 0.05466 0.26336
# Poissons Ratio (z) = 0.15447 0.10874
#
# Static dielectric constant tensor:
#      x y z
#    x 1.965160 0.000000 0.000000 
#    y 0.000000 2.055640 0.000000 
#    z 0.000000 0.000000 1.990920 
# 
# From -- ./inp_files/11954.got.cif
#   From: 2010.05.17/outbox.cif.g08.bks.cpg/sg40_6_cif.got.tgz:11954.got - 2010.06.03 18:35:42.
