data_PCOD9363348
_publ_section_title
;
Structure prediction by ZEFSAII (Michael W. Deem and Ramdas Pophale) SiO2 
 PCOD9363348
Probable space group: A M A 2
;
_chemical_formula_sum "Si O2"
_cell_formula_units_Z 56
_cell_length_a 14.048955
_cell_length_b 10.345894
_cell_length_c 16.724787
_cell_angle_alpha 90.000000
_cell_angle_beta 90.000000
_cell_angle_gamma 90.000000
_cell_volume 2430.931053
_symmetry_space_group_name_H-M "A M A 2"
_symmetry_group_IT_number 40
_symmetry_cell_setting 'orthorhombic'
loop_
_space_group_symop_operation_xyz
x,y,z
-x,-y,z
1/2-x,y,z
1/2+x,-y,z
x,1/2+y,1/2+z
-x,1/2-y,1/2+z
1/2-x,1/2+y,1/2+z
1/2+x,1/2-y,1/2+z
loop_
_atom_site_type_symbol
_atom_site_label
_atom_site_fract_x
_atom_site_fract_y
_atom_site_fract_z
Si Si1 0.059561 0.323646 0.269140
Si Si2 0.862264 0.799266 0.983257
Si Si3 0.892997 0.953074 0.330587
Si Si4 0.357887 0.654505 0.004009
Si Si5 0.146054 0.768956 0.297614
Si Si6 0.133948 0.420516 0.103970
Si Si7 0.867011 0.079779 0.936211
O O1 0.105990 0.180920 0.282265
O O2 0.100316 0.392855 0.192425
O O3 0.088351 0.402811 0.348433
O O4 0.946639 0.297247 0.261101
O O5 0.750000 0.809988 0.001148
O O6 0.869213 0.744723 0.893276
O O7 0.896162 0.946428 0.977410
O O8 0.899713 0.696242 0.046316
O O9 0.853913 0.919988 0.418513
O O10 0.850913 0.076385 0.285029
O O11 0.000000 0.000000 0.344962
O O12 0.250000 0.681805 0.030076
O O13 0.399748 0.556628 0.067771
O O14 0.400427 0.794103 0.984984
O O15 0.250000 0.712779 0.277066
O O16 0.250000 0.422735 0.100985
O O17 0.750000 0.082476 0.928273
#
# Coordination Sequence:
#
# PCOD9363348 Si02
#       7
#     8   8   8   8   8   8   8
#     4  10  21  34  59  96 126 162 212 264 320 374
#     4   9  18  34  62  94 125 164 211 258 312 375
#     4   9  17  31  56  86 117 153 208 256 299 367
#     4   9  16  30  57  88 119 160 204 247 305 375
#     4  10  19  35  62  90 123 169 218 260 305 378
#     4  10  19  34  61  97 128 159 204 263 323 375
#     4   9  18  34  59  91 129 168 207 254 310 380
#
# _framework density 23.036442000000001
#
# number of rings (size 3 to 8) (size 9 to 14) (size 15 to 20)
#    0.000    2.571    1.429    0.857    0.000    2.286 
#    0.000    0.000   15.714    0.000    0.000   10.000 
#    0.000    0.000    0.000    0.000    0.000    0.000 
#
# Total GULP energy -156557.944930 kJ/mol
# GULP energy per Si atom -5591.355176 kJ/mol
# Density = 2.298401 g / cm^3
# Si number density = 23.036442 Si / 1000 Ang^3
#
#
#
# Elastic Constant Matrix: (Units=GPa)
#
#
# Indices 1 2 3 4 5 6 
#
# 1 106.5132 31.6130 22.7279 0.0000 0.0000 0.0000
# 2 31.6130 178.2157 84.0925 0.0000 0.0000 0.0000
# 3 22.7279 84.0925 94.9705 0.0000 0.0000 0.0000
# 4 0.0000 0.0000 0.0000 24.6039 0.0000 0.0000
# 5 0.0000 0.0000 0.0000 0.0000 27.2897 0.0000
# 6 0.0000 0.0000 0.0000 0.0000 0.0000 25.2283
#
#
#
# Elastic Compliance Matrix: (Units=1/GPa)
#
#
# Indices 1 2 3 4 5 6 
#
# 1 0.010020 -0.001109 -0.001416 0.000000 0.000000 0.000000
# 2 -0.001109 0.009761 -0.008377 0.000000 0.000000 0.000000
# 3 -0.001416 -0.008377 0.018286 0.000000 0.000000 0.000000
# 4 0.000000 0.000000 0.000000 0.040644 0.000000 0.000000
# 5 0.000000 0.000000 0.000000 0.000000 0.036644 0.000000
# 6 0.000000 0.000000 0.000000 0.000000 0.000000 0.039638
#
#
# Mechanical properties :
#
#
# Convention : Reuss Voigt Hill
#
# Bulk Modulus (GPa) = 61.49228 72.95182 67.22205
# Shear Modulus (GPa) = 27.43964 31.50880 29.47422
#
# Velocity S-wave (km/s) = 3.45503 3.70236 3.58084
# Velocity P-wave (km/s) = 6.53206 7.07202 6.80739
#
# Compressibility (1/GPa) = 0.01626220
#
# Stress axis : x y z
#
# Youngs Moduli (GPa) = 99.80204 102.44937 54.68611
#
# Poissons Ratio (x) = 0.11366 0.07741
# Poissons Ratio (y) = 0.11073 0.45813
# Poissons Ratio (z) = 0.14127 0.85826
#
# Static dielectric constant tensor:
#      x y z
#    x 1.844150 0.000000 0.000000 
#    y 0.000000 1.895160 0.000000 
#    z 0.000000 0.000000 1.773060 
# 
# From -- ./inp_files/17061.got.cif
#   From: 2010.05.17/outbox.cif.g08.bks.cpg/sg40_9_cif.got.tgz:17061.got - 2010.06.03 18:35:42.
