data_PCOD9363936
_publ_section_title
;
Structure prediction by ZEFSAII (Michael W. Deem and Ramdas Pophale) SiO2 
 PCOD9363936
Probable space group: A M A 2
;
_chemical_formula_sum "Si O2"
_cell_formula_units_Z 48
_cell_length_a 9.727778
_cell_length_b 13.944355
_cell_length_c 18.283284
_cell_angle_alpha 90.000000
_cell_angle_beta 90.000000
_cell_angle_gamma 90.000000
_cell_volume 2480.083408
_symmetry_space_group_name_H-M "A M A 2"
_symmetry_group_IT_number 40
_symmetry_cell_setting 'orthorhombic'
loop_
_space_group_symop_operation_xyz
x,y,z
-x,-y,z
1/2-x,y,z
1/2+x,-y,z
x,1/2+y,1/2+z
-x,1/2-y,1/2+z
1/2-x,1/2+y,1/2+z
1/2+x,1/2-y,1/2+z
loop_
_atom_site_type_symbol
_atom_site_label
_atom_site_fract_x
_atom_site_fract_y
_atom_site_fract_z
Si Si1 0.591950 0.758158 0.572320
Si Si2 0.587294 0.702060 0.831115
Si Si3 0.083113 0.401356 0.681854
Si Si4 0.105042 0.574729 0.182577
Si Si5 0.413479 0.903446 0.479167
Si Si6 0.908382 0.410730 0.357920
O O1 0.750000 0.758056 0.543164
O O2 0.556047 0.654769 0.605561
O O3 0.595082 0.823442 0.645496
O O4 0.485146 0.814074 0.521214
O O5 0.750000 0.722900 0.820877
O O6 0.538518 0.661752 0.753123
O O7 0.574037 0.622228 0.893238
O O8 0.531715 0.802860 0.864290
O O9 0.250000 0.414334 0.687068
O O10 0.000000 0.500000 0.683726
O O11 0.250000 0.531631 0.162790
O O12 0.095865 0.580660 0.269501
O O13 0.000000 0.500000 0.152746
O O14 0.250000 0.912047 0.495936
O O15 0.500000 0.000000 0.492909
O O16 0.750000 0.416882 0.385004
O O17 0.000000 0.500000 0.385234
#
# Coordination Sequence:
#
# PCOD9363936 Si02
#       6
#     8   8   8   8   8   8
#     4  10  20  36  56  79 110 147 184 229 281 333
#     4   9  18  36  59  81 112 151 187 227 279 336
#     4  10  20  37  60  84 110 145 189 237 286 334
#     4   9  16  27  47  73 101 133 168 211 263 315
#     4  11  23  38  58  84 115 151 188 229 280 340
#     4   9  16  30  51  77 106 137 176 221 271 322
#
# _framework density 19.354188000000001
#
# number of rings (size 3 to 8) (size 9 to 14) (size 15 to 20)
#    0.000    2.333    1.667    1.500    0.000    2.667 
#    0.000    4.167    0.000    4.000    0.000    0.000 
#    0.000    0.000    0.000    0.000    0.000    0.000 
#
# Total GULP energy -133604.916818 kJ/mol
# GULP energy per Si atom -5566.871534 kJ/mol
# Density = 1.931014 g / cm^3
# Si number density = 19.354188 Si / 1000 Ang^3
#
#
#
# Elastic Constant Matrix: (Units=GPa)
#
#
# Indices 1 2 3 4 5 6 
#
# 1 79.6482 51.7291 30.3858 0.0000 0.0000 0.0000
# 2 51.7291 111.8764 24.6393 0.0000 0.0000 0.0000
# 3 30.3858 24.6393 52.6635 0.0000 0.0000 0.0000
# 4 0.0000 0.0000 0.0000 12.5312 0.0000 0.0000
# 5 0.0000 0.0000 0.0000 0.0000 9.1010 0.0000
# 6 0.0000 0.0000 0.0000 0.0000 0.0000 34.8400
#
#
#
# Elastic Compliance Matrix: (Units=1/GPa)
#
#
# Indices 1 2 3 4 5 6 
#
# 1 0.020793 -0.007773 -0.008361 0.000000 0.000000 0.000000
# 2 -0.007773 0.012871 -0.001537 0.000000 0.000000 0.000000
# 3 -0.008361 -0.001537 0.024531 0.000000 0.000000 0.000000
# 4 0.000000 0.000000 0.000000 0.079801 0.000000 0.000000
# 5 0.000000 0.000000 0.000000 0.000000 0.109878 0.000000
# 6 0.000000 0.000000 0.000000 0.000000 0.000000 0.028703
#
#
# Mechanical properties :
#
#
# Convention : Reuss Voigt Hill
#
# Bulk Modulus (GPa) = 43.75500 50.85518 47.30509
# Shear Modulus (GPa) = 15.64768 20.45670 18.05219
#
# Velocity S-wave (km/s) = 2.84648 3.25463 3.05737
# Velocity P-wave (km/s) = 5.78445 6.36055 6.07933
#
# Compressibility (1/GPa) = 0.02285453
#
# Stress axis : x y z
#
# Youngs Moduli (GPa) = 48.09303 77.69422 40.76401
#
# Poissons Ratio (x) = 0.60391 0.34081
# Poissons Ratio (y) = 0.37382 0.06265
# Poissons Ratio (z) = 0.40208 0.11942
#
# Static dielectric constant tensor:
#      x y z
#    x 1.678340 0.000000 0.000000 
#    y 0.000000 1.732620 0.000000 
#    z 0.000000 0.000000 1.701220 
# 
# From -- ./inp_files/19211.got.cif
#   From: 2010.05.17/outbox.cif.g08.bks.cpg/sg40_10_cif.got.tgz:19211.got - 2010.06.03 18:35:42.
