data_PCOD9363196
_publ_section_title
;
Structure prediction by ZEFSAII (Michael W. Deem and Ramdas Pophale) SiO2 
 PCOD9363196
Probable space group: A M A 2
;
_chemical_formula_sum "Si O2"
_cell_formula_units_Z 56
_cell_length_a 22.372913
_cell_length_b 26.491304
_cell_length_c 4.968893
_cell_angle_alpha 90.000000
_cell_angle_beta 90.000000
_cell_angle_gamma 90.000000
_cell_volume 2945.001464
_symmetry_space_group_name_H-M "A M A 2"
_symmetry_group_IT_number 40
_symmetry_cell_setting 'orthorhombic'
loop_
_space_group_symop_operation_xyz
x,y,z
-x,-y,z
1/2-x,y,z
1/2+x,-y,z
x,1/2+y,1/2+z
-x,1/2-y,1/2+z
1/2-x,1/2+y,1/2+z
1/2+x,1/2-y,1/2+z
loop_
_atom_site_type_symbol
_atom_site_label
_atom_site_fract_x
_atom_site_fract_y
_atom_site_fract_z
Si Si1 0.640561 0.601257 0.819100
Si Si2 0.323459 0.337292 0.293702
Si Si3 0.250000 0.513022 0.590386
Si Si4 0.124827 0.053423 0.876307
Si Si5 0.931140 0.000662 0.365452
Si Si6 0.321212 0.723987 0.940284
Si Si7 0.250000 0.457655 0.082971
Si Si8 0.177603 0.159252 0.944655
O O1 0.658626 0.624457 0.533081
O O2 0.589626 0.558389 0.805743
O O3 0.693557 0.570205 0.961894
O O4 0.638719 0.647320 0.030266
O O5 0.250000 0.339206 0.251543
O O6 0.340848 0.280557 0.377658
O O7 0.188955 0.536991 0.494003
O O8 0.250000 0.509623 0.912402
O O9 0.250000 0.462698 0.402035
O O10 0.108237 0.024797 0.601955
O O11 0.135792 0.113081 0.853734
O O12 0.078700 0.033353 0.100038
O O13 0.000000 0.000000 0.447397
O O14 0.250000 0.725759 0.899884
O O15 0.340705 0.679976 0.736336
O O16 0.331325 0.705615 0.241357
O O17 0.250000 0.146666 0.939973
#
# Coordination Sequence:
#
# PCOD9363196 Si02
#       8
#     8   8   4   8   8   8   4   8
#     4  12  21  33  55  78 110 152 186 225 276 336
#     4  11  20  32  53  84 116 150 180 219 282 343
#     4  12  20  34  54  87 112 145 180 232 288 336
#     4  12  22  38  61  84 114 151 190 232 283 343
#     4  12  27  42  56  81 116 156 198 237 279 335
#     4   9  19  32  48  79 123 149 173 216 275 351
#     4  12  20  32  52  81 122 143 184 230 282 340
#     4  10  19  33  54  84 116 149 180 222 283 341
#
# _framework density 19.015269
#
# number of rings (size 3 to 8) (size 9 to 14) (size 15 to 20)
#    0.000    0.857    5.000    3.857    0.000    2.286 
#    0.000    0.000    0.000    0.000    0.000   20.000 
#    0.000    0.000    0.000    0.000    0.000    0.000 
#
# Total GULP energy -156110.964365 kJ/mol
# GULP energy per Si atom -5575.391584 kJ/mol
# Density = 1.897199 g / cm^3
# Si number density = 19.015269 Si / 1000 Ang^3
#
#
#
# Elastic Constant Matrix: (Units=GPa)
#
#
# Indices 1 2 3 4 5 6 
#
# 1 46.9095 19.9890 -10.2765 0.0000 0.0000 0.0000
# 2 19.9890 78.8524 5.2074 0.0000 0.0000 0.0000
# 3 -10.2765 5.2074 69.9731 0.0000 0.0000 0.0000
# 4 0.0000 0.0000 0.0000 19.7610 0.0000 0.0000
# 5 0.0000 0.0000 0.0000 0.0000 14.6582 0.0000
# 6 0.0000 0.0000 0.0000 0.0000 0.0000 9.2181
#
#
#
# Elastic Compliance Matrix: (Units=1/GPa)
#
#
# Indices 1 2 3 4 5 6 
#
# 1 0.025056 -0.006627 0.004173 0.000000 0.000000 0.000000
# 2 -0.006627 0.014497 -0.002052 0.000000 0.000000 0.000000
# 3 0.004173 -0.002052 0.015057 0.000000 0.000000 0.000000
# 4 0.000000 0.000000 0.000000 0.050605 0.000000 0.000000
# 5 0.000000 0.000000 0.000000 0.000000 0.068221 0.000000
# 6 0.000000 0.000000 0.000000 0.000000 0.000000 0.108482
#
#
# Mechanical properties :
#
#
# Convention : Reuss Voigt Hill
#
# Bulk Modulus (GPa) = 21.93118 25.06388 23.49753
# Shear Modulus (GPa) = 16.33291 20.78178 18.55735
#
# Velocity S-wave (km/s) = 2.93394 3.30949 3.12736
# Velocity P-wave (km/s) = 4.79957 5.27382 5.04227
#
# Compressibility (1/GPa) = 0.04559719
#
# Stress axis : x y z
#
# Youngs Moduli (GPa) = 39.91092 68.97772 66.41518
#
# Poissons Ratio (x) = 0.45713 -0.27715
# Poissons Ratio (y) = 0.26450 0.13630
# Poissons Ratio (z) = -0.16655 0.14156
#
# Static dielectric constant tensor:
#      x y z
#    x 1.641490 0.000000 0.000000 
#    y 0.000000 1.770400 0.000000 
#    z 0.000000 0.000000 1.709510 
# 
# From -- ./inp_files/2409.got.cif
#   From: 2010.05.17/outbox.cif.g08.bks.cpg/sg40_2_cif.got.tgz:2409.got - 2010.06.03 18:35:42.
