data_PCOD9363893
_publ_section_title
;
Structure prediction by ZEFSAII (Michael W. Deem and Ramdas Pophale) SiO2 
 PCOD9363893
Probable space group: A M A 2
;
_chemical_formula_sum "Si O2"
_cell_formula_units_Z 64
_cell_length_a 15.416948
_cell_length_b 22.726998
_cell_length_c 9.538111
_cell_angle_alpha 90.000000
_cell_angle_beta 90.000000
_cell_angle_gamma 90.000000
_cell_volume 3341.972359
_symmetry_space_group_name_H-M "A M A 2"
_symmetry_group_IT_number 40
_symmetry_cell_setting 'orthorhombic'
loop_
_space_group_symop_operation_xyz
x,y,z
-x,-y,z
1/2-x,y,z
1/2+x,-y,z
x,1/2+y,1/2+z
-x,1/2-y,1/2+z
1/2-x,1/2+y,1/2+z
1/2+x,1/2-y,1/2+z
loop_
_atom_site_type_symbol
_atom_site_label
_atom_site_fract_x
_atom_site_fract_y
_atom_site_fract_z
Si Si1 0.649653 0.259101 0.872840
Si Si2 0.653608 0.182570 0.436321
Si Si3 0.966808 0.646745 0.456922
Si Si4 0.848225 0.015747 0.459808
Si Si5 0.849874 0.307021 0.557087
Si Si6 0.436858 0.897581 0.650193
Si Si7 0.447376 0.900928 0.247917
Si Si8 0.902245 0.387062 0.944106
O O1 0.750000 0.238758 0.883801
O O2 0.583903 0.209469 0.932981
O O3 0.633146 0.277886 0.710408
O O4 0.639503 0.322838 0.946854
O O5 0.750000 0.165085 0.396485
O O6 0.651137 0.251554 0.453337
O O7 0.627386 0.151247 0.582378
O O8 0.589354 0.157861 0.321304
O O9 0.953236 0.612825 0.311711
O O10 0.930981 0.607427 0.585061
O O11 0.067503 0.656639 0.501820
O O12 0.750000 0.037078 0.455834
O O13 0.896232 0.041142 0.597455
O O14 0.900716 0.045253 0.329499
O O15 0.847268 0.945717 0.460547
O O16 0.750000 0.331885 0.561569
O O17 0.525385 0.889070 0.564722
O O18 0.547048 0.899099 0.297209
#
# Coordination Sequence:
#
# PCOD9363893 Si02
#       8
#     8   8   8   8   8   8   8   8
#     4  11  23  36  60  95 128 162 202 248 300 362
#     4   9  17  33  54  80 117 163 205 242 284 353
#     4  12  23  37  61  94 129 163 191 253 312 365
#     4  10  21  41  65  86 112 157 208 255 298 357
#     4  10  21  37  56  83 124 172 204 235 298 369
#     4  10  20  35  60  84 116 155 202 246 303 355
#     4  10  20  35  59  89 117 155 205 249 301 351
#     4  10  20  40  62  84 113 159 207 249 290 358
#
# _framework density 19.150368
#
# number of rings (size 3 to 8) (size 9 to 14) (size 15 to 20)
#    0.000    2.000    2.500    4.875    0.000    1.500 
#    0.000    5.000    0.000    0.000    0.000    0.000 
#    0.000    0.000    0.000    0.000    0.000    0.000 
#
# Total GULP energy -178247.603478 kJ/mol
# GULP energy per Si atom -5570.237609 kJ/mol
# Density = 1.910678 g / cm^3
# Si number density = 19.150368 Si / 1000 Ang^3
#
#
#
# Elastic Constant Matrix: (Units=GPa)
#
#
# Indices 1 2 3 4 5 6 
#
# 1 89.8141 25.5607 22.0308 0.0000 0.0000 0.0000
# 2 25.5607 81.3231 31.9202 0.0000 0.0000 0.0000
# 3 22.0308 31.9202 116.0257 0.0000 0.0000 0.0000
# 4 0.0000 0.0000 0.0000 10.3433 0.0000 0.0000
# 5 0.0000 0.0000 0.0000 0.0000 0.2788 0.0000
# 6 0.0000 0.0000 0.0000 0.0000 0.0000 21.4378
#
#
#
# Elastic Compliance Matrix: (Units=1/GPa)
#
#
# Indices 1 2 3 4 5 6 
#
# 1 0.012439 -0.003344 -0.001442 0.000000 0.000000 0.000000
# 2 -0.003344 0.014684 -0.003405 0.000000 0.000000 0.000000
# 3 -0.001442 -0.003405 0.009829 0.000000 0.000000 0.000000
# 4 0.000000 0.000000 0.000000 0.096681 0.000000 0.000000
# 5 0.000000 0.000000 0.000000 0.000000 3.586238 0.000000
# 6 0.000000 0.000000 0.000000 0.000000 0.000000 0.046647
#
#
# Mechanical properties :
#
#
# Convention : Reuss Voigt Hill
#
# Bulk Modulus (GPa) = 48.61125 49.57625 49.09375
# Shear Modulus (GPa) = 1.31935 20.25539 10.78737
#
# Velocity S-wave (km/s) = 0.83092 3.25576 2.37597
# Velocity P-wave (km/s) = 5.13417 6.33067 5.76355
#
# Compressibility (1/GPa) = 0.02057137
#
# Stress axis : x y z
#
# Youngs Moduli (GPa) = 80.38925 68.10095 101.73643
#
# Poissons Ratio (x) = 0.22772 0.14671
# Poissons Ratio (y) = 0.26881 0.34640
# Poissons Ratio (z) = 0.11593 0.23187
#
# Static dielectric constant tensor:
#      x y z
#    x 1.733540 0.000000 0.000000 
#    y 0.000000 1.690690 0.000000 
#    z 0.000000 0.000000 1.676780 
# 
# From -- ./inp_files/6904.got.cif
#   From: 2010.05.17/outbox.cif.g08.bks.cpg/sg40_4_cif.got.tgz:6904.got - 2010.06.03 18:35:42.
