data_PCOD9363605
_publ_section_title
;
Structure prediction by ZEFSAII (Michael W. Deem and Ramdas Pophale) SiO2 
 PCOD9363605
Probable space group: A M A 2
;
_chemical_formula_sum "Si O2"
_cell_formula_units_Z 64
_cell_length_a 8.694465
_cell_length_b 15.259621
_cell_length_c 27.946678
_cell_angle_alpha 90.000000
_cell_angle_beta 90.000000
_cell_angle_gamma 90.000000
_cell_volume 3707.804284
_symmetry_space_group_name_H-M "A M A 2"
_symmetry_group_IT_number 40
_symmetry_cell_setting 'orthorhombic'
loop_
_space_group_symop_operation_xyz
x,y,z
-x,-y,z
1/2-x,y,z
1/2+x,-y,z
x,1/2+y,1/2+z
-x,1/2-y,1/2+z
1/2-x,1/2+y,1/2+z
1/2+x,1/2-y,1/2+z
loop_
_atom_site_type_symbol
_atom_site_label
_atom_site_fract_x
_atom_site_fract_y
_atom_site_fract_z
Si Si1 0.565733 0.594843 0.871900
Si Si2 0.935772 0.779954 0.452310
Si Si3 0.066344 0.405739 0.760658
Si Si4 0.064554 0.272334 0.228131
Si Si5 0.564615 0.594010 0.309612
Si Si6 0.065222 0.905011 0.644202
Si Si7 0.064929 0.906708 0.920547
Si Si8 0.065025 0.094990 0.538604
O O1 0.500000 0.500000 0.886553
O O2 0.750000 0.593022 0.874563
O O3 0.500402 0.668589 0.906618
O O4 0.519562 0.608831 0.816440
O O5 0.750000 0.782034 0.449425
O O6 0.984602 0.678666 0.449914
O O7 0.981148 0.832172 0.499968
O O8 0.250000 0.409096 0.758920
O O9 0.000000 0.500000 0.745961
O O10 0.005305 0.323985 0.730632
O O11 0.250000 0.265455 0.229367
O O12 0.014263 0.328396 0.274666
O O13 0.022225 0.330043 0.181957
O O14 0.500000 0.500000 0.293710
O O15 0.750000 0.590344 0.307992
O O16 0.517711 0.607041 0.364880
O O17 0.250000 0.910888 0.642185
O O18 0.000067 0.886702 0.591388
O O19 0.000000 0.000000 0.659152
O O20 0.250000 0.911421 0.921401
O O21 0.000000 0.000000 0.936621
O O22 0.250000 0.090239 0.540728
O O23 0.000000 0.000000 0.523803
#
# Coordination Sequence:
#
# PCOD9363605 Si02
#       8
#     8   8   8   8   8   8   8   8
#     4  10  20  32  48  73 103 134 167 202 244 294
#     4  10  20  33  51  73  98 131 169 208 250 296
#     4  10  21  35  51  72 100 134 169 206 246 290
#     4  10  20  33  51  74  99 130 167 204 244 292
#     4   9  17  29  46  69  99 131 160 195 237 284
#     4  10  20  34  53  77 104 132 162 200 248 299
#     4   9  18  32  48  68  96 129 163 199 240 283
#     4  10  20  34  52  74 100 129 161 200 249 302
#
# _framework density 17.26089
#
# number of rings (size 3 to 8) (size 9 to 14) (size 15 to 20)
#    0.000    2.250    0.000    3.750    0.000    6.500 
#    0.000    2.500    0.000    0.750    0.000    3.500 
#    0.000    0.000    0.000    0.000    0.000    0.000 
#
# Total GULP energy -178620.855086 kJ/mol
# GULP energy per Si atom -5581.901721 kJ/mol
# Density = 1.722160 g / cm^3
# Si number density = 17.260890 Si / 1000 Ang^3
#
#
#
# Elastic Constant Matrix: (Units=GPa)
#
#
# Indices 1 2 3 4 5 6 
#
# 1 23.7205 39.8284 29.0348 0.0000 0.0000 0.0000
# 2 39.8284 182.9184 85.3023 0.0000 0.0000 0.0000
# 3 29.0348 85.3023 72.6906 0.0000 0.0000 0.0000
# 4 0.0000 0.0000 0.0000 28.0168 0.0000 0.0000
# 5 0.0000 0.0000 0.0000 0.0000 55.6658 0.0000
# 6 0.0000 0.0000 0.0000 0.0000 0.0000 30.9065
#
#
#
# Elastic Compliance Matrix: (Units=1/GPa)
#
#
# Indices 1 2 3 4 5 6 
#
# 1 0.085302 -0.005929 -0.027115 0.000000 0.000000 0.000000
# 2 -0.005929 0.012487 -0.012285 0.000000 0.000000 0.000000
# 3 -0.027115 -0.012285 0.039004 0.000000 0.000000 0.000000
# 4 0.000000 0.000000 0.000000 0.035693 0.000000 0.000000
# 5 0.000000 0.000000 0.000000 0.000000 0.017964 0.000000
# 6 0.000000 0.000000 0.000000 0.000000 0.000000 0.032356
#
#
# Mechanical properties :
#
#
# Convention : Reuss Voigt Hill
#
# Bulk Modulus (GPa) = 21.67534 65.29560 43.48547
# Shear Modulus (GPa) = 15.20489 31.26208 23.23349
#
# Velocity S-wave (km/s) = 2.97119 4.26038 3.67279
# Velocity P-wave (km/s) = 4.93512 7.88111 6.57523
#
# Compressibility (1/GPa) = 0.04613537
#
# Stress axis : x y z
#
# Youngs Moduli (GPa) = 11.72311 80.08322 25.63831
#
# Poissons Ratio (x) = 0.47480 0.69517
# Poissons Ratio (y) = 0.06950 0.31498
# Poissons Ratio (z) = 0.31787 0.98385
#
# Static dielectric constant tensor:
#      x y z
#    x 1.581290 0.000000 0.000000 
#    y 0.000000 1.576390 0.000000 
#    z 0.000000 0.000000 1.579540 
# 
# From -- ./inp_files/26466.got.cif
#   From: 2010.05.17/outbox.cif.g08.bks.cpg/sg40_14_cif.got.tgz:26466.got - 2010.06.03 18:35:42.
