data_PCOD9363562
_publ_section_title
;
Structure prediction by ZEFSAII (Michael W. Deem and Ramdas Pophale) SiO2 
 PCOD9363562
Probable space group: A M A 2
;
_chemical_formula_sum "Si O2"
_cell_formula_units_Z 44
_cell_length_a 22.805156
_cell_length_b 7.398800
_cell_length_c 10.827820
_cell_angle_alpha 90.000000
_cell_angle_beta 90.000000
_cell_angle_gamma 90.000000
_cell_volume 1826.986603
_symmetry_space_group_name_H-M "A M A 2"
_symmetry_group_IT_number 40
_symmetry_cell_setting 'orthorhombic'
loop_
_space_group_symop_operation_xyz
x,y,z
-x,-y,z
1/2-x,y,z
1/2+x,-y,z
x,1/2+y,1/2+z
-x,1/2-y,1/2+z
1/2-x,1/2+y,1/2+z
1/2+x,1/2-y,1/2+z
loop_
_atom_site_type_symbol
_atom_site_label
_atom_site_fract_x
_atom_site_fract_y
_atom_site_fract_z
Si Si1 0.527554 0.305786 0.212560
Si Si2 0.374726 0.443355 0.646074
Si Si3 0.445520 0.204407 0.996915
Si Si4 0.250000 0.076540 0.069134
Si Si5 0.250000 0.198252 0.822195
Si Si6 0.250000 0.521740 0.060083
Si Si7 0.353723 0.968072 0.404059
O O1 0.500000 0.500000 0.191583
O O2 0.525144 0.283733 0.361613
O O3 0.593642 0.247860 0.173675
O O4 0.488774 0.198801 0.112804
O O5 0.405074 0.531446 0.525842
O O6 0.307007 0.486292 0.625045
O O7 0.384574 0.543628 0.780776
O O8 0.401135 0.374560 0.992097
O O9 0.250000 0.299357 0.080505
O O10 0.250000 0.042530 0.923861
O O11 0.308686 0.314085 0.851120
O O12 0.250000 0.114166 0.689964
O O13 0.307699 0.580093 0.983738
#
# Coordination Sequence:
#
# PCOD9363562 Si02
#       7
#     8   8   8   4   4   4   8
#     4  11  26  44  69 101 138 180 238 290 343 412
#     4  11  21  44  72  94 135 183 220 285 351 408
#     4  11  23  47  69  96 135 183 231 286 346 407
#     4  10  20  42  66  98 133 176 225 276 349 417
#     4  10  19  39  65  96 140 178 217 283 343 414
#     4  10  19  39  61  94 135 168 224 279 346 417
#     4   9  21  39  66  92 131 174 224 279 337 412
#
# _framework density 24.083373000000002
#
# number of rings (size 3 to 8) (size 9 to 14) (size 15 to 20)
#    0.000    1.818    3.636    2.727    0.000    5.818 
#    3.273    9.091    0.000    0.000    0.000    0.000 
#    0.000    0.000    0.000    0.000    0.000    0.000 
#
# Total GULP energy -122587.357195 kJ/mol
# GULP energy per Si atom -5572.152600 kJ/mol
# Density = 2.402856 g / cm^3
# Si number density = 24.083373 Si / 1000 Ang^3
#
#
#
# Elastic Constant Matrix: (Units=GPa)
#
#
# Indices 1 2 3 4 5 6 
#
# 1 111.6347 13.5339 44.0804 0.0000 0.0000 0.0000
# 2 13.5339 40.9389 35.1361 0.0000 0.0000 0.0000
# 3 44.0804 35.1361 171.8623 0.0000 0.0000 0.0000
# 4 0.0000 0.0000 0.0000 38.1494 0.0000 0.0000
# 5 0.0000 0.0000 0.0000 0.0000 47.5868 0.0000
# 6 0.0000 0.0000 0.0000 0.0000 0.0000 22.0101
#
#
#
# Elastic Compliance Matrix: (Units=1/GPa)
#
#
# Indices 1 2 3 4 5 6 
#
# 1 0.010028 -0.001343 -0.002297 0.000000 0.000000 0.000000
# 2 -0.001343 0.029805 -0.005749 0.000000 0.000000 0.000000
# 3 -0.002297 -0.005749 0.007583 0.000000 0.000000 0.000000
# 4 0.000000 0.000000 0.000000 0.026213 0.000000 0.000000
# 5 0.000000 0.000000 0.000000 0.000000 0.021014 0.000000
# 6 0.000000 0.000000 0.000000 0.000000 0.000000 0.045434
#
#
# Mechanical properties :
#
#
# Convention : Reuss Voigt Hill
#
# Bulk Modulus (GPa) = 34.92037 56.65965 45.79001
# Shear Modulus (GPa) = 29.69106 36.99496 33.34301
#
# Velocity S-wave (km/s) = 3.51500 3.92359 3.72490
# Velocity P-wave (km/s) = 5.56820 6.64105 6.12815
#
# Compressibility (1/GPa) = 0.02863658
#
# Stress axis : x y z
#
# Youngs Moduli (GPa) = 99.72286 33.55179 131.87112
#
# Poissons Ratio (x) = 0.04507 0.30296
# Poissons Ratio (y) = 0.13396 0.75810
# Poissons Ratio (z) = 0.22910 0.19288
#
# Static dielectric constant tensor:
#      x y z
#    x 1.997930 0.000000 0.000000 
#    y 0.000000 2.005980 0.000000 
#    z 0.000000 0.000000 1.981230 
# 
# From -- ./inp_files/13897.got.cif
#   From: 2010.05.17/outbox.cif.g08.bks.cpg/sg40_7_cif.got.tgz:13897.got - 2010.06.03 18:35:42.
