data_PCOD9363794
_publ_section_title
;
Structure prediction by ZEFSAII (Michael W. Deem and Ramdas Pophale) SiO2 
 PCOD9363794
Probable space group: A M A 2
;
_chemical_formula_sum "Si O2"
_cell_formula_units_Z 48
_cell_length_a 25.773981
_cell_length_b 13.250068
_cell_length_c 5.388110
_cell_angle_alpha 90.000000
_cell_angle_beta 90.000000
_cell_angle_gamma 90.000000
_cell_volume 1840.077287
_symmetry_space_group_name_H-M "A M A 2"
_symmetry_group_IT_number 40
_symmetry_cell_setting 'orthorhombic'
loop_
_space_group_symop_operation_xyz
x,y,z
-x,-y,z
1/2-x,y,z
1/2+x,-y,z
x,1/2+y,1/2+z
-x,1/2-y,1/2+z
1/2-x,1/2+y,1/2+z
1/2+x,1/2-y,1/2+z
loop_
_atom_site_type_symbol
_atom_site_label
_atom_site_fract_x
_atom_site_fract_y
_atom_site_fract_z
Si Si1 0.822264 0.310732 0.136750
Si Si2 0.939481 0.882489 0.666250
Si Si3 0.595167 0.102323 0.845874
Si Si4 0.499674 0.620594 0.664389
Si Si5 0.191134 0.523439 0.482254
Si Si6 0.161843 0.236151 0.137355
O O1 0.884176 0.330347 0.123371
O O2 0.803055 0.421872 0.212039
O O3 0.811503 0.242444 0.376640
O O4 0.805642 0.258586 0.887362
O O5 0.977038 0.855255 0.436035
O O6 0.929440 0.004598 0.702628
O O7 0.963582 0.849757 0.929814
O O8 0.612108 0.193536 0.667996
O O9 0.649502 0.063711 0.959320
O O10 0.557380 0.140722 0.062858
O O11 0.500000 0.500000 0.669707
O O12 0.250000 0.506929 0.573422
O O13 0.158908 0.613248 0.621424
#
# Coordination Sequence:
#
# PCOD9363794 Si02
#       6
#     8   8   8   8   8   8
#     4   9  21  40  66  90 134 172 216 282 344 398
#     4  10  20  38  64  90 129 180 219 261 336 408
#     4  10  22  41  69 101 136 186 227 289 347 419
#     4  10  20  34  60  94 127 173 223 265 325 404
#     4   9  22  45  70  97 131 180 232 288 358 421
#     4  10  22  42  64  97 136 170 222 286 344 400
#
# _framework density 26.085861000000001
#
# number of rings (size 3 to 8) (size 9 to 14) (size 15 to 20)
#    1.000    1.333    0.000    2.500    2.333    5.333 
#    3.000    3.333    0.000    0.000    0.000    0.000 
#    0.000    0.000    0.000    0.000    0.000    0.000 
#
# Total GULP energy -133810.917519 kJ/mol
# GULP energy per Si atom -5575.454897 kJ/mol
# Density = 2.602649 g / cm^3
# Si number density = 26.085861 Si / 1000 Ang^3
#
#
#
# Elastic Constant Matrix: (Units=GPa)
#
#
# Indices 1 2 3 4 5 6 
#
# 1 193.4645 74.1201 53.3338 0.0000 0.0000 0.0000
# 2 74.1201 101.9138 27.2439 0.0000 0.0000 0.0000
# 3 53.3338 27.2439 194.8873 0.0000 0.0000 0.0000
# 4 0.0000 0.0000 0.0000 18.1276 0.0000 0.0000
# 5 0.0000 0.0000 0.0000 0.0000 -9.2076 0.0000
# 6 0.0000 0.0000 0.0000 0.0000 0.0000 -705.0171
#
#
#
# Elastic Compliance Matrix: (Units=1/GPa)
#
#
# Indices 1 2 3 4 5 6 
#
# 1 0.007487 -0.005087 -0.001338 0.000000 0.000000 0.000000
# 2 -0.005087 0.013650 -0.000516 0.000000 0.000000 0.000000
# 3 -0.001338 -0.000516 0.005569 0.000000 0.000000 0.000000
# 4 0.000000 0.000000 0.000000 0.055164 0.000000 0.000000
# 5 0.000000 0.000000 0.000000 0.000000 -0.108606 0.000000
# 6 0.000000 0.000000 0.000000 0.000000 0.000000 -0.001418
#
#
# Mechanical properties :
#
#
# Convention : Reuss Voigt Hill
#
# Bulk Modulus (GPa) = 77.97764 88.85125 83.41444
# Shear Modulus (GPa) = -500.15533 -116.84823 -308.50178
#
# Velocity S-wave (km/s) = -13.86184 -6.70007 -10.88672
# Velocity P-wave (km/s) = 15.04138 5.07145 11.22414
#
# Compressibility (1/GPa) = 0.01282419
#
# Stress axis : x y z
#
# Youngs Moduli (GPa) = 133.56911 73.25949 179.55342
#
# Poissons Ratio (x) = 0.37270 0.24018
# Poissons Ratio (y) = 0.67952 0.09264
# Poissons Ratio (z) = 0.17867 0.03780
#
# Static dielectric constant tensor:
#      x y z
#    x 2.042110 0.000000 0.000000 
#    y 0.000000 2.060700 0.000000 
#    z 0.000000 0.000000 2.194740 
# 
# From -- ./inp_files/3365.got.cif
#   From: 2010.05.17/outbox.cif.g08.bks.cpg/sg40_2_cif.got.tgz:3365.got - 2010.06.03 18:35:42.
