data_PCOD9363032
_publ_section_title
;
Structure prediction by ZEFSAII (Michael W. Deem and Ramdas Pophale) SiO2 
 PCOD9363032
Probable space group: A M A 2
;
_chemical_formula_sum "Si O2"
_cell_formula_units_Z 64
_cell_length_a 8.770952
_cell_length_b 15.233331
_cell_length_c 27.861113
_cell_angle_alpha 90.000000
_cell_angle_beta 90.000000
_cell_angle_gamma 90.000000
_cell_volume 3722.546015
_symmetry_space_group_name_H-M "A M A 2"
_symmetry_group_IT_number 40
_symmetry_cell_setting 'orthorhombic'
loop_
_space_group_symop_operation_xyz
x,y,z
-x,-y,z
1/2-x,y,z
1/2+x,-y,z
x,1/2+y,1/2+z
-x,1/2-y,1/2+z
1/2-x,1/2+y,1/2+z
1/2+x,1/2-y,1/2+z
loop_
_atom_site_type_symbol
_atom_site_label
_atom_site_fract_x
_atom_site_fract_y
_atom_site_fract_z
Si Si1 0.433630 0.406388 0.503310
Si Si2 0.566620 0.593125 0.614488
Si Si3 0.932923 0.595268 0.067924
Si Si4 0.566766 0.280693 0.148532
Si Si5 0.565834 0.228733 0.921549
Si Si6 0.066774 0.405814 0.339927
Si Si7 0.068317 0.905738 0.455451
Si Si8 0.432833 0.405070 0.228403
O O1 0.500000 0.500000 0.487410
O O2 0.250000 0.411241 0.501788
O O3 0.480421 0.392678 0.558692
O O4 0.481244 0.328442 0.468121
O O5 0.500000 0.500000 0.630495
O O6 0.750000 0.587552 0.615107
O O7 0.520703 0.678741 0.644307
O O8 0.750000 0.594578 0.073290
O O9 0.000000 0.500000 0.081434
O O10 0.005783 0.668330 0.101737
O O11 0.971277 0.609584 0.011823
O O12 0.750000 0.285459 0.149177
O O13 0.499235 0.330622 0.194204
O O14 0.750000 0.235347 0.921687
O O15 0.518584 0.172076 0.875226
O O16 0.496600 0.324952 0.925414
O O17 0.250000 0.411872 0.342529
O O18 0.025171 0.390419 0.284279
O O19 0.000000 0.500000 0.354733
O O20 0.250000 0.909169 0.451912
O O21 0.000000 0.000000 0.441773
O O22 0.500000 0.500000 0.214244
O O23 0.250000 0.407693 0.224380
#
# Coordination Sequence:
#
# PCOD9363032 Si02
#       8
#     8   8   8   8   8   8   8   8
#     4   9  17  29  46  70 100 131 160 194 236 283
#     4   9  19  33  48  68  96 129 163 199 239 283
#     4  10  20  33  49  72 102 134 167 203 245 294
#     4  11  21  33  51  74  99 130 168 207 250 298
#     4  10  19  32  51  74 101 132 166 203 244 291
#     4   9  19  34  53  77 104 133 163 200 247 297
#     4  10  21  35  51  72  99 133 170 207 247 291
#     4  10  20  35  53  75 103 132 163 201 248 299
#
# _framework density 17.192533999999998
#
# number of rings (size 3 to 8) (size 9 to 14) (size 15 to 20)
#    0.000    2.250    0.000    3.000    0.000    5.000 
#    0.000    2.500    0.000    0.750    0.000    1.750 
#    0.000    0.000    0.000    0.000    0.000    0.000 
#
# Total GULP energy -178636.702303 kJ/mol
# GULP energy per Si atom -5582.396947 kJ/mol
# Density = 1.715340 g / cm^3
# Si number density = 17.192534 Si / 1000 Ang^3
#
#
#
# Elastic Constant Matrix: (Units=GPa)
#
#
# Indices 1 2 3 4 5 6 
#
# 1 29.9564 43.6086 30.1479 0.0000 0.0000 0.0000
# 2 43.6086 181.0115 83.1469 0.0000 0.0000 0.0000
# 3 30.1479 83.1469 72.3743 0.0000 0.0000 0.0000
# 4 0.0000 0.0000 0.0000 28.9842 0.0000 0.0000
# 5 0.0000 0.0000 0.0000 0.0000 21.4329 0.0000
# 6 0.0000 0.0000 0.0000 0.0000 0.0000 32.9344
#
#
#
# Elastic Compliance Matrix: (Units=1/GPa)
#
#
# Indices 1 2 3 4 5 6 
#
# 1 0.060767 -0.006378 -0.017985 0.000000 0.000000 0.000000
# 2 -0.006378 0.012367 -0.011551 0.000000 0.000000 0.000000
# 3 -0.017985 -0.011551 0.034579 0.000000 0.000000 0.000000
# 4 0.000000 0.000000 0.000000 0.034502 0.000000 0.000000
# 5 0.000000 0.000000 0.000000 0.000000 0.046657 0.000000
# 6 0.000000 0.000000 0.000000 0.000000 0.000000 0.030363
#
#
# Mechanical properties :
#
#
# Convention : Reuss Voigt Hill
#
# Bulk Modulus (GPa) = 27.86721 66.34988 47.10854
# Shear Modulus (GPa) = 16.50029 25.09957 20.79993
#
# Velocity S-wave (km/s) = 3.10132 3.82502 3.48202
# Velocity P-wave (km/s) = 5.39151 7.62783 6.60500
#
# Compressibility (1/GPa) = 0.03588447
#
# Stress axis : x y z
#
# Youngs Moduli (GPa) = 16.45628 80.86055 28.91938
#
# Poissons Ratio (x) = 0.51576 0.52012
# Poissons Ratio (y) = 0.10496 0.33404
# Poissons Ratio (z) = 0.29597 0.93400
#
# Static dielectric constant tensor:
#      x y z
#    x 1.573440 0.000000 0.000000 
#    y 0.000000 1.563700 0.000000 
#    z 0.000000 0.000000 1.585400 
# 
# From -- ./inp_files/24313.got.cif
#   From: 2010.05.17/outbox.cif.g08.bks.cpg/sg40_13_cif.got.tgz:24313.got - 2010.06.03 18:35:42.
