data_PCOD9363491
_publ_section_title
;
Structure prediction by ZEFSAII (Michael W. Deem and Ramdas Pophale) SiO2 
 PCOD9363491
Probable space group: A M A 2
;
_chemical_formula_sum "Si O2"
_cell_formula_units_Z 64
_cell_length_a 16.432654
_cell_length_b 12.459934
_cell_length_c 15.725117
_cell_angle_alpha 90.000000
_cell_angle_beta 90.000000
_cell_angle_gamma 90.000000
_cell_volume 3219.714314
_symmetry_space_group_name_H-M "A M A 2"
_symmetry_group_IT_number 40
_symmetry_cell_setting 'orthorhombic'
loop_
_space_group_symop_operation_xyz
x,y,z
-x,-y,z
1/2-x,y,z
1/2+x,-y,z
x,1/2+y,1/2+z
-x,1/2-y,1/2+z
1/2-x,1/2+y,1/2+z
1/2+x,1/2-y,1/2+z
loop_
_atom_site_type_symbol
_atom_site_label
_atom_site_fract_x
_atom_site_fract_y
_atom_site_fract_z
Si Si1 0.904291 0.020330 0.597390
Si Si2 0.903669 0.485101 0.286896
Si Si3 0.654648 0.241807 0.536712
Si Si4 0.349505 0.019673 0.080427
Si Si5 0.349719 0.968515 0.271880
Si Si6 0.845282 0.754466 0.838336
Si Si7 0.651945 0.142859 0.934115
Si Si8 0.347920 0.110954 0.432389
O O1 0.870759 0.989676 0.690400
O O2 0.867934 0.953112 0.518731
O O3 0.889243 0.146298 0.584333
O O4 0.000000 0.000000 0.596192
O O5 0.886244 0.367994 0.324100
O O6 0.868913 0.576461 0.349141
O O7 0.000000 0.500000 0.282954
O O8 0.750000 0.238632 0.561198
O O9 0.624052 0.361926 0.552250
O O10 0.649679 0.220903 0.436455
O O11 0.250000 0.018241 0.077024
O O12 0.373888 0.003589 0.177841
O O13 0.377459 0.927847 0.014794
O O14 0.250000 0.967494 0.275094
O O15 0.377153 0.045382 0.349040
O O16 0.377584 0.846420 0.286077
O O17 0.750000 0.769773 0.817745
O O18 0.750000 0.147828 0.940089
O O19 0.621385 0.265795 0.933975
O O20 0.250000 0.115401 0.425955
#
# Coordination Sequence:
#
# PCOD9363491 Si02
#       8
#     8   8   8   8   8   8   8   8
#     4  11  25  41  57  83 120 163 200 242 290 351
#     4  11  25  41  57  83 120 163 200 242 290 351
#     4  10  19  36  64  89 113 149 198 247 291 347
#     4   9  18  33  57  90 118 142 181 240 299 347
#     4   9  18  33  57  90 118 142 181 240 299 347
#     4  10  19  36  64  89 113 149 198 247 291 347
#     4  10  21  38  60  88 120 151 191 244 298 347
#     4  10  21  38  60  88 120 151 191 244 298 347
#
# _framework density 19.87754
#
# number of rings (size 3 to 8) (size 9 to 14) (size 15 to 20)
#    0.000    2.000    2.500    0.750    3.500    3.000 
#    0.000    0.000    0.000    0.750    0.000    0.000 
#    0.000    0.000    0.000    0.000    0.000    0.000 
#
# Total GULP energy -178623.316192 kJ/mol
# GULP energy per Si atom -5581.978631 kJ/mol
# Density = 1.983230 g / cm^3
# Si number density = 19.877540 Si / 1000 Ang^3
#
#
#
# Elastic Constant Matrix: (Units=GPa)
#
#
# Indices 1 2 3 4 5 6 
#
# 1 5.4885 4.1094 3.3361 0.0000 0.0000 0.0000
# 2 4.1094 96.4188 36.3332 0.0000 0.0000 0.0000
# 3 3.3361 36.3332 105.5046 0.0000 0.0000 0.0000
# 4 0.0000 0.0000 0.0000 27.4449 0.0000 0.0000
# 5 0.0000 0.0000 0.0000 0.0000 14.7745 0.0000
# 6 0.0000 0.0000 0.0000 0.0000 0.0000 -57.4437
#
#
#
# Elastic Compliance Matrix: (Units=1/GPa)
#
#
# Indices 1 2 3 4 5 6 
#
# 1 0.189446 -0.006684 -0.003688 0.000000 0.000000 0.000000
# 2 -0.006684 0.012154 -0.003974 0.000000 0.000000 0.000000
# 3 -0.003688 -0.003974 0.010963 0.000000 0.000000 0.000000
# 4 0.000000 0.000000 0.000000 0.036437 0.000000 0.000000
# 5 0.000000 0.000000 0.000000 0.000000 0.067684 0.000000
# 6 0.000000 0.000000 0.000000 0.000000 0.000000 -0.017408
#
#
# Mechanical properties :
#
#
# Convention : Reuss Voigt Hill
#
# Bulk Modulus (GPa) = 5.43865 32.77437 19.10651
# Shear Modulus (GPa) = 12.84491 7.86402 10.35446
#
# Velocity S-wave (km/s) = 2.54481 1.99119 2.28483
# Velocity P-wave (km/s) = 3.37294 4.67016 4.07352
#
# Compressibility (1/GPa) = 0.18386930
#
# Stress axis : x y z
#
# Youngs Moduli (GPa) = 5.27856 82.27830 91.21184
#
# Poissons Ratio (x) = 0.54998 0.33642
# Poissons Ratio (y) = 0.03528 0.36249
# Poissons Ratio (z) = 0.01947 0.32699
#
# Static dielectric constant tensor:
#      x y z
#    x 1.704330 0.000000 0.000000 
#    y 0.000000 1.700050 0.000000 
#    z 0.000000 0.000000 1.693910 
# 
# From -- ./inp_files/17863.got.cif
#   From: 2010.05.17/outbox.cif.g08.bks.cpg/sg40_9_cif.got.tgz:17863.got - 2010.06.03 18:35:42.
