data_PCOD9363722
_publ_section_title
;
Structure prediction by ZEFSAII (Michael W. Deem and Ramdas Pophale) SiO2 
 PCOD9363722
Probable space group: A M A 2
;
_chemical_formula_sum "Si O2"
_cell_formula_units_Z 56
_cell_length_a 7.756967
_cell_length_b 24.708795
_cell_length_c 14.283242
_cell_angle_alpha 90.000000
_cell_angle_beta 90.000000
_cell_angle_gamma 90.000000
_cell_volume 2737.601969
_symmetry_space_group_name_H-M "A M A 2"
_symmetry_group_IT_number 40
_symmetry_cell_setting 'orthorhombic'
loop_
_space_group_symop_operation_xyz
x,y,z
-x,-y,z
1/2-x,y,z
1/2+x,-y,z
x,1/2+y,1/2+z
-x,1/2-y,1/2+z
1/2-x,1/2+y,1/2+z
1/2+x,1/2-y,1/2+z
loop_
_atom_site_type_symbol
_atom_site_label
_atom_site_fract_x
_atom_site_fract_y
_atom_site_fract_z
Si Si1 0.542919 0.060916 0.207180
Si Si2 0.958834 0.122593 0.599625
Si Si3 0.961913 0.168305 0.104344
Si Si4 0.043061 0.938626 0.782655
Si Si5 0.453380 0.228006 0.714255
Si Si6 0.045882 0.336520 0.395373
Si Si7 0.542568 0.561438 0.920028
O O1 0.750000 0.064285 0.210799
O O2 0.483448 0.109430 0.141118
O O3 0.477095 0.068566 0.313924
O O4 0.500000 0.000000 0.176439
O O5 0.750000 0.122800 0.598048
O O6 0.015835 0.079568 0.679056
O O7 0.020985 0.103396 0.498112
O O8 0.014706 0.180813 0.637948
O O9 0.750000 0.169963 0.105703
O O10 0.021850 0.215763 0.173470
O O11 0.021585 0.177694 0.997904
O O12 0.250000 0.934176 0.782031
O O13 0.975259 0.893214 0.854311
O O14 0.000000 0.000000 0.805032
O O15 0.250000 0.233597 0.727513
O O16 0.523754 0.207336 0.813456
O O17 0.250000 0.344272 0.407487
O O18 0.500000 0.500000 0.949187
O O19 0.750000 0.566177 0.916691
#
# Coordination Sequence:
#
# PCOD9363722 Si02
#       7
#     8   8   8   8   8   8   8
#     4   9  18  34  53  75 103 133 166 207 248 294
#     4   9  18  32  48  70 102 140 171 200 248 303
#     4   9  19  36  56  74  99 135 167 197 247 304
#     4   9  17  28  45  68  95 128 165 201 242 288
#     4  10  20  34  53  78 101 126 166 213 250 287
#     4   9  19  37  54  70  99 137 167 198 247 304
#     4   9  17  29  48  73 102 135 170 206 249 296
#
# _framework density 20.455859
#
# number of rings (size 3 to 8) (size 9 to 14) (size 15 to 20)
#    0.000    2.857    0.000    1.714    0.000    4.571 
#    0.000    5.000    0.000    0.000    0.000    0.000 
#    0.000    0.000    0.000    0.000    0.000    0.000 
#
# Total GULP energy -156165.976252 kJ/mol
# GULP energy per Si atom -5577.356295 kJ/mol
# Density = 2.040930 g / cm^3
# Si number density = 20.455859 Si / 1000 Ang^3
#
#
#
# Elastic Constant Matrix: (Units=GPa)
#
#
# Indices 1 2 3 4 5 6 
#
# 1 20.1558 -7.1806 -3.3659 0.0000 0.0000 0.0000
# 2 -7.1806 138.6295 84.1920 0.0000 0.0000 0.0000
# 3 -3.3659 84.1920 108.5684 0.0000 0.0000 0.0000
# 4 0.0000 0.0000 0.0000 17.9479 0.0000 0.0000
# 5 0.0000 0.0000 0.0000 0.0000 13.8179 0.0000
# 6 0.0000 0.0000 0.0000 0.0000 0.0000 20.3648
#
#
#
# Elastic Compliance Matrix: (Units=1/GPa)
#
#
# Indices 1 2 3 4 5 6 
#
# 1 0.050590 0.003153 -0.000876 0.000000 0.000000 0.000000
# 2 0.003153 0.013831 -0.010628 0.000000 0.000000 0.000000
# 3 -0.000876 -0.010628 0.017425 0.000000 0.000000 0.000000
# 4 0.000000 0.000000 0.000000 0.055717 0.000000 0.000000
# 5 0.000000 0.000000 0.000000 0.000000 0.072370 0.000000
# 6 0.000000 0.000000 0.000000 0.000000 0.000000 0.049104
#
#
# Mechanical properties :
#
#
# Convention : Reuss Voigt Hill
#
# Bulk Modulus (GPa) = 15.35074 46.07164 30.71119
# Shear Modulus (GPa) = 16.80916 23.33999 20.07458
#
# Velocity S-wave (km/s) = 2.86969 3.38152 3.13607
# Velocity P-wave (km/s) = 4.30125 6.14960 5.30652
#
# Compressibility (1/GPa) = 0.06514342
#
# Stress axis : x y z
#
# Youngs Moduli (GPa) = 19.76663 72.29908 57.38723
#
# Poissons Ratio (x) = -0.22793 0.05029
# Poissons Ratio (y) = -0.06232 0.60992
# Poissons Ratio (z) = 0.01732 0.76841
#
# Static dielectric constant tensor:
#      x y z
#    x 1.752380 0.000000 0.000000 
#    y 0.000000 1.706330 0.000000 
#    z 0.000000 0.000000 1.739540 
# 
# From -- ./inp_files/15288.got.cif
#   From: 2010.05.17/outbox.cif.g08.bks.cpg/sg40_8_cif.got.tgz:15288.got - 2010.06.03 18:35:42.
