data_PCOD9363276
_publ_section_title
;
Structure prediction by ZEFSAII (Michael W. Deem and Ramdas Pophale) SiO2 
 PCOD9363276
Probable space group: A M A 2
;
_chemical_formula_sum "Si O2"
_cell_formula_units_Z 64
_cell_length_a 8.890619
_cell_length_b 20.861811
_cell_length_c 19.862399
_cell_angle_alpha 90.000000
_cell_angle_beta 90.000000
_cell_angle_gamma 90.000000
_cell_volume 3683.966800
_symmetry_space_group_name_H-M "A M A 2"
_symmetry_group_IT_number 40
_symmetry_cell_setting 'orthorhombic'
loop_
_space_group_symop_operation_xyz
x,y,z
-x,-y,z
1/2-x,y,z
1/2+x,-y,z
x,1/2+y,1/2+z
-x,1/2-y,1/2+z
1/2-x,1/2+y,1/2+z
1/2+x,1/2-y,1/2+z
loop_
_atom_site_type_symbol
_atom_site_label
_atom_site_fract_x
_atom_site_fract_y
_atom_site_fract_z
Si Si1 0.071262 0.387355 0.347080
Si Si2 0.572185 0.265409 0.842483
Si Si3 0.929411 0.566855 0.066417
Si Si4 0.071691 0.612565 0.204140
Si Si5 0.929606 0.434197 0.484969
Si Si6 0.571012 0.805932 0.067043
Si Si7 0.926372 0.233296 0.202202
Si Si8 0.070030 0.686123 0.989137
O O1 0.250000 0.398935 0.345229
O O2 0.046279 0.310559 0.354852
O O3 0.996163 0.406384 0.276332
O O4 0.997578 0.420815 0.411152
O O5 0.750000 0.272688 0.828568
O O6 0.479536 0.284820 0.776899
O O7 0.535216 0.303184 0.910455
O O8 0.750000 0.564472 0.065751
O O9 0.000000 0.500000 0.042967
O O10 0.988277 0.579717 0.142157
O O11 0.989598 0.625082 0.021161
O O12 0.250000 0.599608 0.201677
O O13 0.049886 0.689604 0.196394
O O14 0.750000 0.439679 0.480071
O O15 0.965612 0.373503 0.532155
O O16 0.000000 0.500000 0.511193
O O17 0.750000 0.795550 0.061611
O O18 0.519995 0.801296 0.144226
O O19 0.485603 0.749202 0.028195
O O20 0.750000 0.221127 0.192936
O O21 0.250000 0.680225 0.997179
#
# Coordination Sequence:
#
# PCOD9363276 Si02
#       8
#     8   8   8   8   8   8   8   8
#     4  10  19  34  55  81 113 152 191 231 278 334
#     4   9  19  34  56  84 116 148 183 229 282 334
#     4  12  25  40  58  82 114 153 192 236 283 337
#     4  10  20  35  54  81 115 151 191 233 276 333
#     4  11  24  39  56  81 113 152 193 237 285 338
#     4  11  22  36  58  85 114 148 190 236 283 336
#     4  10  20  33  56  85 116 148 185 232 281 334
#     4  11  21  37  60  87 115 148 188 233 283 335
#
# _framework density 17.372578000000001
#
# number of rings (size 3 to 8) (size 9 to 14) (size 15 to 20)
#    0.000    1.500    2.500    3.375    0.000    4.500 
#    0.000    2.500    0.000    0.750    0.000    3.500 
#    0.000    0.000    0.000    0.000    0.000    0.000 
#
# Total GULP energy -178854.012249 kJ/mol
# GULP energy per Si atom -5589.187883 kJ/mol
# Density = 1.733304 g / cm^3
# Si number density = 17.372578 Si / 1000 Ang^3
#
#
#
# Elastic Constant Matrix: (Units=GPa)
#
#
# Indices 1 2 3 4 5 6 
#
# 1 94.4303 63.9892 53.9941 0.0000 0.0000 0.0000
# 2 63.9892 98.7742 49.9060 0.0000 0.0000 0.0000
# 3 53.9941 49.9060 89.3177 0.0000 0.0000 0.0000
# 4 0.0000 0.0000 0.0000 14.4932 0.0000 0.0000
# 5 0.0000 0.0000 0.0000 0.0000 29.1758 0.0000
# 6 0.0000 0.0000 0.0000 0.0000 0.0000 25.6882
#
#
#
# Elastic Compliance Matrix: (Units=1/GPa)
#
#
# Indices 1 2 3 4 5 6 
#
# 1 0.021903 -0.010450 -0.007402 0.000000 0.000000 0.000000
# 2 -0.010450 0.019092 -0.004350 0.000000 0.000000 0.000000
# 3 -0.007402 -0.004350 0.018102 0.000000 0.000000 0.000000
# 4 0.000000 0.000000 0.000000 0.068998 0.000000 0.000000
# 5 0.000000 0.000000 0.000000 0.000000 0.034275 0.000000
# 6 0.000000 0.000000 0.000000 0.000000 0.000000 0.038928
#
#
# Mechanical properties :
#
#
# Convention : Reuss Voigt Hill
#
# Bulk Modulus (GPa) = 68.06442 68.70011 68.38226
# Shear Modulus (GPa) = 19.95207 21.51363 20.73285
#
# Velocity S-wave (km/s) = 3.39260 3.52286 3.45834
# Velocity P-wave (km/s) = 7.38990 7.49523 7.44275
#
# Compressibility (1/GPa) = 0.01469196
#
# Stress axis : x y z
#
# Youngs Moduli (GPa) = 45.65486 52.37817 55.24378
#
# Poissons Ratio (x) = 0.54734 0.40893
# Poissons Ratio (y) = 0.47708 0.24034
# Poissons Ratio (z) = 0.33795 0.22787
#
# Static dielectric constant tensor:
#      x y z
#    x 1.572980 0.000000 0.000000 
#    y 0.000000 1.587220 0.000000 
#    z 0.000000 0.000000 1.575100 
# 
# From -- ./inp_files/22530.got.cif
#   From: 2010.05.17/outbox.cif.g08.bks.cpg/sg40_12_cif.got.tgz:22530.got - 2010.06.03 18:35:42.
