data_PCOD9363300
_publ_section_title
;
Structure prediction by ZEFSAII (Michael W. Deem and Ramdas Pophale) SiO2 
 PCOD9363300
Probable space group: A M A 2
;
_chemical_formula_sum "Si O2"
_cell_formula_units_Z 48
_cell_length_a 8.781997
_cell_length_b 13.961449
_cell_length_c 18.692593
_cell_angle_alpha 90.000000
_cell_angle_beta 90.000000
_cell_angle_gamma 90.000000
_cell_volume 2291.887673
_symmetry_space_group_name_H-M "A M A 2"
_symmetry_group_IT_number 40
_symmetry_cell_setting 'orthorhombic'
loop_
_space_group_symop_operation_xyz
x,y,z
-x,-y,z
1/2-x,y,z
1/2+x,-y,z
x,1/2+y,1/2+z
-x,1/2-y,1/2+z
1/2-x,1/2+y,1/2+z
1/2+x,1/2-y,1/2+z
loop_
_atom_site_type_symbol
_atom_site_label
_atom_site_fract_x
_atom_site_fract_y
_atom_site_fract_z
Si Si1 0.068003 0.805837 0.242330
Si Si2 0.578650 0.094478 0.898641
Si Si3 0.567726 0.105008 0.396120
Si Si4 0.568649 0.396729 0.608645
Si Si5 0.074656 0.399526 0.226912
Si Si6 0.433338 0.244538 0.499943
O O1 0.250000 0.815635 0.233833
O O2 0.028981 0.832104 0.324669
O O3 0.979096 0.877689 0.190509
O O4 0.018738 0.698555 0.217680
O O5 0.750000 0.090751 0.924295
O O6 0.578397 0.094069 0.813438
O O7 0.500000 0.000000 0.924450
O O8 0.512694 0.187691 0.934053
O O9 0.750000 0.102381 0.400780
O O10 0.501270 0.145334 0.471306
O O11 0.500000 0.000000 0.383790
O O12 0.500000 0.500000 0.587198
O O13 0.750000 0.397438 0.599509
O O14 0.497027 0.305995 0.566006
O O15 0.250000 0.390632 0.201798
O O16 0.000000 0.500000 0.201433
O O17 0.250000 0.235693 0.505638
#
# Coordination Sequence:
#
# PCOD9363300 Si02
#       6
#     8   8   8   8   8   8
#     4  11  23  41  65  95 130 171 217 266 321 382
#     4   9  18  30  51  82 117 155 194 242 298 356
#     4  11  24  41  65  95 127 166 215 267 321 382
#     4  12  26  44  66  95 131 171 215 263 321 384
#     4  10  19  34  56  88 125 163 206 256 312 370
#     4  11  22  40  63  91 126 164 208 260 317 378
#
# _framework density 20.943435000000001
#
# number of rings (size 3 to 8) (size 9 to 14) (size 15 to 20)
#    0.000    1.333    1.667    4.500    0.000    6.667 
#    0.000    0.833    0.000    0.000    0.000    0.000 
#    0.000    0.000    0.000    0.000    0.000    0.000 
#
# Total GULP energy -133859.308039 kJ/mol
# GULP energy per Si atom -5577.471168 kJ/mol
# Density = 2.089577 g / cm^3
# Si number density = 20.943435 Si / 1000 Ang^3
#
#
#
# Elastic Constant Matrix: (Units=GPa)
#
#
# Indices 1 2 3 4 5 6 
#
# 1 84.2434 38.2866 42.3707 0.0000 0.0000 0.0000
# 2 38.2866 104.8979 27.2986 0.0000 0.0000 0.0000
# 3 42.3707 27.2986 75.8480 0.0000 0.0000 0.0000
# 4 0.0000 0.0000 0.0000 24.5592 0.0000 0.0000
# 5 0.0000 0.0000 0.0000 0.0000 28.2920 0.0000
# 6 0.0000 0.0000 0.0000 0.0000 0.0000 36.3824
#
#
#
# Elastic Compliance Matrix: (Units=1/GPa)
#
#
# Indices 1 2 3 4 5 6 
#
# 1 0.018184 -0.004406 -0.008572 0.000000 0.000000 0.000000
# 2 -0.004406 0.011586 -0.001708 0.000000 0.000000 0.000000
# 3 -0.008572 -0.001708 0.018588 0.000000 0.000000 0.000000
# 4 0.000000 0.000000 0.000000 0.040718 0.000000 0.000000
# 5 0.000000 0.000000 0.000000 0.000000 0.035346 0.000000
# 6 0.000000 0.000000 0.000000 0.000000 0.000000 0.027486
#
#
# Mechanical properties :
#
#
# Convention : Reuss Voigt Hill
#
# Bulk Modulus (GPa) = 52.67590 53.43344 53.05467
# Shear Modulus (GPa) = 26.65102 28.31562 27.48332
#
# Velocity S-wave (km/s) = 3.57112 3.68095 3.62645
# Velocity P-wave (km/s) = 6.49692 6.60564 6.55150
#
# Compressibility (1/GPa) = 0.01898401
#
# Stress axis : x y z
#
# Youngs Moduli (GPa) = 54.99201 86.31172 53.79825
#
# Poissons Ratio (x) = 0.38031 0.46118
# Poissons Ratio (y) = 0.24231 0.09191
# Poissons Ratio (z) = 0.47142 0.14746
#
# Static dielectric constant tensor:
#      x y z
#    x 1.711520 0.000000 0.000000 
#    y 0.000000 1.764010 0.000000 
#    z 0.000000 0.000000 1.776020 
# 
# From -- ./inp_files/19223.got.cif
#   From: 2010.05.17/outbox.cif.g08.bks.cpg/sg40_10_cif.got.tgz:19223.got - 2010.06.03 18:35:42.
