data_PCOD9363699
_publ_section_title
;
Structure prediction by ZEFSAII (Michael W. Deem and Ramdas Pophale) SiO2 
 PCOD9363699
Probable space group: A M A 2
;
_chemical_formula_sum "Si O2"
_cell_formula_units_Z 48
_cell_length_a 15.717673
_cell_length_b 9.069577
_cell_length_c 18.936744
_cell_angle_alpha 90.000000
_cell_angle_beta 90.000000
_cell_angle_gamma 90.000000
_cell_volume 2699.482955
_symmetry_space_group_name_H-M "A M A 2"
_symmetry_group_IT_number 40
_symmetry_cell_setting 'orthorhombic'
loop_
_space_group_symop_operation_xyz
x,y,z
-x,-y,z
1/2-x,y,z
1/2+x,-y,z
x,1/2+y,1/2+z
-x,1/2-y,1/2+z
1/2-x,1/2+y,1/2+z
1/2+x,1/2-y,1/2+z
loop_
_atom_site_type_symbol
_atom_site_label
_atom_site_fract_x
_atom_site_fract_y
_atom_site_fract_z
Si Si1 0.654631 0.332042 0.978320
Si Si2 0.597600 0.020099 0.975855
Si Si3 0.250000 0.981422 0.580386
Si Si4 0.086960 0.581394 0.833563
Si Si5 0.586699 0.580488 0.307778
Si Si6 0.750000 0.426740 0.242085
Si Si7 0.250000 0.372560 0.830529
Si Si8 0.250000 0.710629 0.485841
O O1 0.750000 0.318773 0.944332
O O2 0.631690 0.172664 0.007549
O O3 0.591589 0.384489 0.917770
O O4 0.668834 0.448064 0.039978
O O5 0.595246 0.049108 0.891544
O O6 0.500000 0.000000 0.998756
O O7 0.665133 0.889876 0.986969
O O8 0.250000 0.813249 0.555254
O O9 0.250000 0.041135 0.658907
O O10 0.088792 0.742999 0.798282
O O11 0.166949 0.474636 0.820044
O O12 0.000000 0.500000 0.815687
O O13 0.500000 0.500000 0.284458
O O14 0.666706 0.506213 0.271812
O O15 0.750000 0.261897 0.274710
O O16 0.250000 0.305231 0.911580
#
# Coordination Sequence:
#
# PCOD9363699 Si02
#       8
#     8   8   4   8   8   4   4   4
#     4   9  18  37  53  78 121 143 180 239 292 335
#     4  10  20  33  62  89 112 149 189 246 299 347
#     4  10  23  37  59  83 118 159 193 238 297 348
#     4  11  21  34  60  91 117 146 193 258 299 342
#     4  10  21  37  58  88 119 150 199 243 298 358
#     4  12  23  39  61  79 118 169 193 232 313 364
#     4  12  21  35  59  91 116 152 203 248 298 351
#     4  12  19  37  57  91 118 142 203 252 282 355
#
# _framework density 17.781182000000001
#
# number of rings (size 3 to 8) (size 9 to 14) (size 15 to 20)
#    0.500    1.000    5.000    1.500    7.000    0.000 
#    0.000    5.833    0.000    2.000    0.000    0.000 
#    0.000    0.000    0.000    0.000    0.000    0.000 
#
# Total GULP energy -133719.532866 kJ/mol
# GULP energy per Si atom -5571.647203 kJ/mol
# Density = 1.774071 g / cm^3
# Si number density = 17.781182 Si / 1000 Ang^3
#
#
#
# Elastic Constant Matrix: (Units=GPa)
#
#
# Indices 1 2 3 4 5 6 
#
# 1 137.6664 83.8698 18.5397 0.0000 0.0000 0.0000
# 2 83.8698 169.3454 35.3990 0.0000 0.0000 0.0000
# 3 18.5397 35.3990 33.5330 0.0000 0.0000 0.0000
# 4 0.0000 0.0000 0.0000 15.1821 0.0000 0.0000
# 5 0.0000 0.0000 0.0000 0.0000 10.2049 0.0000
# 6 0.0000 0.0000 0.0000 0.0000 0.0000 28.4473
#
#
#
# Elastic Compliance Matrix: (Units=1/GPa)
#
#
# Indices 1 2 3 4 5 6 
#
# 1 0.010407 -0.005070 -0.000401 0.000000 0.000000 0.000000
# 2 -0.005070 0.010047 -0.007803 0.000000 0.000000 0.000000
# 3 -0.000401 -0.007803 0.038281 0.000000 0.000000 0.000000
# 4 0.000000 0.000000 0.000000 0.065867 0.000000 0.000000
# 5 0.000000 0.000000 0.000000 0.000000 0.097992 0.000000
# 6 0.000000 0.000000 0.000000 0.000000 0.000000 0.035153
#
#
# Mechanical properties :
#
#
# Convention : Reuss Voigt Hill
#
# Bulk Modulus (GPa) = 31.07007 68.46243 49.76625
# Shear Modulus (GPa) = 16.94772 24.28261 20.61516
#
# Velocity S-wave (km/s) = 3.09062 3.69946 3.40866
# Velocity P-wave (km/s) = 5.49977 7.53885 6.59855
#
# Compressibility (1/GPa) = 0.03218532
#
# Stress axis : x y z
#
# Youngs Moduli (GPa) = 96.09025 99.52937 26.12278
#
# Poissons Ratio (x) = 0.50463 0.01049
# Poissons Ratio (y) = 0.48720 0.20384
# Poissons Ratio (z) = 0.03857 0.77665
#
# Static dielectric constant tensor:
#      x y z
#    x 1.630960 0.000000 0.000000 
#    y 0.000000 1.640260 0.000000 
#    z 0.000000 0.000000 1.601050 
# 
# From -- ./inp_files/23015.got.cif
#   From: 2010.05.17/outbox.cif.g08.bks.cpg/sg40_12_cif.got.tgz:23015.got - 2010.06.03 18:35:42.
