data_PCOD9363256
_publ_section_title
;
Structure prediction by ZEFSAII (Michael W. Deem and Ramdas Pophale) SiO2 
 PCOD9363256
Probable space group: A M A 2
;
_chemical_formula_sum "Si O2"
_cell_formula_units_Z 64
_cell_length_a 8.506163
_cell_length_b 14.863260
_cell_length_c 29.016665
_cell_angle_alpha 90.000000
_cell_angle_beta 90.000000
_cell_angle_gamma 90.000000
_cell_volume 3668.557000
_symmetry_space_group_name_H-M "A M A 2"
_symmetry_group_IT_number 40
_symmetry_cell_setting 'orthorhombic'
loop_
_space_group_symop_operation_xyz
x,y,z
-x,-y,z
1/2-x,y,z
1/2+x,-y,z
x,1/2+y,1/2+z
-x,1/2-y,1/2+z
1/2-x,1/2+y,1/2+z
1/2+x,1/2-y,1/2+z
loop_
_atom_site_type_symbol
_atom_site_label
_atom_site_fract_x
_atom_site_fract_y
_atom_site_fract_z
Si Si1 0.561222 0.213527 0.910540
Si Si2 0.571312 0.646132 0.504796
Si Si3 0.938594 0.399316 0.326303
Si Si4 0.557988 0.789819 0.633523
Si Si5 0.571031 0.854576 0.536913
Si Si6 0.939832 0.399837 0.221480
Si Si7 0.059292 0.406988 0.601737
Si Si8 0.565919 0.595198 0.942002
O O1 0.750000 0.210532 0.912710
O O2 0.502526 0.170643 0.863444
O O3 0.510604 0.316462 0.919109
O O4 0.498747 0.153931 0.954112
O O5 0.750000 0.611207 0.499699
O O6 0.581600 0.749736 0.521832
O O7 0.496641 0.598326 0.548826
O O8 0.750000 0.400158 0.328045
O O9 0.988635 0.376743 0.273770
O O10 0.000000 0.500000 0.336393
O O11 0.750000 0.790640 0.631887
O O12 0.508973 0.849552 0.589113
O O13 0.506191 0.832415 0.681544
O O14 0.510315 0.685997 0.626178
O O15 0.750000 0.890793 0.535991
O O16 0.470633 0.899069 0.496818
O O17 0.750000 0.400800 0.220773
O O18 0.000000 0.500000 0.211531
O O19 0.250000 0.406809 0.600186
O O20 0.000000 0.500000 0.622837
O O21 0.500000 0.500000 0.924941
O O22 0.750000 0.599235 0.934372
#
# Coordination Sequence:
#
# PCOD9363256 Si02
#       8
#     8   8   8   8   8   8   8   8
#     4  10  19  34  54  74  98 129 166 207 251 297
#     4   7  13  26  43  62  87 121 155 189 230 276
#     4  10  20  34  52  75 100 126 160 203 254 309
#     4   8  15  30  51  70  94 131 167 200 245 297
#     4   8  14  28  47  66  91 125 165 203 240 283
#     4   9  18  33  52  73  96 124 159 201 250 301
#     4   9  16  28  45  66  94 127 161 193 229 275
#     4  11  21  33  49  72 103 137 171 204 243 292
#
# _framework density 17.445553
#
# number of rings (size 3 to 8) (size 9 to 14) (size 15 to 20)
#    0.000    3.000    0.000    4.125    0.000    1.500 
#    0.000   10.000    0.000    0.750    0.000    1.750 
#    0.000    0.000    0.000    0.000    0.000    0.000 
#
# Total GULP energy -178195.329885 kJ/mol
# GULP energy per Si atom -5568.604059 kJ/mol
# Density = 1.740585 g / cm^3
# Si number density = 17.445553 Si / 1000 Ang^3
#
#
#
# Elastic Constant Matrix: (Units=GPa)
#
#
# Indices 1 2 3 4 5 6 
#
# 1 33.7722 19.2967 22.6564 0.0000 0.0000 0.0000
# 2 19.2967 98.6036 76.5889 0.0000 0.0000 0.0000
# 3 22.6564 76.5889 128.0641 0.0000 0.0000 0.0000
# 4 0.0000 0.0000 0.0000 23.3900 0.0000 0.0000
# 5 0.0000 0.0000 0.0000 0.0000 16.2637 0.0000
# 6 0.0000 0.0000 0.0000 0.0000 0.0000 23.6123
#
#
#
# Elastic Compliance Matrix: (Units=1/GPa)
#
#
# Indices 1 2 3 4 5 6 
#
# 1 0.034319 -0.003735 -0.003838 0.000000 0.000000 0.000000
# 2 -0.003735 0.019346 -0.010909 0.000000 0.000000 0.000000
# 3 -0.003838 -0.010909 0.015012 0.000000 0.000000 0.000000
# 4 0.000000 0.000000 0.000000 0.042753 0.000000 0.000000
# 5 0.000000 0.000000 0.000000 0.000000 0.061487 0.000000
# 6 0.000000 0.000000 0.000000 0.000000 0.000000 0.042351
#
#
# Mechanical properties :
#
#
# Convention : Reuss Voigt Hill
#
# Bulk Modulus (GPa) = 31.53321 55.28043 43.40682
# Shear Modulus (GPa) = 19.02567 22.11305 20.56936
#
# Velocity S-wave (km/s) = 3.30597 3.56412 3.43747
# Velocity P-wave (km/s) = 5.71726 6.97807 6.37889
#
# Compressibility (1/GPa) = 0.03171260
#
# Stress axis : x y z
#
# Youngs Moduli (GPa) = 29.13838 51.68982 66.61453
#
# Poissons Ratio (x) = 0.19309 0.25564
# Poissons Ratio (y) = 0.10885 0.72671
# Poissons Ratio (z) = 0.11182 0.56389
#
# Static dielectric constant tensor:
#      x y z
#    x 1.599620 0.000000 0.000000 
#    y 0.000000 1.595090 0.000000 
#    z 0.000000 0.000000 1.618160 
# 
# From -- ./inp_files/26445.got.cif
#   From: 2010.05.17/outbox.cif.g08.bks.cpg/sg40_14_cif.got.tgz:26445.got - 2010.06.03 18:35:42.
