data_PCOD9363151
_publ_section_title
;
Structure prediction by ZEFSAII (Michael W. Deem and Ramdas Pophale) SiO2 
 PCOD9363151
Probable space group: A M A 2
;
_chemical_formula_sum "Si O2"
_cell_formula_units_Z 64
_cell_length_a 8.832741
_cell_length_b 14.927458
_cell_length_c 28.693415
_cell_angle_alpha 90.000000
_cell_angle_beta 90.000000
_cell_angle_gamma 90.000000
_cell_volume 3783.237393
_symmetry_space_group_name_H-M "A M A 2"
_symmetry_group_IT_number 40
_symmetry_cell_setting 'orthorhombic'
loop_
_space_group_symop_operation_xyz
x,y,z
-x,-y,z
1/2-x,y,z
1/2+x,-y,z
x,1/2+y,1/2+z
-x,1/2-y,1/2+z
1/2-x,1/2+y,1/2+z
1/2+x,1/2-y,1/2+z
loop_
_atom_site_type_symbol
_atom_site_label
_atom_site_fract_x
_atom_site_fract_y
_atom_site_fract_z
Si Si1 0.431562 0.401976 0.948470
Si Si2 0.073858 0.150171 0.734546
Si Si3 0.429385 0.220513 0.369672
Si Si4 0.932361 0.210459 0.643223
Si Si5 0.067391 0.592298 0.335123
Si Si6 0.926268 0.327012 0.767909
Si Si7 0.572589 0.408450 0.672279
Si Si8 0.432362 0.402657 0.055550
O O1 0.500000 0.500000 0.938057
O O2 0.250000 0.406250 0.945164
O O3 0.495035 0.329238 0.912798
O O4 0.473521 0.380094 0.002184
O O5 0.250000 0.132779 0.726562
O O6 0.022150 0.096450 0.780170
O O7 0.986884 0.147473 0.685760
O O8 0.043064 0.251060 0.752329
O O9 0.250000 0.230909 0.377013
O O10 0.501256 0.317769 0.358592
O O11 0.449495 0.159980 0.322698
O O12 0.750000 0.212628 0.644725
O O13 0.985398 0.312968 0.652285
O O14 0.981623 0.169122 0.594134
O O15 0.250000 0.593491 0.337701
O O16 0.000000 0.500000 0.354772
O O17 0.750000 0.294092 0.762775
O O18 0.943005 0.402027 0.728674
O O19 0.500000 0.500000 0.655097
O O20 0.750000 0.411786 0.661774
O O21 0.500000 0.500000 0.066379
O O22 0.250000 0.408556 0.057521
#
# Coordination Sequence:
#
# PCOD9363151 Si02
#       8
#     8   8   8   8   8   8   8   8
#     4  10  20  35  54  76 100 126 160 203 254 308
#     4   9  17  28  44  68  95 124 161 202 239 278
#     4  10  19  33  53  75 100 131 167 206 250 299
#     4   9  18  33  50  68  95 131 165 199 246 298
#     4  10  20  33  49  72 103 138 173 207 245 292
#     4   8  16  30  45  63  91 127 161 193 233 281
#     4   9  17  29  45  66  94 127 161 194 230 275
#     4   9  19  35  54  74  96 124 158 200 250 301
#
# _framework density 16.916729
#
# number of rings (size 3 to 8) (size 9 to 14) (size 15 to 20)
#    0.000    2.750    0.000    2.250    0.000    6.000 
#    0.000    3.750    0.000    0.750    0.000    1.750 
#    0.000    0.000    0.000    0.000    0.000    0.000 
#
# Total GULP energy -178138.657257 kJ/mol
# GULP energy per Si atom -5566.833039 kJ/mol
# Density = 1.687823 g / cm^3
# Si number density = 16.916729 Si / 1000 Ang^3
#
#
#
# Elastic Constant Matrix: (Units=GPa)
#
#
# Indices 1 2 3 4 5 6 
#
# 1 28.1166 38.8278 36.0195 0.0000 0.0000 0.0000
# 2 38.8278 107.7191 74.8511 0.0000 0.0000 0.0000
# 3 36.0195 74.8511 110.9221 0.0000 0.0000 0.0000
# 4 0.0000 0.0000 0.0000 21.6011 0.0000 0.0000
# 5 0.0000 0.0000 0.0000 0.0000 84.4404 0.0000
# 6 0.0000 0.0000 0.0000 0.0000 0.0000 23.0203
#
#
#
# Elastic Compliance Matrix: (Units=1/GPa)
#
#
# Indices 1 2 3 4 5 6 
#
# 1 0.078530 -0.019934 -0.012050 0.000000 0.000000 0.000000
# 2 -0.019934 0.022540 -0.008737 0.000000 0.000000 0.000000
# 3 -0.012050 -0.008737 0.018824 0.000000 0.000000 0.000000
# 4 0.000000 0.000000 0.000000 0.046294 0.000000 0.000000
# 5 0.000000 0.000000 0.000000 0.000000 0.011843 0.000000
# 6 0.000000 0.000000 0.000000 0.000000 0.000000 0.043440
#
#
# Mechanical properties :
#
#
# Convention : Reuss Voigt Hill
#
# Bulk Modulus (GPa) = 26.00545 60.68382 43.34464
# Shear Modulus (GPa) = 15.83643 32.28299 24.05971
#
# Velocity S-wave (km/s) = 3.06296 4.37320 3.77536
# Velocity P-wave (km/s) = 5.28346 7.83899 6.68449
#
# Compressibility (1/GPa) = 0.03845348
#
# Stress axis : x y z
#
# Youngs Moduli (GPa) = 12.73398 44.36647 53.12406
#
# Poissons Ratio (x) = 0.88438 0.64012
# Poissons Ratio (y) = 0.25383 0.46414
# Poissons Ratio (z) = 0.15344 0.38762
#
# Static dielectric constant tensor:
#      x y z
#    x 1.518150 0.000000 0.000000 
#    y 0.000000 1.569810 0.000000 
#    z 0.000000 0.000000 1.585840 
# 
# From -- ./inp_files/26487.got.cif
#   From: 2010.05.17/outbox.cif.g08.bks.cpg/sg40_14_cif.got.tgz:26487.got - 2010.06.03 18:35:42.
