data_PCOD9363982
_publ_section_title
;
Structure prediction by ZEFSAII (Michael W. Deem and Ramdas Pophale) SiO2 
 PCOD9363982
Probable space group: A M A 2
;
_chemical_formula_sum "Si O2"
_cell_formula_units_Z 64
_cell_length_a 17.519543
_cell_length_b 16.853030
_cell_length_c 11.284997
_cell_angle_alpha 90.000000
_cell_angle_beta 90.000000
_cell_angle_gamma 90.000000
_cell_volume 3331.978690
_symmetry_space_group_name_H-M "A M A 2"
_symmetry_group_IT_number 40
_symmetry_cell_setting 'orthorhombic'
loop_
_space_group_symop_operation_xyz
x,y,z
-x,-y,z
1/2-x,y,z
1/2+x,-y,z
x,1/2+y,1/2+z
-x,1/2-y,1/2+z
1/2-x,1/2+y,1/2+z
1/2+x,1/2-y,1/2+z
loop_
_atom_site_type_symbol
_atom_site_label
_atom_site_fract_x
_atom_site_fract_y
_atom_site_fract_z
Si Si1 0.158930 0.523197 0.638320
Si Si2 0.563866 0.768782 0.571443
Si Si3 0.162440 0.418622 0.857362
Si Si4 0.427774 0.665182 0.506671
Si Si5 0.162676 0.239017 0.796702
Si Si6 0.523651 0.091168 0.530920
Si Si7 0.839710 0.626420 0.466036
Si Si8 0.466606 0.912059 0.803709
O O1 0.250000 0.540833 0.633803
O O2 0.140634 0.491191 0.770328
O O3 0.110991 0.596103 0.584740
O O4 0.145110 0.445443 0.557570
O O5 0.484364 0.719781 0.584115
O O6 0.606526 0.791173 0.693590
O O7 0.540291 0.844961 0.492180
O O8 0.621615 0.708037 0.507638
O O9 0.250000 0.430915 0.897020
O O10 0.161741 0.334726 0.787646
O O11 0.102057 0.404958 0.960349
O O12 0.366096 0.712899 0.427178
O O13 0.482955 0.630917 0.403647
O O14 0.250000 0.212153 0.779260
O O15 0.531158 0.114378 0.668475
O O16 0.500000 0.000000 0.522629
O O17 0.750000 0.636807 0.455425
O O18 0.880290 0.596850 0.347202
O O19 0.500000 0.000000 0.804066
#
# Coordination Sequence:
#
# PCOD9363982 Si02
#       8
#     8   8   8   8   8   8   8   8
#     4  10  20  37  62  98 130 163 211 266 325 393
#     4  11  22  37  60  91 124 164 216 268 325 391
#     4  10  22  42  63  87 127 173 217 263 328 399
#     4  11  21  36  62  96 129 161 216 275 326 381
#     4  11  21  38  63  92 126 171 215 267 333 399
#     4  11  24  42  61  84 121 172 219 267 321 394
#     4  10  20  36  61  91 127 161 201 267 332 384
#     4  10  20  36  58  87 124 157 206 258 316 379
#
# _framework density 19.207806000000001
#
# number of rings (size 3 to 8) (size 9 to 14) (size 15 to 20)
#    0.000    1.500    5.000    0.750    0.000    1.500 
#    0.000    1.250    0.000    1.500    0.000    0.000 
#    0.000    0.000    0.000    0.000    0.000    0.000 
#
# Total GULP energy -178384.991115 kJ/mol
# GULP energy per Si atom -5574.530972 kJ/mol
# Density = 1.916409 g / cm^3
# Si number density = 19.207806 Si / 1000 Ang^3
#
#
#
# Elastic Constant Matrix: (Units=GPa)
#
#
# Indices 1 2 3 4 5 6 
#
# 1 124.3330 63.3762 55.5824 0.0000 0.0000 0.0000
# 2 63.3762 106.7670 29.5900 0.0000 0.0000 0.0000
# 3 55.5824 29.5900 60.7607 0.0000 0.0000 0.0000
# 4 0.0000 0.0000 0.0000 4.7401 0.0000 0.0000
# 5 0.0000 0.0000 0.0000 0.0000 32.0520 0.0000
# 6 0.0000 0.0000 0.0000 0.0000 0.0000 21.9511
#
#
#
# Elastic Compliance Matrix: (Units=1/GPa)
#
#
# Indices 1 2 3 4 5 6 
#
# 1 0.016888 -0.006639 -0.012215 0.000000 0.000000 0.000000
# 2 -0.006639 0.013438 -0.000471 0.000000 0.000000 0.000000
# 3 -0.012215 -0.000471 0.027862 0.000000 0.000000 0.000000
# 4 0.000000 0.000000 0.000000 0.210967 0.000000 0.000000
# 5 0.000000 0.000000 0.000000 0.000000 0.031199 0.000000
# 6 0.000000 0.000000 0.000000 0.000000 0.000000 0.045556
#
#
# Mechanical properties :
#
#
# Convention : Reuss Voigt Hill
#
# Bulk Modulus (GPa) = 51.18601 65.43977 58.31289
# Shear Modulus (GPa) = 12.78537 21.30278 17.04407
#
# Velocity S-wave (km/s) = 2.58279 3.33388 2.98208
# Velocity P-wave (km/s) = 5.96664 6.99736 6.50245
#
# Compressibility (1/GPa) = 0.01953659
#
# Stress axis : x y z
#
# Youngs Moduli (GPa) = 59.21400 74.41826 35.89163
#
# Poissons Ratio (x) = 0.49407 0.43843
# Poissons Ratio (y) = 0.39313 0.01690
# Poissons Ratio (z) = 0.72333 0.03503
#
# Static dielectric constant tensor:
#      x y z
#    x 1.679700 0.000000 0.000000 
#    y 0.000000 1.742530 0.000000 
#    z 0.000000 0.000000 1.688630 
# 
# From -- ./inp_files/13170.got.cif
#   From: 2010.05.17/outbox.cif.g08.bks.cpg/sg40_7_cif.got.tgz:13170.got - 2010.06.03 18:35:42.
