data_PCOD9363453
_publ_section_title
;
Structure prediction by ZEFSAII (Michael W. Deem and Ramdas Pophale) SiO2 
 PCOD9363453
Probable space group: A M A 2
;
_chemical_formula_sum "Si O2"
_cell_formula_units_Z 64
_cell_length_a 17.668774
_cell_length_b 20.729043
_cell_length_c 8.737476
_cell_angle_alpha 90.000000
_cell_angle_beta 90.000000
_cell_angle_gamma 90.000000
_cell_volume 3200.159790
_symmetry_space_group_name_H-M "A M A 2"
_symmetry_group_IT_number 40
_symmetry_cell_setting 'orthorhombic'
loop_
_space_group_symop_operation_xyz
x,y,z
-x,-y,z
1/2-x,y,z
1/2+x,-y,z
x,1/2+y,1/2+z
-x,1/2-y,1/2+z
1/2-x,1/2+y,1/2+z
1/2+x,1/2-y,1/2+z
loop_
_atom_site_type_symbol
_atom_site_label
_atom_site_fract_x
_atom_site_fract_y
_atom_site_fract_z
Si Si1 0.403628 0.865596 0.679610
Si Si2 0.905577 0.271076 0.297863
Si Si3 0.939003 0.276650 0.656915
Si Si4 0.938078 0.412462 0.801522
Si Si5 0.331485 0.855419 0.366616
Si Si6 0.572767 0.403686 0.166436
Si Si7 0.838526 0.517382 0.337275
Si Si8 0.898861 0.540853 0.670956
O O1 0.397083 0.789104 0.710881
O O2 0.393895 0.869367 0.496015
O O3 0.486801 0.891653 0.726037
O O4 0.344808 0.913351 0.755560
O O5 0.931019 0.283019 0.473939
O O6 0.842010 0.216929 0.308259
O O7 0.885677 0.337831 0.216627
O O8 0.974756 0.238321 0.205524
O O9 0.914854 0.342974 0.736030
O O10 0.886834 0.473208 0.756740
O O11 0.018505 0.431185 0.720286
O O12 0.937640 0.409738 0.984589
O O13 0.250000 0.862974 0.440669
O O14 0.341935 0.905215 0.230538
O O15 0.616639 0.464286 0.236577
O O16 0.750000 0.500151 0.359885
O O17 0.884255 0.525780 0.495037
#
# Coordination Sequence:
#
# PCOD9363453 Si02
#       8
#     8   8   8   8   8   8   8   8
#     4  10  22  38  65  97 125 171 218 270 325 386
#     4  10  21  35  60  94 125 167 210 268 329 389
#     4  10  19  36  59  94 128 158 207 274 331 376
#     4  11  22  39  65  96 125 163 220 280 325 375
#     4  11  21  40  63  90 135 175 212 261 328 403
#     4  11  23  41  68  94 130 169 224 280 324 391
#     4  12  27  43  63  95 135 174 216 270 341 408
#     4  11  24  38  61  94 129 166 218 270 329 397
#
# _framework density 19.999001
#
# number of rings (size 3 to 8) (size 9 to 14) (size 15 to 20)
#    0.000    1.250    2.500    4.125    8.750    1.500 
#    0.000    0.625    0.000    6.000    0.000    0.000 
#    0.000    0.000    0.000    0.000    0.000    0.000 
#
# Total GULP energy -178569.898209 kJ/mol
# GULP energy per Si atom -5580.309319 kJ/mol
# Density = 1.995348 g / cm^3
# Si number density = 19.999001 Si / 1000 Ang^3
#
#
#
# Elastic Constant Matrix: (Units=GPa)
#
#
# Indices 1 2 3 4 5 6 
#
# 1 60.5348 37.5022 35.1917 0.0000 0.0000 0.0000
# 2 37.5022 138.2689 78.7092 0.0000 0.0000 0.0000
# 3 35.1917 78.7092 114.6781 0.0000 0.0000 0.0000
# 4 0.0000 0.0000 0.0000 36.9189 0.0000 0.0000
# 5 0.0000 0.0000 0.0000 0.0000 11.6305 0.0000
# 6 0.0000 0.0000 0.0000 0.0000 0.0000 2.5241
#
#
#
# Elastic Compliance Matrix: (Units=1/GPa)
#
#
# Indices 1 2 3 4 5 6 
#
# 1 0.020999 -0.003327 -0.004161 0.000000 0.000000 0.000000
# 2 -0.003327 0.012397 -0.007488 0.000000 0.000000 0.000000
# 3 -0.004161 -0.007488 0.015136 0.000000 0.000000 0.000000
# 4 0.000000 0.000000 0.000000 0.027086 0.000000 0.000000
# 5 0.000000 0.000000 0.000000 0.000000 0.085981 0.000000
# 6 0.000000 0.000000 0.000000 0.000000 0.000000 0.396186
#
#
# Mechanical properties :
#
#
# Convention : Reuss Voigt Hill
#
# Bulk Modulus (GPa) = 53.81675 68.47647 61.14661
# Shear Modulus (GPa) = 8.41851 21.01995 14.71923
#
# Velocity S-wave (km/s) = 2.05392 3.24551 2.71587
# Velocity P-wave (km/s) = 5.70902 6.95404 6.36206
#
# Compressibility (1/GPa) = 0.01858157
#
# Stress axis : x y z
#
# Youngs Moduli (GPa) = 47.62042 80.66436 66.06783
#
# Poissons Ratio (x) = 0.26839 0.27488
# Poissons Ratio (y) = 0.15844 0.49469
# Poissons Ratio (z) = 0.19813 0.60399
#
# Static dielectric constant tensor:
#      x y z
#    x 1.725390 0.000000 0.000000 
#    y 0.000000 1.724570 0.000000 
#    z 0.000000 0.000000 1.709550 
# 
# From -- ./inp_files/7848.got.cif
#   From: 2010.05.17/outbox.cif.g08.bks.cpg/sg40_4_cif.got.tgz:7848.got - 2010.06.03 18:35:42.
