data_PCOD9363416
_publ_section_title
;
Structure prediction by ZEFSAII (Michael W. Deem and Ramdas Pophale) SiO2 
 PCOD9363416
Probable space group: A M A 2
;
_chemical_formula_sum "Si O2"
_cell_formula_units_Z 60
_cell_length_a 26.474014
_cell_length_b 7.523607
_cell_length_c 14.362790
_cell_angle_alpha 90.000000
_cell_angle_beta 90.000000
_cell_angle_gamma 90.000000
_cell_volume 2860.781619
_symmetry_space_group_name_H-M "A M A 2"
_symmetry_group_IT_number 40
_symmetry_cell_setting 'orthorhombic'
loop_
_space_group_symop_operation_xyz
x,y,z
-x,-y,z
1/2-x,y,z
1/2+x,-y,z
x,1/2+y,1/2+z
-x,1/2-y,1/2+z
1/2-x,1/2+y,1/2+z
1/2+x,1/2-y,1/2+z
loop_
_atom_site_type_symbol
_atom_site_label
_atom_site_fract_x
_atom_site_fract_y
_atom_site_fract_z
Si Si1 0.127555 0.437581 0.939110
Si Si2 0.809702 0.921072 0.969665
Si Si3 0.000000 0.500000 0.245482
Si Si4 0.195236 0.974436 0.753850
Si Si5 0.304918 0.567393 0.795466
Si Si6 0.600350 0.094032 0.639315
Si Si7 0.124943 0.481522 0.638825
Si Si8 0.545796 0.139752 0.279268
O O1 0.165247 0.274760 0.964609
O O2 0.162610 0.580979 0.888806
O O3 0.085742 0.394633 0.861469
O O4 0.101423 0.481212 0.035426
O O5 0.750000 0.919947 0.998611
O O6 0.811322 0.980916 0.862314
O O7 0.845455 0.033877 0.040429
O O8 0.046648 0.433275 0.185013
O O9 0.021997 0.668358 0.298676
O O10 0.250000 0.046804 0.721544
O O11 0.199258 0.760822 0.751459
O O12 0.145100 0.007350 0.694751
O O13 0.250000 0.494368 0.817281
O O14 0.333341 0.450216 0.719325
O O15 0.609783 0.307820 0.641222
O O16 0.076049 0.377803 0.679988
O O17 0.500000 0.000000 0.279126
#
# Coordination Sequence:
#
# PCOD9363416 Si02
#       8
#     8   8   4   8   8   8   8   8
#     4  10  22  36  58  88 122 155 208 260 306 374
#     4  10  19  35  60  92 127 162 204 256 316 381
#     4  12  24  40  66  86 120 164 208 264 316 370
#     4   9  19  35  57  84 121 160 201 251 308 373
#     4   9  17  32  55  83 115 157 194 238 303 367
#     4  10  21  38  58  88 118 162 208 251 314 368
#     4   9  19  37  59  84 123 159 204 255 307 376
#     4  11  23  43  63  88 124 163 211 265 318 376
#
# _framework density 20.973289000000001
#
# number of rings (size 3 to 8) (size 9 to 14) (size 15 to 20)
#    0.000    2.133    1.333    1.600    0.933    4.800 
#    0.000    4.000    1.467    7.200    0.000    0.000 
#    0.000    0.000    0.000    0.000    0.000    0.000 
#
# Total GULP energy -167227.580198 kJ/mol
# GULP energy per Si atom -5574.252673 kJ/mol
# Density = 2.092555 g / cm^3
# Si number density = 20.973289 Si / 1000 Ang^3
#
#
#
# Elastic Constant Matrix: (Units=GPa)
#
#
# Indices 1 2 3 4 5 6 
#
# 1 134.5128 17.3839 44.8958 0.0000 0.0000 0.0000
# 2 17.3839 38.6399 -7.3453 0.0000 0.0000 0.0000
# 3 44.8958 -7.3453 76.9125 0.0000 0.0000 0.0000
# 4 0.0000 0.0000 0.0000 17.8850 0.0000 0.0000
# 5 0.0000 0.0000 0.0000 0.0000 -104.8359 0.0000
# 6 0.0000 0.0000 0.0000 0.0000 0.0000 24.3260
#
#
#
# Elastic Compliance Matrix: (Units=1/GPa)
#
#
# Indices 1 2 3 4 5 6 
#
# 1 0.010425 -0.005955 -0.006654 0.000000 0.000000 0.000000
# 2 -0.005955 0.029760 0.006318 0.000000 0.000000 0.000000
# 3 -0.006654 0.006318 0.017489 0.000000 0.000000 0.000000
# 4 0.000000 0.000000 0.000000 0.055913 0.000000 0.000000
# 5 0.000000 0.000000 0.000000 0.000000 -0.009539 0.000000
# 6 0.000000 0.000000 0.000000 0.000000 0.000000 0.041108
#
#
# Mechanical properties :
#
#
# Convention : Reuss Voigt Hill
#
# Bulk Modulus (GPa) = 22.17643 39.99266 31.08454
# Shear Modulus (GPa) = 28.94049 0.48373 14.71211
#
# Velocity S-wave (km/s) = 3.71870 0.48077 2.65140
# Velocity P-wave (km/s) = 5.38840 4.40658 4.92203
#
# Compressibility (1/GPa) = 0.04509291
#
# Stress axis : x y z
#
# Youngs Moduli (GPa) = 95.92646 33.60200 57.17812
#
# Poissons Ratio (x) = 0.20010 0.38045
# Poissons Ratio (y) = 0.57123 -0.36126
# Poissons Ratio (z) = 0.63828 -0.21230
#
# Static dielectric constant tensor:
#      x y z
#    x 1.817420 0.000000 0.000000 
#    y 0.000000 1.818710 0.000000 
#    z 0.000000 0.000000 1.744050 
# 
# From -- ./inp_files/18469.got.cif
#   From: 2010.05.17/outbox.cif.g08.bks.cpg/sg40_10_cif.got.tgz:18469.got - 2010.06.03 18:35:42.
