data_PCOD9363729
_publ_section_title
;
Structure prediction by ZEFSAII (Michael W. Deem and Ramdas Pophale) SiO2 
 PCOD9363729
Probable space group: A M A 2
;
_chemical_formula_sum "Si O2"
_cell_formula_units_Z 60
_cell_length_a 9.620455
_cell_length_b 15.318479
_cell_length_c 18.978840
_cell_angle_alpha 90.000000
_cell_angle_beta 90.000000
_cell_angle_gamma 90.000000
_cell_volume 2796.925655
_symmetry_space_group_name_H-M "A M A 2"
_symmetry_group_IT_number 40
_symmetry_cell_setting 'orthorhombic'
loop_
_space_group_symop_operation_xyz
x,y,z
-x,-y,z
1/2-x,y,z
1/2+x,-y,z
x,1/2+y,1/2+z
-x,1/2-y,1/2+z
1/2-x,1/2+y,1/2+z
1/2+x,1/2-y,1/2+z
loop_
_atom_site_type_symbol
_atom_site_label
_atom_site_fract_x
_atom_site_fract_y
_atom_site_fract_z
Si Si1 0.917628 0.410860 0.809970
Si Si2 0.588592 0.187159 0.956548
Si Si3 0.470617 0.116980 0.477342
Si Si4 0.092063 0.919760 0.092691
Si Si5 0.750000 0.024246 0.514931
Si Si6 0.906837 0.418850 0.367737
Si Si7 0.592410 0.918444 0.698279
Si Si8 0.413068 0.278208 0.714890
O O1 0.750000 0.416888 0.797228
O O2 0.000000 0.500000 0.788851
O O3 0.941484 0.401803 0.894029
O O4 0.988573 0.328073 0.770944
O O5 0.750000 0.175703 0.935833
O O6 0.568955 0.282914 0.987178
O O7 0.486274 0.167576 0.892221
O O8 0.550995 0.118876 0.017401
O O9 0.369598 0.052645 0.518308
O O10 0.627063 0.096150 0.498117
O O11 0.250000 0.950423 0.087395
O O12 0.086606 0.841999 0.148352
O O13 0.000000 0.000000 0.115217
O O14 0.750000 0.422760 0.395027
O O15 0.901681 0.424426 0.283442
O O16 0.000000 0.500000 0.391757
O O17 0.750000 0.928801 0.671694
O O18 0.542469 0.818668 0.689260
O O19 0.500000 0.000000 0.673351
O O20 0.250000 0.270358 0.739778
#
# Coordination Sequence:
#
# PCOD9363729 Si02
#       8
#     8   8   8   8   4   8   8   8
#     4  12  21  33  54  85 119 153 185 229 282 340
#     4  11  22  36  58  81 112 148 192 234 282 335
#     4  11  20  36  55  84 117 152 184 226 283 341
#     4  10  23  43  61  80 110 149 188 236 283 327
#     4  10  20  36  56  78 120 156 180 224 280 338
#     4  10  20  34  53  84 114 146 182 225 282 342
#     4   9  19  36  58  82 114 145 177 225 280 333
#     4  10  22  38  59  82 110 149 195 234 280 334
#
# _framework density 21.452124999999999
#
# number of rings (size 3 to 8) (size 9 to 14) (size 15 to 20)
#    0.000    1.600    2.667    2.400    1.867    4.267 
#    0.000    0.000    2.933    0.000    0.000    0.000 
#    0.000    0.000    0.000    0.000    0.000    0.000 
#
# Total GULP energy -167112.225510 kJ/mol
# GULP energy per Si atom -5570.407517 kJ/mol
# Density = 2.140330 g / cm^3
# Si number density = 21.452125 Si / 1000 Ang^3
#
#
#
# Elastic Constant Matrix: (Units=GPa)
#
#
# Indices 1 2 3 4 5 6 
#
# 1 134.5364 44.4581 24.4406 0.0000 0.0000 0.0000
# 2 44.4581 137.7683 13.6670 0.0000 0.0000 0.0000
# 3 24.4406 13.6670 51.3992 0.0000 0.0000 0.0000
# 4 0.0000 0.0000 0.0000 160.6467 0.0000 0.0000
# 5 0.0000 0.0000 0.0000 0.0000 14.1166 0.0000
# 6 0.0000 0.0000 0.0000 0.0000 0.0000 40.2152
#
#
#
# Elastic Compliance Matrix: (Units=1/GPa)
#
#
# Indices 1 2 3 4 5 6 
#
# 1 0.008915 -0.002523 -0.003568 0.000000 0.000000 0.000000
# 2 -0.002523 0.008169 -0.000973 0.000000 0.000000 0.000000
# 3 -0.003568 -0.000973 0.021411 0.000000 0.000000 0.000000
# 4 0.000000 0.000000 0.000000 0.006225 0.000000 0.000000
# 5 0.000000 0.000000 0.000000 0.000000 0.070839 0.000000
# 6 0.000000 0.000000 0.000000 0.000000 0.000000 0.024866
#
#
# Mechanical properties :
#
#
# Convention : Reuss Voigt Hill
#
# Bulk Modulus (GPa) = 41.03806 54.31504 47.67655
# Shear Modulus (GPa) = 30.73621 59.07157 44.90389
#
# Velocity S-wave (km/s) = 3.78932 5.25321 4.58013
# Velocity P-wave (km/s) = 6.19006 7.88474 7.08823
#
# Compressibility (1/GPa) = 0.02436762
#
# Stress axis : x y z
#
# Youngs Moduli (GPa) = 112.17247 122.41140 46.70524
#
# Poissons Ratio (x) = 0.30883 0.16665
# Poissons Ratio (y) = 0.28300 0.04542
# Poissons Ratio (z) = 0.40026 0.11905
#
# Static dielectric constant tensor:
#      x y z
#    x 1.758510 0.000000 0.000000 
#    y 0.000000 1.768200 0.000000 
#    z 0.000000 0.000000 1.856960 
# 
# From -- ./inp_files/24191.got.cif
#   From: 2010.05.17/outbox.cif.g08.bks.cpg/sg40_13_cif.got.tgz:24191.got - 2010.06.03 18:35:42.
