data_PCOD9363223
_publ_section_title
;
Structure prediction by ZEFSAII (Michael W. Deem and Ramdas Pophale) SiO2 
 PCOD9363223
Probable space group: A M A 2
;
_chemical_formula_sum "Si O2"
_cell_formula_units_Z 60
_cell_length_a 13.754146
_cell_length_b 15.166997
_cell_length_c 11.847052
_cell_angle_alpha 90.000000
_cell_angle_beta 90.000000
_cell_angle_gamma 90.000000
_cell_volume 2471.402750
_symmetry_space_group_name_H-M "A M A 2"
_symmetry_group_IT_number 40
_symmetry_cell_setting 'orthorhombic'
loop_
_space_group_symop_operation_xyz
x,y,z
-x,-y,z
1/2-x,y,z
1/2+x,-y,z
x,1/2+y,1/2+z
-x,1/2-y,1/2+z
1/2-x,1/2+y,1/2+z
1/2+x,1/2-y,1/2+z
loop_
_atom_site_type_symbol
_atom_site_label
_atom_site_fract_x
_atom_site_fract_y
_atom_site_fract_z
Si Si1 0.860008 0.424810 0.279170
Si Si2 0.020370 0.289461 0.285283
Si Si3 0.000000 0.500000 0.597218
Si Si4 0.362094 0.852205 0.574915
Si Si5 0.360722 0.549478 0.783747
Si Si6 0.133839 0.547434 0.024236
Si Si7 0.862605 0.098648 0.922854
Si Si8 0.144375 0.837749 0.317619
O O1 0.750000 0.400638 0.312322
O O2 0.945011 0.365633 0.327155
O O3 0.871626 0.407353 0.145096
O O4 0.871027 0.526398 0.319309
O O5 0.949949 0.207600 0.269304
O O6 0.073518 0.305621 0.167092
O O7 0.104231 0.305674 0.378067
O O8 0.069971 0.558191 0.677297
O O9 0.070726 0.440500 0.521224
O O10 0.250000 0.860126 0.615603
O O11 0.404549 0.949765 0.551822
O O12 0.358263 0.812579 0.450153
O O13 0.250000 0.580173 0.762204
O O14 0.358187 0.443287 0.804600
O O15 0.401032 0.584854 0.904367
O O16 0.250000 0.535399 0.002507
O O17 0.750000 0.099570 0.957303
O O18 0.250000 0.809282 0.270902
#
# Coordination Sequence:
#
# PCOD9363223 Si02
#       8
#     8   8   4   8   8   8   8   8
#     4  10  19  33  55  88 122 143 177 243 304 345
#     4  12  20  33  59  90 115 151 197 235 292 358
#     4  12  22  38  58  86 114 164 206 238 292 366
#     4   9  18  34  56  78 107 146 190 239 289 344
#     4   9  20  39  61  83 114 157 200 244 293 352
#     4   8  15  31  55  81 109 141 182 237 293 335
#     4  11  23  38  55  84 124 155 191 243 302 356
#     4   9  21  40  58  83 118 158 199 242 296 356
#
# _framework density 24.277709000000002
#
# number of rings (size 3 to 8) (size 9 to 14) (size 15 to 20)
#    0.000    2.133    2.667    2.800    0.000    3.200 
#    0.000    0.000    0.000    4.800    0.000    0.000 
#    0.000    0.000    0.000    0.000    0.000    0.000 
#
# Total GULP energy -167591.415982 kJ/mol
# GULP energy per Si atom -5586.380533 kJ/mol
# Density = 2.422245 g / cm^3
# Si number density = 24.277709 Si / 1000 Ang^3
#
#
#
# Elastic Constant Matrix: (Units=GPa)
#
#
# Indices 1 2 3 4 5 6 
#
# 1 154.8685 32.0047 61.3206 0.0000 0.0000 0.0000
# 2 32.0047 49.9580 -0.0610 0.0000 0.0000 0.0000
# 3 61.3206 -0.0610 112.3912 0.0000 0.0000 0.0000
# 4 0.0000 0.0000 0.0000 9.2905 0.0000 0.0000
# 5 0.0000 0.0000 0.0000 0.0000 45.5901 0.0000
# 6 0.0000 0.0000 0.0000 0.0000 0.0000 25.8857
#
#
#
# Elastic Compliance Matrix: (Units=1/GPa)
#
#
# Indices 1 2 3 4 5 6 
#
# 1 0.009914 -0.006358 -0.005413 0.000000 0.000000 0.000000
# 2 -0.006358 0.024094 0.003482 0.000000 0.000000 0.000000
# 3 -0.005413 0.003482 0.011852 0.000000 0.000000 0.000000
# 4 0.000000 0.000000 0.000000 0.107637 0.000000 0.000000
# 5 0.000000 0.000000 0.000000 0.000000 0.021935 0.000000
# 6 0.000000 0.000000 0.000000 0.000000 0.000000 0.038631
#
#
# Mechanical properties :
#
#
# Convention : Reuss Voigt Hill
#
# Bulk Modulus (GPa) = 34.14876 55.97182 45.06029
# Shear Modulus (GPa) = 20.79851 31.08349 25.94100
#
# Velocity S-wave (km/s) = 2.93011 3.58205 3.27235
# Velocity P-wave (km/s) = 5.05409 6.34137 5.73397
#
# Compressibility (1/GPa) = 0.02928364
#
# Stress axis : x y z
#
# Youngs Moduli (GPa) = 100.86606 41.50388 84.37043
#
# Poissons Ratio (x) = 0.26388 0.45666
# Poissons Ratio (y) = 0.64130 -0.29377
# Poissons Ratio (z) = 0.54595 -0.14451
#
# Static dielectric constant tensor:
#      x y z
#    x 1.982370 0.000000 0.000000 
#    y 0.000000 1.991160 0.000000 
#    z 0.000000 0.000000 1.959150 
# 
# From -- ./inp_files/12542.got.cif
#   From: 2010.05.17/outbox.cif.g08.bks.cpg/sg40_7_cif.got.tgz:12542.got - 2010.06.03 18:35:42.
