data_PCOD9363245
_publ_section_title
;
Structure prediction by ZEFSAII (Michael W. Deem and Ramdas Pophale) SiO2 
 PCOD9363245
Probable space group: A M A 2
;
_chemical_formula_sum "Si O2"
_cell_formula_units_Z 64
_cell_length_a 14.730493
_cell_length_b 21.799949
_cell_length_c 11.191479
_cell_angle_alpha 90.000000
_cell_angle_beta 90.000000
_cell_angle_gamma 90.000000
_cell_volume 3593.852459
_symmetry_space_group_name_H-M "A M A 2"
_symmetry_group_IT_number 40
_symmetry_cell_setting 'orthorhombic'
loop_
_space_group_symop_operation_xyz
x,y,z
-x,-y,z
1/2-x,y,z
1/2+x,-y,z
x,1/2+y,1/2+z
-x,1/2-y,1/2+z
1/2-x,1/2+y,1/2+z
1/2+x,1/2-y,1/2+z
loop_
_atom_site_type_symbol
_atom_site_label
_atom_site_fract_x
_atom_site_fract_y
_atom_site_fract_z
Si Si1 0.353000 0.724121 0.986590
Si Si2 0.504854 0.174576 0.051230
Si Si3 0.648835 0.016599 0.915524
Si Si4 0.643953 0.410505 0.103149
Si Si5 0.971059 0.410215 0.340793
Si Si6 0.642712 0.337414 0.736620
Si Si7 0.578054 0.049071 0.155348
Si Si8 0.858747 0.467865 0.856139
O O1 0.250000 0.749080 0.995403
O O2 0.372336 0.707851 0.848462
O O3 0.425833 0.769649 0.042056
O O4 0.353962 0.658021 0.049934
O O5 0.413026 0.185722 0.123707
O O6 0.548723 0.117988 0.126189
O O7 0.484050 0.151266 0.917028
O O8 0.750000 0.021497 0.864295
O O9 0.569595 0.056535 0.850968
O O10 0.606440 0.948976 0.909971
O O11 0.651990 0.035664 0.053868
O O12 0.750000 0.424446 0.137937
O O13 0.571208 0.409759 0.209253
O O14 0.616085 0.455369 0.993804
O O15 0.750000 0.339986 0.713002
O O16 0.615452 0.406514 0.780356
O O17 0.500000 0.000000 0.122599
O O18 0.605233 0.027930 0.288061
O O19 0.750000 0.469867 0.854535
#
# Coordination Sequence:
#
# PCOD9363245 Si02
#       8
#     8   8   8   8   8   8   8   8
#     4   9  21  38  55  76 108 147 188 231 284 339
#     4  11  21  32  57  83 112 142 185 236 290 331
#     4  10  19  34  52  77 117 145 173 226 278 336
#     4   9  19  37  57  79 110 150 193 231 275 337
#     4  10  20  34  52  86 110 143 192 222 278 336
#     4   9  18  35  55  78 104 139 186 230 271 325
#     4  11  18  33  49  85 114 136 181 227 290 335
#     4   9  17  32  56  80 107 145 182 225 278 332
#
# _framework density 17.808188000000001
#
# number of rings (size 3 to 8) (size 9 to 14) (size 15 to 20)
#    0.000    2.250    3.750    2.250    1.750    4.500 
#    2.250    0.000    0.000    0.000    0.000    2.625 
#    0.000    0.000    0.000    0.000    0.000    0.000 
#
# Total GULP energy -178160.693692 kJ/mol
# GULP energy per Si atom -5567.521678 kJ/mol
# Density = 1.776766 g / cm^3
# Si number density = 17.808188 Si / 1000 Ang^3
#
#
#
# Elastic Constant Matrix: (Units=GPa)
#
#
# Indices 1 2 3 4 5 6 
#
# 1 88.7890 19.9064 40.1788 0.0000 0.0000 0.0000
# 2 19.9064 46.1032 25.0094 0.0000 0.0000 0.0000
# 3 40.1788 25.0094 98.5021 0.0000 0.0000 0.0000
# 4 0.0000 0.0000 0.0000 10.1461 0.0000 0.0000
# 5 0.0000 0.0000 0.0000 0.0000 24.0005 0.0000
# 6 0.0000 0.0000 0.0000 0.0000 0.0000 7.7372
#
#
#
# Elastic Compliance Matrix: (Units=1/GPa)
#
#
# Indices 1 2 3 4 5 6 
#
# 1 0.014279 -0.003486 -0.004939 0.000000 0.000000 0.000000
# 2 -0.003486 0.026006 -0.005181 0.000000 0.000000 0.000000
# 3 -0.004939 -0.005181 0.013482 0.000000 0.000000 0.000000
# 4 0.000000 0.000000 0.000000 0.098560 0.000000 0.000000
# 5 0.000000 0.000000 0.000000 0.000000 0.041666 0.000000
# 6 0.000000 0.000000 0.000000 0.000000 0.000000 0.129245
#
#
# Mechanical properties :
#
#
# Convention : Reuss Voigt Hill
#
# Bulk Modulus (GPa) = 37.65775 44.84261 41.25018
# Shear Modulus (GPa) = 13.91580 18.26341 16.08961
#
# Velocity S-wave (km/s) = 2.79843 3.20591 3.00908
# Velocity P-wave (km/s) = 5.62440 6.24015 5.94026
#
# Compressibility (1/GPa) = 0.02655496
#
# Stress axis : x y z
#
# Youngs Moduli (GPa) = 70.03084 38.45248 74.17149
#
# Poissons Ratio (x) = 0.13405 0.36637
# Poissons Ratio (y) = 0.24413 0.38428
# Poissons Ratio (z) = 0.34591 0.19922
#
# Static dielectric constant tensor:
#      x y z
#    x 1.633840 0.000000 0.000000 
#    y 0.000000 1.606600 0.000000 
#    z 0.000000 0.000000 1.656570 
# 
# From -- ./inp_files/6883.got.cif
#   From: 2010.05.17/outbox.cif.g08.bks.cpg/sg40_4_cif.got.tgz:6883.got - 2010.06.03 18:35:42.
