data_PCOD9363610
_publ_section_title
;
Structure prediction by ZEFSAII (Michael W. Deem and Ramdas Pophale) SiO2 
 PCOD9363610
Probable space group: A M A 2
;
_chemical_formula_sum "Si O2"
_cell_formula_units_Z 64
_cell_length_a 8.734002
_cell_length_b 15.065771
_cell_length_c 27.768864
_cell_angle_alpha 90.000000
_cell_angle_beta 90.000000
_cell_angle_gamma 90.000000
_cell_volume 3653.951364
_symmetry_space_group_name_H-M "A M A 2"
_symmetry_group_IT_number 40
_symmetry_cell_setting 'orthorhombic'
loop_
_space_group_symop_operation_xyz
x,y,z
-x,-y,z
1/2-x,y,z
1/2+x,-y,z
x,1/2+y,1/2+z
-x,1/2-y,1/2+z
1/2-x,1/2+y,1/2+z
1/2+x,1/2-y,1/2+z
loop_
_atom_site_type_symbol
_atom_site_label
_atom_site_fract_x
_atom_site_fract_y
_atom_site_fract_z
Si Si1 0.433431 0.596390 0.819920
Si Si2 0.933097 0.218194 0.403194
Si Si3 0.932426 0.403657 0.097543
Si Si4 0.433318 0.405060 0.258987
Si Si5 0.932104 0.903951 0.483701
Si Si6 0.932890 0.595881 0.713565
Si Si7 0.432817 0.594146 0.365276
Si Si8 0.433166 0.269899 0.173837
O O1 0.500000 0.500000 0.833966
O O2 0.250000 0.593213 0.818155
O O3 0.490042 0.667672 0.858335
O O4 0.498549 0.615451 0.766715
O O5 0.750000 0.208407 0.399635
O O6 0.970802 0.322223 0.398642
O O7 0.992725 0.171452 0.451232
O O8 0.750000 0.404131 0.105341
O O9 0.000000 0.500000 0.111079
O O10 0.009587 0.327017 0.128750
O O11 0.961785 0.391046 0.040545
O O12 0.500000 0.500000 0.242699
O O13 0.250000 0.411558 0.262343
O O14 0.501001 0.387807 0.311870
O O15 0.472362 0.328701 0.221088
O O16 0.750000 0.905087 0.475929
O O17 0.000000 0.000000 0.469968
O O18 0.750000 0.591103 0.716613
O O19 0.000000 0.500000 0.699262
O O20 0.986881 0.675024 0.679232
O O21 0.500000 0.500000 0.381540
O O22 0.250000 0.586678 0.361388
O O23 0.250000 0.259188 0.172410
#
# Coordination Sequence:
#
# PCOD9363610 Si02
#       8
#     8   8   8   8   8   8   8   8
#     4  11  21  34  52  76 108 143 178 217 261 311
#     4  11  22  35  53  78 105 137 177 218 264 316
#     4  10  21  37  57  82 110 140 173 213 264 318
#     4  10  20  32  49  74 106 140 174 212 254 304
#     4  10  21  37  57  81 109 139 171 212 262 316
#     4  11  22  37  55  76 106 142 180 222 265 311
#     4  10  21  35  52  73 101 137 175 215 257 302
#     4  11  22  35  54  80 107 140 180 219 263 314
#
# _framework density 17.515284999999999
#
# number of rings (size 3 to 8) (size 9 to 14) (size 15 to 20)
#    0.000    1.500    0.000    7.500    0.000    8.500 
#    0.000    0.000    0.000    0.750    0.000    1.750 
#    0.000    0.000    0.000    0.000    0.000    0.000 
#
# Total GULP energy -178882.770806 kJ/mol
# GULP energy per Si atom -5590.086588 kJ/mol
# Density = 1.747542 g / cm^3
# Si number density = 17.515285 Si / 1000 Ang^3
#
#
#
# Elastic Constant Matrix: (Units=GPa)
#
#
# Indices 1 2 3 4 5 6 
#
# 1 107.6702 72.5573 48.5634 0.0000 0.0000 0.0000
# 2 72.5573 140.4541 71.1407 0.0000 0.0000 0.0000
# 3 48.5634 71.1407 56.6306 0.0000 0.0000 0.0000
# 4 0.0000 0.0000 0.0000 51.1712 0.0000 0.0000
# 5 0.0000 0.0000 0.0000 0.0000 1.7155 0.0000
# 6 0.0000 0.0000 0.0000 0.0000 0.0000 26.6381
#
#
#
# Elastic Compliance Matrix: (Units=1/GPa)
#
#
# Indices 1 2 3 4 5 6 
#
# 1 0.015770 -0.003566 -0.009044 0.000000 0.000000 0.000000
# 2 -0.003566 0.020381 -0.022546 0.000000 0.000000 0.000000
# 3 -0.009044 -0.022546 0.053736 0.000000 0.000000 0.000000
# 4 0.000000 0.000000 0.000000 0.019542 0.000000 0.000000
# 5 0.000000 0.000000 0.000000 0.000000 0.582909 0.000000
# 6 0.000000 0.000000 0.000000 0.000000 0.000000 0.037540
#
#
# Mechanical properties :
#
#
# Convention : Reuss Voigt Hill
#
# Bulk Modulus (GPa) = 51.08138 76.58641 63.83389
# Shear Modulus (GPa) = 6.19798 23.40454 14.80126
#
# Velocity S-wave (km/s) = 1.88316 3.65942 2.91012
# Velocity P-wave (km/s) = 5.82714 7.85338 6.91488
#
# Compressibility (1/GPa) = 0.01957661
#
# Stress axis : x y z
#
# Youngs Moduli (GPa) = 63.41312 49.06485 18.60946
#
# Poissons Ratio (x) = 0.17495 0.16830
# Poissons Ratio (y) = 0.22611 0.41956
# Poissons Ratio (z) = 0.57350 1.10620
#
# Static dielectric constant tensor:
#      x y z
#    x 1.584950 0.000000 0.000000 
#    y 0.000000 1.575660 0.000000 
#    z 0.000000 0.000000 1.580050 
# 
# From -- ./inp_files/24306.got.cif
#   From: 2010.05.17/outbox.cif.g08.bks.cpg/sg40_13_cif.got.tgz:24306.got - 2010.06.03 18:35:42.
