data_PCOD9363228
_publ_section_title
;
Structure prediction by ZEFSAII (Michael W. Deem and Ramdas Pophale) SiO2 
 PCOD9363228
Probable space group: A M A 2
;
_chemical_formula_sum "Si O2"
_cell_formula_units_Z 40
_cell_length_a 9.702256
_cell_length_b 14.539646
_cell_length_c 13.346346
_cell_angle_alpha 90.000000
_cell_angle_beta 90.000000
_cell_angle_gamma 90.000000
_cell_volume 1882.733898
_symmetry_space_group_name_H-M "A M A 2"
_symmetry_group_IT_number 40
_symmetry_cell_setting 'orthorhombic'
loop_
_space_group_symop_operation_xyz
x,y,z
-x,-y,z
1/2-x,y,z
1/2+x,-y,z
x,1/2+y,1/2+z
-x,1/2-y,1/2+z
1/2-x,1/2+y,1/2+z
1/2+x,1/2-y,1/2+z
loop_
_atom_site_type_symbol
_atom_site_label
_atom_site_fract_x
_atom_site_fract_y
_atom_site_fract_z
Si Si1 0.099791 0.574804 0.949220
Si Si2 0.902985 0.226468 0.502041
Si Si3 0.588968 0.714499 0.233640
Si Si4 0.414036 0.593551 0.388837
Si Si5 0.597100 0.423685 0.716642
O O1 0.250000 0.577996 0.996408
O O2 0.115520 0.547919 0.833017
O O3 0.000000 0.500000 0.997852
O O4 0.025573 0.672431 0.950213
O O5 0.750000 0.203618 0.460645
O O6 0.906182 0.191710 0.615916
O O7 0.921662 0.335008 0.482513
O O8 0.750000 0.713528 0.270516
O O9 0.489328 0.650457 0.298735
O O10 0.540396 0.820685 0.225859
O O11 0.500000 0.500000 0.403167
O O12 0.250000 0.576937 0.369693
O O13 0.500000 0.500000 0.668597
O O14 0.750000 0.419400 0.670720
#
# Coordination Sequence:
#
# PCOD9363228 Si02
#       5
#     8   8   8   8   8
#     4  10  19  33  56  84 114 147 186 234 291 352
#     4  10  22  39  61  88 120 157 203 253 303 361
#     4  10  21  40  62  87 120 159 202 252 303 359
#     4  11  24  42  64  91 124 165 209 255 309 370
#     4   9  18  32  54  82 111 144 181 228 286 346
#
# _framework density 21.245701
#
# number of rings (size 3 to 8) (size 9 to 14) (size 15 to 20)
#    0.000    2.000    2.000    1.200    0.000    4.800 
#    0.000    0.000    0.000    0.000    0.000    0.000 
#    0.000    0.000    0.000    0.000    0.000    0.000 
#
# Total GULP energy -111445.759540 kJ/mol
# GULP energy per Si atom -5572.287977 kJ/mol
# Density = 2.119734 g / cm^3
# Si number density = 21.245701 Si / 1000 Ang^3
#
#
#
# Elastic Constant Matrix: (Units=GPa)
#
#
# Indices 1 2 3 4 5 6 
#
# 1 149.6157 88.0429 22.9730 0.0000 0.0000 0.0000
# 2 88.0429 128.6097 5.1978 0.0000 0.0000 0.0000
# 3 22.9730 5.1978 49.8424 0.0000 0.0000 0.0000
# 4 0.0000 0.0000 0.0000 13.3387 0.0000 0.0000
# 5 0.0000 0.0000 0.0000 0.0000 13.3943 0.0000
# 6 0.0000 0.0000 0.0000 0.0000 0.0000 36.7777
#
#
#
# Elastic Compliance Matrix: (Units=1/GPa)
#
#
# Indices 1 2 3 4 5 6 
#
# 1 0.012233 -0.008181 -0.004785 0.000000 0.000000 0.000000
# 2 -0.008181 0.013279 0.002386 0.000000 0.000000 0.000000
# 3 -0.004785 0.002386 0.022020 0.000000 0.000000 0.000000
# 4 0.000000 0.000000 0.000000 0.074970 0.000000 0.000000
# 5 0.000000 0.000000 0.000000 0.000000 0.074659 0.000000
# 6 0.000000 0.000000 0.000000 0.000000 0.000000 0.027190
#
#
# Mechanical properties :
#
#
# Convention : Reuss Voigt Hill
#
# Bulk Modulus (GPa) = 37.91917 62.27727 50.09822
# Shear Modulus (GPa) = 19.66170 26.82573 23.24371
#
# Velocity S-wave (km/s) = 3.04541 3.55722 3.31122
# Velocity P-wave (km/s) = 5.50025 6.80061 6.18470
#
# Compressibility (1/GPa) = 0.02637189
#
# Stress axis : x y z
#
# Youngs Moduli (GPa) = 81.74926 75.30501 45.41343
#
# Poissons Ratio (x) = 0.61605 0.21730
# Poissons Ratio (y) = 0.66877 -0.10835
# Poissons Ratio (z) = 0.39117 -0.17966
#
# Static dielectric constant tensor:
#      x y z
#    x 1.831780 0.000000 0.000000 
#    y 0.000000 1.779040 0.000000 
#    z 0.000000 0.000000 1.838850 
# 
# From -- ./inp_files/14787.got.cif
#   From: 2010.05.17/outbox.cif.g08.bks.cpg/sg40_8_cif.got.tgz:14787.got - 2010.06.03 18:35:42.
