data_PCOD9363557
_publ_section_title
;
Structure prediction by ZEFSAII (Michael W. Deem and Ramdas Pophale) SiO2 
 PCOD9363557
Probable space group: A M A 2
;
_chemical_formula_sum "Si O2"
_cell_formula_units_Z 40
_cell_length_a 18.518022
_cell_length_b 12.519202
_cell_length_c 7.103213
_cell_angle_alpha 90.000000
_cell_angle_beta 90.000000
_cell_angle_gamma 90.000000
_cell_volume 1646.743965
_symmetry_space_group_name_H-M "A M A 2"
_symmetry_group_IT_number 40
_symmetry_cell_setting 'orthorhombic'
loop_
_space_group_symop_operation_xyz
x,y,z
-x,-y,z
1/2-x,y,z
1/2+x,-y,z
x,1/2+y,1/2+z
-x,1/2-y,1/2+z
1/2-x,1/2+y,1/2+z
1/2+x,1/2-y,1/2+z
loop_
_atom_site_type_symbol
_atom_site_label
_atom_site_fract_x
_atom_site_fract_y
_atom_site_fract_z
Si Si1 0.052387 0.914035 0.505870
Si Si2 0.332668 0.586862 0.014587
Si Si3 0.523738 0.382221 0.398335
Si Si4 0.333131 0.546623 0.570525
Si Si5 0.395628 0.812631 0.133089
O O1 0.969641 0.690138 0.515633
O O2 0.081652 0.832150 0.351167
O O3 0.118423 0.987011 0.581019
O O4 0.000000 0.000000 0.403338
O O5 0.250000 0.564554 0.059931
O O6 0.354161 0.703779 0.087908
O O7 0.340568 0.585053 0.787225
O O8 0.500000 0.500000 0.461646
O O9 0.608059 0.388015 0.450421
O O10 0.494441 0.376711 0.184291
O O11 0.250000 0.563114 0.512612
O O12 0.351497 0.419464 0.574006
#
# Coordination Sequence:
#
# PCOD9363557 Si02
#       5
#     8   8   8   8   8
#     4  10  21  43  63  97 139 184 238 289 352 417
#     4  10  21  39  69 106 141 182 236 294 361 437
#     4   9  19  39  62  93 131 181 236 282 352 420
#     4   9  18  37  66 100 143 187 236 301 364 428
#     4  10  19  38  67  98 138 183 234 288 352 426
#
# _framework density 24.290358000000001
#
# number of rings (size 3 to 8) (size 9 to 14) (size 15 to 20)
#    0.000    2.400    0.000    3.600    0.000    0.800 
#   21.600   14.000    0.000   10.800    0.000    0.000 
#    0.000    0.000    0.000    0.000    0.000    0.000 
#
# Total GULP energy -111846.814137 kJ/mol
# GULP energy per Si atom -5592.340707 kJ/mol
# Density = 2.423507 g / cm^3
# Si number density = 24.290358 Si / 1000 Ang^3
#
#
#
# Elastic Constant Matrix: (Units=GPa)
#
#
# Indices 1 2 3 4 5 6 
#
# 1 217.3733 59.1522 63.3992 0.0000 0.0000 0.0000
# 2 59.1522 115.6202 64.6899 0.0000 0.0000 0.0000
# 3 63.3992 64.6899 149.0411 0.0000 0.0000 0.0000
# 4 0.0000 0.0000 0.0000 19.0809 0.0000 0.0000
# 5 0.0000 0.0000 0.0000 0.0000 35.8742 0.0000
# 6 0.0000 0.0000 0.0000 0.0000 0.0000 38.2268
#
#
#
# Elastic Compliance Matrix: (Units=1/GPa)
#
#
# Indices 1 2 3 4 5 6 
#
# 1 0.005587 -0.002019 -0.001500 0.000000 0.000000 0.000000
# 2 -0.002019 0.012153 -0.004416 0.000000 0.000000 0.000000
# 3 -0.001500 -0.004416 0.009264 0.000000 0.000000 0.000000
# 4 0.000000 0.000000 0.000000 0.052408 0.000000 0.000000
# 5 0.000000 0.000000 0.000000 0.000000 0.027875 0.000000
# 6 0.000000 0.000000 0.000000 0.000000 0.000000 0.026160
#
#
# Mechanical properties :
#
#
# Convention : Reuss Voigt Hill
#
# Bulk Modulus (GPa) = 89.81635 95.16857 92.49246
# Shear Modulus (GPa) = 32.67334 38.28927 35.48130
#
# Velocity S-wave (km/s) = 3.67156 3.97459 3.82608
# Velocity P-wave (km/s) = 7.41824 7.76710 7.59467
#
# Compressibility (1/GPa) = 0.01113383
#
# Stress axis : x y z
#
# Youngs Moduli (GPa) = 178.97304 82.28635 107.93919
#
# Poissons Ratio (x) = 0.16614 0.16195
# Poissons Ratio (y) = 0.36136 0.47665
# Poissons Ratio (z) = 0.26854 0.36337
#
# Static dielectric constant tensor:
#      x y z
#    x 1.937620 0.000000 0.000000 
#    y 0.000000 2.035290 0.000000 
#    z 0.000000 0.000000 1.979330 
# 
# From -- ./inp_files/7161.got.cif
#   From: 2010.05.17/outbox.cif.g08.bks.cpg/sg40_4_cif.got.tgz:7161.got - 2010.06.03 18:35:42.
