data_PCOD9363833
_publ_section_title
;
Structure prediction by ZEFSAII (Michael W. Deem and Ramdas Pophale) SiO2 
 PCOD9363833
Probable space group: A M A 2
;
_chemical_formula_sum "Si O2"
_cell_formula_units_Z 48
_cell_length_a 8.893808
_cell_length_b 31.939645
_cell_length_c 9.198828
_cell_angle_alpha 90.000000
_cell_angle_beta 90.000000
_cell_angle_gamma 90.000000
_cell_volume 2613.065722
_symmetry_space_group_name_H-M "A M A 2"
_symmetry_group_IT_number 40
_symmetry_cell_setting 'orthorhombic'
loop_
_space_group_symop_operation_xyz
x,y,z
-x,-y,z
1/2-x,y,z
1/2+x,-y,z
x,1/2+y,1/2+z
-x,1/2-y,1/2+z
1/2-x,1/2+y,1/2+z
1/2+x,1/2-y,1/2+z
loop_
_atom_site_type_symbol
_atom_site_label
_atom_site_fract_x
_atom_site_fract_y
_atom_site_fract_z
Si Si1 0.929035 0.709855 0.822440
Si Si2 0.423933 0.043073 0.809125
Si Si3 0.070226 0.869513 0.818394
Si Si4 0.067653 0.134273 0.140173
Si Si5 0.571110 0.294299 0.138510
Si Si6 0.922048 0.957590 0.163486
O O1 0.750000 0.702751 0.832962
O O2 0.953097 0.752978 0.735512
O O3 0.006211 0.671846 0.736441
O O4 0.001841 0.713039 0.980537
O O5 0.250000 0.045749 0.764494
O O6 0.513804 0.084740 0.767723
O O7 0.500000 0.000000 0.758723
O O8 0.425722 0.041948 0.986434
O O9 0.250000 0.868654 0.828495
O O10 0.008845 0.833661 0.713298
O O11 0.998180 0.862004 0.977713
O O12 0.250000 0.134527 0.132771
O O13 0.018112 0.088589 0.201398
O O14 0.750000 0.301809 0.128651
O O15 0.750000 0.959417 0.210340
O O16 0.000000 0.000000 0.214703
#
# Coordination Sequence:
#
# PCOD9363833 Si02
#       6
#     8   8   8   8   8   8
#     4  11  24  40  60  85 110 141 183 227 275 333
#     4   9  16  28  47  75 110 146 185 228 275 324
#     4  11  21  34  55  83 114 148 188 232 277 327
#     4  10  20  35  55  81 114 149 185 227 278 330
#     4  11  24  41  60  82 111 145 180 224 278 334
#     4   8  15  26  44  72 105 141 179 220 264 312
#
# _framework density 18.369226999999999
#
# number of rings (size 3 to 8) (size 9 to 14) (size 15 to 20)
#    0.000    2.000    0.000    5.500    0.000   10.000 
#    0.000    0.000    0.000    1.000    0.000    4.667 
#    0.000    0.000    0.000    0.000    0.000    0.000 
#
# Total GULP energy -133976.609448 kJ/mol
# GULP energy per Si atom -5582.358727 kJ/mol
# Density = 1.832742 g / cm^3
# Si number density = 18.369227 Si / 1000 Ang^3
#
#
#
# Elastic Constant Matrix: (Units=GPa)
#
#
# Indices 1 2 3 4 5 6 
#
# 1 135.2764 99.8283 56.3516 0.0000 0.0000 0.0000
# 2 99.8283 165.5652 64.4120 0.0000 0.0000 0.0000
# 3 56.3516 64.4120 78.3947 0.0000 0.0000 0.0000
# 4 0.0000 0.0000 0.0000 22.8818 0.0000 0.0000
# 5 0.0000 0.0000 0.0000 0.0000 21.8462 0.0000
# 6 0.0000 0.0000 0.0000 0.0000 0.0000 31.1524
#
#
#
# Elastic Compliance Matrix: (Units=1/GPa)
#
#
# Indices 1 2 3 4 5 6 
#
# 1 0.014423 -0.006854 -0.004736 0.000000 0.000000 0.000000
# 2 -0.006854 0.012135 -0.005044 0.000000 0.000000 0.000000
# 3 -0.004736 -0.005044 0.020304 0.000000 0.000000 0.000000
# 4 0.000000 0.000000 0.000000 0.043703 0.000000 0.000000
# 5 0.000000 0.000000 0.000000 0.000000 0.045774 0.000000
# 6 0.000000 0.000000 0.000000 0.000000 0.000000 0.032100
#
#
# Mechanical properties :
#
#
# Convention : Reuss Voigt Hill
#
# Bulk Modulus (GPa) = 73.55719 91.15778 82.35748
# Shear Modulus (GPa) = 24.24375 25.75238 24.99806
#
# Velocity S-wave (km/s) = 3.63685 3.74830 3.69299
# Velocity P-wave (km/s) = 7.60041 8.27442 7.94456
#
# Compressibility (1/GPa) = 0.01359486
#
# Stress axis : x y z
#
# Youngs Moduli (GPa) = 69.33320 82.40841 49.25033
#
# Poissons Ratio (x) = 0.56482 0.23326
# Poissons Ratio (y) = 0.47520 0.24840
# Poissons Ratio (z) = 0.32837 0.41563
#
# Static dielectric constant tensor:
#      x y z
#    x 1.617750 0.000000 0.000000 
#    y 0.000000 1.638570 0.000000 
#    z 0.000000 0.000000 1.615140 
# 
# From -- ./inp_files/4629.got.cif
#   From: 2010.05.17/outbox.cif.g08.bks.cpg/sg40_3_cif.got.tgz:4629.got - 2010.06.03 18:35:42.
