data_PCOD9363384
_publ_section_title
;
Structure prediction by ZEFSAII (Michael W. Deem and Ramdas Pophale) SiO2 
 PCOD9363384
Probable space group: A M A 2
;
_chemical_formula_sum "Si O2"
_cell_formula_units_Z 64
_cell_length_a 14.216312
_cell_length_b 9.892261
_cell_length_c 17.447175
_cell_angle_alpha 90.000000
_cell_angle_beta 90.000000
_cell_angle_gamma 90.000000
_cell_volume 2453.621846
_symmetry_space_group_name_H-M "A M A 2"
_symmetry_group_IT_number 40
_symmetry_cell_setting 'orthorhombic'
loop_
_space_group_symop_operation_xyz
x,y,z
-x,-y,z
1/2-x,y,z
1/2+x,-y,z
x,1/2+y,1/2+z
-x,1/2-y,1/2+z
1/2-x,1/2+y,1/2+z
1/2+x,1/2-y,1/2+z
loop_
_atom_site_type_symbol
_atom_site_label
_atom_site_fract_x
_atom_site_fract_y
_atom_site_fract_z
Si Si1 0.634557 0.225976 0.363970
Si Si2 0.104015 0.514080 0.105037
Si Si3 0.861699 0.167478 0.094564
Si Si4 0.635187 0.420097 0.845563
Si Si5 0.865034 0.158560 0.926538
Si Si6 0.144830 0.245208 0.031917
Si Si7 0.136495 0.013987 0.779449
Si Si8 0.865379 0.910044 0.177694
O O1 0.750000 0.223747 0.365095
O O2 0.603048 0.274683 0.448127
O O3 0.608289 0.332113 0.298744
O O4 0.602426 0.073099 0.353957
O O5 0.128854 0.671762 0.103289
O O6 0.154925 0.403623 0.052722
O O7 0.107777 0.470993 0.194488
O O8 0.000000 0.500000 0.075491
O O9 0.750000 0.145380 0.093170
O O10 0.893359 0.065275 0.160772
O O11 0.897889 0.120529 0.011217
O O12 0.750000 0.424374 0.846214
O O13 0.608708 0.314026 0.910220
O O14 0.605312 0.367014 0.762080
O O15 0.750000 0.150350 0.927082
O O16 0.895152 0.073062 0.852612
O O17 0.250000 0.185310 0.026318
O O18 0.098592 0.177629 0.106185
O O19 0.250000 0.007699 0.778151
O O20 0.750000 0.897603 0.178934
#
# Coordination Sequence:
#
# PCOD9363384 Si02
#       8
#     8   8   8   8   8   8   8   8
#     4   9  17  29  52  82 106 129 168 220 278 333
#     4  12  25  38  52  78 115 158 199 228 262 326
#     4  10  19  35  58  83 109 140 179 232 288 334
#     4   9  15  24  39  69 106 131 154 198 256 317
#     4   9  17  29  52  82 106 129 168 220 278 333
#     4  10  19  35  58  83 109 140 179 232 288 334
#     4  10  19  35  58  83 109 140 179 232 288 334
#     4   9  17  29  52  82 106 129 168 220 278 333
#
# _framework density 26.083888000000002
#
# number of rings (size 3 to 8) (size 9 to 14) (size 15 to 20)
#    0.000    2.250    0.000    4.125    0.000    9.000 
#    0.000    1.875    0.000    0.000    0.000    0.000 
#    0.000    0.000    0.000    0.000    0.000    0.000 
#
# Total GULP energy -179084.865457 kJ/mol
# GULP energy per Si atom -5596.402046 kJ/mol
# Density = 2.602452 g / cm^3
# Si number density = 26.083888 Si / 1000 Ang^3
#
#
#
# Elastic Constant Matrix: (Units=GPa)
#
#
# Indices 1 2 3 4 5 6 
#
# 1 70.7428 -9.7051 -9.0203 0.0000 0.0000 0.0000
# 2 -9.7051 69.1324 -14.6563 0.0000 0.0000 0.0000
# 3 -9.0203 -14.6563 85.7063 0.0000 0.0000 0.0000
# 4 0.0000 0.0000 0.0000 38.8441 0.0000 0.0000
# 5 0.0000 0.0000 0.0000 0.0000 83.3504 0.0000
# 6 0.0000 0.0000 0.0000 0.0000 0.0000 10.0236
#
#
#
# Elastic Compliance Matrix: (Units=1/GPa)
#
#
# Indices 1 2 3 4 5 6 
#
# 1 0.014729 0.002486 0.001975 0.000000 0.000000 0.000000
# 2 0.002486 0.015429 0.002900 0.000000 0.000000 0.000000
# 3 0.001975 0.002900 0.012372 0.000000 0.000000 0.000000
# 4 0.000000 0.000000 0.000000 0.025744 0.000000 0.000000
# 5 0.000000 0.000000 0.000000 0.000000 0.011998 0.000000
# 6 0.000000 0.000000 0.000000 0.000000 0.000000 0.099764
#
#
# Mechanical properties :
#
#
# Convention : Reuss Voigt Hill
#
# Bulk Modulus (GPa) = 17.46631 17.64644 17.55637
# Shear Modulus (GPa) = 27.11563 43.70784 35.41174
#
# Velocity S-wave (km/s) = 3.22771 4.09793 3.68857
# Velocity P-wave (km/s) = 4.53889 5.40099 4.98860
#
# Compressibility (1/GPa) = 0.05725309
#
# Stress axis : x y z
#
# Youngs Moduli (GPa) = 67.89465 64.81341 80.83030
#
# Poissons Ratio (x) = -0.16116 -0.15967
# Poissons Ratio (y) = -0.16882 -0.23442
# Poissons Ratio (z) = -0.13412 -0.18797
#
# Static dielectric constant tensor:
#      x y z
#    x 2.026400 0.000000 0.000000 
#    y 0.000000 2.087710 0.000000 
#    z 0.000000 0.000000 1.958430 
# 
# From -- ./inp_files/21394.got.cif
#   From: 2010.05.17/outbox.cif.g08.bks.cpg/sg40_11_cif.got.tgz:21394.got - 2010.06.03 18:35:42.
