data_PCOD9363972
_publ_section_title
;
Structure prediction by ZEFSAII (Michael W. Deem and Ramdas Pophale) SiO2 
 PCOD9363972
Probable space group: A M A 2
;
_chemical_formula_sum "Si O2"
_cell_formula_units_Z 52
_cell_length_a 24.863214
_cell_length_b 10.788440
_cell_length_c 8.261560
_cell_angle_alpha 90.000000
_cell_angle_beta 90.000000
_cell_angle_gamma 90.000000
_cell_volume 2216.041963
_symmetry_space_group_name_H-M "A M A 2"
_symmetry_group_IT_number 40
_symmetry_cell_setting 'orthorhombic'
loop_
_space_group_symop_operation_xyz
x,y,z
-x,-y,z
1/2-x,y,z
1/2+x,-y,z
x,1/2+y,1/2+z
-x,1/2-y,1/2+z
1/2-x,1/2+y,1/2+z
1/2+x,1/2-y,1/2+z
loop_
_atom_site_type_symbol
_atom_site_label
_atom_site_fract_x
_atom_site_fract_y
_atom_site_fract_z
Si Si1 0.836153 0.307745 0.710640
Si Si2 0.750000 0.171708 0.493496
Si Si3 0.943280 0.731395 0.662524
Si Si4 0.250000 0.096105 0.438665
Si Si5 0.439577 0.734945 0.545719
Si Si6 0.938029 0.495594 0.203038
Si Si7 0.360191 0.413846 0.459742
Si Si8 0.250000 0.867545 0.106887
O O1 0.800230 0.244685 0.569648
O O2 0.801498 0.401585 0.819232
O O3 0.892027 0.344023 0.627874
O O4 0.849024 0.200416 0.838869
O O5 0.750000 0.157882 0.299388
O O6 0.750000 0.026694 0.547691
O O7 0.899339 0.638577 0.597126
O O8 0.002463 0.691634 0.608273
O O9 0.933357 0.871661 0.596122
O O10 0.940693 0.753104 0.853525
O O11 0.250000 0.227235 0.532173
O O12 0.431721 0.876579 0.607231
O O13 0.893232 0.495009 0.342830
O O14 0.000000 0.500000 0.266505
O O15 0.302318 0.439338 0.538077
#
# Coordination Sequence:
#
# PCOD9363972 Si02
#       8
#     8   4   8   4   8   8   8   4
#     4   9  20  38  56  84 117 145 192 244 279 339
#     4  11  21  39  60  80 116 155 189 237 290 334
#     4  11  21  38  60  82 114 153 187 233 290 340
#     4   9  21  39  60  82 114 157 193 233 290 338
#     4  10  20  36  58  84 115 148 189 239 286 337
#     4   9  20  38  58  84 115 150 190 233 286 340
#     4  10  21  40  60  84 119 150 190 240 282 336
#     4  10  22  38  58  88 116 148 196 238 278 342
#
# _framework density 23.465260000000001
#
# number of rings (size 3 to 8) (size 9 to 14) (size 15 to 20)
#    0.000    2.154    0.000    4.154    0.000    6.154 
#    0.000   18.462    0.000    0.000    0.000    0.000 
#    0.000    0.000    0.000    0.000    0.000    0.000 
#
# Total GULP energy -145325.297285 kJ/mol
# GULP energy per Si atom -5589.434511 kJ/mol
# Density = 2.341185 g / cm^3
# Si number density = 23.465260 Si / 1000 Ang^3
#
#
#
# Elastic Constant Matrix: (Units=GPa)
#
#
# Indices 1 2 3 4 5 6 
#
# 1 167.7002 20.2426 31.1334 0.0000 0.0000 0.0000
# 2 20.2426 70.4244 -7.6390 0.0000 0.0000 0.0000
# 3 31.1334 -7.6390 92.8879 0.0000 0.0000 0.0000
# 4 0.0000 0.0000 0.0000 34.9234 0.0000 0.0000
# 5 0.0000 0.0000 0.0000 0.0000 29.6721 0.0000
# 6 0.0000 0.0000 0.0000 0.0000 0.0000 -10.9041
#
#
#
# Elastic Compliance Matrix: (Units=1/GPa)
#
#
# Indices 1 2 3 4 5 6 
#
# 1 0.006675 -0.002181 -0.002417 0.000000 0.000000 0.000000
# 2 -0.002181 0.015040 0.001968 0.000000 0.000000 0.000000
# 3 -0.002417 0.001968 0.011737 0.000000 0.000000 0.000000
# 4 0.000000 0.000000 0.000000 0.028634 0.000000 0.000000
# 5 0.000000 0.000000 0.000000 0.000000 0.033702 0.000000
# 6 0.000000 0.000000 0.000000 0.000000 0.000000 -0.091709
#
#
# Mechanical properties :
#
#
# Convention : Reuss Voigt Hill
#
# Bulk Modulus (GPa) = 35.46959 46.49853 40.98406
# Shear Modulus (GPa) = 266.86286 29.88997 148.37642
#
# Velocity S-wave (km/s) = 10.67585 3.57290 7.96051
# Velocity P-wave (km/s) = 12.92724 6.07287 10.09934
#
# Compressibility (1/GPa) = 0.02819317
#
# Stress axis : x y z
#
# Youngs Moduli (GPa) = 149.81522 66.48984 85.19734
#
# Poissons Ratio (x) = 0.14500 0.20589
# Poissons Ratio (y) = 0.32671 -0.16765
# Poissons Ratio (z) = 0.36204 -0.13084
#
# Static dielectric constant tensor:
#      x y z
#    x 1.903230 0.000000 0.000000 
#    y 0.000000 1.941190 0.000000 
#    z 0.000000 0.000000 1.853590 
# 
# From -- ./inp_files/9147.got.cif
#   From: 2010.05.17/outbox.cif.g08.bks.cpg/sg40_5_cif.got.tgz:9147.got - 2010.06.03 18:35:42.
