data_PCOD9363506
_publ_section_title
;
Structure prediction by ZEFSAII (Michael W. Deem and Ramdas Pophale) SiO2 
 PCOD9363506
Probable space group: A M A 2
;
_chemical_formula_sum "Si O2"
_cell_formula_units_Z 64
_cell_length_a 8.711072
_cell_length_b 28.227592
_cell_length_c 12.867333
_cell_angle_alpha 90.000000
_cell_angle_beta 90.000000
_cell_angle_gamma 90.000000
_cell_volume 3163.981790
_symmetry_space_group_name_H-M "A M A 2"
_symmetry_group_IT_number 40
_symmetry_cell_setting 'orthorhombic'
loop_
_space_group_symop_operation_xyz
x,y,z
-x,-y,z
1/2-x,y,z
1/2+x,-y,z
x,1/2+y,1/2+z
-x,1/2-y,1/2+z
1/2-x,1/2+y,1/2+z
1/2+x,1/2-y,1/2+z
loop_
_atom_site_type_symbol
_atom_site_label
_atom_site_fract_x
_atom_site_fract_y
_atom_site_fract_z
Si Si1 0.931668 0.293784 0.095270
Si Si2 0.576004 0.068612 0.863784
Si Si3 0.935178 0.447903 0.802391
Si Si4 0.424173 0.319440 0.315692
Si Si5 0.065805 0.375776 0.971421
Si Si6 0.565430 0.547108 0.140966
Si Si7 0.068313 0.696854 0.529398
Si Si8 0.066222 0.588659 0.576379
O O1 0.750000 0.300187 0.101281
O O2 0.011163 0.310983 0.201517
O O3 0.996633 0.324604 0.998604
O O4 0.976097 0.238999 0.082316
O O5 0.750000 0.050481 0.873594
O O6 0.583493 0.124636 0.839209
O O7 0.501268 0.049725 0.758012
O O8 0.493280 0.062833 0.973033
O O9 0.750000 0.448922 0.808817
O O10 0.982998 0.434957 0.684122
O O11 0.000000 0.500000 0.829157
O O12 0.997857 0.406038 0.876351
O O13 0.250000 0.300525 0.323895
O O14 0.531190 0.299683 0.406770
O O15 0.250000 0.372594 0.961486
O O16 0.027313 0.407524 0.072874
O O17 0.500000 0.500000 0.089582
O O18 0.750000 0.544934 0.146876
O O19 0.250000 0.702221 0.547654
O O20 0.020083 0.644269 0.567798
O O21 0.250000 0.588165 0.573668
#
# Coordination Sequence:
#
# PCOD9363506 Si02
#       8
#     8   8   8   8   8   8   8   8
#     4  12  24  38  60  91 124 164 210 256 315 386
#     4   9  18  35  58  83 114 151 192 240 300 363
#     4  11  24  43  64  91 126 168 217 267 323 385
#     4  10  19  37  60  83 117 156 195 250 309 367
#     4  11  23  42  63  86 120 161 209 263 318 373
#     4  10  21  36  55  84 117 150 189 240 300 359
#     4  10  21  39  61  89 121 161 209 262 321 378
#     4   9  21  40  62  87 120 158 204 257 308 368
#
# _framework density 20.227677
#
# number of rings (size 3 to 8) (size 9 to 14) (size 15 to 20)
#    0.000    1.750    1.250    3.000    0.000    6.000 
#    0.000    6.250    0.000    0.000    0.000    0.000 
#    0.000    0.000    0.000    0.000    0.000    0.000 
#
# Total GULP energy -178683.002674 kJ/mol
# GULP energy per Si atom -5583.843834 kJ/mol
# Density = 2.018164 g / cm^3
# Si number density = 20.227677 Si / 1000 Ang^3
#
#
#
# Elastic Constant Matrix: (Units=GPa)
#
#
# Indices 1 2 3 4 5 6 
#
# 1 43.5566 11.1463 13.7952 0.0000 0.0000 0.0000
# 2 11.1463 46.5638 7.4542 0.0000 0.0000 0.0000
# 3 13.7952 7.4542 100.5544 0.0000 0.0000 0.0000
# 4 0.0000 0.0000 0.0000 12.7563 0.0000 0.0000
# 5 0.0000 0.0000 0.0000 0.0000 28.9665 0.0000
# 6 0.0000 0.0000 0.0000 0.0000 0.0000 20.2797
#
#
#
# Elastic Compliance Matrix: (Units=1/GPa)
#
#
# Indices 1 2 3 4 5 6 
#
# 1 0.025357 -0.005579 -0.003065 0.000000 0.000000 0.000000
# 2 -0.005579 0.022961 -0.000937 0.000000 0.000000 0.000000
# 3 -0.003065 -0.000937 0.010435 0.000000 0.000000 0.000000
# 4 0.000000 0.000000 0.000000 0.078392 0.000000 0.000000
# 5 0.000000 0.000000 0.000000 0.000000 0.034523 0.000000
# 6 0.000000 0.000000 0.000000 0.000000 0.000000 0.049310
#
#
# Mechanical properties :
#
#
# Convention : Reuss Voigt Hill
#
# Bulk Modulus (GPa) = 25.25821 28.38515 26.82168
# Shear Modulus (GPa) = 19.73648 22.95247 21.34447
#
# Velocity S-wave (km/s) = 3.12703 3.37219 3.25193
# Velocity P-wave (km/s) = 5.05488 5.40607 5.23342
#
# Compressibility (1/GPa) = 0.03959109
#
# Stress axis : x y z
#
# Youngs Moduli (GPa) = 39.43654 43.55136 95.83299
#
# Poissons Ratio (x) = 0.24298 0.29375
# Poissons Ratio (y) = 0.22003 0.08977
# Poissons Ratio (z) = 0.12088 0.04080
#
# Static dielectric constant tensor:
#      x y z
#    x 1.689070 0.000000 0.000000 
#    y 0.000000 1.742640 0.000000 
#    z 0.000000 0.000000 1.719820 
# 
# From -- ./inp_files/10601.got.cif
#   From: 2010.05.17/outbox.cif.g08.bks.cpg/sg40_6_cif.got.tgz:10601.got - 2010.06.03 18:35:42.
