data_PCOD9363471
_publ_section_title
;
Structure prediction by ZEFSAII (Michael W. Deem and Ramdas Pophale) SiO2 
 PCOD9363471
Probable space group: A M A 2
;
_chemical_formula_sum "Si O2"
_cell_formula_units_Z 64
_cell_length_a 8.933030
_cell_length_b 15.752324
_cell_length_c 24.182793
_cell_angle_alpha 90.000000
_cell_angle_beta 90.000000
_cell_angle_gamma 90.000000
_cell_volume 3402.905485
_symmetry_space_group_name_H-M "A M A 2"
_symmetry_group_IT_number 40
_symmetry_cell_setting 'orthorhombic'
loop_
_space_group_symop_operation_xyz
x,y,z
-x,-y,z
1/2-x,y,z
1/2+x,-y,z
x,1/2+y,1/2+z
-x,1/2-y,1/2+z
1/2-x,1/2+y,1/2+z
1/2+x,1/2-y,1/2+z
loop_
_atom_site_type_symbol
_atom_site_label
_atom_site_fract_x
_atom_site_fract_y
_atom_site_fract_z
Si Si1 0.930106 0.259217 0.167870
Si Si2 0.428507 0.853315 0.981609
Si Si3 0.929055 0.909780 0.361544
Si Si4 0.429777 0.252814 0.797399
Si Si5 0.929822 0.588287 0.603957
Si Si6 0.071911 0.910518 0.597603
Si Si7 0.928688 0.912010 0.868452
Si Si8 0.927993 0.849367 0.485124
O O1 0.750000 0.268938 0.160780
O O2 0.964199 0.257841 0.232799
O O3 0.973290 0.169421 0.140461
O O4 0.010215 0.335230 0.135996
O O5 0.250000 0.866458 0.973987
O O6 0.514971 0.893329 0.930419
O O7 0.454095 0.751967 0.983547
O O8 0.473485 0.892548 0.040423
O O9 0.750000 0.913360 0.357278
O O10 0.967052 0.887779 0.425481
O O11 0.991541 0.834205 0.323877
O O12 0.000000 0.000000 0.346662
O O13 0.250000 0.263174 0.802816
O O14 0.473484 0.168314 0.831008
O O15 0.750000 0.581984 0.605649
O O16 0.000000 0.500000 0.622632
O O17 0.250000 0.915135 0.600165
O O18 0.018934 0.889955 0.535142
O O19 0.000000 0.000000 0.614366
O O20 0.750000 0.918967 0.867752
O O21 0.000000 0.000000 0.848896
O O22 0.750000 0.862394 0.495014
#
# Coordination Sequence:
#
# PCOD9363471 Si02
#       8
#     8   8   8   8   8   8   8   8
#     4  10  22  44  65  85 119 161 204 254 305 355
#     4  10  19  36  61  89 119 156 194 239 298 356
#     4  11  23  39  63  91 124 161 201 250 303 364
#     4  10  23  42  64  88 118 158 206 255 305 355
#     4  10  21  37  60  86 118 154 192 240 293 353
#     4  12  25  40  63  93 124 160 201 250 304 366
#     4  11  23  38  59  89 121 156 196 245 298 359
#     4  10  20  38  63  91 123 160 198 245 306 364
#
# _framework density 18.807456999999999
#
# number of rings (size 3 to 8) (size 9 to 14) (size 15 to 20)
#    0.000    1.500    2.500    2.625    0.000    6.500 
#    0.000    2.500    0.000    0.000    0.000    0.000 
#    0.000    0.000    0.000    0.000    0.000    0.000 
#
# Total GULP energy -178924.630019 kJ/mol
# GULP energy per Si atom -5591.394688 kJ/mol
# Density = 1.876465 g / cm^3
# Si number density = 18.807457 Si / 1000 Ang^3
#
#
#
# Elastic Constant Matrix: (Units=GPa)
#
#
# Indices 1 2 3 4 5 6 
#
# 1 55.0356 66.5226 52.9623 0.0000 0.0000 0.0000
# 2 66.5226 173.4914 70.4278 0.0000 0.0000 0.0000
# 3 52.9623 70.4278 115.7372 0.0000 0.0000 0.0000
# 4 0.0000 0.0000 0.0000 -3.8197 0.0000 0.0000
# 5 0.0000 0.0000 0.0000 0.0000 16.6130 0.0000
# 6 0.0000 0.0000 0.0000 0.0000 0.0000 31.6361
#
#
#
# Elastic Compliance Matrix: (Units=1/GPa)
#
#
# Indices 1 2 3 4 5 6 
#
# 1 0.045878 -0.012044 -0.013665 0.000000 0.000000 0.000000
# 2 -0.012044 0.010817 -0.001071 0.000000 0.000000 0.000000
# 3 -0.013665 -0.001071 0.015545 0.000000 0.000000 0.000000
# 4 0.000000 0.000000 0.000000 -0.261799 0.000000 0.000000
# 5 0.000000 0.000000 0.000000 0.000000 0.060194 0.000000
# 6 0.000000 0.000000 0.000000 0.000000 0.000000 0.031609
#
#
# Mechanical properties :
#
#
# Convention : Reuss Voigt Hill
#
# Bulk Modulus (GPa) = 53.53272 80.45441 66.99356
# Shear Modulus (GPa) = -131.68868 19.17597 -56.25635
#
# Velocity S-wave (km/s) = -8.37684 3.19657 -5.47509
# Velocity P-wave (km/s) = 8.06452 7.51631 2.06659
#
# Compressibility (1/GPa) = 0.01868017
#
# Stress axis : x y z
#
# Youngs Moduli (GPa) = 21.79672 92.44974 64.32843
#
# Poissons Ratio (x) = 1.11346 0.87908
# Poissons Ratio (y) = 0.26252 0.06888
# Poissons Ratio (z) = 0.29786 0.09899
#
# Static dielectric constant tensor:
#      x y z
#    x 1.630090 0.000000 0.000000 
#    y 0.000000 1.634560 0.000000 
#    z 0.000000 0.000000 1.627560 
# 
# From -- ./inp_files/24265.got.cif
#   From: 2010.05.17/outbox.cif.g08.bks.cpg/sg40_13_cif.got.tgz:24265.got - 2010.06.03 18:35:42.
