data_PCOD9363947
_publ_section_title
;
Structure prediction by ZEFSAII (Michael W. Deem and Ramdas Pophale) SiO2 
 PCOD9363947
Probable space group: A M A 2
;
_chemical_formula_sum "Si O2"
_cell_formula_units_Z 64
_cell_length_a 8.767002
_cell_length_b 25.550530
_cell_length_c 15.298836
_cell_angle_alpha 90.000000
_cell_angle_beta 90.000000
_cell_angle_gamma 90.000000
_cell_volume 3426.962941
_symmetry_space_group_name_H-M "A M A 2"
_symmetry_group_IT_number 40
_symmetry_cell_setting 'orthorhombic'
loop_
_space_group_symop_operation_xyz
x,y,z
-x,-y,z
1/2-x,y,z
1/2+x,-y,z
x,1/2+y,1/2+z
-x,1/2-y,1/2+z
1/2-x,1/2+y,1/2+z
1/2+x,1/2-y,1/2+z
loop_
_atom_site_type_symbol
_atom_site_label
_atom_site_fract_x
_atom_site_fract_y
_atom_site_fract_z
Si Si1 0.067655 0.834718 0.118840
Si Si2 0.431495 0.766001 0.398843
Si Si3 0.067278 0.392936 0.118980
Si Si4 0.933442 0.555893 0.299729
Si Si5 0.432455 0.715850 0.090365
Si Si6 0.068523 0.640283 0.792861
Si Si7 0.433912 0.845068 0.915635
Si Si8 0.567278 0.942031 0.442477
O O1 0.250000 0.840094 0.129234
O O2 0.029368 0.772904 0.128531
O O3 0.982766 0.866985 0.193186
O O4 0.029309 0.849079 0.018841
O O5 0.250000 0.767239 0.408871
O O6 0.511313 0.782205 0.490022
O O7 0.484643 0.808012 0.328186
O O8 0.487175 0.707237 0.379613
O O9 0.250000 0.393482 0.111833
O O10 0.020641 0.428475 0.201112
O O11 0.011518 0.333675 0.134303
O O12 0.996040 0.414111 0.029394
O O13 0.750000 0.553110 0.301724
O O14 0.979307 0.603239 0.363364
O O15 0.000000 0.500000 0.324477
O O16 0.250000 0.709655 0.092106
O O17 0.250000 0.647845 0.798114
O O18 0.027063 0.593015 0.858043
O O19 0.250000 0.838309 0.908887
O O20 0.750000 0.944615 0.448679
O O21 0.500000 0.000000 0.436244
#
# Coordination Sequence:
#
# PCOD9363947 Si02
#       8
#     8   8   8   8   8   8   8   8
#     4   9  20  37  59  85 118 156 195 243 296 350
#     4  11  21  34  57  88 118 153 196 238 289 353
#     4  11  22  36  58  89 120 157 199 241 290 355
#     4  10  23  41  61  87 117 154 200 247 300 352
#     4  10  20  36  56  84 122 159 193 236 293 349
#     4  11  23  38  58  85 120 158 196 243 298 350
#     4   9  20  41  62  84 118 156 195 246 303 352
#     4  11  24  41  61  84 116 159 199 246 300 353
#
# _framework density 18.675426999999999
#
# number of rings (size 3 to 8) (size 9 to 14) (size 15 to 20)
#    0.000    1.750    1.250    3.750    1.750    6.500 
#    0.000    0.625    0.000    3.000    0.000    0.000 
#    0.000    0.000    0.000    0.000    0.000    0.000 
#
# Total GULP energy -178812.779424 kJ/mol
# GULP energy per Si atom -5587.899357 kJ/mol
# Density = 1.863292 g / cm^3
# Si number density = 18.675427 Si / 1000 Ang^3
#
#
#
# Elastic Constant Matrix: (Units=GPa)
#
#
# Indices 1 2 3 4 5 6 
#
# 1 38.3477 33.7262 29.4380 0.0000 0.0000 0.0000
# 2 33.7262 115.5471 49.0610 0.0000 0.0000 0.0000
# 3 29.4380 49.0610 75.1163 0.0000 0.0000 0.0000
# 4 0.0000 0.0000 0.0000 27.4623 0.0000 0.0000
# 5 0.0000 0.0000 0.0000 0.0000 17.8419 0.0000
# 6 0.0000 0.0000 0.0000 0.0000 0.0000 0.6854
#
#
#
# Elastic Compliance Matrix: (Units=1/GPa)
#
#
# Indices 1 2 3 4 5 6 
#
# 1 0.041163 -0.007147 -0.011464 0.000000 0.000000 0.000000
# 2 -0.007147 0.013217 -0.005831 0.000000 0.000000 0.000000
# 3 -0.011464 -0.005831 0.021614 0.000000 0.000000 0.000000
# 4 0.000000 0.000000 0.000000 0.036414 0.000000 0.000000
# 5 0.000000 0.000000 0.000000 0.000000 0.056048 0.000000
# 6 0.000000 0.000000 0.000000 0.000000 0.000000 1.458913
#
#
# Mechanical properties :
#
#
# Convention : Reuss Voigt Hill
#
# Bulk Modulus (GPa) = 36.88767 50.38462 43.63615
# Shear Modulus (GPa) = 2.96685 16.98367 9.97526
#
# Velocity S-wave (km/s) = 1.26178 3.01892 2.31365
# Velocity P-wave (km/s) = 4.68163 6.26015 5.52753
#
# Compressibility (1/GPa) = 0.02710933
#
# Stress axis : x y z
#
# Youngs Moduli (GPa) = 24.29344 75.66263 46.26678
#
# Poissons Ratio (x) = 0.54079 0.53039
# Poissons Ratio (y) = 0.17364 0.26979
# Poissons Ratio (z) = 0.27849 0.44120
#
# Static dielectric constant tensor:
#      x y z
#    x 1.628450 0.000000 0.000000 
#    y 0.000000 1.627820 0.000000 
#    z 0.000000 0.000000 1.662550 
# 
# From -- ./inp_files/15676.got.cif
#   From: 2010.05.17/outbox.cif.g08.bks.cpg/sg40_8_cif.got.tgz:15676.got - 2010.06.03 18:35:42.
