data_PCOD9363529
_publ_section_title
;
Structure prediction by ZEFSAII (Michael W. Deem and Ramdas Pophale) SiO2 
 PCOD9363529
Probable space group: A M A 2
;
_chemical_formula_sum "Si O2"
_cell_formula_units_Z 36
_cell_length_a 18.772823
_cell_length_b 11.847505
_cell_length_c 6.941026
_cell_angle_alpha 90.000000
_cell_angle_beta 90.000000
_cell_angle_gamma 90.000000
_cell_volume 1543.761327
_symmetry_space_group_name_H-M "A M A 2"
_symmetry_group_IT_number 40
_symmetry_cell_setting 'orthorhombic'
loop_
_space_group_symop_operation_xyz
x,y,z
-x,-y,z
1/2-x,y,z
1/2+x,-y,z
x,1/2+y,1/2+z
-x,1/2-y,1/2+z
1/2-x,1/2+y,1/2+z
1/2+x,1/2-y,1/2+z
loop_
_atom_site_type_symbol
_atom_site_label
_atom_site_fract_x
_atom_site_fract_y
_atom_site_fract_z
Si Si1 0.898247 0.192859 0.713400
Si Si2 0.369575 0.542322 0.217820
Si Si3 0.750000 0.303457 0.791668
Si Si4 0.750000 0.037591 0.416411
Si Si5 0.489181 0.122388 0.431947
Si Si6 0.750000 0.289385 0.258597
O O1 0.820352 0.245734 0.712653
O O2 0.949195 0.284181 0.811257
O O3 0.935800 0.165610 0.511172
O O4 0.893240 0.072023 0.825055
O O5 0.319651 0.636392 0.313300
O O6 0.318081 0.490223 0.050509
O O7 0.437870 0.596846 0.115881
O O8 0.750000 0.437712 0.759122
O O9 0.750000 0.285146 0.024040
O O10 0.750000 0.162502 0.333906
O O11 0.500000 0.000000 0.335010
#
# Coordination Sequence:
#
# PCOD9363529 Si02
#       6
#     8   8   4   4   8   4
#     4  11  21  43  68  92 130 174 211 272 321 386
#     4   9  20  40  63  86 130 172 209 261 330 380
#     4  10  20  42  64  94 127 168 211 267 325 384
#     4  10  19  37  65  92 126 172 217 263 323 386
#     4  10  22  41  63  92 131 174 213 261 332 385
#     4  10  19  37  69  96 125 170 220 262 324 386
#
# _framework density 23.319666000000002
#
# number of rings (size 3 to 8) (size 9 to 14) (size 15 to 20)
#    0.000    2.222    4.444    1.333    0.000    3.556 
#    0.000   16.667    0.000    0.000    0.000    0.000 
#    0.000    0.000    0.000    0.000    0.000    0.000 
#
# Total GULP energy -100602.892352 kJ/mol
# GULP energy per Si atom -5589.049575 kJ/mol
# Density = 2.326659 g / cm^3
# Si number density = 23.319666 Si / 1000 Ang^3
#
#
#
# Elastic Constant Matrix: (Units=GPa)
#
#
# Indices 1 2 3 4 5 6 
#
# 1 120.8784 37.3357 19.0977 0.0000 0.0000 0.0000
# 2 37.3357 210.9060 45.3298 0.0000 0.0000 0.0000
# 3 19.0977 45.3298 45.9835 0.0000 0.0000 0.0000
# 4 0.0000 0.0000 0.0000 33.9112 0.0000 0.0000
# 5 0.0000 0.0000 0.0000 0.0000 12.3409 0.0000
# 6 0.0000 0.0000 0.0000 0.0000 0.0000 41.9338
#
#
#
# Elastic Compliance Matrix: (Units=1/GPa)
#
#
# Indices 1 2 3 4 5 6 
#
# 1 0.009018 -0.001004 -0.002755 0.000000 0.000000 0.000000
# 2 -0.001004 0.006128 -0.005624 0.000000 0.000000 0.000000
# 3 -0.002755 -0.005624 0.028435 0.000000 0.000000 0.000000
# 4 0.000000 0.000000 0.000000 0.029489 0.000000 0.000000
# 5 0.000000 0.000000 0.000000 0.000000 0.081032 0.000000
# 6 0.000000 0.000000 0.000000 0.000000 0.000000 0.023847
#
#
# Mechanical properties :
#
#
# Convention : Reuss Voigt Hill
#
# Bulk Modulus (GPa) = 40.29916 64.58824 52.44370
# Shear Modulus (GPa) = 24.39177 36.03749 30.21463
#
# Velocity S-wave (km/s) = 3.23766 3.93538 3.60345
# Velocity P-wave (km/s) = 5.59422 6.95749 6.31276
#
# Compressibility (1/GPa) = 0.02481441
#
# Stress axis : x y z
#
# Youngs Moduli (GPa) = 110.88574 163.18743 35.16783
#
# Poissons Ratio (x) = 0.16388 0.09690
# Poissons Ratio (y) = 0.11135 0.19777
# Poissons Ratio (z) = 0.30554 0.91772
#
# Static dielectric constant tensor:
#      x y z
#    x 1.862520 0.000000 0.000000 
#    y 0.000000 1.948710 0.000000 
#    z 0.000000 0.000000 1.914350 
# 
# From -- ./inp_files/8052.got.cif
#   From: 2010.05.17/outbox.cif.g08.bks.cpg/sg40_5_cif.got.tgz:8052.got - 2010.06.03 18:35:42.
