data_PCOD9363897
_publ_section_title
;
Structure prediction by ZEFSAII (Michael W. Deem and Ramdas Pophale) SiO2 
 PCOD9363897
Probable space group: A M A 2
;
_chemical_formula_sum "Si O2"
_cell_formula_units_Z 64
_cell_length_a 15.083636
_cell_length_b 9.377922
_cell_length_c 23.376703
_cell_angle_alpha 90.000000
_cell_angle_beta 90.000000
_cell_angle_gamma 90.000000
_cell_volume 3306.708554
_symmetry_space_group_name_H-M "A M A 2"
_symmetry_group_IT_number 40
_symmetry_cell_setting 'orthorhombic'
loop_
_space_group_symop_operation_xyz
x,y,z
-x,-y,z
1/2-x,y,z
1/2+x,-y,z
x,1/2+y,1/2+z
-x,1/2-y,1/2+z
1/2-x,1/2+y,1/2+z
1/2+x,1/2-y,1/2+z
loop_
_atom_site_type_symbol
_atom_site_label
_atom_site_fract_x
_atom_site_fract_y
_atom_site_fract_z
Si Si1 0.147486 0.850326 0.965910
Si Si2 0.854262 0.878504 0.885782
Si Si3 0.147083 0.955636 0.092977
Si Si4 0.148575 0.775603 0.549279
Si Si5 0.352513 0.114636 0.757359
Si Si6 0.914557 0.095062 0.659820
Si Si7 0.030302 0.350189 0.699578
Si Si8 0.021443 0.337305 0.942835
O O1 0.250000 0.811026 0.952896
O O2 0.072222 0.742738 0.946839
O O3 0.130201 0.000788 0.933802
O O4 0.139473 0.868457 0.034131
O O5 0.750000 0.841149 0.888749
O O6 0.872847 0.934443 0.821876
O O7 0.916447 0.744712 0.897963
O O8 0.250000 0.952170 0.111936
O O9 0.085106 0.894483 0.142507
O O10 0.127115 0.117541 0.073262
O O11 0.250000 0.771374 0.526851
O O12 0.142896 0.879839 0.603622
O O13 0.077580 0.820992 0.501874
O O14 0.250000 0.154840 0.754923
O O15 0.410248 0.250795 0.739677
O O16 0.370062 0.990977 0.711311
O O17 0.949327 0.247824 0.681730
O O18 0.000000 0.000000 0.643490
O O19 0.000000 0.500000 0.725827
O O20 0.000000 0.500000 0.930255
#
# Coordination Sequence:
#
# PCOD9363897 Si02
#       8
#     8   8   8   8   8   8   8   8
#     4  10  22  40  65  92 118 161 212 255 300 365
#     4  10  22  44  69  88 115 163 217 258 300 365
#     4  10  20  35  59  89 122 160 206 250 299 361
#     4  11  21  36  59  90 129 168 206 249 306 372
#     4  10  23  43  63  87 121 161 207 256 306 364
#     4  10  21  36  57  86 122 164 207 252 303 361
#     4  11  21  35  58  88 123 159 203 253 304 364
#     4  12  25  38  61  95 128 161 194 256 324 376
#
# _framework density 19.354593000000001
#
# number of rings (size 3 to 8) (size 9 to 14) (size 15 to 20)
#    0.000    1.500    2.500    2.625    0.000    5.500 
#    0.000    2.500    0.000    3.000    0.000    0.000 
#    0.000    0.000    0.000    0.000    0.000    0.000 
#
# Total GULP energy -178753.483644 kJ/mol
# GULP energy per Si atom -5586.046364 kJ/mol
# Density = 1.931054 g / cm^3
# Si number density = 19.354593 Si / 1000 Ang^3
#
#
#
# Elastic Constant Matrix: (Units=GPa)
#
#
# Indices 1 2 3 4 5 6 
#
# 1 68.4685 32.4110 16.1303 0.0000 0.0000 0.0000
# 2 32.4110 80.4656 2.5241 0.0000 0.0000 0.0000
# 3 16.1303 2.5241 70.5081 0.0000 0.0000 0.0000
# 4 0.0000 0.0000 0.0000 23.6780 0.0000 0.0000
# 5 0.0000 0.0000 0.0000 0.0000 -16.8642 0.0000
# 6 0.0000 0.0000 0.0000 0.0000 0.0000 6.4739
#
#
#
# Elastic Compliance Matrix: (Units=1/GPa)
#
#
# Indices 1 2 3 4 5 6 
#
# 1 0.019168 -0.007592 -0.004113 0.000000 0.000000 0.000000
# 2 -0.007592 0.015448 0.001184 0.000000 0.000000 0.000000
# 3 -0.004113 0.001184 0.015081 0.000000 0.000000 0.000000
# 4 0.000000 0.000000 0.000000 0.042233 0.000000 0.000000
# 5 0.000000 0.000000 0.000000 0.000000 -0.059297 0.000000
# 6 0.000000 0.000000 0.000000 0.000000 0.000000 0.154468
#
#
# Mechanical properties :
#
#
# Convention : Reuss Voigt Hill
#
# Bulk Modulus (GPa) = 34.89766 35.73035 35.31401
# Shear Modulus (GPa) = 22.96782 13.88265 18.42523
#
# Velocity S-wave (km/s) = 3.44857 2.68111 3.08877
# Velocity P-wave (km/s) = 5.82466 5.29957 5.56831
#
# Compressibility (1/GPa) = 0.02865521
#
# Stress axis : x y z
#
# Youngs Moduli (GPa) = 52.17023 64.73147 66.30677
#
# Poissons Ratio (x) = 0.49142 0.27274
# Poissons Ratio (y) = 0.39606 -0.07849
# Poissons Ratio (z) = 0.21459 -0.07663
#
# Static dielectric constant tensor:
#      x y z
#    x 1.686060 0.000000 0.000000 
#    y 0.000000 1.665900 0.000000 
#    z 0.000000 0.000000 1.672430 
# 
# From -- ./inp_files/24769.got.cif
#   From: 2010.05.17/outbox.cif.g08.bks.cpg/sg40_13_cif.got.tgz:24769.got - 2010.06.03 18:35:42.
