data_PCOD9363548
_publ_section_title
;
Structure prediction by ZEFSAII (Michael W. Deem and Ramdas Pophale) SiO2 
 PCOD9363548
Probable space group: A M A 2
;
_chemical_formula_sum "Si O2"
_cell_formula_units_Z 64
_cell_length_a 10.120569
_cell_length_b 18.823492
_cell_length_c 17.380598
_cell_angle_alpha 90.000000
_cell_angle_beta 90.000000
_cell_angle_gamma 90.000000
_cell_volume 3311.081256
_symmetry_space_group_name_H-M "A M A 2"
_symmetry_group_IT_number 40
_symmetry_cell_setting 'orthorhombic'
loop_
_space_group_symop_operation_xyz
x,y,z
-x,-y,z
1/2-x,y,z
1/2+x,-y,z
x,1/2+y,1/2+z
-x,1/2-y,1/2+z
1/2-x,1/2+y,1/2+z
1/2+x,1/2-y,1/2+z
loop_
_atom_site_type_symbol
_atom_site_label
_atom_site_fract_x
_atom_site_fract_y
_atom_site_fract_z
Si Si1 0.405210 0.564488 0.140590
Si Si2 0.097089 0.439871 0.737557
Si Si3 0.604263 0.893747 0.353478
Si Si4 0.402006 0.683171 0.014217
Si Si5 0.974507 0.295646 0.722923
Si Si6 0.906522 0.849131 0.790945
Si Si7 0.092563 0.069023 0.947007
Si Si8 0.397494 0.697850 0.549933
O O1 0.500000 0.500000 0.119870
O O2 0.250000 0.545850 0.132053
O O3 0.430704 0.632088 0.086203
O O4 0.429683 0.589619 0.227726
O O5 0.250000 0.460070 0.734255
O O6 0.971082 0.568929 0.822205
O O7 0.080760 0.359305 0.706714
O O8 0.000000 0.500000 0.701016
O O9 0.750000 0.929702 0.352190
O O10 0.584610 0.863070 0.437550
O O11 0.610864 0.830947 0.290385
O O12 0.250000 0.706749 0.020924
O O13 0.497709 0.749569 0.012839
O O14 0.028227 0.222495 0.757882
O O15 0.904434 0.288920 0.641176
O O16 0.750000 0.834854 0.793340
O O17 0.943834 0.879891 0.874431
O O18 0.250000 0.051172 0.939634
O O19 0.076186 0.117230 0.023306
O O20 0.000000 0.000000 0.947518
O O21 0.250000 0.714540 0.521566
#
# Coordination Sequence:
#
# PCOD9363548 Si02
#       8
#     8   8   8   8   8   8   8   8
#     4  10  21  37  58  86 119 155 195 244 302 360
#     4  10  22  37  60  86 116 154 199 247 301 363
#     4   9  20  37  58  84 117 151 195 244 294 352
#     4  10  21  39  61  88 123 161 199 247 301 362
#     4  10  21  37  63  87 119 156 210 251 316 360
#     4  10  19  38  64  89 120 156 206 259 305 372
#     4  10  23  42  65  93 126 165 208 259 314 372
#     4  11  23  39  61  92 126 162 204 257 306 364
#
# _framework density 19.329032999999999
#
# number of rings (size 3 to 8) (size 9 to 14) (size 15 to 20)
#    0.750    1.250    1.250    2.250    0.000    3.000 
#    0.000    3.750    0.000    0.000    0.000    0.000 
#    0.000    0.000    0.000    0.000    0.000    0.000 
#
# Total GULP energy -178139.051630 kJ/mol
# GULP energy per Si atom -5566.845363 kJ/mol
# Density = 1.928504 g / cm^3
# Si number density = 19.329033 Si / 1000 Ang^3
#
#
#
# Elastic Constant Matrix: (Units=GPa)
#
#
# Indices 1 2 3 4 5 6 
#
# 1 106.7288 61.6661 1.1654 0.0000 0.0000 0.0000
# 2 61.6661 99.6945 -2.7876 0.0000 0.0000 0.0000
# 3 1.1654 -2.7876 39.4032 0.0000 0.0000 0.0000
# 4 0.0000 0.0000 0.0000 10.3815 0.0000 0.0000
# 5 0.0000 0.0000 0.0000 0.0000 -2.0687 0.0000
# 6 0.0000 0.0000 0.0000 0.0000 0.0000 95.3455
#
#
#
# Elastic Compliance Matrix: (Units=1/GPa)
#
#
# Indices 1 2 3 4 5 6 
#
# 1 0.014626 -0.009077 -0.001075 0.000000 0.000000 0.000000
# 2 -0.009077 0.015684 0.001378 0.000000 0.000000 0.000000
# 3 -0.001075 0.001378 0.025508 0.000000 0.000000 0.000000
# 4 0.000000 0.000000 0.000000 0.096326 0.000000 0.000000
# 5 0.000000 0.000000 0.000000 0.000000 -0.483393 0.000000
# 6 0.000000 0.000000 0.000000 0.000000 0.000000 0.010488
#
#
# Mechanical properties :
#
#
# Convention : Reuss Voigt Hill
#
# Bulk Modulus (GPa) = 26.12995 40.65714 33.39355
# Shear Modulus (GPa) = -17.21419 33.11715 7.95148
#
# Velocity S-wave (km/s) = -2.98751 4.14374 2.03044
# Velocity P-wave (km/s) = 1.28358 6.63129 4.77606
#
# Compressibility (1/GPa) = 0.03827026
#
# Stress axis : x y z
#
# Youngs Moduli (GPa) = 68.37286 63.76079 39.20350
#
# Poissons Ratio (x) = 0.57874 0.04213
# Poissons Ratio (y) = 0.62061 -0.05402
# Poissons Ratio (z) = 0.07348 -0.08786
#
# Static dielectric constant tensor:
#      x y z
#    x 1.707930 0.000000 0.000000 
#    y 0.000000 1.696290 0.000000 
#    z 0.000000 0.000000 1.672410 
# 
# From -- ./inp_files/20145.got.cif
#   From: 2010.05.17/outbox.cif.g08.bks.cpg/sg40_11_cif.got.tgz:20145.got - 2010.06.03 18:35:42.
