data_PCOD9363670
_publ_section_title
;
Structure prediction by ZEFSAII (Michael W. Deem and Ramdas Pophale) SiO2 
 PCOD9363670
Probable space group: A M A 2
;
_chemical_formula_sum "Si O2"
_cell_formula_units_Z 64
_cell_length_a 9.237601
_cell_length_b 16.450862
_cell_length_c 22.580703
_cell_angle_alpha 90.000000
_cell_angle_beta 90.000000
_cell_angle_gamma 90.000000
_cell_volume 3431.510386
_symmetry_space_group_name_H-M "A M A 2"
_symmetry_group_IT_number 40
_symmetry_cell_setting 'orthorhombic'
loop_
_space_group_symop_operation_xyz
x,y,z
-x,-y,z
1/2-x,y,z
1/2+x,-y,z
x,1/2+y,1/2+z
-x,1/2-y,1/2+z
1/2-x,1/2+y,1/2+z
1/2+x,1/2-y,1/2+z
loop_
_atom_site_type_symbol
_atom_site_label
_atom_site_fract_x
_atom_site_fract_y
_atom_site_fract_z
Si Si1 0.082134 0.575981 0.696470
Si Si2 0.077082 0.082597 0.613727
Si Si3 0.415405 0.077265 0.878180
Si Si4 0.915039 0.784622 0.293163
Si Si5 0.576176 0.267235 0.028455
Si Si6 0.083179 0.631914 0.246704
Si Si7 0.924899 0.584297 0.571150
Si Si8 0.923720 0.239449 0.408127
O O1 0.250000 0.558314 0.680912
O O2 0.080727 0.647324 0.743373
O O3 0.000000 0.500000 0.724637
O O4 0.990365 0.593420 0.637349
O O5 0.250000 0.072569 0.607692
O O6 0.037785 0.166199 0.579136
O O7 0.045366 0.093127 0.683859
O O8 0.000000 0.000000 0.592402
O O9 0.250000 0.070235 0.896879
O O10 0.419556 0.078205 0.806252
O O11 0.467999 0.165441 0.899124
O O12 0.500000 0.000000 0.900815
O O13 0.750000 0.772121 0.313104
O O14 0.976730 0.704703 0.261845
O O15 0.013531 0.803406 0.349905
O O16 0.750000 0.270913 0.021037
O O17 0.540551 0.172188 0.042016
O O18 0.494207 0.290538 0.968455
O O19 0.250000 0.662108 0.241831
O O20 0.750000 0.575121 0.570814
O O21 0.000000 0.500000 0.548388
O O22 0.750000 0.235681 0.409171
#
# Coordination Sequence:
#
# PCOD9363670 Si02
#       8
#     8   8   8   8   8   8   8   8
#     4  10  20  33  52  80 110 138 171 215 265 320
#     4  10  21  37  57  82 111 144 184 228 274 324
#     4   9  18  31  49  76 106 135 167 205 253 311
#     4  10  20  34  54  80 107 136 174 219 267 320
#     4  10  22  39  57  78 108 147 187 228 274 321
#     4   9  18  33  53  79 111 142 172 209 260 323
#     4  10  20  35  57  84 115 149 181 219 268 323
#     4  10  22  38  55  75 101 137 181 225 267 316
#
# _framework density 18.650679
#
# number of rings (size 3 to 8) (size 9 to 14) (size 15 to 20)
#    0.000    2.250    0.000    4.125    0.000    8.000 
#    0.000    3.125    0.000    0.000    0.000    0.000 
#    0.000    0.000    0.000    0.000    0.000    0.000 
#
# Total GULP energy -178383.870561 kJ/mol
# GULP energy per Si atom -5574.495955 kJ/mol
# Density = 1.860823 g / cm^3
# Si number density = 18.650679 Si / 1000 Ang^3
#
#
#
# Elastic Constant Matrix: (Units=GPa)
#
#
# Indices 1 2 3 4 5 6 
#
# 1 56.6330 32.8916 26.6958 0.0000 0.0000 0.0000
# 2 32.8916 60.3305 22.1263 0.0000 0.0000 0.0000
# 3 26.6958 22.1263 75.9698 0.0000 0.0000 0.0000
# 4 0.0000 0.0000 0.0000 4.1757 0.0000 0.0000
# 5 0.0000 0.0000 0.0000 0.0000-2795.5154 0.0000
# 6 0.0000 0.0000 0.0000 0.0000 0.0000 31.7209
#
#
#
# Elastic Compliance Matrix: (Units=1/GPa)
#
#
# Indices 1 2 3 4 5 6 
#
# 1 0.028133 -0.013113 -0.006067 0.000000 0.000000 0.000000
# 2 -0.013113 0.024670 -0.002577 0.000000 0.000000 0.000000
# 3 -0.006067 -0.002577 0.016046 0.000000 0.000000 0.000000
# 4 0.000000 0.000000 0.000000 0.239484 0.000000 0.000000
# 5 0.000000 0.000000 0.000000 0.000000 -0.000358 0.000000
# 6 0.000000 0.000000 0.000000 0.000000 0.000000 0.031525
#
#
# Mechanical properties :
#
#
# Convention : Reuss Voigt Hill
#
# Bulk Modulus (GPa) = 39.47184 39.59563 39.53373
# Shear Modulus (GPa) = 12.77277 -544.50912 -265.86818
#
# Velocity S-wave (km/s) = 2.61979 -17.10512 -11.95244
# Velocity P-wave (km/s) = 5.51006 19.20514 13.00916
#
# Compressibility (1/GPa) = 0.02533452
#
# Stress axis : x y z
#
# Youngs Moduli (GPa) = 35.54530 40.53585 62.32231
#
# Poissons Ratio (x) = 0.53154 0.37810
# Poissons Ratio (y) = 0.46610 0.16061
# Poissons Ratio (z) = 0.21565 0.10447
#
# Static dielectric constant tensor:
#      x y z
#    x 3.501250 0.000000 0.000000 
#    y 0.000000 1.668100 0.000000 
#    z 0.000000 0.000000 1.647170 
# 
# From -- ./inp_files/24264.got.cif
#   From: 2010.05.17/outbox.cif.g08.bks.cpg/sg40_13_cif.got.tgz:24264.got - 2010.06.03 18:35:42.
