data_PCOD9363242
_publ_section_title
;
Structure prediction by ZEFSAII (Michael W. Deem and Ramdas Pophale) SiO2 
 PCOD9363242
Probable space group: A M A 2
;
_chemical_formula_sum "Si O2"
_cell_formula_units_Z 40
_cell_length_a 10.112406
_cell_length_b 23.807632
_cell_length_c 7.496895
_cell_angle_alpha 90.000000
_cell_angle_beta 90.000000
_cell_angle_gamma 90.000000
_cell_volume 1804.895769
_symmetry_space_group_name_H-M "A M A 2"
_symmetry_group_IT_number 40
_symmetry_cell_setting 'orthorhombic'
loop_
_space_group_symop_operation_xyz
x,y,z
-x,-y,z
1/2-x,y,z
1/2+x,-y,z
x,1/2+y,1/2+z
-x,1/2-y,1/2+z
1/2-x,1/2+y,1/2+z
1/2+x,1/2-y,1/2+z
loop_
_atom_site_type_symbol
_atom_site_label
_atom_site_fract_x
_atom_site_fract_y
_atom_site_fract_z
Si Si1 0.964310 0.105520 0.021390
Si Si2 0.750000 0.398456 0.687866
Si Si3 0.750000 0.614379 0.072243
Si Si4 0.750000 0.317296 0.024002
Si Si5 0.250000 0.485160 0.577837
Si Si6 0.750000 0.687738 0.438124
Si Si7 0.972423 0.893742 0.615849
Si Si8 0.250000 0.017589 0.659321
O O1 0.878279 0.054020 0.096490
O O2 0.111968 0.111862 0.088620
O O3 0.877321 0.161426 0.035585
O O4 0.970527 0.093715 0.810611
O O5 0.750000 0.358067 0.854309
O O6 0.750000 0.465168 0.718338
O O7 0.750000 0.660236 0.237250
O O8 0.600472 0.619535 0.993070
O O9 0.750000 0.547292 0.109024
O O10 0.750000 0.253988 0.958846
O O11 0.880048 0.338615 0.127268
O O12 0.250000 0.514390 0.379128
O O13 0.876606 0.947128 0.588740
#
# Coordination Sequence:
#
# PCOD9363242 Si02
#       8
#     8   4   4   4   4   4   8   4
#     4  10  20  37  66  91 106 154 210 255 285 336
#     4  12  23  36  60  91 126 159 189 239 313 366
#     4  10  19  33  64  94 108 146 204 258 292 325
#     4  11  26  42  51  83 134 167 187 234 309 377
#     4  11  19  35  65  93 119 138 197 260 292 339
#     4   9  21  40  61  84 119 152 205 256 296 342
#     4  10  20  36  60  90 118 153 198 247 291 345
#     4  11  16  30  61  97 116 132 188 259 290 325
#
# _framework density 22.161943999999998
#
# number of rings (size 3 to 8) (size 9 to 14) (size 15 to 20)
#    0.000    1.600    6.000    1.800    0.000    3.200 
#    0.000   10.000    0.000    0.000    0.000    0.000 
#    0.000    0.000    0.000    0.000    0.000    0.000 
#
# Total GULP energy -111521.540007 kJ/mol
# GULP energy per Si atom -5576.077000 kJ/mol
# Density = 2.211150 g / cm^3
# Si number density = 22.161944 Si / 1000 Ang^3
#
#
#
# Elastic Constant Matrix: (Units=GPa)
#
#
# Indices 1 2 3 4 5 6 
#
# 1 182.0848 48.1675 11.0118 0.0000 0.0000 0.0000
# 2 48.1675 178.1355 18.9332 0.0000 0.0000 0.0000
# 3 11.0118 18.9332 27.5496 0.0000 0.0000 0.0000
# 4 0.0000 0.0000 0.0000 28.3928 0.0000 0.0000
# 5 0.0000 0.0000 0.0000 0.0000 -14.8239 0.0000
# 6 0.0000 0.0000 0.0000 0.0000 0.0000 14.7441
#
#
#
# Elastic Compliance Matrix: (Units=1/GPa)
#
#
# Indices 1 2 3 4 5 6 
#
# 1 0.005963 -0.001466 -0.001376 0.000000 0.000000 0.000000
# 2 -0.001466 0.006417 -0.003824 0.000000 0.000000 0.000000
# 3 -0.001376 -0.003824 0.039476 0.000000 0.000000 0.000000
# 4 0.000000 0.000000 0.000000 0.035220 0.000000 0.000000
# 5 0.000000 0.000000 0.000000 0.000000 -0.067459 0.000000
# 6 0.000000 0.000000 0.000000 0.000000 0.000000 0.067824
#
#
# Mechanical properties :
#
#
# Convention : Reuss Voigt Hill
#
# Bulk Modulus (GPa) = 25.95780 60.44389 43.20084
# Shear Modulus (GPa) = 44.00896 26.30644 35.15770
#
# Velocity S-wave (km/s) = 4.46105 3.44904 3.98728
# Velocity P-wave (km/s) = 6.18651 6.57222 6.38228
#
# Compressibility (1/GPa) = 0.03852407
#
# Stress axis : x y z
#
# Youngs Moduli (GPa) = 167.70087 155.84703 25.33191
#
# Poissons Ratio (x) = 0.22850 0.03485
# Poissons Ratio (y) = 0.24587 0.09686
# Poissons Ratio (z) = 0.23073 0.59591
#
# Static dielectric constant tensor:
#      x y z
#    x 2.163170 0.000000 0.000000 
#    y 0.000000 1.749490 0.000000 
#    z 0.000000 0.000000 1.899600 
# 
# From -- ./inp_files/4318.got.cif
#   From: 2010.05.17/outbox.cif.g08.bks.cpg/sg40_3_cif.got.tgz:4318.got - 2010.06.03 18:35:42.
