data_PCOD9363546
_publ_section_title
;
Structure prediction by ZEFSAII (Michael W. Deem and Ramdas Pophale) SiO2 
 PCOD9363546
Probable space group: A M A 2
;
_chemical_formula_sum "Si O2"
_cell_formula_units_Z 48
_cell_length_a 10.319859
_cell_length_b 8.512214
_cell_length_c 28.807745
_cell_angle_alpha 90.000000
_cell_angle_beta 90.000000
_cell_angle_gamma 90.000000
_cell_volume 2530.611988
_symmetry_space_group_name_H-M "A M A 2"
_symmetry_group_IT_number 40
_symmetry_cell_setting 'orthorhombic'
loop_
_space_group_symop_operation_xyz
x,y,z
-x,-y,z
1/2-x,y,z
1/2+x,-y,z
x,1/2+y,1/2+z
-x,1/2-y,1/2+z
1/2-x,1/2+y,1/2+z
1/2+x,1/2-y,1/2+z
loop_
_atom_site_type_symbol
_atom_site_label
_atom_site_fract_x
_atom_site_fract_y
_atom_site_fract_z
Si Si1 0.250000 0.826198 0.480050
Si Si2 0.099612 0.142129 0.715107
Si Si3 0.487981 0.310598 0.808845
Si Si4 0.098944 0.855618 0.123687
Si Si5 0.250000 0.201772 0.465137
Si Si6 0.491054 0.811414 0.024553
Si Si7 0.250000 0.699271 0.858599
Si Si8 0.750000 0.681576 0.872975
O O1 0.376304 0.766712 0.507341
O O2 0.250000 0.768474 0.426493
O O3 0.250000 0.013911 0.473129
O O4 0.250000 0.092826 0.721628
O O5 0.053643 0.241266 0.759700
O O6 0.094299 0.247461 0.668894
O O7 0.000000 0.000000 0.710197
O O8 0.500000 0.500000 0.805032
O O9 0.624365 0.254460 0.829348
O O10 0.378063 0.266706 0.846054
O O11 0.250000 0.905921 0.116723
O O12 0.051269 0.768325 0.076969
O O13 0.000000 0.000000 0.130407
O O14 0.377737 0.263990 0.489877
O O15 0.250000 0.254706 0.411601
O O16 0.500000 0.000000 0.024507
O O17 0.250000 0.509043 0.866527
#
# Coordination Sequence:
#
# PCOD9363546 Si02
#       8
#     4   8   8   8   4   8   4   4
#     4  11  23  37  66  93 124 171 212 259 312 361
#     4  11  25  43  61  91 128 159 196 254 314 368
#     4  10  19  38  64  89 116 162 209 255 298 357
#     4  10  23  44  68  91 119 160 208 251 299 370
#     4  11  21  41  62  93 128 163 216 263 304 373
#     4  11  23  41  62  93 128 166 206 259 315 369
#     4   9  20  33  62  91 120 157 212 255 298 355
#     4   9  18  37  58  89 122 159 212 259 292 353
#
# _framework density 18.967745000000001
#
# number of rings (size 3 to 8) (size 9 to 14) (size 15 to 20)
#    0.000    1.667    1.667    2.500    4.667    4.667 
#    0.000    5.000    0.000    0.000    0.000    0.000 
#    0.000    0.000    0.000    0.000    0.000    0.000 
#
# Total GULP energy -134020.550394 kJ/mol
# GULP energy per Si atom -5584.189600 kJ/mol
# Density = 1.892457 g / cm^3
# Si number density = 18.967745 Si / 1000 Ang^3
#
#
#
# Elastic Constant Matrix: (Units=GPa)
#
#
# Indices 1 2 3 4 5 6 
#
# 1 212.4094 40.6959 96.6268 0.0000 0.0000 0.0000
# 2 40.6959 37.2166 31.4397 0.0000 0.0000 0.0000
# 3 96.6268 31.4397 166.3519 0.0000 0.0000 0.0000
# 4 0.0000 0.0000 0.0000 26.9403 0.0000 0.0000
# 5 0.0000 0.0000 0.0000 0.0000 42.4198 0.0000
# 6 0.0000 0.0000 0.0000 0.0000 0.0000 20.9184
#
#
#
# Elastic Compliance Matrix: (Units=1/GPa)
#
#
# Indices 1 2 3 4 5 6 
#
# 1 0.007133 -0.005117 -0.003176 0.000000 0.000000 0.000000
# 2 -0.005117 0.035645 -0.003765 0.000000 0.000000 0.000000
# 3 -0.003176 -0.003765 0.008568 0.000000 0.000000 0.000000
# 4 0.000000 0.000000 0.000000 0.037119 0.000000 0.000000
# 5 0.000000 0.000000 0.000000 0.000000 0.023574 0.000000
# 6 0.000000 0.000000 0.000000 0.000000 0.000000 0.047805
#
#
# Mechanical properties :
#
#
# Convention : Reuss Voigt Hill
#
# Bulk Modulus (GPa) = 36.72330 83.72252 60.22291
# Shear Modulus (GPa) = 25.90188 34.53673 30.21931
#
# Velocity S-wave (km/s) = 3.69938 4.27173 3.99581
# Velocity P-wave (km/s) = 6.13597 8.28043 7.28751
#
# Compressibility (1/GPa) = 0.02723067
#
# Stress axis : x y z
#
# Youngs Moduli (GPa) = 140.19074 28.05439 116.71562
#
# Poissons Ratio (x) = 0.14355 0.37072
# Poissons Ratio (y) = 0.71732 0.43939
# Poissons Ratio (z) = 0.44529 0.10561
#
# Static dielectric constant tensor:
#      x y z
#    x 1.641200 0.000000 0.000000 
#    y 0.000000 1.657510 0.000000 
#    z 0.000000 0.000000 1.642920 
# 
# From -- ./inp_files/26208.got.cif
#   From: 2010.05.17/outbox.cif.g08.bks.cpg/sg40_14_cif.got.tgz:26208.got - 2010.06.03 18:35:42.
