data_PCOD9363403
_publ_section_title
;
Structure prediction by ZEFSAII (Michael W. Deem and Ramdas Pophale) SiO2 
 PCOD9363403
Probable space group: A M A 2
;
_chemical_formula_sum "Si O2"
_cell_formula_units_Z 64
_cell_length_a 8.881044
_cell_length_b 25.413608
_cell_length_c 15.079996
_cell_angle_alpha 90.000000
_cell_angle_beta 90.000000
_cell_angle_gamma 90.000000
_cell_volume 3403.545610
_symmetry_space_group_name_H-M "A M A 2"
_symmetry_group_IT_number 40
_symmetry_cell_setting 'orthorhombic'
loop_
_space_group_symop_operation_xyz
x,y,z
-x,-y,z
1/2-x,y,z
1/2+x,-y,z
x,1/2+y,1/2+z
-x,1/2-y,1/2+z
1/2-x,1/2+y,1/2+z
1/2+x,1/2-y,1/2+z
loop_
_atom_site_type_symbol
_atom_site_label
_atom_site_fract_x
_atom_site_fract_y
_atom_site_fract_z
Si Si1 0.070433 0.350623 0.671950
Si Si2 0.930051 0.443794 0.558938
Si Si3 0.069244 0.057705 0.705185
Si Si4 0.427309 0.334297 0.879058
Si Si5 0.425624 0.275349 0.357731
Si Si6 0.068675 0.894833 0.883924
Si Si7 0.573894 0.739849 0.146584
Si Si8 0.071462 0.140228 0.552279
O O1 0.250000 0.355252 0.658834
O O2 0.038119 0.349469 0.777488
O O3 0.986121 0.398293 0.624946
O O4 0.013822 0.294547 0.634884
O O5 0.750000 0.446655 0.556683
O O6 0.000000 0.500000 0.584082
O O7 0.994677 0.427649 0.462751
O O8 0.250000 0.055062 0.716170
O O9 0.035240 0.092654 0.618653
O O10 0.996327 0.085399 0.790730
O O11 0.000000 0.000000 0.696891
O O12 0.250000 0.339414 0.892762
O O13 0.476130 0.273376 0.889963
O O14 0.514457 0.367442 0.952549
O O15 0.250000 0.265011 0.378874
O O16 0.466817 0.332712 0.393798
O O17 0.439388 0.276066 0.250601
O O18 0.250000 0.900331 0.885143
O O19 0.750000 0.747448 0.127038
O O20 0.506868 0.692538 0.090087
O O21 0.250000 0.147979 0.553139
#
# Coordination Sequence:
#
# PCOD9363403 Si02
#       8
#     8   8   8   8   8   8   8   8
#     4  10  22  42  64  90 122 158 201 253 309 362
#     4  12  26  44  65  90 120 159 206 257 305 364
#     4  11  24  41  62  88 121 163 207 254 305 362
#     4  10  22  38  61  89 123 161 201 250 303 363
#     4   9  19  35  57  86 122 161 198 240 296 355
#     4  11  22  39  62  90 124 163 202 249 303 362
#     4  10  19  35  59  89 121 158 200 244 297 358
#     4  11  23  38  59  88 124 163 204 251 303 360
#
# _framework density 18.803920000000002
#
# number of rings (size 3 to 8) (size 9 to 14) (size 15 to 20)
#    0.000    1.500    1.250    3.750    1.750    4.500 
#    0.000    0.625    0.000    1.500    0.000    0.000 
#    0.000    0.000    0.000    0.000    0.000    0.000 
#
# Total GULP energy -178940.672598 kJ/mol
# GULP energy per Si atom -5591.896019 kJ/mol
# Density = 1.876112 g / cm^3
# Si number density = 18.803920 Si / 1000 Ang^3
#
#
#
# Elastic Constant Matrix: (Units=GPa)
#
#
# Indices 1 2 3 4 5 6 
#
# 1 89.3861 48.7028 47.1677 0.0000 0.0000 0.0000
# 2 48.7028 99.8933 33.2818 0.0000 0.0000 0.0000
# 3 47.1677 33.2818 60.2008 0.0000 0.0000 0.0000
# 4 0.0000 0.0000 0.0000 24.4581 0.0000 0.0000
# 5 0.0000 0.0000 0.0000 0.0000 29.3805 0.0000
# 6 0.0000 0.0000 0.0000 0.0000 0.0000 26.5161
#
#
#
# Elastic Compliance Matrix: (Units=1/GPa)
#
#
# Indices 1 2 3 4 5 6 
#
# 1 0.021669 -0.006016 -0.013652 0.000000 0.000000 0.000000
# 2 -0.006016 0.013941 -0.002994 0.000000 0.000000 0.000000
# 3 -0.013652 -0.002994 0.028962 0.000000 0.000000 0.000000
# 4 0.000000 0.000000 0.000000 0.040886 0.000000 0.000000
# 5 0.000000 0.000000 0.000000 0.000000 0.034036 0.000000
# 6 0.000000 0.000000 0.000000 0.000000 0.000000 0.037713
#
#
# Mechanical properties :
#
#
# Convention : Reuss Voigt Hill
#
# Bulk Modulus (GPa) = 51.94972 56.42052 54.18512
# Shear Modulus (GPa) = 21.83895 24.09283 22.96589
#
# Velocity S-wave (km/s) = 3.41164 3.58336 3.49855
# Velocity P-wave (km/s) = 6.57313 6.86953 6.72296
#
# Compressibility (1/GPa) = 0.01924938
#
# Stress axis : x y z
#
# Youngs Moduli (GPa) = 46.14793 71.72918 34.52749
#
# Poissons Ratio (x) = 0.43155 0.47137
# Poissons Ratio (y) = 0.27765 0.10336
# Poissons Ratio (z) = 0.63001 0.21472
#
# Static dielectric constant tensor:
#      x y z
#    x 1.623660 0.000000 0.000000 
#    y 0.000000 1.617070 0.000000 
#    z 0.000000 0.000000 1.667700 
# 
# From -- ./inp_files/15610.got.cif
#   From: 2010.05.17/outbox.cif.g08.bks.cpg/sg40_8_cif.got.tgz:15610.got - 2010.06.03 18:35:42.
