data_PCOD9363805
_publ_section_title
;
Structure prediction by ZEFSAII (Michael W. Deem and Ramdas Pophale) SiO2 
 PCOD9363805
Probable space group: A M A 2
;
_chemical_formula_sum "Si O2"
_cell_formula_units_Z 40
_cell_length_a 9.933600
_cell_length_b 24.754708
_cell_length_c 7.016101
_cell_angle_alpha 90.000000
_cell_angle_beta 90.000000
_cell_angle_gamma 90.000000
_cell_volume 1725.282862
_symmetry_space_group_name_H-M "A M A 2"
_symmetry_group_IT_number 40
_symmetry_cell_setting 'orthorhombic'
loop_
_space_group_symop_operation_xyz
x,y,z
-x,-y,z
1/2-x,y,z
1/2+x,-y,z
x,1/2+y,1/2+z
-x,1/2-y,1/2+z
1/2-x,1/2+y,1/2+z
1/2+x,1/2-y,1/2+z
loop_
_atom_site_type_symbol
_atom_site_label
_atom_site_fract_x
_atom_site_fract_y
_atom_site_fract_z
Si Si1 0.902182 0.851824 0.275700
Si Si2 0.992950 0.837156 0.866424
Si Si3 0.901172 0.047921 0.837274
Si Si4 0.897438 0.733331 0.689738
Si Si5 0.093111 0.949843 0.298922
O O1 0.750000 0.854337 0.348010
O O2 0.981590 0.795978 0.301655
O O3 0.004224 0.897496 0.345886
O O4 0.897765 0.856084 0.042388
O O5 0.923831 0.796983 0.716784
O O6 0.055510 0.891413 0.782107
O O7 0.095656 0.799510 0.990069
O O8 0.750000 0.036302 0.775127
O O9 0.900689 0.048732 0.068121
O O10 0.000000 0.000000 0.778606
O O11 0.750000 0.722600 0.773906
O O12 0.250000 0.949578 0.360192
O O13 0.000000 0.000000 0.357878
#
# Coordination Sequence:
#
# PCOD9363805 Si02
#       5
#     8   8   8   8   8
#     4   9  18  29  44  69  98 130 170 209 253 308
#     4   9  20  33  54  76 107 140 180 215 267 316
#     4   9  17  29  47  72 102 134 170 218 266 312
#     4  10  20  35  52  73 107 143 178 220 265 319
#     4   9  15  24  40  62  92 127 162 206 258 305
#
# _framework density 23.184604
#
# number of rings (size 3 to 8) (size 9 to 14) (size 15 to 20)
#    1.200    1.600    0.000    2.400    0.000    7.200 
#    0.000    0.000    0.000    0.000    0.000    2.800 
#    0.000    6.400    0.000    0.000    0.000    0.000 
#
# Total GULP energy -111375.747641 kJ/mol
# GULP energy per Si atom -5568.787382 kJ/mol
# Density = 2.313183 g / cm^3
# Si number density = 23.184604 Si / 1000 Ang^3
#
#
#
# Elastic Constant Matrix: (Units=GPa)
#
#
# Indices 1 2 3 4 5 6 
#
# 1 244.6776 114.6170 16.6519 0.0000 0.0000 0.0000
# 2 114.6170 199.0869 9.6516 0.0000 0.0000 0.0000
# 3 16.6519 9.6516 100.7785 0.0000 0.0000 0.0000
# 4 0.0000 0.0000 0.0000 3.4148 0.0000 0.0000
# 5 0.0000 0.0000 0.0000 0.0000 7.4550 0.0000
# 6 0.0000 0.0000 0.0000 0.0000 0.0000 27.8396
#
#
#
# Elastic Compliance Matrix: (Units=1/GPa)
#
#
# Indices 1 2 3 4 5 6 
#
# 1 0.005635 -0.003214 -0.000623 0.000000 0.000000 0.000000
# 2 -0.003214 0.006879 -0.000128 0.000000 0.000000 0.000000
# 3 -0.000623 -0.000128 0.010038 0.000000 0.000000 0.000000
# 4 0.000000 0.000000 0.000000 0.292845 0.000000 0.000000
# 5 0.000000 0.000000 0.000000 0.000000 0.134139 0.000000
# 6 0.000000 0.000000 0.000000 0.000000 0.000000 0.035920
#
#
# Mechanical properties :
#
#
# Convention : Reuss Voigt Hill
#
# Bulk Modulus (GPa) = 68.38834 91.82044 80.10439
# Shear Modulus (GPa) = 10.03491 34.65002 22.34247
#
# Velocity S-wave (km/s) = 2.08271 3.87011 3.10768
# Velocity P-wave (km/s) = 5.94516 7.72401 6.89221
#
# Compressibility (1/GPa) = 0.01462238
#
# Stress axis : x y z
#
# Youngs Moduli (GPa) = 177.46382 145.36120 99.62161
#
# Poissons Ratio (x) = 0.46718 0.06209
# Poissons Ratio (y) = 0.57035 0.01273
# Poissons Ratio (z) = 0.11061 0.01858
#
# Static dielectric constant tensor:
#      x y z
#    x 1.779300 0.000000 0.000000 
#    y 0.000000 1.857550 0.000000 
#    z 0.000000 0.000000 1.910240 
# 
# From -- ./inp_files/4246.got.cif
#   From: 2010.05.17/outbox.cif.g08.bks.cpg/sg40_3_cif.got.tgz:4246.got - 2010.06.03 18:35:42.
