data_PCOD9363719
_publ_section_title
;
Structure prediction by ZEFSAII (Michael W. Deem and Ramdas Pophale) SiO2 
 PCOD9363719
Probable space group: A M A 2
;
_chemical_formula_sum "Si O2"
_cell_formula_units_Z 56
_cell_length_a 19.375583
_cell_length_b 23.085804
_cell_length_c 5.205543
_cell_angle_alpha 90.000000
_cell_angle_beta 90.000000
_cell_angle_gamma 90.000000
_cell_volume 2328.444129
_symmetry_space_group_name_H-M "A M A 2"
_symmetry_group_IT_number 40
_symmetry_cell_setting 'orthorhombic'
loop_
_space_group_symop_operation_xyz
x,y,z
-x,-y,z
1/2-x,y,z
1/2+x,-y,z
x,1/2+y,1/2+z
-x,1/2-y,1/2+z
1/2-x,1/2+y,1/2+z
1/2+x,1/2-y,1/2+z
loop_
_atom_site_type_symbol
_atom_site_label
_atom_site_fract_x
_atom_site_fract_y
_atom_site_fract_z
Si Si1 0.015716 0.152347 0.423540
Si Si2 0.618819 0.791252 0.702312
Si Si3 0.370265 0.836283 0.260603
Si Si4 0.672572 0.097026 0.771919
Si Si5 0.602239 0.908228 0.047027
Si Si6 0.750000 0.837185 0.439245
Si Si7 0.250000 0.088618 0.942702
Si Si8 0.471631 0.947481 0.772172
O O1 0.048369 0.210452 0.535297
O O2 0.081067 0.115539 0.324358
O O3 0.953280 0.155612 0.224812
O O4 0.981017 0.114639 0.642779
O O5 0.634247 0.730960 0.838447
O O6 0.682805 0.801464 0.514066
O O7 0.609531 0.848167 0.881094
O O8 0.339947 0.875459 0.489596
O O9 0.335197 0.854351 0.994303
O O10 0.750000 0.072433 0.782514
O O11 0.609413 0.052824 0.827447
O O12 0.676069 0.938508 0.013686
O O13 0.535786 0.946295 0.971197
O O14 0.750000 0.857145 0.145369
O O15 0.750000 0.890840 0.645963
O O16 0.500000 0.000000 0.595356
#
# Coordination Sequence:
#
# PCOD9363719 Si02
#       8
#     8   8   8   8   8   4   4   8
#     4  10  21  38  62  92 130 167 222 279 323 385
#     4  10  23  34  60  91 133 176 219 256 318 385
#     4  11  25  40  64  96 135 181 222 263 326 392
#     4  11  25  46  67  97 136 174 225 280 329 400
#     4  10  20  40  60  93 130 168 210 275 322 391
#     4  10  20  34  52  86 122 171 209 250 298 378
#     4  10  20  36  60  86 130 161 201 262 322 372
#     4  10  23  45  69  93 124 169 223 282 350 401
#
# _framework density 24.050394000000001
#
# number of rings (size 3 to 8) (size 9 to 14) (size 15 to 20)
#    0.000    1.714    2.857    0.429    6.000    0.571 
#    1.286    0.000    0.000    0.000    0.000    0.000 
#    0.000    0.000    0.000    0.000    0.000    0.000 
#
# Total GULP energy -156051.427713 kJ/mol
# GULP energy per Si atom -5573.265275 kJ/mol
# Density = 2.399565 g / cm^3
# Si number density = 24.050394 Si / 1000 Ang^3
#
#
#
# Elastic Constant Matrix: (Units=GPa)
#
#
# Indices 1 2 3 4 5 6 
#
# 1 211.6688 47.0691 14.5732 0.0000 0.0000 0.0000
# 2 47.0691 55.8994 -1.7942 0.0000 0.0000 0.0000
# 3 14.5732 -1.7942 69.8012 0.0000 0.0000 0.0000
# 4 0.0000 0.0000 0.0000 3.4114 0.0000 0.0000
# 5 0.0000 0.0000 0.0000 0.0000 32.5252 0.0000
# 6 0.0000 0.0000 0.0000 0.0000 0.0000 17.0754
#
#
#
# Elastic Compliance Matrix: (Units=1/GPa)
#
#
# Indices 1 2 3 4 5 6 
#
# 1 0.005941 -0.005046 -0.001370 0.000000 0.000000 0.000000
# 2 -0.005046 0.022191 0.001624 0.000000 0.000000 0.000000
# 3 -0.001370 0.001624 0.014654 0.000000 0.000000 0.000000
# 4 0.000000 0.000000 0.000000 0.293137 0.000000 0.000000
# 5 0.000000 0.000000 0.000000 0.000000 0.030745 0.000000
# 6 0.000000 0.000000 0.000000 0.000000 0.000000 0.058564
#
#
# Mechanical properties :
#
#
# Convention : Reuss Voigt Hill
#
# Bulk Modulus (GPa) = 30.11975 50.78505 40.45240
# Shear Modulus (GPa) = 11.21369 29.10382 20.15876
#
# Velocity S-wave (km/s) = 2.16164 3.48245 2.89829
# Velocity P-wave (km/s) = 4.33371 6.10998 5.29684
#
# Compressibility (1/GPa) = 0.03320080
#
# Stress axis : x y z
#
# Youngs Moduli (GPa) = 168.32595 45.06411 68.23988
#
# Poissons Ratio (x) = 0.22741 0.09349
# Poissons Ratio (y) = 0.84943 -0.11082
# Poissons Ratio (z) = 0.23062 -0.07318
#
# Static dielectric constant tensor:
#      x y z
#    x 2.021480 0.000000 0.000000 
#    y 0.000000 2.094020 0.000000 
#    z 0.000000 0.000000 1.953580 
# 
# From -- ./inp_files/2427.got.cif
#   From: 2010.05.17/outbox.cif.g08.bks.cpg/sg40_2_cif.got.tgz:2427.got - 2010.06.03 18:35:42.
