data_PCOD9363862
_publ_section_title
;
Structure prediction by ZEFSAII (Michael W. Deem and Ramdas Pophale) SiO2 
 PCOD9363862
Probable space group: A M A 2
;
_chemical_formula_sum "Si O2"
_cell_formula_units_Z 48
_cell_length_a 15.497988
_cell_length_b 8.542615
_cell_length_c 18.115419
_cell_angle_alpha 90.000000
_cell_angle_beta 90.000000
_cell_angle_gamma 90.000000
_cell_volume 2398.360913
_symmetry_space_group_name_H-M "A M A 2"
_symmetry_group_IT_number 40
_symmetry_cell_setting 'orthorhombic'
loop_
_space_group_symop_operation_xyz
x,y,z
-x,-y,z
1/2-x,y,z
1/2+x,-y,z
x,1/2+y,1/2+z
-x,1/2-y,1/2+z
1/2-x,1/2+y,1/2+z
1/2+x,1/2-y,1/2+z
loop_
_atom_site_type_symbol
_atom_site_label
_atom_site_fract_x
_atom_site_fract_y
_atom_site_fract_z
Si Si1 0.650497 0.158027 0.375000
Si Si2 0.016966 0.684497 0.486786
Si Si3 0.654848 0.793060 0.714845
Si Si4 0.349097 0.705679 0.916730
Si Si5 0.588002 0.599860 0.276813
Si Si6 0.013844 0.684099 0.651924
O O1 0.750000 0.206943 0.389618
O O2 0.583437 0.249129 0.426645
O O3 0.633501 0.195449 0.289250
O O4 0.644035 0.973355 0.389510
O O5 0.924302 0.766404 0.475728
O O6 0.000000 0.500000 0.477208
O O7 0.050357 0.709641 0.570042
O O8 0.750000 0.750218 0.689178
O O9 0.580663 0.761463 0.656632
O O10 0.650399 0.972192 0.740883
O O11 0.250000 0.733301 0.940377
O O12 0.373503 0.821312 0.849350
O O13 0.500000 0.500000 0.291996
O O14 0.566731 0.732846 0.216731
O O15 0.000000 0.500000 0.664215
#
# Coordination Sequence:
#
# PCOD9363862 Si02
#       6
#     8   8   8   8   8   8
#     4  10  22  39  60  85 112 146 187 232 279 327
#     4  11  23  39  58  81 114 152 187 229 279 331
#     4  10  20  36  59  84 111 142 183 233 277 325
#     4  11  22  36  59  87 114 147 186 229 278 333
#     4  10  20  35  57  84 111 146 187 229 277 327
#     4  10  22  39  57  79 111 151 187 224 277 333
#
# _framework density 20.013667999999999
#
# number of rings (size 3 to 8) (size 9 to 14) (size 15 to 20)
#    0.000    1.667    0.000    5.500    0.000    6.667 
#    0.000    6.667    0.000    0.000    0.000    0.000 
#    0.000    0.000    0.000    0.000    0.000    0.000 
#
# Total GULP energy -134097.466416 kJ/mol
# GULP energy per Si atom -5587.394434 kJ/mol
# Density = 1.996812 g / cm^3
# Si number density = 20.013668 Si / 1000 Ang^3
#
#
#
# Elastic Constant Matrix: (Units=GPa)
#
#
# Indices 1 2 3 4 5 6 
#
# 1 73.3330 4.0393 7.4446 0.0000 0.0000 0.0000
# 2 4.0393 62.9178 5.3718 0.0000 0.0000 0.0000
# 3 7.4446 5.3718 40.7804 0.0000 0.0000 0.0000
# 4 0.0000 0.0000 0.0000 17.8683 0.0000 0.0000
# 5 0.0000 0.0000 0.0000 0.0000 -0.0460 0.0000
# 6 0.0000 0.0000 0.0000 0.0000 0.0000 19.6751
#
#
#
# Elastic Compliance Matrix: (Units=1/GPa)
#
#
# Indices 1 2 3 4 5 6 
#
# 1 0.013923 -0.000685 -0.002452 0.000000 0.000000 0.000000
# 2 -0.000685 0.016108 -0.001997 0.000000 0.000000 0.000000
# 3 -0.002452 -0.001997 0.025232 0.000000 0.000000 0.000000
# 4 0.000000 0.000000 0.000000 0.055965 0.000000 0.000000
# 5 0.000000 0.000000 0.000000 0.000000-21.718113 0.000000
# 6 0.000000 0.000000 0.000000 0.000000 0.000000 0.050826
#
#
# Mechanical properties :
#
#
# Convention : Reuss Voigt Hill
#
# Bulk Modulus (GPa) = 22.22348 23.41585 22.81967
# Shear Modulus (GPa) = -0.23223 18.17783 8.97280
#
# Velocity S-wave (km/s) = -0.34101 3.01702 2.11969
# Velocity P-wave (km/s) = 3.31258 4.88486 4.17343
#
# Compressibility (1/GPa) = 0.04499745
#
# Stress axis : x y z
#
# Youngs Moduli (GPa) = 71.82361 62.08018 39.63193
#
# Poissons Ratio (x) = 0.04250 0.09716
# Poissons Ratio (y) = 0.04917 0.07914
# Poissons Ratio (z) = 0.17608 0.12397
#
# Static dielectric constant tensor:
#      x y z
#    x 1.723160 0.000000 0.000000 
#    y 0.000000 1.698080 0.000000 
#    z 0.000000 0.000000 1.689340 
# 
# From -- ./inp_files/20531.got.cif
#   From: 2010.05.17/outbox.cif.g08.bks.cpg/sg40_11_cif.got.tgz:20531.got - 2010.06.03 18:35:42.
