data_PCOD9363827
_publ_section_title
;
Structure prediction by ZEFSAII (Michael W. Deem and Ramdas Pophale) SiO2 
 PCOD9363827
Probable space group: A M A 2
;
_chemical_formula_sum "Si O2"
_cell_formula_units_Z 64
_cell_length_a 8.798683
_cell_length_b 20.801038
_cell_length_c 20.026310
_cell_angle_alpha 90.000000
_cell_angle_beta 90.000000
_cell_angle_gamma 90.000000
_cell_volume 3665.250091
_symmetry_space_group_name_H-M "A M A 2"
_symmetry_group_IT_number 40
_symmetry_cell_setting 'orthorhombic'
loop_
_space_group_symop_operation_xyz
x,y,z
-x,-y,z
1/2-x,y,z
1/2+x,-y,z
x,1/2+y,1/2+z
-x,1/2-y,1/2+z
1/2-x,1/2+y,1/2+z
1/2+x,1/2-y,1/2+z
loop_
_atom_site_type_symbol
_atom_site_label
_atom_site_fract_x
_atom_site_fract_y
_atom_site_fract_z
Si Si1 0.433595 0.683943 0.043430
Si Si2 0.931028 0.569075 0.293291
Si Si3 0.067402 0.930256 0.949089
Si Si4 0.432690 0.824391 0.193472
Si Si5 0.432497 0.568709 0.946689
Si Si6 0.068312 0.176657 0.698535
Si Si7 0.067433 0.069494 0.291192
Si Si8 0.568321 0.323093 0.546153
O O1 0.250000 0.692214 0.039496
O O2 0.469934 0.666796 0.120340
O O3 0.511133 0.751701 0.027177
O O4 0.480760 0.627098 0.993945
O O5 0.750000 0.564956 0.289242
O O6 0.971973 0.581191 0.371031
O O7 0.000000 0.500000 0.274052
O O8 0.989750 0.625672 0.246257
O O9 0.250000 0.931141 0.955390
O O10 0.000000 0.000000 0.967250
O O11 0.997574 0.875393 0.995346
O O12 0.250000 0.828882 0.189253
O O13 0.471404 0.750938 0.213785
O O14 0.498123 0.875363 0.245246
O O15 0.502485 0.835636 0.120232
O O16 0.500000 0.500000 0.966987
O O17 0.250000 0.564506 0.950279
O O18 0.473303 0.580403 0.869159
O O19 0.250000 0.169880 0.705310
O O20 0.250000 0.068512 0.285444
O O21 0.000000 0.000000 0.272249
O O22 0.750000 0.325446 0.547290
#
# Coordination Sequence:
#
# PCOD9363827 Si02
#       8
#     8   8   8   8   8   8   8   8
#     4   9  19  37  56  78 109 144 178 218 266 313
#     4  10  21  36  56  79 107 141 178 219 264 314
#     4  10  21  38  57  79 107 140 176 218 265 315
#     4  10  21  38  57  78 107 142 176 218 266 314
#     4   9  19  35  55  78 108 142 178 220 266 313
#     4   9  19  35  55  78 108 141 175 217 266 315
#     4  10  20  35  55  80 108 140 178 221 264 313
#     4  11  22  36  56  82 108 138 176 219 263 315
#
# _framework density 17.461292
#
# number of rings (size 3 to 8) (size 9 to 14) (size 15 to 20)
#    0.000    2.250    0.000    3.375    0.000    7.000 
#    0.000    7.500    0.000    0.000    0.000    0.000 
#    0.000    0.000    0.000    0.000    0.000    0.000 
#
# Total GULP energy -178644.898281 kJ/mol
# GULP energy per Si atom -5582.653071 kJ/mol
# Density = 1.742155 g / cm^3
# Si number density = 17.461292 Si / 1000 Ang^3
#
#
#
# Elastic Constant Matrix: (Units=GPa)
#
#
# Indices 1 2 3 4 5 6 
#
# 1 66.3366 72.2371 53.4906 0.0000 0.0000 0.0000
# 2 72.2371 189.6282 125.8743 0.0000 0.0000 0.0000
# 3 53.4906 125.8743 100.4071 0.0000 0.0000 0.0000
# 4 0.0000 0.0000 0.0000 43.9397 0.0000 0.0000
# 5 0.0000 0.0000 0.0000 0.0000 26.1744 0.0000
# 6 0.0000 0.0000 0.0000 0.0000 0.0000 36.9085
#
#
#
# Elastic Compliance Matrix: (Units=1/GPa)
#
#
# Indices 1 2 3 4 5 6 
#
# 1 0.027029 -0.004398 -0.008885 0.000000 0.000000 0.000000
# 2 -0.004398 0.032135 -0.037943 0.000000 0.000000 0.000000
# 3 -0.008885 -0.037943 0.062260 0.000000 0.000000 0.000000
# 4 0.000000 0.000000 0.000000 0.022758 0.000000 0.000000
# 5 0.000000 0.000000 0.000000 0.000000 0.038205 0.000000
# 6 0.000000 0.000000 0.000000 0.000000 0.000000 0.027094
#
#
# Mechanical properties :
#
#
# Convention : Reuss Voigt Hill
#
# Bulk Modulus (GPa) = 52.71287 95.50845 74.11066
# Shear Modulus (GPa) = 15.71051 28.38918 22.04985
#
# Velocity S-wave (km/s) = 3.00281 4.03654 3.55742
# Velocity P-wave (km/s) = 6.50203 8.74876 7.70770
#
# Compressibility (1/GPa) = 0.01897070
#
# Stress axis : x y z
#
# Youngs Moduli (GPa) = 36.99730 31.11851 16.06179
#
# Poissons Ratio (x) = 0.13687 0.14272
# Poissons Ratio (y) = 0.16273 0.60943
# Poissons Ratio (z) = 0.32874 1.18072
#
# Static dielectric constant tensor:
#      x y z
#    x 1.583850 0.000000 0.000000 
#    y 0.000000 1.563650 0.000000 
#    z 0.000000 0.000000 1.579250 
# 
# From -- ./inp_files/19643.got.cif
#   From: 2010.05.17/outbox.cif.g08.bks.cpg/sg40_10_cif.got.tgz:19643.got - 2010.06.03 18:35:42.
