data_PCOD9363285
_publ_section_title
;
Structure prediction by ZEFSAII (Michael W. Deem and Ramdas Pophale) SiO2 
 PCOD9363285
Probable space group: A M A 2
;
_chemical_formula_sum "Si O2"
_cell_formula_units_Z 52
_cell_length_a 24.718792
_cell_length_b 8.025902
_cell_length_c 11.396102
_cell_angle_alpha 90.000000
_cell_angle_beta 90.000000
_cell_angle_gamma 90.000000
_cell_volume 2260.879538
_symmetry_space_group_name_H-M "A M A 2"
_symmetry_group_IT_number 40
_symmetry_cell_setting 'orthorhombic'
loop_
_space_group_symop_operation_xyz
x,y,z
-x,-y,z
1/2-x,y,z
1/2+x,-y,z
x,1/2+y,1/2+z
-x,1/2-y,1/2+z
1/2-x,1/2+y,1/2+z
1/2+x,1/2-y,1/2+z
loop_
_atom_site_type_symbol
_atom_site_label
_atom_site_fract_x
_atom_site_fract_y
_atom_site_fract_z
Si Si1 0.688125 0.093066 0.373490
Si Si2 0.920108 0.102005 0.099467
Si Si3 0.312473 0.552623 0.611305
Si Si4 0.474479 0.251884 0.103542
Si Si5 0.892633 0.354659 0.301805
Si Si6 0.367297 0.410305 0.087191
Si Si7 0.500000 0.000000 0.813101
O O1 0.750000 0.123090 0.401822
O O2 0.656196 0.269223 0.369644
O O3 0.660838 0.993853 0.480320
O O4 0.685865 0.005947 0.247636
O O5 0.912919 0.202615 0.220571
O O6 0.968300 0.212414 0.040141
O O7 0.859862 0.061764 0.052068
O O8 0.946341 0.924006 0.128133
O O9 0.250000 0.533217 0.571365
O O10 0.332711 0.743368 0.610006
O O11 0.428018 0.363148 0.044497
O O12 0.484418 0.350679 0.224455
O O13 0.871923 0.487596 0.206660
O O14 0.943800 0.436102 0.370166
#
# Coordination Sequence:
#
# PCOD9363285 Si02
#       7
#     8   8   8   8   8   8   4
#     4  10  21  36  54  78 107 142 184 223 268 331
#     4   8  14  28  50  74 105 141 175 218 271 318
#     4   9  18  33  52  75 106 141 178 223 271 321
#     4   8  14  26  50  77 104 143 177 216 274 320
#     4   9  18  33  55  79 108 142 180 226 275 326
#     4  10  19  34  56  77 105 142 179 225 277 321
#     4   8  14  28  52  80 112 144 178 228 276 322
#
# _framework density 22.999898999999999
#
# number of rings (size 3 to 8) (size 9 to 14) (size 15 to 20)
#    0.000    3.077    0.000    0.462    0.000    1.231 
#    0.000    7.692    0.000  112.615    0.000    0.000 
#    0.000    0.000    0.000    0.000    0.000    0.000 
#
# Total GULP energy -144915.152900 kJ/mol
# GULP energy per Si atom -5573.659727 kJ/mol
# Density = 2.294755 g / cm^3
# Si number density = 22.999899 Si / 1000 Ang^3
#
#
#
# Elastic Constant Matrix: (Units=GPa)
#
#
# Indices 1 2 3 4 5 6 
#
# 1 163.6015 30.0514 40.2378 0.0000 0.0000 0.0000
# 2 30.0514 84.1848 26.3649 0.0000 0.0000 0.0000
# 3 40.2378 26.3649 55.3137 0.0000 0.0000 0.0000
# 4 0.0000 0.0000 0.0000 17.3048 0.0000 0.0000
# 5 0.0000 0.0000 0.0000 0.0000 35.6145 0.0000
# 6 0.0000 0.0000 0.0000 0.0000 0.0000 19.1359
#
#
#
# Elastic Compliance Matrix: (Units=1/GPa)
#
#
# Indices 1 2 3 4 5 6 
#
# 1 0.007537 -0.001144 -0.004937 0.000000 0.000000 0.000000
# 2 -0.001144 0.014137 -0.005906 0.000000 0.000000 0.000000
# 3 -0.004937 -0.005906 0.024485 0.000000 0.000000 0.000000
# 4 0.000000 0.000000 0.000000 0.057788 0.000000 0.000000
# 5 0.000000 0.000000 0.000000 0.000000 0.028078 0.000000
# 6 0.000000 0.000000 0.000000 0.000000 0.000000 0.052258
#
#
# Mechanical properties :
#
#
# Convention : Reuss Voigt Hill
#
# Bulk Modulus (GPa) = 45.07708 55.15648 50.11678
# Shear Modulus (GPa) = 23.18549 28.17410 25.67979
#
# Velocity S-wave (km/s) = 3.17845 3.50375 3.34506
# Velocity P-wave (km/s) = 5.75426 6.35622 6.06272
#
# Compressibility (1/GPa) = 0.02218422
#
# Stress axis : x y z
#
# Youngs Moduli (GPa) = 132.68004 70.73821 40.84076
#
# Poissons Ratio (x) = 0.08094 0.20165
# Poissons Ratio (y) = 0.15181 0.24120
# Poissons Ratio (z) = 0.65509 0.41777
#
# Static dielectric constant tensor:
#      x y z
#    x 1.965410 0.000000 0.000000 
#    y 0.000000 1.846840 0.000000 
#    z 0.000000 0.000000 1.920330 
# 
# From -- ./inp_files/14200.got.cif
#   From: 2010.05.17/outbox.cif.g08.bks.cpg/sg40_8_cif.got.tgz:14200.got - 2010.06.03 18:35:42.
