data_PCOD9363475
_publ_section_title
;
Structure prediction by ZEFSAII (Michael W. Deem and Ramdas Pophale) SiO2 
 PCOD9363475
Probable space group: A M A 2
;
_chemical_formula_sum "Si O2"
_cell_formula_units_Z 64
_cell_length_a 14.181405
_cell_length_b 16.565578
_cell_length_c 12.984771
_cell_angle_alpha 90.000000
_cell_angle_beta 90.000000
_cell_angle_gamma 90.000000
_cell_volume 3050.423574
_symmetry_space_group_name_H-M "A M A 2"
_symmetry_group_IT_number 40
_symmetry_cell_setting 'orthorhombic'
loop_
_space_group_symop_operation_xyz
x,y,z
-x,-y,z
1/2-x,y,z
1/2+x,-y,z
x,1/2+y,1/2+z
-x,1/2-y,1/2+z
1/2-x,1/2+y,1/2+z
1/2+x,1/2-y,1/2+z
loop_
_atom_site_type_symbol
_atom_site_label
_atom_site_fract_x
_atom_site_fract_y
_atom_site_fract_z
Si Si1 0.861417 0.400387 0.518220
Si Si2 0.858052 0.027237 0.631047
Si Si3 0.136807 0.413637 0.907835
Si Si4 0.639817 0.292395 0.827369
Si Si5 0.019146 0.261628 0.983183
Si Si6 0.136034 0.033342 0.235408
Si Si7 0.972777 0.675854 0.201662
Si Si8 0.644723 0.887847 0.793856
O O1 0.750000 0.380687 0.536051
O O2 0.923463 0.319759 0.507606
O O3 0.892702 0.453670 0.616192
O O4 0.866537 0.436045 0.401826
O O5 0.750000 0.056968 0.639293
O O6 0.880361 0.029467 0.509088
O O7 0.926808 0.088451 0.688470
O O8 0.861168 0.944078 0.693195
O O9 0.250000 0.402197 0.901305
O O10 0.086692 0.329203 0.931521
O O11 0.102645 0.457820 0.803730
O O12 0.750000 0.288104 0.849401
O O13 0.575646 0.257440 0.917562
O O14 0.615379 0.384229 0.797404
O O15 0.609940 0.236881 0.731838
O O16 0.988684 0.297480 0.092597
O O17 0.250000 0.026245 0.233610
O O18 0.058854 0.673673 0.281448
O O19 0.750000 0.851537 0.797407
#
# Coordination Sequence:
#
# PCOD9363475 Si02
#       8
#     8   8   8   8   8   8   8   8
#     4  10  19  36  62  88 117 160 208 247 295 368
#     4   9  19  35  59  90 120 151 195 254 310 359
#     4   9  19  36  61  93 124 154 196 254 311 365
#     4  11  23  38  59  86 123 164 203 253 312 374
#     4  11  22  36  61  91 120 155 207 258 306 360
#     4   9  19  36  59  87 122 162 200 242 307 376
#     4  11  21  37  61  87 117 156 208 251 305 366
#     4  10  21  36  57  86 119 154 199 254 304 358
#
# _framework density 20.980692999999999
#
# number of rings (size 3 to 8) (size 9 to 14) (size 15 to 20)
#    0.000    2.000    2.500    1.125    1.750    2.000 
#    0.000    0.000    8.250    0.000    0.000    0.875 
#    0.000    0.000    0.000    0.000    0.000    0.000 
#
# Total GULP energy -178536.902971 kJ/mol
# GULP energy per Si atom -5579.278218 kJ/mol
# Density = 2.093294 g / cm^3
# Si number density = 20.980693 Si / 1000 Ang^3
#
#
#
# Elastic Constant Matrix: (Units=GPa)
#
#
# Indices 1 2 3 4 5 6 
#
# 1 95.8469 12.3961 39.2283 0.0000 0.0000 0.0000
# 2 12.3961 34.4658 33.4033 0.0000 0.0000 0.0000
# 3 39.2283 33.4033 108.1205 0.0000 0.0000 0.0000
# 4 0.0000 0.0000 0.0000 27.0468 0.0000 0.0000
# 5 0.0000 0.0000 0.0000 0.0000 13.9904 0.0000
# 6 0.0000 0.0000 0.0000 0.0000 0.0000 22.4238
#
#
#
# Elastic Compliance Matrix: (Units=1/GPa)
#
#
# Indices 1 2 3 4 5 6 
#
# 1 0.012253 -0.000140 -0.004402 0.000000 0.000000 0.000000
# 2 -0.000140 0.041416 -0.012744 0.000000 0.000000 0.000000
# 3 -0.004402 -0.012744 0.014784 0.000000 0.000000 0.000000
# 4 0.000000 0.000000 0.000000 0.036973 0.000000 0.000000
# 5 0.000000 0.000000 0.000000 0.000000 0.071478 0.000000
# 6 0.000000 0.000000 0.000000 0.000000 0.000000 0.044595
#
#
# Mechanical properties :
#
#
# Convention : Reuss Voigt Hill
#
# Bulk Modulus (GPa) = 29.51705 45.38764 37.45235
# Shear Modulus (GPa) = 18.70093 22.91924 20.81008
#
# Velocity S-wave (km/s) = 2.98877 3.30873 3.15281
# Velocity P-wave (km/s) = 5.09996 6.02303 5.58061
#
# Compressibility (1/GPa) = 0.03387872
#
# Stress axis : x y z
#
# Youngs Moduli (GPa) = 81.61093 24.14506 67.64286
#
# Poissons Ratio (x) = 0.00339 0.29779
# Poissons Ratio (y) = 0.01146 0.86207
# Poissons Ratio (z) = 0.35928 0.30771
#
# Static dielectric constant tensor:
#      x y z
#    x 1.777480 0.000000 0.000000 
#    y 0.000000 1.742580 0.000000 
#    z 0.000000 0.000000 1.799220 
# 
# From -- ./inp_files/12423.got.cif
#   From: 2010.05.17/outbox.cif.g08.bks.cpg/sg40_7_cif.got.tgz:12423.got - 2010.06.03 18:35:42.
