data_PCOD9363114
_publ_section_title
;
Structure prediction by ZEFSAII (Michael W. Deem and Ramdas Pophale) SiO2 
 PCOD9363114
Probable space group: A M A 2
;
_chemical_formula_sum "Si O2"
_cell_formula_units_Z 64
_cell_length_a 8.564334
_cell_length_b 15.190448
_cell_length_c 28.140657
_cell_angle_alpha 90.000000
_cell_angle_beta 90.000000
_cell_angle_gamma 90.000000
_cell_volume 3660.988891
_symmetry_space_group_name_H-M "A M A 2"
_symmetry_group_IT_number 40
_symmetry_cell_setting 'orthorhombic'
loop_
_space_group_symop_operation_xyz
x,y,z
-x,-y,z
1/2-x,y,z
1/2+x,-y,z
x,1/2+y,1/2+z
-x,1/2-y,1/2+z
1/2-x,1/2+y,1/2+z
1/2+x,1/2-y,1/2+z
loop_
_atom_site_type_symbol
_atom_site_label
_atom_site_fract_x
_atom_site_fract_y
_atom_site_fract_z
Si Si1 0.562724 0.096448 0.920510
Si Si2 0.438075 0.404142 0.698723
Si Si3 0.061672 0.403957 0.530017
Si Si4 0.936227 0.903876 0.304945
Si Si5 0.937436 0.595845 0.969970
Si Si6 0.559749 0.222611 0.114446
Si Si7 0.437192 0.095266 0.576176
Si Si8 0.562840 0.224406 0.384803
O O1 0.750000 0.095691 0.919105
O O2 0.498684 0.176596 0.889573
O O3 0.500000 0.000000 0.906991
O O4 0.511978 0.112525 0.975578
O O5 0.500000 0.500000 0.683258
O O6 0.250000 0.406984 0.700255
O O7 0.501724 0.388246 0.751596
O O8 0.489158 0.330014 0.661281
O O9 0.250000 0.405682 0.530550
O O10 0.008759 0.331395 0.567705
O O11 0.000000 0.500000 0.544000
O O12 0.750000 0.907205 0.304560
O O13 0.995608 0.829162 0.340427
O O14 0.000000 0.000000 0.320051
O O15 0.750000 0.592247 0.972771
O O16 0.000000 0.500000 0.954566
O O17 0.005082 0.612527 0.022369
O O18 0.983950 0.669908 0.932188
O O19 0.750000 0.222068 0.114381
O O20 0.510385 0.323538 0.108832
O O21 0.250000 0.092191 0.575311
O O22 0.500000 0.000000 0.590771
O O23 0.750000 0.224584 0.382226
#
# Coordination Sequence:
#
# PCOD9363114 Si02
#       8
#     8   8   8   8   8   8   8   8
#     4  10  20  34  52  74 104 141 177 215 256 298
#     4  10  19  34  54  77 104 132 163 201 250 303
#     4   9  17  30  47  71 102 135 169 204 245 294
#     4  11  22  37  56  79 106 134 165 204 255 310
#     4  10  20  32  48  73 104 136 170 209 253 302
#     4   9  18  31  50  73  99 133 169 204 247 300
#     4  10  19  33  50  70  99 135 173 210 249 293
#     4  11  22  35  53  77 103 134 174 215 257 306
#
# _framework density 17.481615000000001
#
# number of rings (size 3 to 8) (size 9 to 14) (size 15 to 20)
#    0.000    2.000    0.000    6.000    0.000    4.500 
#    0.000    4.375    0.000    0.750    0.000    3.500 
#    0.000    0.000    0.000    0.000    0.000    0.000 
#
# Total GULP energy -178689.828242 kJ/mol
# GULP energy per Si atom -5584.057133 kJ/mol
# Density = 1.744183 g / cm^3
# Si number density = 17.481615 Si / 1000 Ang^3
#
#
#
# Elastic Constant Matrix: (Units=GPa)
#
#
# Indices 1 2 3 4 5 6 
#
# 1 61.3026 44.2204 29.4927 0.0000 0.0000 0.0000
# 2 44.2204 171.0584 91.7318 0.0000 0.0000 0.0000
# 3 29.4927 91.7318 77.1162 0.0000 0.0000 0.0000
# 4 0.0000 0.0000 0.0000 38.0556 0.0000 0.0000
# 5 0.0000 0.0000 0.0000 0.0000 -14.2182 0.0000
# 6 0.0000 0.0000 0.0000 0.0000 0.0000 22.4725
#
#
#
# Elastic Compliance Matrix: (Units=1/GPa)
#
#
# Indices 1 2 3 4 5 6 
#
# 1 0.020544 -0.003031 -0.004252 0.000000 0.000000 0.000000
# 2 -0.003031 0.016592 -0.018577 0.000000 0.000000 0.000000
# 3 -0.004252 -0.018577 0.036691 0.000000 0.000000 0.000000
# 4 0.000000 0.000000 0.000000 0.026277 0.000000 0.000000
# 5 0.000000 0.000000 0.000000 0.000000 -0.070332 0.000000
# 6 0.000000 0.000000 0.000000 0.000000 0.000000 0.044499
#
#
# Mechanical properties :
#
#
# Convention : Reuss Voigt Hill
#
# Bulk Modulus (GPa) = 45.23251 71.15189 58.19220
# Shear Modulus (GPa) = 37.49261 18.86413 28.17837
#
# Velocity S-wave (km/s) = 4.63610 3.28851 4.01919
# Velocity P-wave (km/s) = 7.38840 7.43023 7.40935
#
# Compressibility (1/GPa) = 0.02210799
#
# Stress axis : x y z
#
# Youngs Moduli (GPa) = 48.67517 60.27163 27.25439
#
# Poissons Ratio (x) = 0.18267 0.11588
# Poissons Ratio (y) = 0.14753 0.50630
# Poissons Ratio (z) = 0.20696 1.11966
#
# Static dielectric constant tensor:
#      x y z
#    x 1.588820 0.000000 0.000000 
#    y 0.000000 1.583480 0.000000 
#    z 0.000000 0.000000 1.582360 
# 
# From -- ./inp_files/24279.got.cif
#   From: 2010.05.17/outbox.cif.g08.bks.cpg/sg40_13_cif.got.tgz:24279.got - 2010.06.03 18:35:42.
