data_PCOD9363629
_publ_section_title
;
Structure prediction by ZEFSAII (Michael W. Deem and Ramdas Pophale) SiO2 
 PCOD9363629
Probable space group: A M A 2
;
_chemical_formula_sum "Si O2"
_cell_formula_units_Z 48
_cell_length_a 22.492512
_cell_length_b 19.425921
_cell_length_c 5.071188
_cell_angle_alpha 90.000000
_cell_angle_beta 90.000000
_cell_angle_gamma 90.000000
_cell_volume 2215.793531
_symmetry_space_group_name_H-M "A M A 2"
_symmetry_group_IT_number 40
_symmetry_cell_setting 'orthorhombic'
loop_
_space_group_symop_operation_xyz
x,y,z
-x,-y,z
1/2-x,y,z
1/2+x,-y,z
x,1/2+y,1/2+z
-x,1/2-y,1/2+z
1/2-x,1/2+y,1/2+z
1/2+x,1/2-y,1/2+z
loop_
_atom_site_type_symbol
_atom_site_label
_atom_site_fract_x
_atom_site_fract_y
_atom_site_fract_z
Si Si1 0.501789 0.205126 0.317840
Si Si2 0.250000 0.292780 0.782240
Si Si3 0.624721 0.313837 0.772822
Si Si4 0.250000 0.208309 0.311578
Si Si5 0.873647 0.164523 0.507586
Si Si6 0.680248 0.933089 0.019169
Si Si7 0.319465 0.974087 0.520523
O O1 0.504308 0.270355 0.516423
O O2 0.439078 0.170165 0.393720
O O3 0.563356 0.165955 0.358745
O O4 0.250000 0.279475 0.471935
O O5 0.185677 0.325711 0.833467
O O6 0.250000 0.230267 0.002404
O O7 0.688206 0.323617 0.915956
O O8 0.624134 0.232973 0.691387
O O9 0.637047 0.367667 0.539141
O O10 0.860869 0.088694 0.614792
O O11 0.750000 0.913326 0.069882
O O12 0.665333 0.990448 0.241440
O O13 0.676872 0.967370 0.738178
O O14 0.250000 0.951721 0.509343
#
# Coordination Sequence:
#
# PCOD9363629 Si02
#       7
#     8   4   8   4   8   8   8
#     4  10  22  38  59  90 125 158 200 258 312 354
#     4  10  20  32  54  88 116 146 197 250 293 346
#     4  10  21  40  63  91 121 162 205 255 301 366
#     4  10  20  32  54  88 116 146 197 250 293 346
#     4  10  21  40  63  91 121 162 205 255 301 366
#     4  10  22  39  59  89 126 159 195 250 314 365
#     4  10  22  39  59  89 126 159 195 250 314 365
#
# _framework density 21.662668
#
# number of rings (size 3 to 8) (size 9 to 14) (size 15 to 20)
#    0.000    2.000    1.667    1.000    0.000   10.667 
#    0.000    0.833    0.000    2.000    0.000    0.000 
#    0.000    0.000    0.000    0.000    0.000    0.000 
#
# Total GULP energy -133666.510197 kJ/mol
# GULP energy per Si atom -5569.437925 kJ/mol
# Density = 2.161336 g / cm^3
# Si number density = 21.662668 Si / 1000 Ang^3
#
#
#
# Elastic Constant Matrix: (Units=GPa)
#
#
# Indices 1 2 3 4 5 6 
#
# 1 183.4951 26.1349 6.4219 0.0000 0.0000 0.0000
# 2 26.1349 81.4799 8.9027 0.0000 0.0000 0.0000
# 3 6.4219 8.9027 49.5469 0.0000 0.0000 0.0000
# 4 0.0000 0.0000 0.0000 8.0338 0.0000 0.0000
# 5 0.0000 0.0000 0.0000 0.0000 23.2496 0.0000
# 6 0.0000 0.0000 0.0000 0.0000 0.0000 13.2158
#
#
#
# Elastic Compliance Matrix: (Units=1/GPa)
#
#
# Indices 1 2 3 4 5 6 
#
# 1 0.005719 -0.001789 -0.000420 0.000000 0.000000 0.000000
# 2 -0.001789 0.013078 -0.002118 0.000000 0.000000 0.000000
# 3 -0.000420 -0.002118 0.020618 0.000000 0.000000 0.000000
# 4 0.000000 0.000000 0.000000 0.124474 0.000000 0.000000
# 5 0.000000 0.000000 0.000000 0.000000 0.043011 0.000000
# 6 0.000000 0.000000 0.000000 0.000000 0.000000 0.075667
#
#
# Mechanical properties :
#
#
# Convention : Reuss Voigt Hill
#
# Bulk Modulus (GPa) = 32.50757 44.16009 38.33383
# Shear Modulus (GPa) = 16.58515 27.10402 21.84459
#
# Velocity S-wave (km/s) = 2.76997 3.54105 3.17897
# Velocity P-wave (km/s) = 5.02684 6.09494 5.58648
#
# Compressibility (1/GPa) = 0.03076206
#
# Stress axis : x y z
#
# Youngs Moduli (GPa) = 174.85041 76.46385 48.50159
#
# Poissons Ratio (x) = 0.13676 0.02037
# Poissons Ratio (y) = 0.31273 0.10273
# Poissons Ratio (z) = 0.07342 0.16196
#
# Static dielectric constant tensor:
#      x y z
#    x 1.832530 0.000000 0.000000 
#    y 0.000000 1.870280 0.000000 
#    z 0.000000 0.000000 1.817490 
# 
# From -- ./inp_files/2739.got.cif
#   From: 2010.05.17/outbox.cif.g08.bks.cpg/sg40_2_cif.got.tgz:2739.got - 2010.06.03 18:35:42.
