data_PCOD9363224
_publ_section_title
;
Structure prediction by ZEFSAII (Michael W. Deem and Ramdas Pophale) SiO2 
 PCOD9363224
Probable space group: A M A 2
;
_chemical_formula_sum "Si O2"
_cell_formula_units_Z 60
_cell_length_a 30.210240
_cell_length_b 5.422027
_cell_length_c 18.237079
_cell_angle_alpha 90.000000
_cell_angle_beta 90.000000
_cell_angle_gamma 90.000000
_cell_volume 2987.246980
_symmetry_space_group_name_H-M "A M A 2"
_symmetry_group_IT_number 40
_symmetry_cell_setting 'orthorhombic'
loop_
_space_group_symop_operation_xyz
x,y,z
-x,-y,z
1/2-x,y,z
1/2+x,-y,z
x,1/2+y,1/2+z
-x,1/2-y,1/2+z
1/2-x,1/2+y,1/2+z
1/2+x,1/2-y,1/2+z
loop_
_atom_site_type_symbol
_atom_site_label
_atom_site_fract_x
_atom_site_fract_y
_atom_site_fract_z
Si Si1 0.000000 0.000000 0.368371
Si Si2 0.087129 0.271805 0.868593
Si Si3 0.165350 0.575337 0.463529
Si Si4 0.128813 0.139819 0.249703
Si Si5 0.201736 0.856344 0.179055
Si Si6 0.542786 0.609926 0.256909
Si Si7 0.302018 0.572709 0.034915
Si Si8 0.796919 0.001273 0.810207
O O1 0.020638 0.205360 0.315050
O O2 0.956379 0.108893 0.406580
O O3 0.117824 0.133879 0.926940
O O4 0.114810 0.466632 0.818982
O O5 0.067702 0.091879 0.806304
O O6 0.172044 0.305033 0.498634
O O7 0.197687 0.575284 0.393589
O O8 0.178750 0.806020 0.514491
O O9 0.158083 0.019242 0.185530
O O10 0.082926 0.248653 0.218273
O O11 0.161472 0.340273 0.284975
O O12 0.250000 0.974625 0.161463
O O13 0.203995 0.736968 0.259120
O O14 0.196326 0.636269 0.121051
O O15 0.500000 0.500000 0.215186
O O16 0.250000 0.582864 0.012847
O O17 0.750000 0.136390 0.799551
#
# Coordination Sequence:
#
# PCOD9363224 Si02
#       8
#     4   8   8   8   8   8   8   8
#     4   8  18  30  54  82 124 154 184 244 316 376
#     4  10  19  33  55  90 119 150 197 256 310 366
#     4  12  23  40  62  89 121 159 205 263 308 364
#     4  11  18  34  57  86 119 155 204 258 304 369
#     4  10  23  39  56  81 117 168 212 251 300 368
#     4   9  17  31  51  87 125 149 186 250 324 370
#     4  11  26  43  58  83 126 171 211 249 307 371
#     4  11  22  35  58  86 117 158 207 261 306 352
#
# _framework density 20.085383
#
# number of rings (size 3 to 8) (size 9 to 14) (size 15 to 20)
#    0.000    1.600    2.667    2.400    3.733    0.000 
#    0.000    0.000    0.000    0.000    1.733    1.867 
#    0.000    0.000    0.000    0.000    0.000    0.000 
#
# Total GULP energy -167216.347543 kJ/mol
# GULP energy per Si atom -5573.878251 kJ/mol
# Density = 2.003967 g / cm^3
# Si number density = 20.085383 Si / 1000 Ang^3
#
#
#
# Elastic Constant Matrix: (Units=GPa)
#
#
# Indices 1 2 3 4 5 6 
#
# 1 146.8394 28.4874 -11.2706 0.0000 0.0000 0.0000
# 2 28.4874 51.5419 -14.5759 0.0000 0.0000 0.0000
# 3 -11.2706 -14.5759 22.0283 0.0000 0.0000 0.0000
# 4 0.0000 0.0000 0.0000 -712.6791 0.0000 0.0000
# 5 0.0000 0.0000 0.0000 0.0000 17.4379 0.0000
# 6 0.0000 0.0000 0.0000 0.0000 0.0000 30.6417
#
#
#
# Elastic Compliance Matrix: (Units=1/GPa)
#
#
# Indices 1 2 3 4 5 6 
#
# 1 0.007662 -0.003846 0.001375 0.000000 0.000000 0.000000
# 2 -0.003846 0.025798 0.015103 0.000000 0.000000 0.000000
# 3 0.001375 0.015103 0.056093 0.000000 0.000000 0.000000
# 4 0.000000 0.000000 0.000000 -0.001403 0.000000 0.000000
# 5 0.000000 0.000000 0.000000 0.000000 0.057346 0.000000
# 6 0.000000 0.000000 0.000000 0.000000 0.000000 0.032635
#
#
# Mechanical properties :
#
#
# Convention : Reuss Voigt Hill
#
# Bulk Modulus (GPa) = 8.70940 25.07681 16.89310
# Shear Modulus (GPa) = 26.15888 -118.40198 -46.12155
#
# Velocity S-wave (km/s) = 3.61277 -7.68618 -4.79714
# Velocity P-wave (km/s) = 4.66352 8.13987 4.71747
#
# Compressibility (1/GPa) = 0.11481845
#
# Stress axis : x y z
#
# Youngs Moduli (GPa) = 130.51723 38.76222 17.82745
#
# Poissons Ratio (x) = 0.14907 -0.02452
# Poissons Ratio (y) = 0.50194 -0.26925
# Poissons Ratio (z) = -0.17952 -0.58542
#
# Static dielectric constant tensor:
#      x y z
#    x 1.616270 0.000000 0.000000 
#    y 0.000000 4.500620 0.000000 
#    z 0.000000 0.000000 1.676240 
# 
# From -- ./inp_files/21653.got.cif
#   From: 2010.05.17/outbox.cif.g08.bks.cpg/sg40_11_cif.got.tgz:21653.got - 2010.06.03 18:35:42.
