data_PCOD9363621
_publ_section_title
;
Structure prediction by ZEFSAII (Michael W. Deem and Ramdas Pophale) SiO2 
 PCOD9363621
Probable space group: A M A 2
;
_chemical_formula_sum "Si O2"
_cell_formula_units_Z 64
_cell_length_a 8.797106
_cell_length_b 30.632494
_cell_length_c 14.676849
_cell_angle_alpha 90.000000
_cell_angle_beta 90.000000
_cell_angle_gamma 90.000000
_cell_volume 3955.077594
_symmetry_space_group_name_H-M "A M A 2"
_symmetry_group_IT_number 40
_symmetry_cell_setting 'orthorhombic'
loop_
_space_group_symop_operation_xyz
x,y,z
-x,-y,z
1/2-x,y,z
1/2+x,-y,z
x,1/2+y,1/2+z
-x,1/2-y,1/2+z
1/2-x,1/2+y,1/2+z
1/2+x,1/2-y,1/2+z
loop_
_atom_site_type_symbol
_atom_site_label
_atom_site_fract_x
_atom_site_fract_y
_atom_site_fract_z
Si Si1 0.931347 0.291682 0.707110
Si Si2 0.568653 0.291683 0.316371
Si Si3 0.432041 0.547451 0.904867
Si Si4 0.079469 0.314153 0.011739
Si Si5 0.426960 0.367596 0.198796
Si Si6 0.427809 0.275378 0.511740
Si Si7 0.073040 0.367596 0.824681
Si Si8 0.932041 0.452549 0.118609
O O1 0.750000 0.287639 0.708145
O O2 0.000002 0.250000 0.761740
O O3 0.993790 0.291369 0.604358
O O4 0.984722 0.335962 0.756179
O O5 0.750000 0.287641 0.315340
O O6 0.515278 0.335962 0.267300
O O7 0.506205 0.291371 0.419122
O O8 0.500000 0.500000 0.883221
O O9 0.250000 0.546679 0.897679
O O10 0.500627 0.585210 0.841978
O O11 0.470791 0.556489 0.011738
O O12 0.250000 0.293766 0.011739
O O13 0.066897 0.343199 0.101286
O O14 0.954649 0.276759 0.011738
O O15 0.066898 0.343200 0.922192
O O16 0.250000 0.371108 0.225274
O O17 0.499373 0.414790 0.181499
O O18 0.250000 0.285825 0.511742
O O19 0.250000 0.371108 0.798203
O O20 0.750000 0.453321 0.125798
O O21 0.000000 0.500000 0.140256
#
# Coordination Sequence:
#
# PCOD9363621 Si02
#       8
#     8   8   8   8   8   8   8   8
#     4  12  24  38  55  78 108 143 184 226 270 321
#     4  12  24  38  55  78 108 143 184 226 270 321
#     4  10  20  33  51  76 108 143 181 222 270 323
#     4  10  20  32  51  75 108 145 182 222 266 314
#     4  11  21  35  54  78 108 144 184 223 269 323
#     4  12  24  38  56  77 106 143 184 228 273 318
#     4  11  21  35  54  78 108 144 184 223 269 323
#     4  10  20  33  51  76 108 143 181 222 270 323
#
# _framework density 16.181730999999999
#
# number of rings (size 3 to 8) (size 9 to 14) (size 15 to 20)
#    0.000    1.000    3.750    4.875    0.000    2.000 
#    0.000    0.000    0.000    0.000    0.000    0.875 
#    0.000    0.000    0.000    0.000    0.000    0.000 
#
# Total GULP energy -178815.494211 kJ/mol
# GULP energy per Si atom -5587.984194 kJ/mol
# Density = 1.614490 g / cm^3
# Si number density = 16.181731 Si / 1000 Ang^3
#
#
#
# Elastic Constant Matrix: (Units=GPa)
#
#
# Indices 1 2 3 4 5 6 
#
# 1 146.3785 69.0858 64.4772 0.0000 0.0000 0.0000
# 2 69.0858 127.2525 55.3252 0.0000 0.0000 0.0000
# 3 64.4772 55.3252 109.5465 0.0000 0.0000 0.0000
# 4 0.0000 0.0000 0.0000 17.4939 0.0000 0.0000
# 5 0.0000 0.0000 0.0000 0.0000 14.9504 0.0000
# 6 0.0000 0.0000 0.0000 0.0000 0.0000 32.6383
#
#
#
# Elastic Compliance Matrix: (Units=1/GPa)
#
#
# Indices 1 2 3 4 5 6 
#
# 1 0.010527 -0.003871 -0.004241 0.000000 0.000000 0.000000
# 2 -0.003871 0.011493 -0.003526 0.000000 0.000000 0.000000
# 3 -0.004241 -0.003526 0.013405 0.000000 0.000000 0.000000
# 4 0.000000 0.000000 0.000000 0.057163 0.000000 0.000000
# 5 0.000000 0.000000 0.000000 0.000000 0.066888 0.000000
# 6 0.000000 0.000000 0.000000 0.000000 0.000000 0.030639
#
#
# Mechanical properties :
#
#
# Convention : Reuss Voigt Hill
#
# Bulk Modulus (GPa) = 82.30910 84.55043 83.42977
# Shear Modulus (GPa) = 22.99488 25.96915 24.48202
#
# Velocity S-wave (km/s) = 3.77376 4.01040 3.89387
# Velocity P-wave (km/s) = 8.36446 8.59118 8.47858
#
# Compressibility (1/GPa) = 0.01214932
#
# Stress axis : x y z
#
# Youngs Moduli (GPa) = 94.99701 87.00918 74.59776
#
# Poissons Ratio (x) = 0.33683 0.31634
# Poissons Ratio (y) = 0.36776 0.26302
# Poissons Ratio (z) = 0.40285 0.30678
#
# Static dielectric constant tensor:
#      x y z
#    x 1.537170 0.000000 0.000000 
#    y 0.000000 1.524380 0.000000 
#    z 0.000000 0.000000 1.552200 
# 
# From -- ./inp_files/10612.got.cif
#   From: 2010.05.17/outbox.cif.g08.bks.cpg/sg40_6_cif.got.tgz:10612.got - 2010.06.03 18:35:42.
