data_PCOD9363041
_publ_section_title
;
Structure prediction by ZEFSAII (Michael W. Deem and Ramdas Pophale) SiO2 
 PCOD9363041
Probable space group: A M A 2
;
_chemical_formula_sum "Si O2"
_cell_formula_units_Z 64
_cell_length_a 7.399321
_cell_length_b 25.424615
_cell_length_c 15.730254
_cell_angle_alpha 90.000000
_cell_angle_beta 90.000000
_cell_angle_gamma 90.000000
_cell_volume 2959.252267
_symmetry_space_group_name_H-M "A M A 2"
_symmetry_group_IT_number 40
_symmetry_cell_setting 'orthorhombic'
loop_
_space_group_symop_operation_xyz
x,y,z
-x,-y,z
1/2-x,y,z
1/2+x,-y,z
x,1/2+y,1/2+z
-x,1/2-y,1/2+z
1/2-x,1/2+y,1/2+z
1/2+x,1/2-y,1/2+z
loop_
_atom_site_type_symbol
_atom_site_label
_atom_site_fract_x
_atom_site_fract_y
_atom_site_fract_z
Si Si1 0.041424 0.095209 0.800890
Si Si2 0.970341 0.846468 0.098849
Si Si3 0.956409 0.370008 0.963306
Si Si4 0.466219 0.059482 0.980332
Si Si5 0.471184 0.171544 0.291614
Si Si6 0.968241 0.229284 0.569797
Si Si7 0.532355 0.210990 0.765187
Si Si8 0.466247 0.061593 0.617525
O O1 0.250000 0.077805 0.797060
O O2 0.961244 0.068987 0.884917
O O3 0.961057 0.080432 0.709154
O O4 0.036036 0.158317 0.809079
O O5 0.750000 0.846455 0.099368
O O6 0.025731 0.846800 0.197668
O O7 0.024428 0.789915 0.060477
O O8 0.033767 0.895861 0.044458
O O9 0.750000 0.388310 0.951571
O O10 0.039480 0.406397 0.036606
O O11 0.956144 0.311447 0.002572
O O12 0.036437 0.363849 0.869533
O O13 0.250000 0.066820 0.976019
O O14 0.500000 0.000000 0.008031
O O15 0.250000 0.171566 0.293281
O O16 0.526476 0.232685 0.301590
O O17 0.750000 0.227170 0.565158
O O18 0.020115 0.211241 0.665331
O O19 0.750000 0.209493 0.768206
O O20 0.250000 0.071657 0.618799
O O21 0.500000 0.000000 0.608279
#
# Coordination Sequence:
#
# PCOD9363041 Si02
#       8
#     8   8   8   8   8   8   8   8
#     4  10  20  33  49  74 105 134 165 206 256 302
#     4   8  16  33  53  73  99 133 172 208 248 301
#     4  10  19  32  51  76 104 133 166 207 253 297
#     4  10  21  36  54  74  99 134 175 217 256 298
#     4   8  16  31  51  74 103 135 167 202 247 305
#     4   9  17  30  50  76 103 133 166 200 244 302
#     4   9  17  30  49  75 104 135 168 199 238 298
#     4  10  21  35  50  70 100 135 170 207 249 297
#
# _framework density 21.627084
#
# number of rings (size 3 to 8) (size 9 to 14) (size 15 to 20)
#    0.000    2.750    1.250    1.875    1.750    1.500 
#    0.000    1.250    0.000    2.250    0.000    0.000 
#    0.000    0.000    0.000    0.000    0.000    0.000 
#
# Total GULP energy -178674.364609 kJ/mol
# GULP energy per Si atom -5583.573894 kJ/mol
# Density = 2.157786 g / cm^3
# Si number density = 21.627084 Si / 1000 Ang^3
#
#
#
# Elastic Constant Matrix: (Units=GPa)
#
#
# Indices 1 2 3 4 5 6 
#
# 1 71.8821 -10.3852 -0.3739 0.0000 0.0000 0.0000
# 2 -10.3852 128.4347 69.4553 0.0000 0.0000 0.0000
# 3 -0.3739 69.4553 104.7025 0.0000 0.0000 0.0000
# 4 0.0000 0.0000 0.0000 31.0802 0.0000 0.0000
# 5 0.0000 0.0000 0.0000 0.0000 -5.8461 0.0000
# 6 0.0000 0.0000 0.0000 0.0000 0.0000 18.7027
#
#
#
# Elastic Compliance Matrix: (Units=1/GPa)
#
#
# Indices 1 2 3 4 5 6 
#
# 1 0.014158 0.001743 -0.001105 0.000000 0.000000 0.000000
# 2 0.001743 0.012356 -0.008190 0.000000 0.000000 0.000000
# 3 -0.001105 -0.008190 0.014980 0.000000 0.000000 0.000000
# 4 0.000000 0.000000 0.000000 0.032175 0.000000 0.000000
# 5 0.000000 0.000000 0.000000 0.000000 -0.171054 0.000000
# 6 0.000000 0.000000 0.000000 0.000000 0.000000 0.053468
#
#
# Mechanical properties :
#
#
# Convention : Reuss Voigt Hill
#
# Bulk Modulus (GPa) = 37.89664 46.93463 42.41564
# Shear Modulus (GPa) = -249.81843 25.20891 -112.30476
#
# Velocity S-wave (km/s) = -10.75930 3.41782 -7.21391
# Velocity P-wave (km/s) = 11.69570 6.10935 7.05213
#
# Compressibility (1/GPa) = 0.02638756
#
# Stress axis : x y z
#
# Youngs Moduli (GPa) = 70.63305 80.93131 66.75538
#
# Poissons Ratio (x) = -0.14103 0.07379
# Poissons Ratio (y) = -0.12308 0.54675
# Poissons Ratio (z) = 0.07808 0.66286
#
# Static dielectric constant tensor:
#      x y z
#    x 1.816020 0.000000 0.000000 
#    y 0.000000 1.740690 0.000000 
#    z 0.000000 0.000000 1.797900 
# 
# From -- ./inp_files/15557.got.cif
#   From: 2010.05.17/outbox.cif.g08.bks.cpg/sg40_8_cif.got.tgz:15557.got - 2010.06.03 18:35:42.
