data_PCOD9363526
_publ_section_title
;
Structure prediction by ZEFSAII (Michael W. Deem and Ramdas Pophale) SiO2 
 PCOD9363526
Probable space group: A M A 2
;
_chemical_formula_sum "Si O2"
_cell_formula_units_Z 52
_cell_length_a 15.316584
_cell_length_b 8.244464
_cell_length_c 20.549910
_cell_angle_alpha 90.000000
_cell_angle_beta 90.000000
_cell_angle_gamma 90.000000
_cell_volume 2594.981507
_symmetry_space_group_name_H-M "A M A 2"
_symmetry_group_IT_number 40
_symmetry_cell_setting 'orthorhombic'
loop_
_space_group_symop_operation_xyz
x,y,z
-x,-y,z
1/2-x,y,z
1/2+x,-y,z
x,1/2+y,1/2+z
-x,1/2-y,1/2+z
1/2-x,1/2+y,1/2+z
1/2+x,1/2-y,1/2+z
loop_
_atom_site_type_symbol
_atom_site_label
_atom_site_fract_x
_atom_site_fract_y
_atom_site_fract_z
Si Si1 0.012807 0.686338 0.821320
Si Si2 0.500000 0.500000 0.230243
Si Si3 0.151739 0.707190 0.403862
Si Si4 0.647366 0.678540 0.424159
Si Si5 0.446634 0.337158 0.564530
Si Si6 0.848117 0.389183 0.136154
Si Si7 0.580125 0.095840 0.522288
O O1 0.093021 0.714055 0.872507
O O2 0.000000 0.500000 0.797635
O O3 0.923023 0.724767 0.858552
O O4 0.020124 0.835630 0.770723
O O5 0.584341 0.460984 0.186935
O O6 0.250000 0.749351 0.384151
O O7 0.144015 0.512065 0.405093
O O8 0.131808 0.787862 0.474062
O O9 0.750000 0.725544 0.429122
O O10 0.598788 0.679535 0.493952
O O11 0.500000 0.500000 0.569166
O O12 0.375680 0.294942 0.618676
O O13 0.522018 0.202479 0.571005
O O14 0.750000 0.402275 0.158964
O O15 0.860204 0.482268 0.066705
O O16 0.500000 0.000000 0.486651
#
# Coordination Sequence:
#
# PCOD9363526 Si02
#       7
#     8   4   8   8   8   8   8
#     4  12  26  45  68  93 132 182 231 281 339 400
#     4  12  26  50  68  92 132 186 240 282 332 400
#     4  11  21  37  64 100 141 175 213 274 341 408
#     4  11  22  38  65 102 141 178 216 277 342 408
#     4  11  19  37  67  98 137 172 216 272 346 415
#     4  11  25  45  69  97 133 179 229 286 344 407
#     4  10  19  37  63  96 132 172 211 268 343 403
#
# _framework density 20.038678000000001
#
# number of rings (size 3 to 8) (size 9 to 14) (size 15 to 20)
#    0.000    0.923    6.923    1.385    2.154    2.462 
#    0.000    0.000    0.000    0.000    0.000    0.000 
#    0.000    0.000    0.000    0.000    0.000    0.000 
#
# Total GULP energy -145052.419157 kJ/mol
# GULP energy per Si atom -5578.939198 kJ/mol
# Density = 1.999307 g / cm^3
# Si number density = 20.038678 Si / 1000 Ang^3
#
#
#
# Elastic Constant Matrix: (Units=GPa)
#
#
# Indices 1 2 3 4 5 6 
#
# 1 157.7387 45.7448 42.0978 0.0000 0.0000 0.0000
# 2 45.7448 116.4575 39.7526 0.0000 0.0000 0.0000
# 3 42.0978 39.7526 66.8271 0.0000 0.0000 0.0000
# 4 0.0000 0.0000 0.0000 27.7665 0.0000 0.0000
# 5 0.0000 0.0000 0.0000 0.0000 11.4212 0.0000
# 6 0.0000 0.0000 0.0000 0.0000 0.0000 14.8441
#
#
#
# Elastic Compliance Matrix: (Units=1/GPa)
#
#
# Indices 1 2 3 4 5 6 
#
# 1 0.007899 -0.001762 -0.003928 0.000000 0.000000 0.000000
# 2 -0.001762 0.011168 -0.005533 0.000000 0.000000 0.000000
# 3 -0.003928 -0.005533 0.020730 0.000000 0.000000 0.000000
# 4 0.000000 0.000000 0.000000 0.036015 0.000000 0.000000
# 5 0.000000 0.000000 0.000000 0.000000 0.087557 0.000000
# 6 0.000000 0.000000 0.000000 0.000000 0.000000 0.067367
#
#
# Mechanical properties :
#
#
# Convention : Reuss Voigt Hill
#
# Bulk Modulus (GPa) = 57.63561 66.24598 61.94080
# Shear Modulus (GPa) = 19.30770 25.03488 22.17129
#
# Velocity S-wave (km/s) = 3.10743 3.53842 3.32990
# Velocity P-wave (km/s) = 6.45751 7.05866 6.76477
#
# Compressibility (1/GPa) = 0.01735038
#
# Stress axis : x y z
#
# Youngs Moduli (GPa) = 126.60107 89.54416 48.23978
#
# Poissons Ratio (x) = 0.15777 0.18948
# Poissons Ratio (y) = 0.22306 0.26692
# Poissons Ratio (z) = 0.49726 0.49547
#
# Static dielectric constant tensor:
#      x y z
#    x 1.703590 0.000000 0.000000 
#    y 0.000000 1.825760 0.000000 
#    z 0.000000 0.000000 1.724140 
# 
# From -- ./inp_files/23061.got.cif
#   From: 2010.05.17/outbox.cif.g08.bks.cpg/sg40_12_cif.got.tgz:23061.got - 2010.06.03 18:35:42.
