data_PCOD9363452
_publ_section_title
;
Structure prediction by ZEFSAII (Michael W. Deem and Ramdas Pophale) SiO2 
 PCOD9363452
Probable space group: A M A 2
;
_chemical_formula_sum "Si O2"
_cell_formula_units_Z 64
_cell_length_a 14.907981
_cell_length_b 22.662050
_cell_length_c 9.093241
_cell_angle_alpha 90.000000
_cell_angle_beta 90.000000
_cell_angle_gamma 90.000000
_cell_volume 3072.109741
_symmetry_space_group_name_H-M "A M A 2"
_symmetry_group_IT_number 40
_symmetry_cell_setting 'orthorhombic'
loop_
_space_group_symop_operation_xyz
x,y,z
-x,-y,z
1/2-x,y,z
1/2+x,-y,z
x,1/2+y,1/2+z
-x,1/2-y,1/2+z
1/2-x,1/2+y,1/2+z
1/2+x,1/2-y,1/2+z
loop_
_atom_site_type_symbol
_atom_site_label
_atom_site_fract_x
_atom_site_fract_y
_atom_site_fract_z
Si Si1 0.352786 0.781862 0.826240
Si Si2 0.048930 0.057815 0.815396
Si Si3 0.855025 0.652974 0.628732
Si Si4 0.350334 0.492890 0.050079
Si Si5 0.855099 0.024363 0.235456
Si Si6 0.577666 0.629856 0.105304
Si Si7 0.482499 0.174057 0.312611
Si Si8 0.145399 0.600695 0.591041
O O1 0.250000 0.760150 0.826332
O O2 0.375795 0.812587 0.671472
O O3 0.423784 0.730553 0.854784
O O4 0.359825 0.829366 0.958489
O O5 0.982321 0.102051 0.733947
O O6 0.102796 0.026804 0.682080
O O7 0.106210 0.097181 0.927060
O O8 0.000000 0.000000 0.886255
O O9 0.750000 0.660699 0.672311
O O10 0.884979 0.585326 0.661995
O O11 0.927089 0.689812 0.721844
O O12 0.250000 0.516707 0.042497
O O13 0.352360 0.422610 0.075791
O O14 0.396047 0.496176 0.890414
O O15 0.750000 0.035636 0.268529
O O16 0.858575 0.968220 0.133343
O O17 0.518797 0.642253 0.960051
O O18 0.417619 0.136172 0.204469
O O19 0.250000 0.619642 0.598148
#
# Coordination Sequence:
#
# PCOD9363452 Si02
#       8
#     8   8   8   8   8   8   8   8
#     4  11  25  44  65  92 128 173 225 284 339 393
#     4  10  23  36  58  94 132 169 214 267 337 399
#     4  10  22  41  66  95 127 166 219 277 331 394
#     4  10  19  36  59  90 131 166 205 262 329 405
#     4   9  19  35  60  93 123 162 212 261 324 390
#     4  11  23  39  62  93 123 168 217 272 333 397
#     4  12  24  42  68  92 132 171 225 275 336 398
#     4  11  24  40  62  92 130 175 217 267 333 404
#
# _framework density 20.83259
#
# number of rings (size 3 to 8) (size 9 to 14) (size 15 to 20)
#    0.000    1.500    1.250    3.375    5.250    0.500 
#    0.000    1.875    0.000    4.500    0.000    0.000 
#    0.000    0.000    0.000    0.000    0.000    0.000 
#
# Total GULP energy -178544.533636 kJ/mol
# GULP energy per Si atom -5579.516676 kJ/mol
# Density = 2.078517 g / cm^3
# Si number density = 20.832590 Si / 1000 Ang^3
#
#
#
# Elastic Constant Matrix: (Units=GPa)
#
#
# Indices 1 2 3 4 5 6 
#
# 1 121.7590 16.9719 47.9328 0.0000 0.0000 0.0000
# 2 16.9719 26.3253 13.1401 0.0000 0.0000 0.0000
# 3 47.9328 13.1401 93.3972 0.0000 0.0000 0.0000
# 4 0.0000 0.0000 0.0000 25.8940 0.0000 0.0000
# 5 0.0000 0.0000 0.0000 0.0000 26.0498 0.0000
# 6 0.0000 0.0000 0.0000 0.0000 0.0000 23.7343
#
#
#
# Elastic Compliance Matrix: (Units=1/GPa)
#
#
# Indices 1 2 3 4 5 6 
#
# 1 0.010766 -0.004499 -0.004892 0.000000 0.000000 0.000000
# 2 -0.004499 0.042735 -0.003704 0.000000 0.000000 0.000000
# 3 -0.004892 -0.003704 0.013739 0.000000 0.000000 0.000000
# 4 0.000000 0.000000 0.000000 0.038619 0.000000 0.000000
# 5 0.000000 0.000000 0.000000 0.000000 0.038388 0.000000
# 6 0.000000 0.000000 0.000000 0.000000 0.000000 0.042133
#
#
# Mechanical properties :
#
#
# Convention : Reuss Voigt Hill
#
# Bulk Modulus (GPa) = 24.36018 44.17457 34.26737
# Shear Modulus (GPa) = 22.09913 26.03140 24.06526
#
# Velocity S-wave (km/s) = 3.26052 3.53873 3.40247
# Velocity P-wave (km/s) = 5.08855 6.16015 5.64981
#
# Compressibility (1/GPa) = 0.04105060
#
# Stress axis : x y z
#
# Youngs Moduli (GPa) = 92.88504 23.39987 72.78648
#
# Poissons Ratio (x) = 0.10527 0.35609
# Poissons Ratio (y) = 0.41788 0.26957
# Poissons Ratio (z) = 0.45442 0.08666
#
# Static dielectric constant tensor:
#      x y z
#    x 1.775670 0.000000 0.000000 
#    y 0.000000 1.742530 0.000000 
#    z 0.000000 0.000000 1.798150 
# 
# From -- ./inp_files/6893.got.cif
#   From: 2010.05.17/outbox.cif.g08.bks.cpg/sg40_4_cif.got.tgz:6893.got - 2010.06.03 18:35:42.
