data_PCOD9363240
_publ_section_title
;
Structure prediction by ZEFSAII (Michael W. Deem and Ramdas Pophale) SiO2 
 PCOD9363240
Probable space group: A M A 2
;
_chemical_formula_sum "Si O2"
_cell_formula_units_Z 48
_cell_length_a 16.138466
_cell_length_b 16.968855
_cell_length_c 7.402984
_cell_angle_alpha 90.000000
_cell_angle_beta 90.000000
_cell_angle_gamma 90.000000
_cell_volume 2027.316714
_symmetry_space_group_name_H-M "A M A 2"
_symmetry_group_IT_number 40
_symmetry_cell_setting 'orthorhombic'
loop_
_space_group_symop_operation_xyz
x,y,z
-x,-y,z
1/2-x,y,z
1/2+x,-y,z
x,1/2+y,1/2+z
-x,1/2-y,1/2+z
1/2-x,1/2+y,1/2+z
1/2+x,1/2-y,1/2+z
loop_
_atom_site_type_symbol
_atom_site_label
_atom_site_fract_x
_atom_site_fract_y
_atom_site_fract_z
Si Si1 0.009668 0.128695 0.646200
Si Si2 0.662041 0.293828 0.744018
Si Si3 0.841400 0.614154 0.269473
Si Si4 0.157437 0.548649 0.968070
Si Si5 0.345500 0.913715 0.167706
Si Si6 0.989616 0.194905 0.048679
O O1 0.857307 0.013799 0.304977
O O2 0.026991 0.211181 0.544279
O O3 0.078956 0.064883 0.598589
O O4 0.913296 0.103177 0.622900
O O5 0.750000 0.293293 0.639745
O O6 0.580782 0.307421 0.631017
O O7 0.655223 0.206554 0.829870
O O8 0.665745 0.365810 0.877987
O O9 0.750000 0.607124 0.191683
O O10 0.848222 0.563604 0.452747
O O11 0.003424 0.651858 0.357417
O O12 0.250000 0.534874 0.047878
O O13 0.250000 0.884101 0.195960
O O14 0.420788 0.850406 0.170695
#
# Coordination Sequence:
#
# PCOD9363240 Si02
#       6
#     8   8   8   8   8   8
#     4  10  19  33  58  93 125 157 208 264 313 368
#     4   9  18  34  57  85 118 160 209 260 310 363
#     4   8  15  31  56  84 117 161 213 263 307 361
#     4  10  20  34  56  88 125 163 205 257 316 379
#     4   9  18  33  55  84 120 166 213 254 306 371
#     4  10  20  35  60  90 123 163 208 258 310 370
#
# _framework density 23.676615999999999
#
# number of rings (size 3 to 8) (size 9 to 14) (size 15 to 20)
#    0.000    2.667    0.000    3.000    0.000    3.333 
#    0.000    0.000    0.000   22.000    0.000   25.667 
#    0.000    0.000    0.000    0.000    0.000   28.000 
#
# Total GULP energy -133780.110703 kJ/mol
# GULP energy per Si atom -5574.171279 kJ/mol
# Density = 2.362273 g / cm^3
# Si number density = 23.676616 Si / 1000 Ang^3
#
#
#
# Elastic Constant Matrix: (Units=GPa)
#
#
# Indices 1 2 3 4 5 6 
#
# 1 249.0181 75.8462 67.1476 0.0000 0.0000 0.0000
# 2 75.8462 145.6779 55.2060 0.0000 0.0000 0.0000
# 3 67.1476 55.2060 73.3264 0.0000 0.0000 0.0000
# 4 0.0000 0.0000 0.0000 43.3158 0.0000 0.0000
# 5 0.0000 0.0000 0.0000 0.0000 22.0502 0.0000
# 6 0.0000 0.0000 0.0000 0.0000 0.0000 116.9503
#
#
#
# Elastic Compliance Matrix: (Units=1/GPa)
#
#
# Indices 1 2 3 4 5 6 
#
# 1 0.005513 -0.001339 -0.004040 0.000000 0.000000 0.000000
# 2 -0.001339 0.009930 -0.006250 0.000000 0.000000 0.000000
# 3 -0.004040 -0.006250 0.022043 0.000000 0.000000 0.000000
# 4 0.000000 0.000000 0.000000 0.023086 0.000000 0.000000
# 5 0.000000 0.000000 0.000000 0.000000 0.045351 0.000000
# 6 0.000000 0.000000 0.000000 0.000000 0.000000 0.008551
#
#
# Mechanical properties :
#
#
# Convention : Reuss Voigt Hill
#
# Bulk Modulus (GPa) = 70.28673 96.04692 83.16682
# Shear Modulus (GPa) = 35.09382 54.45144 44.77263
#
# Velocity S-wave (km/s) = 3.85413 4.80082 4.35329
# Velocity P-wave (km/s) = 7.03963 8.44895 7.77628
#
# Compressibility (1/GPa) = 0.01422744
#
# Stress axis : x y z
#
# Youngs Moduli (GPa) = 181.38454 100.70319 45.36623
#
# Poissons Ratio (x) = 0.13487 0.18329
# Poissons Ratio (y) = 0.24293 0.28353
# Poissons Ratio (z) = 0.73284 0.62938
#
# Static dielectric constant tensor:
#      x y z
#    x 2.152120 0.000000 0.000000 
#    y 0.000000 1.900290 0.000000 
#    z 0.000000 0.000000 1.952980 
# 
# From -- ./inp_files/12287.got.cif
#   From: 2010.05.17/outbox.cif.g08.bks.cpg/sg40_7_cif.got.tgz:12287.got - 2010.06.03 18:35:42.
