data_PCOD9363378
_publ_section_title
;
Structure prediction by ZEFSAII (Michael W. Deem and Ramdas Pophale) SiO2 
 PCOD9363378
Probable space group: A M A 2
;
_chemical_formula_sum "Si O2"
_cell_formula_units_Z 60
_cell_length_a 9.829910
_cell_length_b 12.496223
_cell_length_c 22.244566
_cell_angle_alpha 90.000000
_cell_angle_beta 90.000000
_cell_angle_gamma 90.000000
_cell_volume 2732.450135
_symmetry_space_group_name_H-M "A M A 2"
_symmetry_group_IT_number 40
_symmetry_cell_setting 'orthorhombic'
loop_
_space_group_symop_operation_xyz
x,y,z
-x,-y,z
1/2-x,y,z
1/2+x,-y,z
x,1/2+y,1/2+z
-x,1/2-y,1/2+z
1/2-x,1/2+y,1/2+z
1/2+x,1/2-y,1/2+z
loop_
_atom_site_type_symbol
_atom_site_label
_atom_site_fract_x
_atom_site_fract_y
_atom_site_fract_z
Si Si1 0.094458 0.087732 0.448730
Si Si2 0.899782 0.779115 0.562772
Si Si3 0.592162 0.398004 0.178440
Si Si4 0.411558 0.328371 0.842530
Si Si5 0.517675 0.151330 0.205357
Si Si6 0.401024 0.097572 0.895949
Si Si7 0.403007 0.600570 0.540363
Si Si8 0.250000 0.516317 0.672498
O O1 0.250000 0.053835 0.438318
O O2 0.098119 0.187156 0.493508
O O3 0.011780 0.115593 0.389272
O O4 0.000000 0.000000 0.480017
O O5 0.750000 0.729656 0.573128
O O6 0.907625 0.881117 0.606051
O O7 0.026013 0.700773 0.571138
O O8 0.500000 0.500000 0.195363
O O9 0.750000 0.410933 0.197987
O O10 0.539963 0.279765 0.197525
O O11 0.250000 0.349300 0.852272
O O12 0.451966 0.363478 0.776324
O O13 0.431420 0.202551 0.857409
O O14 0.371394 0.105708 0.187603
O O15 0.631125 0.079727 0.172325
O O16 0.250000 0.061556 0.880165
O O17 0.500000 0.000000 0.885451
O O18 0.398462 0.121032 0.968230
O O19 0.500000 0.500000 0.548316
O O20 0.250000 0.576731 0.564782
#
# Coordination Sequence:
#
# PCOD9363378 Si02
#       8
#     8   8   8   8   8   8   8   4
#     4  11  24  37  58  88 123 165 208 254 314 386
#     4  10  22  42  62  91 128 169 217 271 328 389
#     4  11  25  47  72 100 137 176 229 287 341 407
#     4  11  22  38  62  92 130 168 216 266 324 391
#     4  11  24  46  70 102 134 179 223 285 347 403
#     4   9  19  34  54  82 120 166 210 263 317 374
#     4  10  19  35  57  85 122 166 214 266 324 388
#     4  10  24  46  74  96 138 172 224 280 350 412
#
# _framework density 21.958316
#
# number of rings (size 3 to 8) (size 9 to 14) (size 15 to 20)
#    0.000    1.600    2.667    1.200    3.733    2.667 
#    2.400    0.000    0.000    0.000    0.000    0.000 
#    0.000    0.000    0.000    0.000    0.000    0.000 
#
# Total GULP energy -167131.990388 kJ/mol
# GULP energy per Si atom -5571.066346 kJ/mol
# Density = 2.190834 g / cm^3
# Si number density = 21.958316 Si / 1000 Ang^3
#
#
#
# Elastic Constant Matrix: (Units=GPa)
#
#
# Indices 1 2 3 4 5 6 
#
# 1 220.3542 92.6832 10.7782 0.0000 0.0000 0.0000
# 2 92.6832 125.9397 -4.1525 0.0000 0.0000 0.0000
# 3 10.7782 -4.1525 38.9453 0.0000 0.0000 0.0000
# 4 0.0000 0.0000 0.0000 8.3281 0.0000 0.0000
# 5 0.0000 0.0000 0.0000 0.0000 -11.5747 0.0000
# 6 0.0000 0.0000 0.0000 0.0000 0.0000 62.1696
#
#
#
# Elastic Compliance Matrix: (Units=1/GPa)
#
#
# Indices 1 2 3 4 5 6 
#
# 1 0.006793 -0.005079 -0.002421 0.000000 0.000000 0.000000
# 2 -0.005079 0.011766 0.002660 0.000000 0.000000 0.000000
# 3 -0.002421 0.002660 0.026631 0.000000 0.000000 0.000000
# 4 0.000000 0.000000 0.000000 0.120075 0.000000 0.000000
# 5 0.000000 0.000000 0.000000 0.000000 -0.086396 0.000000
# 6 0.000000 0.000000 0.000000 0.000000 0.000000 0.016085
#
#
# Mechanical properties :
#
#
# Convention : Reuss Voigt Hill
#
# Bulk Modulus (GPa) = 28.16199 64.87301 46.51750
# Shear Modulus (GPa) = 42.92933 30.84664 36.88799
#
# Velocity S-wave (km/s) = 4.42638 3.75211 4.10312
# Velocity P-wave (km/s) = 6.24314 6.95550 6.60892
#
# Compressibility (1/GPa) = 0.03550885
#
# Stress axis : x y z
#
# Youngs Moduli (GPa) = 147.21410 84.99249 37.55049
#
# Poissons Ratio (x) = 0.43167 0.09093
# Poissons Ratio (y) = 0.74769 -0.09989
# Poissons Ratio (z) = 0.35647 -0.22609
#
# Static dielectric constant tensor:
#      x y z
#    x 1.784550 0.000000 0.000000 
#    y 0.000000 1.944660 0.000000 
#    z 0.000000 0.000000 1.981750 
# 
# From -- ./inp_files/25394.got.cif
#   From: 2010.05.17/outbox.cif.g08.bks.cpg/sg40_13_cif.got.tgz:25394.got - 2010.06.03 18:35:42.
