data_PCOD9363480
_publ_section_title
;
Structure prediction by ZEFSAII (Michael W. Deem and Ramdas Pophale) SiO2 
 PCOD9363480
Probable space group: A M A 2
;
_chemical_formula_sum "Si O2"
_cell_formula_units_Z 64
_cell_length_a 18.260200
_cell_length_b 14.078708
_cell_length_c 13.749908
_cell_angle_alpha 90.000000
_cell_angle_beta 90.000000
_cell_angle_gamma 90.000000
_cell_volume 3534.826676
_symmetry_space_group_name_H-M "A M A 2"
_symmetry_group_IT_number 40
_symmetry_cell_setting 'orthorhombic'
loop_
_space_group_symop_operation_xyz
x,y,z
-x,-y,z
1/2-x,y,z
1/2+x,-y,z
x,1/2+y,1/2+z
-x,1/2-y,1/2+z
1/2-x,1/2+y,1/2+z
1/2+x,1/2-y,1/2+z
loop_
_atom_site_type_symbol
_atom_site_label
_atom_site_fract_x
_atom_site_fract_y
_atom_site_fract_z
Si Si1 0.399596 0.281961 0.750000
Si Si2 0.414839 0.968211 0.118148
Si Si3 0.336423 0.662860 0.635596
Si Si4 0.663830 0.699903 0.962764
Si Si5 0.416134 0.964931 0.889332
Si Si6 0.057909 0.798042 0.752457
Si Si7 0.430420 0.444730 0.084021
Si Si8 0.662563 0.920872 0.721891
O O1 0.398968 0.373178 0.679516
O O2 0.356168 0.294221 0.850419
O O3 0.484286 0.258829 0.774881
O O4 0.364698 0.186361 0.705974
O O5 0.500000 0.000000 0.129212
O O6 0.365550 0.057112 0.149253
O O7 0.399675 0.956951 0.003048
O O8 0.250000 0.668609 0.650758
O O9 0.352219 0.705045 0.526891
O O10 0.380023 0.730864 0.708686
O O11 0.750000 0.680593 0.975378
O O12 0.614568 0.617651 0.008829
O O13 0.413219 0.861301 0.840691
O O14 0.500000 0.000000 0.879133
O O15 0.367148 0.036939 0.825109
O O16 0.039282 0.873959 0.667489
O O17 0.500000 0.500000 0.042091
O O18 0.374877 0.513978 0.140071
O O19 0.750000 0.926551 0.720057
#
# Coordination Sequence:
#
# PCOD9363480 Si02
#       8
#     8   8   8   8   8   8   8   8
#     4  12  22  37  58  87 121 155 196 241 291 349
#     4  11  24  38  60  86 119 158 202 243 294 348
#     4  10  22  42  63  86 119 157 198 245 295 355
#     4  10  23  39  61  89 118 153 197 244 294 348
#     4  10  20  37  61  91 119 151 196 249 289 350
#     4  10  19  36  62  91 118 149 199 245 295 347
#     4  10  19  38  63  89 114 150 195 245 289 346
#     4  11  21  37  61  88 119 152 189 238 302 354
#
# _framework density 18.105556
#
# number of rings (size 3 to 8) (size 9 to 14) (size 15 to 20)
#    0.000    1.500    3.750    2.250    1.750    6.000 
#    0.000    0.000    0.000    1.500    0.000    0.000 
#    0.000    0.000    0.000    0.000    0.000    0.000 
#
# Total GULP energy -178664.560991 kJ/mol
# GULP energy per Si atom -5583.267531 kJ/mol
# Density = 1.806435 g / cm^3
# Si number density = 18.105556 Si / 1000 Ang^3
#
#
#
# Elastic Constant Matrix: (Units=GPa)
#
#
# Indices 1 2 3 4 5 6 
#
# 1 100.9358 41.4503 6.8985 0.0000 0.0000 0.0000
# 2 41.4503 126.6756 31.5873 0.0000 0.0000 0.0000
# 3 6.8985 31.5873 25.1146 0.0000 0.0000 0.0000
# 4 0.0000 0.0000 0.0000 18.1752 0.0000 0.0000
# 5 0.0000 0.0000 0.0000 0.0000 23.2061 0.0000
# 6 0.0000 0.0000 0.0000 0.0000 0.0000 25.0338
#
#
#
# Elastic Compliance Matrix: (Units=1/GPa)
#
#
# Indices 1 2 3 4 5 6 
#
# 1 0.011536 -0.004348 0.002300 0.000000 0.000000 0.000000
# 2 -0.004348 0.013140 -0.015332 0.000000 0.000000 0.000000
# 3 0.002300 -0.015332 0.058469 0.000000 0.000000 0.000000
# 4 0.000000 0.000000 0.000000 0.055020 0.000000 0.000000
# 5 0.000000 0.000000 0.000000 0.000000 0.043092 0.000000
# 6 0.000000 0.000000 0.000000 0.000000 0.000000 0.039946
#
#
# Mechanical properties :
#
#
# Convention : Reuss Voigt Hill
#
# Bulk Modulus (GPa) = 20.66770 45.84424 33.25597
# Shear Modulus (GPa) = 18.37612 24.80237 21.58925
#
# Velocity S-wave (km/s) = 3.18927 3.70520 3.45688
# Velocity P-wave (km/s) = 5.00019 6.60910 5.86012
#
# Compressibility (1/GPa) = 0.04838468
#
# Stress axis : x y z
#
# Youngs Moduli (GPa) = 86.68720 76.10231 17.10296
#
# Poissons Ratio (x) = 0.33091 -0.03934
# Poissons Ratio (y) = 0.37694 0.26223
# Poissons Ratio (z) = -0.19941 1.16683
#
# Static dielectric constant tensor:
#      x y z
#    x 1.602900 0.000000 0.000000 
#    y 0.000000 1.619090 0.000000 
#    z 0.000000 0.000000 1.612000 
# 
# From -- ./inp_files/13159.got.cif
#   From: 2010.05.17/outbox.cif.g08.bks.cpg/sg40_7_cif.got.tgz:13159.got - 2010.06.03 18:35:42.
