data_PCOD9363706
_publ_section_title
;
Structure prediction by ZEFSAII (Michael W. Deem and Ramdas Pophale) SiO2 
 PCOD9363706
Probable space group: A M A 2
;
_chemical_formula_sum "Si O2"
_cell_formula_units_Z 64
_cell_length_a 8.866454
_cell_length_b 23.811516
_cell_length_c 19.391269
_cell_angle_alpha 90.000000
_cell_angle_beta 90.000000
_cell_angle_gamma 90.000000
_cell_volume 4093.956678
_symmetry_space_group_name_H-M "A M A 2"
_symmetry_group_IT_number 40
_symmetry_cell_setting 'orthorhombic'
loop_
_space_group_symop_operation_xyz
x,y,z
-x,-y,z
1/2-x,y,z
1/2+x,-y,z
x,1/2+y,1/2+z
-x,1/2-y,1/2+z
1/2-x,1/2+y,1/2+z
1/2+x,1/2-y,1/2+z
loop_
_atom_site_type_symbol
_atom_site_label
_atom_site_fract_x
_atom_site_fract_y
_atom_site_fract_z
Si Si1 0.070414 0.230835 0.797450
Si Si2 0.069633 0.938277 0.296519
Si Si3 0.568489 0.061193 0.011416
Si Si4 0.430547 0.335659 0.418581
Si Si5 0.431041 0.375988 0.652328
Si Si6 0.569239 0.837427 0.376018
Si Si7 0.428802 0.748100 0.654838
Si Si8 0.571129 0.272945 0.012908
O O1 0.250000 0.235241 0.796364
O O2 0.016010 0.182677 0.849841
O O3 0.001580 0.288694 0.828151
O O4 0.006334 0.223729 0.720974
O O5 0.250000 0.940675 0.304187
O O6 0.036608 0.910632 0.221704
O O7 0.998715 0.896297 0.352540
O O8 0.000000 0.000000 0.300426
O O9 0.750000 0.057393 0.011107
O O10 0.525045 0.088404 0.084990
O O11 0.500000 0.000000 0.002901
O O12 0.524841 0.105277 0.951887
O O13 0.250000 0.335167 0.405800
O O14 0.458541 0.286865 0.475367
O O15 0.250000 0.365794 0.649160
O O16 0.512726 0.316247 0.653051
O O17 0.750000 0.836622 0.367244
O O18 0.536300 0.819335 0.454751
O O19 0.250000 0.749043 0.662577
O O20 0.479513 0.775875 0.583113
O O21 0.750000 0.274855 0.028101
#
# Coordination Sequence:
#
# PCOD9363706 Si02
#       8
#     8   8   8   8   8   8   8   8
#     4  11  21  33  51  73 101 132 167 211 257 305
#     4  11  22  34  52  73 102 141 179 217 251 297
#     4  10  20  34  51  71 101 138 175 212 251 294
#     4   9  18  34  52  71  99 134 168 209 255 299
#     4  10  20  35  49  68 101 141 177 211 250 291
#     4  10  20  35  53  74 100 132 170 211 256 305
#     4  12  22  31  50  77 103 134 171 209 251 307
#     4   9  18  34  53  71 100 133 164 207 259 306
#
# _framework density 15.632799
#
# number of rings (size 3 to 8) (size 9 to 14) (size 15 to 20)
#    0.000    1.750    2.500    4.125    0.000    4.000 
#    0.000    0.000    0.000    0.000    0.000    0.875 
#    0.000    2.000    0.000    0.000    0.000    0.000 
#
# Total GULP energy -178686.029224 kJ/mol
# GULP energy per Si atom -5583.938413 kJ/mol
# Density = 1.559722 g / cm^3
# Si number density = 15.632799 Si / 1000 Ang^3
#
#
#
# Elastic Constant Matrix: (Units=GPa)
#
#
# Indices 1 2 3 4 5 6 
#
# 1 74.2526 45.8434 67.4029 0.0000 0.0000 0.0000
# 2 45.8434 92.8020 65.1969 0.0000 0.0000 0.0000
# 3 67.4029 65.1969 125.9982 0.0000 0.0000 0.0000
# 4 0.0000 0.0000 0.0000 18.5230 0.0000 0.0000
# 5 0.0000 0.0000 0.0000 0.0000 21.1117 0.0000
# 6 0.0000 0.0000 0.0000 0.0000 0.0000 25.8591
#
#
#
# Elastic Compliance Matrix: (Units=1/GPa)
#
#
# Indices 1 2 3 4 5 6 
#
# 1 0.027655 -0.005134 -0.012137 0.000000 0.000000 0.000000
# 2 -0.005134 0.017883 -0.006507 0.000000 0.000000 0.000000
# 3 -0.012137 -0.006507 0.017797 0.000000 0.000000 0.000000
# 4 0.000000 0.000000 0.000000 0.053987 0.000000 0.000000
# 5 0.000000 0.000000 0.000000 0.000000 0.047367 0.000000
# 6 0.000000 0.000000 0.000000 0.000000 0.000000 0.038671
#
#
# Mechanical properties :
#
#
# Convention : Reuss Voigt Hill
#
# Bulk Modulus (GPa) = 63.38129 72.21545 67.79837
# Shear Modulus (GPa) = 19.51771 20.73938 20.12854
#
# Velocity S-wave (km/s) = 3.53726 3.64628 3.59219
# Velocity P-wave (km/s) = 7.57065 8.00139 7.78900
#
# Compressibility (1/GPa) = 0.01577753
#
# Stress axis : x y z
#
# Youngs Moduli (GPa) = 36.15932 55.91779 56.19059
#
# Poissons Ratio (x) = 0.28711 0.68201
# Poissons Ratio (y) = 0.18566 0.36563
# Poissons Ratio (z) = 0.43888 0.36385
#
# Static dielectric constant tensor:
#      x y z
#    x 1.520650 0.000000 0.000000 
#    y 0.000000 1.495000 0.000000 
#    z 0.000000 0.000000 1.523630 
# 
# From -- ./inp_files/19698.got.cif
#   From: 2010.05.17/outbox.cif.g08.bks.cpg/sg40_10_cif.got.tgz:19698.got - 2010.06.03 18:35:42.
