data_PCOD9363252
_publ_section_title
;
Structure prediction by ZEFSAII (Michael W. Deem and Ramdas Pophale) SiO2 
 PCOD9363252
Probable space group: A M A 2
;
_chemical_formula_sum "Si O2"
_cell_formula_units_Z 64
_cell_length_a 8.564477
_cell_length_b 20.730053
_cell_length_c 20.377291
_cell_angle_alpha 90.000000
_cell_angle_beta 90.000000
_cell_angle_gamma 90.000000
_cell_volume 3617.826265
_symmetry_space_group_name_H-M "A M A 2"
_symmetry_group_IT_number 40
_symmetry_cell_setting 'orthorhombic'
loop_
_space_group_symop_operation_xyz
x,y,z
-x,-y,z
1/2-x,y,z
1/2+x,-y,z
x,1/2+y,1/2+z
-x,1/2-y,1/2+z
1/2-x,1/2+y,1/2+z
1/2+x,1/2-y,1/2+z
loop_
_atom_site_type_symbol
_atom_site_label
_atom_site_fract_x
_atom_site_fract_y
_atom_site_fract_z
Si Si1 0.563807 0.824480 0.406990
Si Si2 0.439373 0.681690 0.409099
Si Si3 0.062372 0.824044 0.260830
Si Si4 0.061792 0.070435 0.008806
Si Si5 0.937367 0.429220 0.660250
Si Si6 0.061760 0.071184 0.654391
Si Si7 0.436427 0.928837 0.508747
Si Si8 0.060639 0.677177 0.258937
O O1 0.750000 0.827359 0.408811
O O2 0.506819 0.752202 0.424064
O O3 0.504403 0.837852 0.333141
O O4 0.493580 0.876108 0.457085
O O5 0.250000 0.686198 0.410698
O O6 0.489969 0.627103 0.460249
O O7 0.485797 0.664289 0.334333
O O8 0.250000 0.825646 0.264386
O O9 0.013654 0.750665 0.243024
O O10 0.003096 0.875104 0.208222
O O11 0.250000 0.068560 0.007181
O O12 0.014193 0.082524 0.084406
O O13 0.000000 0.000000 0.989432
O O14 0.750000 0.429363 0.663156
O O15 0.000000 0.500000 0.678679
O O16 0.250000 0.069857 0.653087
O O17 0.006978 0.124246 0.706928
O O18 0.000953 0.086400 0.581439
O O19 0.000000 0.000000 0.671581
O O20 0.250000 0.930937 0.510886
O O21 0.500000 0.000000 0.491337
O O22 0.250000 0.675731 0.257603
#
# Coordination Sequence:
#
# PCOD9363252 Si02
#       8
#     8   8   8   8   8   8   8   8
#     4  11  22  37  56  81 108 137 173 218 264 316
#     4   9  18  36  56  78 108 144 180 220 265 312
#     4  10  20  37  57  78 104 139 176 217 264 313
#     4   9  19  34  54  78 109 143 180 222 266 312
#     4  10  20  35  53  78 107 139 176 218 262 311
#     4  10  19  34  53  78 108 141 178 219 262 310
#     4  11  22  38  57  79 106 139 175 217 263 314
#     4   8  17  33  54  76 105 140 175 213 261 312
#
# _framework density 17.690180000000002
#
# number of rings (size 3 to 8) (size 9 to 14) (size 15 to 20)
#    0.000    2.250    0.000    4.875    0.000    3.000 
#    0.000   11.250    0.000    0.000    0.000    0.000 
#    0.000    0.000    0.000    0.000    0.000    0.000 
#
# Total GULP energy -178610.713002 kJ/mol
# GULP energy per Si atom -5581.584781 kJ/mol
# Density = 1.764992 g / cm^3
# Si number density = 17.690180 Si / 1000 Ang^3
#
#
#
# Elastic Constant Matrix: (Units=GPa)
#
#
# Indices 1 2 3 4 5 6 
#
# 1 77.4770 48.3470 43.0357 0.0000 0.0000 0.0000
# 2 48.3470 169.5202 137.5826 0.0000 0.0000 0.0000
# 3 43.0357 137.5826 128.8483 0.0000 0.0000 0.0000
# 4 0.0000 0.0000 0.0000 46.1699 0.0000 0.0000
# 5 0.0000 0.0000 0.0000 0.0000 36.8251 0.0000
# 6 0.0000 0.0000 0.0000 0.0000 0.0000 27.9540
#
#
#
# Elastic Compliance Matrix: (Units=1/GPa)
#
#
# Indices 1 2 3 4 5 6 
#
# 1 0.015911 -0.001685 -0.003515 0.000000 0.000000 0.000000
# 2 -0.001685 0.044404 -0.046852 0.000000 0.000000 0.000000
# 3 -0.003515 -0.046852 0.058963 0.000000 0.000000 0.000000
# 4 0.000000 0.000000 0.000000 0.021659 0.000000 0.000000
# 5 0.000000 0.000000 0.000000 0.000000 0.027155 0.000000
# 6 0.000000 0.000000 0.000000 0.000000 0.000000 0.035773
#
#
# Mechanical properties :
#
#
# Convention : Reuss Voigt Hill
#
# Bulk Modulus (GPa) = 65.89961 92.64177 79.27069
# Shear Modulus (GPa) = 15.97304 31.98181 23.97743
#
# Velocity S-wave (km/s) = 3.00814 4.25654 3.68558
# Velocity P-wave (km/s) = 7.02839 8.75444 7.93846
#
# Compressibility (1/GPa) = 0.01517460
#
# Stress axis : x y z
#
# Youngs Moduli (GPa) = 62.84947 22.52037 16.95984
#
# Poissons Ratio (x) = 0.03794 0.05962
# Poissons Ratio (y) = 0.10588 0.79460
# Poissons Ratio (z) = 0.22095 1.05512
#
# Static dielectric constant tensor:
#      x y z
#    x 1.596550 0.000000 0.000000 
#    y 0.000000 1.578970 0.000000 
#    z 0.000000 0.000000 1.587800 
# 
# From -- ./inp_files/22442.got.cif
#   From: 2010.05.17/outbox.cif.g08.bks.cpg/sg40_12_cif.got.tgz:22442.got - 2010.06.03 18:35:42.
