data_PCOD9363051
_publ_section_title
;
Structure prediction by ZEFSAII (Michael W. Deem and Ramdas Pophale) SiO2 
 PCOD9363051
Probable space group: A M A 2
;
_chemical_formula_sum "Si O2"
_cell_formula_units_Z 48
_cell_length_a 8.672991
_cell_length_b 9.592069
_cell_length_c 31.952226
_cell_angle_alpha 90.000000
_cell_angle_beta 90.000000
_cell_angle_gamma 90.000000
_cell_volume 2658.167288
_symmetry_space_group_name_H-M "A M A 2"
_symmetry_group_IT_number 40
_symmetry_cell_setting 'orthorhombic'
loop_
_space_group_symop_operation_xyz
x,y,z
-x,-y,z
1/2-x,y,z
1/2+x,-y,z
x,1/2+y,1/2+z
-x,1/2-y,1/2+z
1/2-x,1/2+y,1/2+z
1/2+x,1/2-y,1/2+z
loop_
_atom_site_type_symbol
_atom_site_label
_atom_site_fract_x
_atom_site_fract_y
_atom_site_fract_z
Si Si1 0.434974 0.343567 0.743340
Si Si2 0.935512 0.346446 0.320282
Si Si3 0.934194 0.342829 0.657641
Si Si4 0.935245 0.842331 0.064264
Si Si5 0.564385 0.844355 0.915745
Si Si6 0.934208 0.344043 0.989512
O O1 0.500000 0.500000 0.746183
O O2 0.250000 0.349321 0.742293
O O3 0.486799 0.257422 0.783867
O O4 0.493800 0.278438 0.699501
O O5 0.750000 0.351937 0.319140
O O6 0.978788 0.306411 0.367826
O O7 0.000000 0.500000 0.312484
O O8 0.250000 0.652765 0.662141
O O9 0.000000 0.500000 0.656762
O O10 0.970951 0.287142 0.611301
O O11 0.750000 0.847903 0.059811
O O12 0.000000 0.000000 0.060270
O O13 0.006824 0.744051 0.029258
O O14 0.750000 0.846873 0.919277
O O15 0.495176 0.736840 0.948629
O O16 0.500000 0.000000 0.923860
O O17 0.750000 0.347824 0.989240
O O18 0.000000 0.500000 0.990780
#
# Coordination Sequence:
#
# PCOD9363051 Si02
#       6
#     8   8   8   8   8   8
#     4  10  19  32  51  78 109 141 178 219 264 312
#     4   9  20  36  55  79 107 140 178 219 262 312
#     4   9  17  30  51  78 106 138 177 219 261 307
#     4  10  20  36  58  83 109 141 182 223 265 316
#     4  10  20  38  60  82 108 140 181 223 265 316
#     4  12  25  40  57  80 110 142 176 219 272 323
#
# _framework density 18.057555000000001
#
# number of rings (size 3 to 8) (size 9 to 14) (size 15 to 20)
#    0.000    2.000    0.000    5.000    0.000    4.667 
#    0.000    2.500    0.000    2.000    0.000    0.000 
#    0.000    0.000    0.000    0.000    0.000    0.000 
#
# Total GULP energy -133936.511290 kJ/mol
# GULP energy per Si atom -5580.687970 kJ/mol
# Density = 1.801646 g / cm^3
# Si number density = 18.057555 Si / 1000 Ang^3
#
#
#
# Elastic Constant Matrix: (Units=GPa)
#
#
# Indices 1 2 3 4 5 6 
#
# 1 89.9276 45.3481 70.6711 0.0000 0.0000 0.0000
# 2 45.3481 94.5310 105.4764 0.0000 0.0000 0.0000
# 3 70.6711 105.4764 192.7266 0.0000 0.0000 0.0000
# 4 0.0000 0.0000 0.0000 29.5913 0.0000 0.0000
# 5 0.0000 0.0000 0.0000 0.0000 31.4909 0.0000
# 6 0.0000 0.0000 0.0000 0.0000 0.0000 26.2698
#
#
#
# Elastic Compliance Matrix: (Units=1/GPa)
#
#
# Indices 1 2 3 4 5 6 
#
# 1 0.015923 -0.002886 -0.004259 0.000000 0.000000 0.000000
# 2 -0.002886 0.027693 -0.014098 0.000000 0.000000 0.000000
# 3 -0.004259 -0.014098 0.014466 0.000000 0.000000 0.000000
# 4 0.000000 0.000000 0.000000 0.033794 0.000000 0.000000
# 5 0.000000 0.000000 0.000000 0.000000 0.031755 0.000000
# 6 0.000000 0.000000 0.000000 0.000000 0.000000 0.038067
#
#
# Mechanical properties :
#
#
# Convention : Reuss Voigt Hill
#
# Bulk Modulus (GPa) = 64.11983 91.13071 77.62527
# Shear Modulus (GPa) = 23.87987 27.84971 25.86479
#
# Velocity S-wave (km/s) = 3.64047 3.93144 3.78875
# Velocity P-wave (km/s) = 7.29770 8.43710 7.88800
#
# Compressibility (1/GPa) = 0.01559580
#
# Stress axis : x y z
#
# Youngs Moduli (GPa) = 62.80408 36.11020 69.12756
#
# Poissons Ratio (x) = 0.10421 0.29443
# Poissons Ratio (y) = 0.18125 0.97454
# Poissons Ratio (z) = 0.26750 0.50907
#
# Static dielectric constant tensor:
#      x y z
#    x 1.605730 0.000000 0.000000 
#    y 0.000000 1.572990 0.000000 
#    z 0.000000 0.000000 1.658300 
# 
# From -- ./inp_files/26121.got.cif
#   From: 2010.05.17/outbox.cif.g08.bks.cpg/sg40_14_cif.got.tgz:26121.got - 2010.06.03 18:35:42.
