data_PCOD9363534
_publ_section_title
;
Structure prediction by ZEFSAII (Michael W. Deem and Ramdas Pophale) SiO2 
 PCOD9363534
Probable space group: A M A 2
;
_chemical_formula_sum "Si O2"
_cell_formula_units_Z 48
_cell_length_a 15.290606
_cell_length_b 7.954197
_cell_length_c 18.276777
_cell_angle_alpha 90.000000
_cell_angle_beta 90.000000
_cell_angle_gamma 90.000000
_cell_volume 2222.903725
_symmetry_space_group_name_H-M "A M A 2"
_symmetry_group_IT_number 40
_symmetry_cell_setting 'orthorhombic'
loop_
_space_group_symop_operation_xyz
x,y,z
-x,-y,z
1/2-x,y,z
1/2+x,-y,z
x,1/2+y,1/2+z
-x,1/2-y,1/2+z
1/2-x,1/2+y,1/2+z
1/2+x,1/2-y,1/2+z
loop_
_atom_site_type_symbol
_atom_site_label
_atom_site_fract_x
_atom_site_fract_y
_atom_site_fract_z
Si Si1 0.647429 0.644633 0.382390
Si Si2 0.901897 0.967253 0.476514
Si Si3 0.099964 0.024019 0.146636
Si Si4 0.903494 0.347218 0.145041
Si Si5 0.148642 0.150165 0.991815
Si Si6 0.404351 0.836724 0.722194
O O1 0.750000 0.626063 0.362611
O O2 0.621077 0.479810 0.428841
O O3 0.591331 0.656582 0.308881
O O4 0.637949 0.814284 0.430305
O O5 0.859071 0.152368 0.474007
O O6 0.906658 0.905665 0.560859
O O7 0.000000 0.000000 0.449771
O O8 0.138276 0.837302 0.147351
O O9 0.097647 0.102064 0.065377
O O10 0.141662 0.165063 0.197496
O O11 0.000000 0.000000 0.171597
O O12 0.859447 0.495949 0.190885
O O13 0.000906 0.334101 0.181241
O O14 0.250000 0.112401 0.007599
#
# Coordination Sequence:
#
# PCOD9363534 Si02
#       6
#     8   8   8   8   8   8
#     4  11  27  45  62  96 143 181 215 270 343 405
#     4  12  22  41  72 101 127 170 229 285 328 391
#     4  10  19  37  67  94 128 165 221 274 318 388
#     4  10  19  38  64  96 125 162 222 276 323 383
#     4  11  24  41  66  99 134 179 221 268 336 404
#     4  10  21  39  60  93 133 167 211 275 330 384
#
# _framework density 21.593378000000001
#
# number of rings (size 3 to 8) (size 9 to 14) (size 15 to 20)
#    0.000    1.333    5.000    1.500    0.000    6.667 
#    0.000    0.833    0.000    0.000    0.000    0.000 
#    0.000    0.000    0.000    0.000    0.000    0.000 
#
# Total GULP energy -133945.860362 kJ/mol
# GULP energy per Si atom -5581.077515 kJ/mol
# Density = 2.154423 g / cm^3
# Si number density = 21.593378 Si / 1000 Ang^3
#
#
#
# Elastic Constant Matrix: (Units=GPa)
#
#
# Indices 1 2 3 4 5 6 
#
# 1 35.0511 8.0592 -1.4911 0.0000 0.0000 0.0000
# 2 8.0592 228.0931 72.2851 0.0000 0.0000 0.0000
# 3 -1.4911 72.2851 121.8820 0.0000 0.0000 0.0000
# 4 0.0000 0.0000 0.0000 31.9281 0.0000 0.0000
# 5 0.0000 0.0000 0.0000 0.0000 15.3958 0.0000
# 6 0.0000 0.0000 0.0000 0.0000 0.0000 2.6212
#
#
#
# Elastic Compliance Matrix: (Units=1/GPa)
#
#
# Indices 1 2 3 4 5 6 
#
# 1 0.028901 -0.001395 0.001181 0.000000 0.000000 0.000000
# 2 -0.001395 0.005466 -0.003259 0.000000 0.000000 0.000000
# 3 0.001181 -0.003259 0.010152 0.000000 0.000000 0.000000
# 4 0.000000 0.000000 0.000000 0.031320 0.000000 0.000000
# 5 0.000000 0.000000 0.000000 0.000000 0.064953 0.000000
# 6 0.000000 0.000000 0.000000 0.000000 0.000000 0.381505
#
#
# Mechanical properties :
#
#
# Convention : Reuss Voigt Hill
#
# Bulk Modulus (GPa) = 26.61520 60.30364 43.45942
# Shear Modulus (GPa) = 9.22904 30.40055 19.81480
#
# Velocity S-wave (km/s) = 2.06961 3.75622 3.03253
# Velocity P-wave (km/s) = 4.25011 6.84104 5.69488
#
# Compressibility (1/GPa) = 0.03757252
#
# Stress axis : x y z
#
# Youngs Moduli (GPa) = 34.60106 182.93938 98.50342
#
# Poissons Ratio (x) = 0.25529 -0.11635
# Poissons Ratio (y) = 0.04829 0.32102
# Poissons Ratio (z) = -0.04087 0.59620
#
# Static dielectric constant tensor:
#      x y z
#    x 1.812690 0.000000 0.000000 
#    y 0.000000 1.874420 0.000000 
#    z 0.000000 0.000000 1.748450 
# 
# From -- ./inp_files/20565.got.cif
#   From: 2010.05.17/outbox.cif.g08.bks.cpg/sg40_11_cif.got.tgz:20565.got - 2010.06.03 18:35:42.
