data_PCOD9363721
_publ_section_title
;
Structure prediction by ZEFSAII (Michael W. Deem and Ramdas Pophale) SiO2 
 PCOD9363721
Probable space group: A M A 2
;
_chemical_formula_sum "Si O2"
_cell_formula_units_Z 64
_cell_length_a 7.862454
_cell_length_b 14.673534
_cell_length_c 25.689180
_cell_angle_alpha 90.000000
_cell_angle_beta 90.000000
_cell_angle_gamma 90.000000
_cell_volume 2963.760339
_symmetry_space_group_name_H-M "A M A 2"
_symmetry_group_IT_number 40
_symmetry_cell_setting 'orthorhombic'
loop_
_space_group_symop_operation_xyz
x,y,z
-x,-y,z
1/2-x,y,z
1/2+x,-y,z
x,1/2+y,1/2+z
-x,1/2-y,1/2+z
1/2-x,1/2+y,1/2+z
1/2+x,1/2-y,1/2+z
loop_
_atom_site_type_symbol
_atom_site_label
_atom_site_fract_x
_atom_site_fract_y
_atom_site_fract_z
Si Si1 0.044715 0.106572 0.440030
Si Si2 0.458278 0.721766 0.038378
Si Si3 0.954888 0.607497 0.364319
Si Si4 0.953276 0.106610 0.751527
Si Si5 0.050488 0.394715 0.713062
Si Si6 0.954439 0.105224 0.978589
Si Si7 0.452856 0.107405 0.327257
Si Si8 0.046506 0.726293 0.153187
O O1 0.250000 0.114772 0.439131
O O2 0.981682 0.158059 0.491137
O O3 0.984726 0.143015 0.383294
O O4 0.000000 0.000000 0.443159
O O5 0.250000 0.717025 0.037793
O O6 0.518163 0.697864 0.096310
O O7 0.509293 0.824438 0.022680
O O8 0.750000 0.618896 0.364356
O O9 0.017112 0.642764 0.308187
O O10 0.017101 0.637752 0.421262
O O11 0.000000 0.500000 0.363723
O O12 0.750000 0.114682 0.752092
O O13 0.016923 0.157913 0.700680
O O14 0.000000 0.000000 0.748395
O O15 0.250000 0.394067 0.705611
O O16 0.974308 0.323876 0.671992
O O17 0.000000 0.500000 0.708745
O O18 0.016344 0.359048 0.771630
O O19 0.750000 0.109392 0.976628
O O20 0.000000 0.000000 0.986958
O O21 0.250000 0.116925 0.326085
O O22 0.500000 0.000000 0.327676
O O23 0.250000 0.734804 0.147392
#
# Coordination Sequence:
#
# PCOD9363721 Si02
#       8
#     8   8   8   8   8   8   8   8
#     4   9  18  33  54  77 101 131 165 205 254 305
#     4   9  19  36  54  72  99 136 174 209 249 300
#     4   8  15  28  49  77 104 129 161 201 249 305
#     4  10  20  35  56  80 107 138 170 210 258 306
#     4  10  20  34  53  76 104 138 172 211 259 307
#     4   9  17  32  54  77 102 132 165 204 252 303
#     4   9  16  28  50  78 104 129 162 205 254 309
#     4  10  22  38  53  73 103 139 179 217 254 301
#
# _framework density 21.594187999999999
#
# number of rings (size 3 to 8) (size 9 to 14) (size 15 to 20)
#    0.000    2.750    0.000    1.875    0.000    4.000 
#    0.000    5.625    0.000    0.000    0.000    0.000 
#    0.000    0.000    0.000    0.000    0.000    0.000 
#
# Total GULP energy -178424.082334 kJ/mol
# GULP energy per Si atom -5575.752573 kJ/mol
# Density = 2.154504 g / cm^3
# Si number density = 21.594188 Si / 1000 Ang^3
#
#
#
# Elastic Constant Matrix: (Units=GPa)
#
#
# Indices 1 2 3 4 5 6 
#
# 1 23.0264 -6.9526 3.0333 0.0000 0.0000 0.0000
# 2 -6.9526 23.6319 -10.9983 0.0000 0.0000 0.0000
# 3 3.0333 -10.9983 80.8055 0.0000 0.0000 0.0000
# 4 0.0000 0.0000 0.0000 32.3906 0.0000 0.0000
# 5 0.0000 0.0000 0.0000 0.0000 14.4354 0.0000
# 6 0.0000 0.0000 0.0000 0.0000 0.0000 3.0538
#
#
#
# Elastic Compliance Matrix: (Units=1/GPa)
#
#
# Indices 1 2 3 4 5 6 
#
# 1 0.047663 0.014082 0.000128 0.000000 0.000000 0.000000
# 2 0.014082 0.049338 0.006187 0.000000 0.000000 0.000000
# 3 0.000128 0.006187 0.013213 0.000000 0.000000 0.000000
# 4 0.000000 0.000000 0.000000 0.030873 0.000000 0.000000
# 5 0.000000 0.000000 0.000000 0.000000 0.069274 0.000000
# 6 0.000000 0.000000 0.000000 0.000000 0.000000 0.327465
#
#
# Mechanical properties :
#
#
# Convention : Reuss Voigt Hill
#
# Bulk Modulus (GPa) = 6.62222 10.84761 8.73491
# Shear Modulus (GPa) = 9.13460 19.46806 14.30133
#
# Velocity S-wave (km/s) = 2.05896 3.00583 2.57627
# Velocity P-wave (km/s) = 2.95393 4.13291 3.59212
#
# Compressibility (1/GPa) = 0.15100687
#
# Stress axis : x y z
#
# Youngs Moduli (GPa) = 20.98043 20.26833 75.68487
#
# Poissons Ratio (x) = -0.28542 -0.00965
# Poissons Ratio (y) = -0.29545 -0.46824
# Poissons Ratio (z) = -0.00268 -0.12539
#
# Static dielectric constant tensor:
#      x y z
#    x 1.792990 0.000000 0.000000 
#    y 0.000000 1.795250 0.000000 
#    z 0.000000 0.000000 1.823620 
# 
# From -- ./inp_files/24273.got.cif
#   From: 2010.05.17/outbox.cif.g08.bks.cpg/sg40_13_cif.got.tgz:24273.got - 2010.06.03 18:35:42.
