data_PCOD9363531
_publ_section_title
;
Structure prediction by ZEFSAII (Michael W. Deem and Ramdas Pophale) SiO2 
 PCOD9363531
Probable space group: A M A 2
;
_chemical_formula_sum "Si O2"
_cell_formula_units_Z 64
_cell_length_a 22.153996
_cell_length_b 9.147598
_cell_length_c 14.014844
_cell_angle_alpha 90.000000
_cell_angle_beta 90.000000
_cell_angle_gamma 90.000000
_cell_volume 2840.190116
_symmetry_space_group_name_H-M "A M A 2"
_symmetry_group_IT_number 40
_symmetry_cell_setting 'orthorhombic'
loop_
_space_group_symop_operation_xyz
x,y,z
-x,-y,z
1/2-x,y,z
1/2+x,-y,z
x,1/2+y,1/2+z
-x,1/2-y,1/2+z
1/2-x,1/2+y,1/2+z
1/2+x,1/2-y,1/2+z
loop_
_atom_site_type_symbol
_atom_site_label
_atom_site_fract_x
_atom_site_fract_y
_atom_site_fract_z
Si Si1 0.818842 0.634812 0.395290
Si Si2 0.918288 0.257376 0.131982
Si Si3 0.682129 0.709623 0.018404
Si Si4 0.650947 0.015517 0.688179
Si Si5 0.551923 0.116238 0.960052
Si Si6 0.320468 0.520284 0.867290
Si Si7 0.376570 0.563722 0.667062
Si Si8 0.037574 0.303813 0.242795
O O1 0.750000 0.614638 0.432000
O O2 0.820674 0.569692 0.287458
O O3 0.877989 0.564722 0.443913
O O4 0.832924 0.809940 0.396557
O O5 0.859852 0.347224 0.163678
O O6 0.971637 0.297256 0.201729
O O7 0.903825 0.087012 0.133631
O O8 0.944905 0.262122 0.025171
O O9 0.750000 0.761765 0.993670
O O10 0.684664 0.585276 0.099582
O O11 0.649389 0.836864 0.080870
O O12 0.653298 0.619041 0.928001
O O13 0.582934 0.081774 0.692558
O O14 0.533930 0.160585 0.853267
O O15 0.500000 0.000000 0.991762
O O16 0.250000 0.502824 0.885603
O O17 0.331583 0.523294 0.753684
O O18 0.429076 0.653196 0.719898
#
# Coordination Sequence:
#
# PCOD9363531 Si02
#       8
#     8   8   8   8   8   8   8   8
#     4  10  19  39  70 102 135 181 240 305 363 439
#     4  12  25  42  63  98 141 182 231 293 370 441
#     4  10  20  38  66  94 126 178 234 283 347 434
#     4  10  20  37  67  95 133 175 236 292 361 432
#     4  11  22  41  68  96 139 184 230 294 367 434
#     4  10  19  37  65  95 127 174 235 294 358 436
#     4  11  22  41  63  93 137 173 227 292 361 423
#     4  10  21  43  65  92 126 178 234 289 349 430
#
# _framework density 22.533702999999999
#
# number of rings (size 3 to 8) (size 9 to 14) (size 15 to 20)
#    0.000    1.500    3.750    4.500    0.000    0.000 
#   11.250    5.625    0.000    0.000    0.000    0.000 
#    0.000    0.000    0.000    0.000    0.000    0.000 
#
# Total GULP energy -178276.980318 kJ/mol
# GULP energy per Si atom -5571.155635 kJ/mol
# Density = 2.248242 g / cm^3
# Si number density = 22.533703 Si / 1000 Ang^3
#
#
#
# Elastic Constant Matrix: (Units=GPa)
#
#
# Indices 1 2 3 4 5 6 
#
# 1 97.1124 36.8797 22.7141 0.0000 0.0000 0.0000
# 2 36.8797 76.8006 29.5281 0.0000 0.0000 0.0000
# 3 22.7141 29.5281 102.0709 0.0000 0.0000 0.0000
# 4 0.0000 0.0000 0.0000 24.3200 0.0000 0.0000
# 5 0.0000 0.0000 0.0000 0.0000 -6.9354 0.0000
# 6 0.0000 0.0000 0.0000 0.0000 0.0000 -14.1176
#
#
#
# Elastic Compliance Matrix: (Units=1/GPa)
#
#
# Indices 1 2 3 4 5 6 
#
# 1 0.012723 -0.005649 -0.001197 0.000000 0.000000 0.000000
# 2 -0.005649 0.017159 -0.003707 0.000000 0.000000 0.000000
# 3 -0.001197 -0.003707 0.011136 0.000000 0.000000 0.000000
# 4 0.000000 0.000000 0.000000 0.041118 0.000000 0.000000
# 5 0.000000 0.000000 0.000000 0.000000 -0.144188 0.000000
# 6 0.000000 0.000000 0.000000 0.000000 0.000000 -0.070834
#
#
# Mechanical properties :
#
#
# Convention : Reuss Voigt Hill
#
# Bulk Modulus (GPa) = 50.22258 50.46974 50.34616
# Shear Modulus (GPa) = -47.55413 13.11087 -17.22163
#
# Velocity S-wave (km/s) = -4.59884 2.41474 -2.76753
# Velocity P-wave (km/s) = 2.42137 5.49734 3.48982
#
# Compressibility (1/GPa) = 0.01991136
#
# Stress axis : x y z
#
# Youngs Moduli (GPa) = 78.59980 58.27968 89.80062
#
# Poissons Ratio (x) = 0.32924 0.10749
# Poissons Ratio (y) = 0.44403 0.33286
# Poissons Ratio (z) = 0.09408 0.21602
#
# Static dielectric constant tensor:
#      x y z
#    x 1.936850 0.000000 0.000000 
#    y 0.000000 1.913360 0.000000 
#    z 0.000000 0.000000 1.973650 
# 
# From -- ./inp_files/18530.got.cif
#   From: 2010.05.17/outbox.cif.g08.bks.cpg/sg40_10_cif.got.tgz:18530.got - 2010.06.03 18:35:42.
