data_PCOD9363878
_publ_section_title
;
Structure prediction by ZEFSAII (Michael W. Deem and Ramdas Pophale) SiO2 
 PCOD9363878
Probable space group: A M A 2
;
_chemical_formula_sum "Si O2"
_cell_formula_units_Z 52
_cell_length_a 15.315802
_cell_length_b 15.598158
_cell_length_c 11.627965
_cell_angle_alpha 90.000000
_cell_angle_beta 90.000000
_cell_angle_gamma 90.000000
_cell_volume 2777.901065
_symmetry_space_group_name_H-M "A M A 2"
_symmetry_group_IT_number 40
_symmetry_cell_setting 'orthorhombic'
loop_
_space_group_symop_operation_xyz
x,y,z
-x,-y,z
1/2-x,y,z
1/2+x,-y,z
x,1/2+y,1/2+z
-x,1/2-y,1/2+z
1/2-x,1/2+y,1/2+z
1/2+x,1/2-y,1/2+z
loop_
_atom_site_type_symbol
_atom_site_label
_atom_site_fract_x
_atom_site_fract_y
_atom_site_fract_z
Si Si1 0.508553 0.651460 0.571070
Si Si2 0.944837 0.824844 0.697581
Si Si3 0.149137 0.219875 0.918925
Si Si4 0.928973 0.576290 0.349347
Si Si5 0.846915 0.984187 0.646825
Si Si6 0.000000 0.500000 0.752820
Si Si7 0.148304 0.921652 0.410912
O O1 0.543271 0.739686 0.625059
O O2 0.419551 0.673590 0.502391
O O3 0.577569 0.612918 0.477956
O O4 0.489280 0.582013 0.669384
O O5 0.868438 0.815835 0.791821
O O6 0.918981 0.910623 0.630683
O O7 0.030647 0.847593 0.771649
O O8 0.250000 0.209898 0.953504
O O9 0.127548 0.320715 0.908589
O O10 0.856730 0.531764 0.269706
O O11 0.000000 0.500000 0.360113
O O12 0.750000 0.947362 0.636188
O O13 0.858554 0.050160 0.543174
O O14 0.917229 0.523561 0.832673
O O15 0.250000 0.932535 0.375044
#
# Coordination Sequence:
#
# PCOD9363878 Si02
#       7
#     8   8   8   8   8   4   8
#     4  11  22  37  59  89 118 155 200 248 299 364
#     4  10  20  35  58  86 115 152 195 240 290 356
#     4  10  21  39  60  86 119 157 197 244 301 365
#     4   9  19  35  57  82 114 147 192 241 290 355
#     4  10  21  38  59  84 114 152 198 246 298 356
#     4  12  24  40  60  88 126 164 202 256 306 360
#     4  10  23  40  62  91 121 159 204 249 305 366
#
# _framework density 18.719169000000001
#
# number of rings (size 3 to 8) (size 9 to 14) (size 15 to 20)
#    0.000    1.846    2.308    1.385    5.385    0.615 
#    0.000    2.308    0.000    3.692    0.000    0.000 
#    0.000    0.000    0.000    0.000    0.000    0.000 
#
# Total GULP energy -144976.297553 kJ/mol
# GULP energy per Si atom -5576.011444 kJ/mol
# Density = 1.867656 g / cm^3
# Si number density = 18.719169 Si / 1000 Ang^3
#
#
#
# Elastic Constant Matrix: (Units=GPa)
#
#
# Indices 1 2 3 4 5 6 
#
# 1 56.3962 13.9452 24.5447 0.0000 0.0000 0.0000
# 2 13.9452 80.1292 25.4250 0.0000 0.0000 0.0000
# 3 24.5447 25.4250 75.4796 0.0000 0.0000 0.0000
# 4 0.0000 0.0000 0.0000 43.2331 0.0000 0.0000
# 5 0.0000 0.0000 0.0000 0.0000 19.5531 0.0000
# 6 0.0000 0.0000 0.0000 0.0000 0.0000 23.7917
#
#
#
# Elastic Compliance Matrix: (Units=1/GPa)
#
#
# Indices 1 2 3 4 5 6 
#
# 1 0.020849 -0.001654 -0.006223 0.000000 0.000000 0.000000
# 2 -0.001654 0.014105 -0.004213 0.000000 0.000000 0.000000
# 3 -0.006223 -0.004213 0.016691 0.000000 0.000000 0.000000
# 4 0.000000 0.000000 0.000000 0.023130 0.000000 0.000000
# 5 0.000000 0.000000 0.000000 0.000000 0.051143 0.000000
# 6 0.000000 0.000000 0.000000 0.000000 0.000000 0.042031
#
#
# Mechanical properties :
#
#
# Convention : Reuss Voigt Hill
#
# Bulk Modulus (GPa) = 36.40975 37.75944 37.08459
# Shear Modulus (GPa) = 24.84053 27.18826 26.01439
#
# Velocity S-wave (km/s) = 3.64677 3.81521 3.73194
# Velocity P-wave (km/s) = 6.10120 6.29469 6.19870
#
# Compressibility (1/GPa) = 0.02746517
#
# Stress axis : x y z
#
# Youngs Moduli (GPa) = 47.96421 70.89907 59.91148
#
# Poissons Ratio (x) = 0.11727 0.37280
# Poissons Ratio (y) = 0.07933 0.25242
# Poissons Ratio (z) = 0.29846 0.29871
#
# Static dielectric constant tensor:
#      x y z
#    x 1.651110 0.000000 0.000000 
#    y 0.000000 1.641850 0.000000 
#    z 0.000000 0.000000 1.658990 
# 
# From -- ./inp_files/12245.got.cif
#   From: 2010.05.17/outbox.cif.g08.bks.cpg/sg40_7_cif.got.tgz:12245.got - 2010.06.03 18:35:42.
