data_PCOD9363757
_publ_section_title
;
Structure prediction by ZEFSAII (Michael W. Deem and Ramdas Pophale) SiO2 
 PCOD9363757
Probable space group: A M A 2
;
_chemical_formula_sum "Si O2"
_cell_formula_units_Z 64
_cell_length_a 14.867010
_cell_length_b 8.178595
_cell_length_c 23.980748
_cell_angle_alpha 90.000000
_cell_angle_beta 90.000000
_cell_angle_gamma 90.000000
_cell_volume 2915.849213
_symmetry_space_group_name_H-M "A M A 2"
_symmetry_group_IT_number 40
_symmetry_cell_setting 'orthorhombic'
loop_
_space_group_symop_operation_xyz
x,y,z
-x,-y,z
1/2-x,y,z
1/2+x,-y,z
x,1/2+y,1/2+z
-x,1/2-y,1/2+z
1/2-x,1/2+y,1/2+z
1/2+x,1/2-y,1/2+z
loop_
_atom_site_type_symbol
_atom_site_label
_atom_site_fract_x
_atom_site_fract_y
_atom_site_fract_z
Si Si1 0.355964 0.157920 0.710180
Si Si2 0.110557 0.684898 0.467847
Si Si3 0.391311 0.997534 0.396921
Si Si4 0.889008 0.819398 0.094775
Si Si5 0.143918 0.482538 0.766502
Si Si6 0.608835 0.189973 0.967461
Si Si7 0.146338 0.307582 0.212068
Si Si8 0.894201 0.194005 0.094555
O O1 0.250000 0.149856 0.723317
O O2 0.394643 0.314808 0.741769
O O3 0.363963 0.190535 0.644194
O O4 0.395298 0.982303 0.726069
O O5 0.138831 0.719827 0.531709
O O6 0.137863 0.497114 0.454365
O O7 0.000847 0.685494 0.466783
O O8 0.139997 0.832222 0.428081
O O9 0.360783 0.165119 0.426909
O O10 0.500000 0.000000 0.400151
O O11 0.365391 0.992087 0.332546
O O12 0.854436 0.712173 0.145333
O O13 0.997327 0.807418 0.095286
O O14 0.863863 0.008078 0.106429
O O15 0.250000 0.479948 0.751892
O O16 0.104465 0.645160 0.738310
O O17 0.634496 0.231637 0.031385
O O18 0.250000 0.310822 0.231136
#
# Coordination Sequence:
#
# PCOD9363757 Si02
#       8
#     8   8   8   8   8   8   8   8
#     4  10  21  36  54  76 103 141 180 215 264 317
#     4   8  16  31  50  77 109 136 164 208 263 310
#     4  10  20  34  56  78 100 138 181 214 253 312
#     4   9  17  31  54  82 111 138 169 212 262 317
#     4  10  22  40  54  70 106 144 175 222 269 304
#     4   8  16  31  50  77 109 136 164 208 263 310
#     4  10  21  36  54  76 103 141 180 215 264 317
#     4   9  17  31  54  82 111 138 169 212 262 317
#
# _framework density 21.949009
#
# number of rings (size 3 to 8) (size 9 to 14) (size 15 to 20)
#    0.000    2.750    1.250    1.500    1.750    2.500 
#    0.000    1.250    0.000    1.500    0.000    0.000 
#    0.000    0.000    0.000    0.000    0.000    0.000 
#
# Total GULP energy -178636.876416 kJ/mol
# GULP energy per Si atom -5582.402388 kJ/mol
# Density = 2.189905 g / cm^3
# Si number density = 21.949009 Si / 1000 Ang^3
#
#
#
# Elastic Constant Matrix: (Units=GPa)
#
#
# Indices 1 2 3 4 5 6 
#
# 1 55.7304 -6.8156 -18.0966 0.0000 0.0000 0.0000
# 2 -6.8156 195.3934 93.5384 0.0000 0.0000 0.0000
# 3 -18.0966 93.5384 103.6605 0.0000 0.0000 0.0000
# 4 0.0000 0.0000 0.0000 11.1515 0.0000 0.0000
# 5 0.0000 0.0000 0.0000 0.0000 25.0193 0.0000
# 6 0.0000 0.0000 0.0000 0.0000 0.0000 -9.3156
#
#
#
# Elastic Compliance Matrix: (Units=1/GPa)
#
#
# Indices 1 2 3 4 5 6 
#
# 1 0.019322 -0.001656 0.004868 0.000000 0.000000 0.000000
# 2 -0.001656 0.009152 -0.008547 0.000000 0.000000 0.000000
# 3 0.004868 -0.008547 0.018209 0.000000 0.000000 0.000000
# 4 0.000000 0.000000 0.000000 0.089674 0.000000 0.000000
# 5 0.000000 0.000000 0.000000 0.000000 0.039969 0.000000
# 6 0.000000 0.000000 0.000000 0.000000 0.000000 -0.107347
#
#
# Mechanical properties :
#
#
# Convention : Reuss Voigt Hill
#
# Bulk Modulus (GPa) = 27.76946 54.67075 41.22010
# Shear Modulus (GPa) = 54.55261 24.44825 39.50043
#
# Velocity S-wave (km/s) = 4.99081 3.34108 4.24682
# Velocity P-wave (km/s) = 6.77423 6.31236 6.54737
#
# Compressibility (1/GPa) = 0.03601079
#
# Stress axis : x y z
#
# Youngs Moduli (GPa) = 51.75564 109.26699 54.91672
#
# Poissons Ratio (x) = 0.18097 -0.26731
# Poissons Ratio (y) = 0.08572 0.46939
# Poissons Ratio (z) = -0.25193 0.93395
#
# Static dielectric constant tensor:
#      x y z
#    x 1.828290 0.000000 0.000000 
#    y 0.000000 1.828820 0.000000 
#    z 0.000000 0.000000 1.743900 
# 
# From -- ./inp_files/23390.got.cif
#   From: 2010.05.17/outbox.cif.g08.bks.cpg/sg40_12_cif.got.tgz:23390.got - 2010.06.03 18:35:42.
