data_PCOD9363819
_publ_section_title
;
Structure prediction by ZEFSAII (Michael W. Deem and Ramdas Pophale) SiO2 
 PCOD9363819
Probable space group: A M A 2
;
_chemical_formula_sum "Si O2"
_cell_formula_units_Z 64
_cell_length_a 8.863987
_cell_length_b 21.079361
_cell_length_c 19.920782
_cell_angle_alpha 90.000000
_cell_angle_beta 90.000000
_cell_angle_gamma 90.000000
_cell_volume 3722.141977
_symmetry_space_group_name_H-M "A M A 2"
_symmetry_group_IT_number 40
_symmetry_cell_setting 'orthorhombic'
loop_
_space_group_symop_operation_xyz
x,y,z
-x,-y,z
1/2-x,y,z
1/2+x,-y,z
x,1/2+y,1/2+z
-x,1/2-y,1/2+z
1/2-x,1/2+y,1/2+z
1/2+x,1/2-y,1/2+z
loop_
_atom_site_type_symbol
_atom_site_label
_atom_site_fract_x
_atom_site_fract_y
_atom_site_fract_z
Si Si1 0.568447 0.381689 0.373310
Si Si2 0.430298 0.934976 0.739894
Si Si3 0.929256 0.759287 0.375674
Si Si4 0.071388 0.763748 0.515408
Si Si5 0.568959 0.193808 0.662018
Si Si6 0.929602 0.065960 0.159890
Si Si7 0.430938 0.310210 0.744472
Si Si8 0.571438 0.887509 0.024528
O O1 0.750000 0.379711 0.368687
O O2 0.498861 0.421977 0.313443
O O3 0.504654 0.310214 0.366725
O O4 0.528585 0.405351 0.448291
O O5 0.250000 0.939913 0.744463
O O6 0.467688 0.873892 0.694453
O O7 0.500000 0.000000 0.713120
O O8 0.750000 0.753129 0.369831
O O9 0.977459 0.781441 0.449789
O O10 0.993956 0.803446 0.317196
O O11 0.250000 0.771379 0.500999
O O12 0.032850 0.800758 0.583260
O O13 0.047539 0.688617 0.529181
O O14 0.750000 0.203884 0.668924
O O15 0.485774 0.249689 0.701653
O O16 0.750000 0.061759 0.161574
O O17 0.976396 0.126025 0.205163
O O18 0.982475 0.079152 0.083782
O O19 0.000000 0.000000 0.183314
O O20 0.250000 0.308847 0.750533
O O21 0.750000 0.899380 0.033311
#
# Coordination Sequence:
#
# PCOD9363819 Si02
#       8
#     8   8   8   8   8   8   8   8
#     4  10  20  35  54  79 110 148 188 230 275 324
#     4  11  23  37  55  81 112 151 190 229 278 331
#     4  11  21  33  54  84 114 145 182 227 278 333
#     4   9  18  34  56  82 112 143 179 229 281 327
#     4  10  20  36  59  84 109 144 187 229 278 328
#     4  11  24  38  55  80 110 147 187 228 276 330
#     4  11  22  36  57  84 111 144 186 230 278 327
#     4   9  18  33  54  78 109 146 181 221 273 325
#
# _framework density 17.194400999999999
#
# number of rings (size 3 to 8) (size 9 to 14) (size 15 to 20)
#    0.000    1.750    2.500    3.375    0.000    5.500 
#    0.000    0.000    0.000    0.750    0.000    1.750 
#    0.000    0.000    0.000    0.000    0.000    0.000 
#
# Total GULP energy -178730.340022 kJ/mol
# GULP energy per Si atom -5585.323126 kJ/mol
# Density = 1.715527 g / cm^3
# Si number density = 17.194401 Si / 1000 Ang^3
#
#
#
# Elastic Constant Matrix: (Units=GPa)
#
#
# Indices 1 2 3 4 5 6 
#
# 1 56.1013 47.2784 43.7723 0.0000 0.0000 0.0000
# 2 47.2784 104.6651 55.5373 0.0000 0.0000 0.0000
# 3 43.7723 55.5373 98.7993 0.0000 0.0000 0.0000
# 4 0.0000 0.0000 0.0000 16.7294 0.0000 0.0000
# 5 0.0000 0.0000 0.0000 0.0000 27.8917 0.0000
# 6 0.0000 0.0000 0.0000 0.0000 0.0000 24.5698
#
#
#
# Elastic Compliance Matrix: (Units=1/GPa)
#
#
# Indices 1 2 3 4 5 6 
#
# 1 0.033660 -0.010391 -0.009072 0.000000 0.000000 0.000000
# 2 -0.010391 0.016823 -0.004853 0.000000 0.000000 0.000000
# 3 -0.009072 -0.004853 0.016869 0.000000 0.000000 0.000000
# 4 0.000000 0.000000 0.000000 0.059775 0.000000 0.000000
# 5 0.000000 0.000000 0.000000 0.000000 0.035853 0.000000
# 6 0.000000 0.000000 0.000000 0.000000 0.000000 0.040700
#
#
# Mechanical properties :
#
#
# Convention : Reuss Voigt Hill
#
# Bulk Modulus (GPa) = 53.41818 61.41575 57.41696
# Shear Modulus (GPa) = 19.33852 21.37002 20.35427
#
# Velocity S-wave (km/s) = 3.35729 3.52923 3.44433
# Velocity P-wave (km/s) = 6.79435 7.23901 7.02020
#
# Compressibility (1/GPa) = 0.01872022
#
# Stress axis : x y z
#
# Youngs Moduli (GPa) = 29.70907 59.44217 59.28130
#
# Poissons Ratio (x) = 0.61765 0.53779
# Poissons Ratio (y) = 0.30870 0.28769
# Poissons Ratio (z) = 0.26951 0.28848
#
# Static dielectric constant tensor:
#      x y z
#    x 1.574360 0.000000 0.000000 
#    y 0.000000 1.576770 0.000000 
#    z 0.000000 0.000000 1.586670 
# 
# From -- ./inp_files/22536.got.cif
#   From: 2010.05.17/outbox.cif.g08.bks.cpg/sg40_12_cif.got.tgz:22536.got - 2010.06.03 18:35:42.
