data_PCOD9363133
_publ_section_title
;
Structure prediction by ZEFSAII (Michael W. Deem and Ramdas Pophale) SiO2 
 PCOD9363133
Probable space group: A M A 2
;
_chemical_formula_sum "Si O2"
_cell_formula_units_Z 64
_cell_length_a 8.563818
_cell_length_b 15.294589
_cell_length_c 28.098031
_cell_angle_alpha 90.000000
_cell_angle_beta 90.000000
_cell_angle_gamma 90.000000
_cell_volume 3680.282252
_symmetry_space_group_name_H-M "A M A 2"
_symmetry_group_IT_number 40
_symmetry_cell_setting 'orthorhombic'
loop_
_space_group_symop_operation_xyz
x,y,z
-x,-y,z
1/2-x,y,z
1/2+x,-y,z
x,1/2+y,1/2+z
-x,1/2-y,1/2+z
1/2-x,1/2+y,1/2+z
1/2+x,1/2-y,1/2+z
loop_
_atom_site_type_symbol
_atom_site_label
_atom_site_fract_x
_atom_site_fract_y
_atom_site_fract_z
Si Si1 0.439217 0.779329 0.207830
Si Si2 0.938166 0.905363 0.564224
Si Si3 0.062404 0.405569 0.519457
Si Si4 0.938318 0.594944 0.791723
Si Si5 0.936535 0.404637 0.626274
Si Si6 0.436907 0.404706 0.901308
Si Si7 0.061869 0.594188 0.173980
Si Si8 0.938593 0.777128 0.480663
O O1 0.250000 0.781423 0.206009
O O2 0.490085 0.830344 0.255223
O O3 0.501848 0.832123 0.162449
O O4 0.488469 0.678366 0.204017
O O5 0.750000 0.907226 0.564044
O O6 0.989098 0.891647 0.618875
O O7 0.989016 0.830508 0.527898
O O8 0.000000 0.000000 0.548640
O O9 0.250000 0.408563 0.521778
O O10 0.014370 0.323697 0.486949
O O11 0.000000 0.500000 0.503762
O O12 0.999777 0.389746 0.572929
O O13 0.750000 0.592378 0.791163
O O14 0.988164 0.609250 0.846433
O O15 0.000000 0.500000 0.776422
O O16 0.750000 0.406434 0.625630
O O17 0.000000 0.500000 0.641427
O O18 0.500000 0.500000 0.916526
O O19 0.250000 0.407380 0.902605
O O20 0.496619 0.328867 0.935629
O O21 0.250000 0.590929 0.174152
O O22 0.000000 0.500000 0.189692
O O23 0.750000 0.779918 0.478853
#
# Coordination Sequence:
#
# PCOD9363133 Si02
#       8
#     8   8   8   8   8   8   8   8
#     4  10  19  33  52  72  97 131 169 207 249 293
#     4   9  17  29  44  66  95 125 156 189 230 279
#     4  10  20  35  52  71  99 133 169 207 246 288
#     4   9  19  34  52  74  99 128 160 198 247 299
#     4  11  21  32  48  73 104 135 167 202 243 292
#     4  10  20  34  52  75 102 129 160 200 247 300
#     4   9  18  32  49  68  95 129 162 200 241 282
#     4  10  20  33  51  73  97 128 165 203 245 293
#
# _framework density 17.389970999999999
#
# number of rings (size 3 to 8) (size 9 to 14) (size 15 to 20)
#    0.000    2.250    0.000    4.125    0.000    7.000 
#    0.000    2.500    0.000    0.750    0.000    3.500 
#    0.000    0.000    0.000    0.000    0.000    0.000 
#
# Total GULP energy -178596.447601 kJ/mol
# GULP energy per Si atom -5581.138988 kJ/mol
# Density = 1.735039 g / cm^3
# Si number density = 17.389971 Si / 1000 Ang^3
#
#
#
# Elastic Constant Matrix: (Units=GPa)
#
#
# Indices 1 2 3 4 5 6 
#
# 1 25.8611 33.0948 20.6425 0.0000 0.0000 0.0000
# 2 33.0948 180.9405 87.8831 0.0000 0.0000 0.0000
# 3 20.6425 87.8831 73.8039 0.0000 0.0000 0.0000
# 4 0.0000 0.0000 0.0000 29.6999 0.0000 0.0000
# 5 0.0000 0.0000 0.0000 0.0000 28.4132 0.0000
# 6 0.0000 0.0000 0.0000 0.0000 0.0000 27.3051
#
#
#
# Elastic Compliance Matrix: (Units=1/GPa)
#
#
# Indices 1 2 3 4 5 6 
#
# 1 0.052254 -0.005832 -0.007671 0.000000 0.000000 0.000000
# 2 -0.005832 0.013758 -0.014752 0.000000 0.000000 0.000000
# 3 -0.007671 -0.014752 0.033261 0.000000 0.000000 0.000000
# 4 0.000000 0.000000 0.000000 0.033670 0.000000 0.000000
# 5 0.000000 0.000000 0.000000 0.000000 0.035195 0.000000
# 6 0.000000 0.000000 0.000000 0.000000 0.000000 0.036623
#
#
# Mechanical properties :
#
#
# Convention : Reuss Voigt Hill
#
# Bulk Modulus (GPa) = 23.38403 62.64960 43.01681
# Shear Modulus (GPa) = 18.14716 26.34932 22.24824
#
# Velocity S-wave (km/s) = 3.23389 3.89678 3.58071
# Velocity P-wave (km/s) = 5.23642 7.50673 6.47191
#
# Compressibility (1/GPa) = 0.04276423
#
# Stress axis : x y z
#
# Youngs Moduli (GPa) = 19.13728 72.68338 30.06531
#
# Poissons Ratio (x) = 0.42386 0.23063
# Poissons Ratio (y) = 0.11160 0.44352
# Poissons Ratio (z) = 0.14680 1.07221
#
# Static dielectric constant tensor:
#      x y z
#    x 1.591920 0.000000 0.000000 
#    y 0.000000 1.591480 0.000000 
#    z 0.000000 0.000000 1.584240 
# 
# From -- ./inp_files/26448.got.cif
#   From: 2010.05.17/outbox.cif.g08.bks.cpg/sg40_14_cif.got.tgz:26448.got - 2010.06.03 18:35:42.
