data_PCOD9363575
_publ_section_title
;
Structure prediction by ZEFSAII (Michael W. Deem and Ramdas Pophale) SiO2 
 PCOD9363575
Probable space group: A M A 2
;
_chemical_formula_sum "Si O2"
_cell_formula_units_Z 40
_cell_length_a 15.621425
_cell_length_b 7.618979
_cell_length_c 17.281374
_cell_angle_alpha 90.000000
_cell_angle_beta 90.000000
_cell_angle_gamma 90.000000
_cell_volume 2056.817192
_symmetry_space_group_name_H-M "A M A 2"
_symmetry_group_IT_number 40
_symmetry_cell_setting 'orthorhombic'
loop_
_space_group_symop_operation_xyz
x,y,z
-x,-y,z
1/2-x,y,z
1/2+x,-y,z
x,1/2+y,1/2+z
-x,1/2-y,1/2+z
1/2-x,1/2+y,1/2+z
1/2+x,1/2-y,1/2+z
loop_
_atom_site_type_symbol
_atom_site_label
_atom_site_fract_x
_atom_site_fract_y
_atom_site_fract_z
Si Si1 0.000000 0.000000 0.878911
Si Si2 0.927241 0.351201 0.113299
Si Si3 0.344839 0.042739 0.768492
Si Si4 0.500000 0.500000 0.674614
Si Si5 0.076130 0.142401 0.441402
Si Si6 0.656150 0.377496 0.778674
O O1 0.075386 0.081121 0.824939
O O2 0.039317 0.838196 0.926178
O O3 0.863471 0.376975 0.184730
O O4 0.000000 0.500000 0.121106
O O5 0.887324 0.364989 0.028054
O O6 0.975418 0.166990 0.123706
O O7 0.250000 0.093506 0.797165
O O8 0.346011 0.831095 0.761940
O O9 0.580421 0.461086 0.729833
O O10 0.138546 0.103060 0.370025
O O11 0.000000 0.000000 0.437729
O O12 0.750000 0.446095 0.758124
#
# Coordination Sequence:
#
# PCOD9363575 Si02
#       6
#     4   8   8   4   8   8
#     4  10  19  40  57  86 114 154 192 238 285 342
#     4  11  21  37  58  87 115 151 190 236 291 344
#     4  10  20  37  62  86 117 154 195 242 287 340
#     4  12  21  38  61  88 116 154 194 244 283 346
#     4  10  21  36  59  83 115 150 188 236 291 341
#     4  10  21  38  60  87 117 152 198 244 283 341
#
# _framework density 19.447523
#
# number of rings (size 3 to 8) (size 9 to 14) (size 15 to 20)
#    0.000    1.600    4.000    1.800    0.000    1.600 
#    0.000    0.000    0.000    4.800    0.000    0.000 
#    0.000    0.000    0.000    0.000    0.000    0.000 
#
# Total GULP energy -111677.063520 kJ/mol
# GULP energy per Si atom -5583.853176 kJ/mol
# Density = 1.940326 g / cm^3
# Si number density = 19.447523 Si / 1000 Ang^3
#
#
#
# Elastic Constant Matrix: (Units=GPa)
#
#
# Indices 1 2 3 4 5 6 
#
# 1 84.1960 -5.5898 13.9928 0.0000 0.0000 0.0000
# 2 -5.5898 61.5018 8.6829 0.0000 0.0000 0.0000
# 3 13.9928 8.6829 82.4699 0.0000 0.0000 0.0000
# 4 0.0000 0.0000 0.0000 2.9132 0.0000 0.0000
# 5 0.0000 0.0000 0.0000 0.0000 1.4951 0.0000
# 6 0.0000 0.0000 0.0000 0.0000 0.0000 14.2246
#
#
#
# Elastic Compliance Matrix: (Units=1/GPa)
#
#
# Indices 1 2 3 4 5 6 
#
# 1 0.012346 0.001439 -0.002246 0.000000 0.000000 0.000000
# 2 0.001439 0.016673 -0.002000 0.000000 0.000000 0.000000
# 3 -0.002246 -0.002000 0.012717 0.000000 0.000000 0.000000
# 4 0.000000 0.000000 0.000000 0.343265 0.000000 0.000000
# 5 0.000000 0.000000 0.000000 0.000000 0.668832 0.000000
# 6 0.000000 0.000000 0.000000 0.000000 0.000000 0.070301
#
#
# Mechanical properties :
#
#
# Convention : Reuss Voigt Hill
#
# Bulk Modulus (GPa) = 27.68341 29.14883 28.41612
# Shear Modulus (GPa) = 4.37910 17.79871 11.08891
#
# Velocity S-wave (km/s) = 1.50221 3.02854 2.39047
# Velocity P-wave (km/s) = 4.15628 5.22019 4.71832
#
# Compressibility (1/GPa) = 0.03612272
#
# Stress axis : x y z
#
# Youngs Moduli (GPa) = 80.99845 59.97792 78.63308
#
# Poissons Ratio (x) = -0.08632 0.17663
# Poissons Ratio (y) = -0.11658 0.15723
# Poissons Ratio (z) = 0.18195 0.11993
#
# Static dielectric constant tensor:
#      x y z
#    x 1.679630 0.000000 0.000000 
#    y 0.000000 1.692990 0.000000 
#    z 0.000000 0.000000 1.662070 
# 
# From -- ./inp_files/16832.got.cif
#   From: 2010.05.17/outbox.cif.g08.bks.cpg/sg40_9_cif.got.tgz:16832.got - 2010.06.03 18:35:42.
