data_PCOD9363607
_publ_section_title
;
Structure prediction by ZEFSAII (Michael W. Deem and Ramdas Pophale) SiO2 
 PCOD9363607
Probable space group: A M A 2
;
_chemical_formula_sum "Si O2"
_cell_formula_units_Z 64
_cell_length_a 9.121317
_cell_length_b 13.090294
_cell_length_c 29.022129
_cell_angle_alpha 90.000000
_cell_angle_beta 90.000000
_cell_angle_gamma 90.000000
_cell_volume 3465.263133
_symmetry_space_group_name_H-M "A M A 2"
_symmetry_group_IT_number 40
_symmetry_cell_setting 'orthorhombic'
loop_
_space_group_symop_operation_xyz
x,y,z
-x,-y,z
1/2-x,y,z
1/2+x,-y,z
x,1/2+y,1/2+z
-x,1/2-y,1/2+z
1/2-x,1/2+y,1/2+z
1/2+x,1/2-y,1/2+z
loop_
_atom_site_type_symbol
_atom_site_label
_atom_site_fract_x
_atom_site_fract_y
_atom_site_fract_z
Si Si1 0.077319 0.605270 0.158900
Si Si2 0.425018 0.105094 0.091217
Si Si3 0.581473 0.602186 0.322887
Si Si4 0.080825 0.678240 0.790139
Si Si5 0.925540 0.310810 0.691379
Si Si6 0.575982 0.810106 0.556993
Si Si7 0.074857 0.394635 0.965886
Si Si8 0.923094 0.235148 0.376354
O O1 0.250000 0.600505 0.168663
O O2 0.057672 0.624918 0.103966
O O3 0.000000 0.500000 0.172114
O O4 0.006745 0.704050 0.182668
O O5 0.250000 0.104710 0.083614
O O6 0.451838 0.122081 0.145983
O O7 0.500118 0.201217 0.066506
O O8 0.500000 0.000000 0.076684
O O9 0.500000 0.500000 0.308436
O O10 0.750000 0.579260 0.332908
O O11 0.577498 0.696695 0.287046
O O12 0.502892 0.657194 0.366288
O O13 0.250000 0.648646 0.798499
O O14 0.029217 0.640982 0.740389
O O15 0.984861 0.661151 0.835655
O O16 0.750000 0.293370 0.694265
O O17 0.750000 0.798829 0.548943
O O18 0.497482 0.861953 0.513898
O O19 0.250000 0.406840 0.970973
O O20 0.000000 0.500000 0.951144
O O21 0.047103 0.311303 0.926145
O O22 0.750000 0.247319 0.370265
#
# Coordination Sequence:
#
# PCOD9363607 Si02
#       8
#     8   8   8   8   8   8   8   8
#     4  10  20  32  48  75 108 142 177 217 264 318
#     4  10  20  36  59  82 111 146 182 224 270 322
#     4   9  17  30  51  75 103 139 177 219 265 317
#     4   8  17  32  51  74 104 141 180 220 266 312
#     4   9  18  34  53  76 106 142 182 225 267 313
#     4  10  21  37  58  82 110 141 178 223 272 324
#     4  11  23  38  59  85 111 142 180 221 271 327
#     4   9  19  35  53  76 107 140 179 225 270 319
#
# _framework density 18.469017000000001
#
# number of rings (size 3 to 8) (size 9 to 14) (size 15 to 20)
#    0.750    1.750    0.000    2.250    0.000    6.000 
#    0.000    2.500    0.000    6.000    0.000    0.000 
#    0.000    0.000    0.000    0.000    0.000    0.000 
#
# Total GULP energy -178307.914780 kJ/mol
# GULP energy per Si atom -5572.122337 kJ/mol
# Density = 1.842698 g / cm^3
# Si number density = 18.469017 Si / 1000 Ang^3
#
#
#
# Elastic Constant Matrix: (Units=GPa)
#
#
# Indices 1 2 3 4 5 6 
#
# 1 62.7410 11.5527 21.9471 0.0000 0.0000 0.0000
# 2 11.5527 38.2659 -20.4409 0.0000 0.0000 0.0000
# 3 21.9471 -20.4409 50.6309 0.0000 0.0000 0.0000
# 4 0.0000 0.0000 0.0000 2.6086 0.0000 0.0000
# 5 0.0000 0.0000 0.0000 0.0000 20.4067 0.0000
# 6 0.0000 0.0000 0.0000 0.0000 0.0000 24.5111
#
#
#
# Elastic Compliance Matrix: (Units=1/GPa)
#
#
# Indices 1 2 3 4 5 6 
#
# 1 0.025417 -0.017287 -0.017997 0.000000 0.000000 0.000000
# 2 -0.017287 0.045076 0.025692 0.000000 0.000000 0.000000
# 3 -0.017997 0.025692 0.037924 0.000000 0.000000 0.000000
# 4 0.000000 0.000000 0.000000 0.383340 0.000000 0.000000
# 5 0.000000 0.000000 0.000000 0.000000 0.049003 0.000000
# 6 0.000000 0.000000 0.000000 0.000000 0.000000 0.040798
#
#
# Mechanical properties :
#
#
# Convention : Reuss Voigt Hill
#
# Bulk Modulus (GPa) = 11.20661 19.75061 15.47861
# Shear Modulus (GPa) = 7.93038 18.74389 13.33713
#
# Velocity S-wave (km/s) = 2.07442 3.18918 2.69017
# Velocity P-wave (km/s) = 3.43781 4.92730 4.24834
#
# Compressibility (1/GPa) = 0.08923301
#
# Stress axis : x y z
#
# Youngs Moduli (GPa) = 39.34383 22.18478 26.36840
#
# Poissons Ratio (x) = 0.38351 0.47454
# Poissons Ratio (y) = 0.68014 -0.67745
# Poissons Ratio (z) = 0.70806 -0.56996
#
# Static dielectric constant tensor:
#      x y z
#    x 1.614680 0.000000 0.000000 
#    y 0.000000 1.625100 0.000000 
#    z 0.000000 0.000000 1.643120 
# 
# From -- ./inp_files/26496.got.cif
#   From: 2010.05.17/outbox.cif.g08.bks.cpg/sg40_14_cif.got.tgz:26496.got - 2010.06.03 18:35:42.
