data_PCOD9363694
_publ_section_title
;
Structure prediction by ZEFSAII (Michael W. Deem and Ramdas Pophale) SiO2 
 PCOD9363694
Probable space group: A M A 2
;
_chemical_formula_sum "Si O2"
_cell_formula_units_Z 48
_cell_length_a 10.170747
_cell_length_b 7.309492
_cell_length_c 33.068951
_cell_angle_alpha 90.000000
_cell_angle_beta 90.000000
_cell_angle_gamma 90.000000
_cell_volume 2458.444820
_symmetry_space_group_name_H-M "A M A 2"
_symmetry_group_IT_number 40
_symmetry_cell_setting 'orthorhombic'
loop_
_space_group_symop_operation_xyz
x,y,z
-x,-y,z
1/2-x,y,z
1/2+x,-y,z
x,1/2+y,1/2+z
-x,1/2-y,1/2+z
1/2-x,1/2+y,1/2+z
1/2+x,1/2-y,1/2+z
loop_
_atom_site_type_symbol
_atom_site_label
_atom_site_fract_x
_atom_site_fract_y
_atom_site_fract_z
Si Si1 0.013531 0.215470 0.625000
Si Si2 0.750000 0.055044 0.243386
Si Si3 0.403900 0.828607 0.036420
Si Si4 0.407785 0.318505 0.359690
Si Si5 0.750000 0.337052 0.180096
Si Si6 0.750000 0.279614 0.666713
Si Si7 0.500000 0.500000 0.800022
Si Si8 0.402206 0.828386 0.949554
O O1 0.878932 0.309354 0.638960
O O2 0.055638 0.241966 0.578829
O O3 0.127121 0.253056 0.656990
O O4 0.000000 0.000000 0.629313
O O5 0.750000 0.904871 0.206774
O O6 0.750000 0.257999 0.224632
O O7 0.623177 0.034133 0.271102
O O8 0.250000 0.877874 0.039610
O O9 0.500000 0.000000 0.033388
O O10 0.420074 0.727546 0.992841
O O11 0.500000 0.500000 0.357371
O O12 0.250000 0.355204 0.353297
O O13 0.461731 0.171578 0.328127
O O14 0.420485 0.239130 0.405683
O O15 0.750000 0.559260 0.177733
O O16 0.250000 0.892999 0.949941
O O17 0.500000 0.000000 0.949507
#
# Coordination Sequence:
#
# PCOD9363694 Si02
#       8
#     8   4   8   8   4   4   4   8
#     4  10  21  37  56  82 120 159 206 251 303 365
#     4  12  26  42  66  90 122 164 206 266 324 380
#     4  10  20  33  56  88 121 157 201 253 294 357
#     4  10  22  42  70  95 127 174 209 259 326 381
#     4  10  22  42  62  83 117 163 205 258 314 372
#     4  10  24  40  60  87 119 161 211 256 308 380
#     4  12  26  44  64 100 134 152 218 274 314 400
#     4   8  16  34  57  86 121 158 204 245 299 366
#
# _framework density 19.524539000000001
#
# number of rings (size 3 to 8) (size 9 to 14) (size 15 to 20)
#    0.000    2.000    1.667    1.000    4.667    1.333 
#    1.500    0.000    0.000    0.000    0.000    0.000 
#    0.000    0.000    0.000    0.000    0.000    0.000 
#
# Total GULP energy -133656.576527 kJ/mol
# GULP energy per Si atom -5569.024022 kJ/mol
# Density = 1.948010 g / cm^3
# Si number density = 19.524539 Si / 1000 Ang^3
#
#
#
# Elastic Constant Matrix: (Units=GPa)
#
#
# Indices 1 2 3 4 5 6 
#
# 1 150.0078 29.3410 76.6338 0.0000 0.0000 0.0000
# 2 29.3410 52.7371 34.9585 0.0000 0.0000 0.0000
# 3 76.6338 34.9585 158.6684 0.0000 0.0000 0.0000
# 4 0.0000 0.0000 0.0000 1348.5542 0.0000 0.0000
# 5 0.0000 0.0000 0.0000 0.0000 24.0961 0.0000
# 6 0.0000 0.0000 0.0000 0.0000 0.0000 79.8589
#
#
#
# Elastic Compliance Matrix: (Units=1/GPa)
#
#
# Indices 1 2 3 4 5 6 
#
# 1 0.009128 -0.002525 -0.003852 0.000000 0.000000 0.000000
# 2 -0.002525 0.022903 -0.003827 0.000000 0.000000 0.000000
# 3 -0.003852 -0.003827 0.009006 0.000000 0.000000 0.000000
# 4 0.000000 0.000000 0.000000 0.000742 0.000000 0.000000
# 5 0.000000 0.000000 0.000000 0.000000 0.041501 0.000000
# 6 0.000000 0.000000 0.000000 0.000000 0.000000 0.012522
#
#
# Mechanical properties :
#
#
# Convention : Reuss Voigt Hill
#
# Bulk Modulus (GPa) = 48.47369 71.47555 59.97462
# Shear Modulus (GPa) = 40.62175 305.20050 172.91112
#
# Velocity S-wave (km/s) = 4.56625 12.51622 9.42089
# Velocity P-wave (km/s) = 7.25822 15.67041 12.21154
#
# Compressibility (1/GPa) = 0.02062975
#
# Stress axis : x y z
#
# Youngs Moduli (GPa) = 109.54968 43.66166 111.03411
#
# Poissons Ratio (x) = 0.11024 0.42776
# Poissons Ratio (y) = 0.27660 0.42489
# Poissons Ratio (z) = 0.42204 0.16708
#
# Static dielectric constant tensor:
#      x y z
#    x 1.869180 0.000000 0.000000 
#    y 0.000000 1.669980 0.000000 
#    z 0.000000 0.000000 1.742300 
# 
# From -- ./inp_files/26247.got.cif
#   From: 2010.05.17/outbox.cif.g08.bks.cpg/sg40_14_cif.got.tgz:26247.got - 2010.06.03 18:35:42.
