data_PCOD9363137
_publ_section_title
;
Structure prediction by ZEFSAII (Michael W. Deem and Ramdas Pophale) SiO2 
 PCOD9363137
Probable space group: A M A 2
;
_chemical_formula_sum "Si O2"
_cell_formula_units_Z 40
_cell_length_a 15.302700
_cell_length_b 13.757314
_cell_length_c 7.028757
_cell_angle_alpha 90.000000
_cell_angle_beta 90.000000
_cell_angle_gamma 90.000000
_cell_volume 1479.722383
_symmetry_space_group_name_H-M "A M A 2"
_symmetry_group_IT_number 40
_symmetry_cell_setting 'orthorhombic'
loop_
_space_group_symop_operation_xyz
x,y,z
-x,-y,z
1/2-x,y,z
1/2+x,-y,z
x,1/2+y,1/2+z
-x,1/2-y,1/2+z
1/2-x,1/2+y,1/2+z
1/2+x,1/2-y,1/2+z
loop_
_atom_site_type_symbol
_atom_site_label
_atom_site_fract_x
_atom_site_fract_y
_atom_site_fract_z
Si Si1 0.848263 0.096309 0.611470
Si Si2 0.577872 0.931641 0.419904
Si Si3 0.346744 0.083683 0.029141
Si Si4 0.846658 0.630159 0.652663
Si Si5 0.519425 0.253577 0.565038
O O1 0.750000 0.102082 0.683027
O O2 0.842203 0.107562 0.379392
O O3 0.910142 0.184288 0.677791
O O4 0.888351 0.987091 0.608693
O O5 0.649056 0.909295 0.260966
O O6 0.529048 0.832591 0.455444
O O7 0.500000 0.000000 0.338063
O O8 0.250000 0.109884 0.958832
O O9 0.420447 0.161457 0.971532
O O10 0.358889 0.966623 0.020727
O O11 0.750000 0.671549 0.606908
O O12 0.932633 0.692877 0.635111
#
# Coordination Sequence:
#
# PCOD9363137 Si02
#       5
#     8   8   8   8   8
#     4   9  18  34  52  73 100 130 163 201 243 290
#     4   9  18  31  50  73  99 129 163 202 243 285
#     4  10  19  33  52  74  99 129 163 203 245 289
#     4   9  19  34  52  73 100 131 164 201 243 288
#     4  11  18  28  51  81 101 121 161 207 248 286
#
# _framework density 27.032097
#
# number of rings (size 3 to 8) (size 9 to 14) (size 15 to 20)
#    0.000    2.400    0.000    6.600    0.000    1.600 
#    0.000    0.000    0.000   28.800    0.000   28.000 
#    0.000    0.000    0.000    0.000    0.000    0.000 
#
# Total GULP energy -111589.854988 kJ/mol
# GULP energy per Si atom -5579.492749 kJ/mol
# Density = 2.697057 g / cm^3
# Si number density = 27.032097 Si / 1000 Ang^3
#
#
#
# Elastic Constant Matrix: (Units=GPa)
#
#
# Indices 1 2 3 4 5 6 
#
# 1 244.7398 108.7851 15.4231 0.0000 0.0000 0.0000
# 2 108.7851 193.2953 27.1637 0.0000 0.0000 0.0000
# 3 15.4231 27.1637 58.3614 0.0000 0.0000 0.0000
# 4 0.0000 0.0000 0.0000 40.5147 0.0000 0.0000
# 5 0.0000 0.0000 0.0000 0.0000 34.0804 0.0000
# 6 0.0000 0.0000 0.0000 0.0000 0.0000 3.2704
#
#
#
# Elastic Compliance Matrix: (Units=1/GPa)
#
#
# Indices 1 2 3 4 5 6 
#
# 1 0.005449 -0.003065 -0.000014 0.000000 0.000000 0.000000
# 2 -0.003065 0.007259 -0.002569 0.000000 0.000000 0.000000
# 3 -0.000014 -0.002569 0.018334 0.000000 0.000000 0.000000
# 4 0.000000 0.000000 0.000000 0.024682 0.000000 0.000000
# 5 0.000000 0.000000 0.000000 0.000000 0.029342 0.000000
# 6 0.000000 0.000000 0.000000 0.000000 0.000000 0.305771
#
#
# Mechanical properties :
#
#
# Convention : Reuss Voigt Hill
#
# Bulk Modulus (GPa) = 50.63844 88.79339 69.71591
# Shear Modulus (GPa) = 12.23347 38.57474 25.40411
#
# Velocity S-wave (km/s) = 2.12964 3.78166 3.06890
# Velocity P-wave (km/s) = 4.98202 7.21018 6.19706
#
# Compressibility (1/GPa) = 0.01974785
#
# Stress axis : x y z
#
# Youngs Moduli (GPa) = 183.51606 137.75473 54.54402
#
# Poissons Ratio (x) = 0.42219 0.00074
# Poissons Ratio (y) = 0.56244 0.14011
# Poissons Ratio (z) = 0.00249 0.35387
#
# Static dielectric constant tensor:
#      x y z
#    x 2.091510 0.000000 0.000000 
#    y 0.000000 2.169960 0.000000 
#    z 0.000000 0.000000 2.462140 
# 
# From -- ./inp_files/11935.got.cif
#   From: 2010.05.17/outbox.cif.g08.bks.cpg/sg40_6_cif.got.tgz:11935.got - 2010.06.03 18:35:42.
