data_PCOD9363310
_publ_section_title
;
Structure prediction by ZEFSAII (Michael W. Deem and Ramdas Pophale) SiO2 
 PCOD9363310
Probable space group: A M A 2
;
_chemical_formula_sum "Si O2"
_cell_formula_units_Z 48
_cell_length_a 8.550024
_cell_length_b 23.356108
_cell_length_c 11.929055
_cell_angle_alpha 90.000000
_cell_angle_beta 90.000000
_cell_angle_gamma 90.000000
_cell_volume 2382.176025
_symmetry_space_group_name_H-M "A M A 2"
_symmetry_group_IT_number 40
_symmetry_cell_setting 'orthorhombic'
loop_
_space_group_symop_operation_xyz
x,y,z
-x,-y,z
1/2-x,y,z
1/2+x,-y,z
x,1/2+y,1/2+z
-x,1/2-y,1/2+z
1/2-x,1/2+y,1/2+z
1/2+x,1/2-y,1/2+z
loop_
_atom_site_type_symbol
_atom_site_label
_atom_site_fract_x
_atom_site_fract_y
_atom_site_fract_z
Si Si1 0.429503 0.147492 0.526080
Si Si2 0.928444 0.439173 0.817380
Si Si3 0.061334 0.735229 0.847838
Si Si4 0.434074 0.847813 0.160497
Si Si5 0.062698 0.063713 0.716015
Si Si6 0.560667 0.638648 0.404328
O O1 0.250000 0.162575 0.557579
O O2 0.426004 0.100637 0.426813
O O3 0.498507 0.202687 0.461117
O O4 0.500599 0.112842 0.630288
O O5 0.750000 0.444761 0.777825
O O6 0.000000 0.500000 0.845130
O O7 0.029441 0.406557 0.724950
O O8 0.250000 0.732074 0.854015
O O9 0.015430 0.801234 0.846412
O O10 0.010193 0.701216 0.737418
O O11 0.250000 0.836339 0.157305
O O12 0.489198 0.854243 0.033279
O O13 0.250000 0.062045 0.704275
O O14 0.013888 0.085975 0.838389
O O15 0.000000 0.000000 0.692844
O O16 0.750000 0.633043 0.401213
#
# Coordination Sequence:
#
# PCOD9363310 Si02
#       6
#     8   8   8   8   8   8
#     4   8  17  34  58  86 114 149 186 235 292 341
#     4  10  19  34  57  83 114 148 187 234 287 339
#     4   9  19  38  61  85 117 150 187 238 297 349
#     4  10  21  37  57  83 113 147 190 236 285 344
#     4  11  23  39  61  86 119 158 202 243 289 351
#     4  10  23  40  59  83 117 156 192 238 292 346
#
# _framework density 20.149643999999999
#
# number of rings (size 3 to 8) (size 9 to 14) (size 15 to 20)
#    0.000    2.333    0.000    3.000    2.333    2.667 
#    0.000    7.500    0.000    0.000    0.000    0.000 
#    0.000    0.000    0.000    0.000    0.000    0.000 
#
# Total GULP energy -133886.000527 kJ/mol
# GULP energy per Si atom -5578.583355 kJ/mol
# Density = 2.010378 g / cm^3
# Si number density = 20.149644 Si / 1000 Ang^3
#
#
#
# Elastic Constant Matrix: (Units=GPa)
#
#
# Indices 1 2 3 4 5 6 
#
# 1 14.8270 7.6282 10.2137 0.0000 0.0000 0.0000
# 2 7.6282 58.1502 5.3946 0.0000 0.0000 0.0000
# 3 10.2137 5.3946 82.9684 0.0000 0.0000 0.0000
# 4 0.0000 0.0000 0.0000 4.7538 0.0000 0.0000
# 5 0.0000 0.0000 0.0000 0.0000 19.2160 0.0000
# 6 0.0000 0.0000 0.0000 0.0000 0.0000 15.0854
#
#
#
# Elastic Compliance Matrix: (Units=1/GPa)
#
#
# Indices 1 2 3 4 5 6 
#
# 1 0.078551 -0.009464 -0.009055 0.000000 0.000000 0.000000
# 2 -0.009464 0.018442 -0.000034 0.000000 0.000000 0.000000
# 3 -0.009055 -0.000034 0.013170 0.000000 0.000000 0.000000
# 4 0.000000 0.000000 0.000000 0.210358 0.000000 0.000000
# 5 0.000000 0.000000 0.000000 0.000000 0.052040 0.000000
# 6 0.000000 0.000000 0.000000 0.000000 0.000000 0.066289
#
#
# Mechanical properties :
#
#
# Convention : Reuss Voigt Hill
#
# Bulk Modulus (GPa) = 13.68803 22.49094 18.08949
# Shear Modulus (GPa) = 9.99384 16.65831 13.32607
#
# Velocity S-wave (km/s) = 2.22948 2.87841 2.57447
# Velocity P-wave (km/s) = 3.66543 4.71521 4.22306
#
# Compressibility (1/GPa) = 0.07305653
#
# Stress axis : x y z
#
# Youngs Moduli (GPa) = 12.73054 54.22543 75.93221
#
# Poissons Ratio (x) = 0.51321 0.68753
# Poissons Ratio (y) = 0.12049 0.00258
# Poissons Ratio (z) = 0.11527 0.00184
#
# Static dielectric constant tensor:
#      x y z
#    x 1.702600 0.000000 0.000000 
#    y 0.000000 1.710130 0.000000 
#    z 0.000000 0.000000 1.726700 
# 
# From -- ./inp_files/10249.got.cif
#   From: 2010.05.17/outbox.cif.g08.bks.cpg/sg40_6_cif.got.tgz:10249.got - 2010.06.03 18:35:42.
