data_PCOD9363110
_publ_section_title
;
Structure prediction by ZEFSAII (Michael W. Deem and Ramdas Pophale) SiO2 
 PCOD9363110
Probable space group: A M A 2
;
_chemical_formula_sum "Si O2"
_cell_formula_units_Z 56
_cell_length_a 8.984082
_cell_length_b 19.502438
_cell_length_c 17.095491
_cell_angle_alpha 90.000000
_cell_angle_beta 90.000000
_cell_angle_gamma 90.000000
_cell_volume 2995.326659
_symmetry_space_group_name_H-M "A M A 2"
_symmetry_group_IT_number 40
_symmetry_cell_setting 'orthorhombic'
loop_
_space_group_symop_operation_xyz
x,y,z
-x,-y,z
1/2-x,y,z
1/2+x,-y,z
x,1/2+y,1/2+z
-x,1/2-y,1/2+z
1/2-x,1/2+y,1/2+z
1/2+x,1/2-y,1/2+z
loop_
_atom_site_type_symbol
_atom_site_label
_atom_site_fract_x
_atom_site_fract_y
_atom_site_fract_z
Si Si1 0.425642 0.315014 0.158400
Si Si2 0.075631 0.296005 0.560802
Si Si3 0.080329 0.567650 0.072889
Si Si4 0.570710 0.925671 0.976869
Si Si5 0.417201 0.567232 0.885121
Si Si6 0.073413 0.721202 0.895481
Si Si7 0.574432 0.349007 0.318016
O O1 0.250000 0.306000 0.161412
O O2 0.502268 0.243231 0.134045
O O3 0.476868 0.368934 0.093150
O O4 0.485274 0.350209 0.237489
O O5 0.250000 0.308968 0.575013
O O6 0.066336 0.243681 0.486478
O O7 0.994987 0.365677 0.532565
O O8 0.250000 0.576842 0.102045
O O9 0.090629 0.560560 0.979413
O O10 0.000000 0.500000 0.104800
O O11 0.750000 0.927500 0.983989
O O12 0.534344 0.902284 0.887228
O O13 0.500000 0.000000 0.992469
O O14 0.500000 0.500000 0.854979
O O15 0.250000 0.566571 0.853841
O O16 0.476898 0.644229 0.875402
O O17 0.250000 0.727888 0.874215
O O18 0.970280 0.775210 0.852355
O O19 0.750000 0.354498 0.303387
#
# Coordination Sequence:
#
# PCOD9363110 Si02
#       7
#     8   8   8   8   8   8   8
#     4  12  23  35  53  79 111 149 188 228 276 335
#     4  10  19  35  58  81 109 144 183 232 282 330
#     4  10  19  33  49  73 106 141 176 214 258 308
#     4  10  21  38  60  87 114 146 190 236 285 343
#     4   9  17  29  47  73 102 133 168 208 253 303
#     4   9  17  33  53  75 103 136 175 221 270 322
#     4  10  22  37  54  78 108 143 184 229 277 334
#
# _framework density 18.695791
#
# number of rings (size 3 to 8) (size 9 to 14) (size 15 to 20)
#    0.000    2.000    1.429    3.000    0.000    4.000 
#    0.000    1.429    0.000    0.857    0.000    4.000 
#    0.000    0.000    0.000    0.000    0.000    0.000 
#
# Total GULP energy -156061.166946 kJ/mol
# GULP energy per Si atom -5573.613105 kJ/mol
# Density = 1.865324 g / cm^3
# Si number density = 18.695791 Si / 1000 Ang^3
#
#
#
# Elastic Constant Matrix: (Units=GPa)
#
#
# Indices 1 2 3 4 5 6 
#
# 1 77.4069 28.6190 13.3004 0.0000 0.0000 0.0000
# 2 28.6190 120.6243 -3.9888 0.0000 0.0000 0.0000
# 3 13.3004 -3.9888 13.7771 0.0000 0.0000 0.0000
# 4 0.0000 0.0000 0.0000 8.5705 0.0000 0.0000
# 5 0.0000 0.0000 0.0000 0.0000 43.9809 0.0000
# 6 0.0000 0.0000 0.0000 0.0000 0.0000 29.7692
#
#
#
# Elastic Compliance Matrix: (Units=1/GPa)
#
#
# Indices 1 2 3 4 5 6 
#
# 1 0.017940 -0.004876 -0.018731 0.000000 0.000000 0.000000
# 2 -0.004876 0.009695 0.007514 0.000000 0.000000 0.000000
# 3 -0.018731 0.007514 0.092842 0.000000 0.000000 0.000000
# 4 0.000000 0.000000 0.000000 0.116680 0.000000 0.000000
# 5 0.000000 0.000000 0.000000 0.000000 0.022737 0.000000
# 6 0.000000 0.000000 0.000000 0.000000 0.000000 0.033592
#
#
# Mechanical properties :
#
#
# Convention : Reuss Voigt Hill
#
# Bulk Modulus (GPa) = 11.32595 31.96327 21.64461
# Shear Modulus (GPa) = 14.08049 28.05597 21.06823
#
# Velocity S-wave (km/s) = 2.74731 3.87803 3.36057
# Velocity P-wave (km/s) = 4.01681 6.09802 5.16336
#
# Compressibility (1/GPa) = 0.08829284
#
# Stress axis : x y z
#
# Youngs Moduli (GPa) = 55.74212 103.14084 10.77098
#
# Poissons Ratio (x) = 0.50289 0.20175
# Poissons Ratio (y) = 0.27178 -0.08093
# Poissons Ratio (z) = 1.04408 -0.77501
#
# Static dielectric constant tensor:
#      x y z
#    x 1.635220 0.000000 0.000000 
#    y 0.000000 1.677950 0.000000 
#    z 0.000000 0.000000 1.692420 
# 
# From -- ./inp_files/19466.got.cif
#   From: 2010.05.17/outbox.cif.g08.bks.cpg/sg40_10_cif.got.tgz:19466.got - 2010.06.03 18:35:42.
