data_PCOD9363925
_publ_section_title
;
Structure prediction by ZEFSAII (Michael W. Deem and Ramdas Pophale) SiO2 
 PCOD9363925
Probable space group: A M A 2
;
_chemical_formula_sum "Si O2"
_cell_formula_units_Z 64
_cell_length_a 8.829875
_cell_length_b 28.706411
_cell_length_c 14.849282
_cell_angle_alpha 90.000000
_cell_angle_beta 90.000000
_cell_angle_gamma 90.000000
_cell_volume 3763.907215
_symmetry_space_group_name_H-M "A M A 2"
_symmetry_group_IT_number 40
_symmetry_cell_setting 'orthorhombic'
loop_
_space_group_symop_operation_xyz
x,y,z
-x,-y,z
1/2-x,y,z
1/2+x,-y,z
x,1/2+y,1/2+z
-x,1/2-y,1/2+z
1/2-x,1/2+y,1/2+z
1/2+x,1/2-y,1/2+z
loop_
_atom_site_type_symbol
_atom_site_label
_atom_site_fract_x
_atom_site_fract_y
_atom_site_fract_z
Si Si1 0.432114 0.359767 0.103930
Si Si2 0.932080 0.549839 0.997322
Si Si3 0.578569 0.731299 0.747962
Si Si4 0.569068 0.862121 0.183389
Si Si5 0.431900 0.949540 0.286589
Si Si6 0.920457 0.768454 0.542566
Si Si7 0.566234 0.167726 0.994538
Si Si8 0.932270 0.674028 0.299404
O O1 0.250000 0.360328 0.104581
O O2 0.484823 0.315486 0.045244
O O3 0.483465 0.351313 0.207353
O O4 0.485913 0.407674 0.059479
O O5 0.750000 0.547234 0.003494
O O6 0.969425 0.558742 0.892264
O O7 0.000000 0.500000 0.022999
O O8 0.750000 0.724215 0.781242
O O9 0.491860 0.682508 0.739813
O O10 0.587715 0.750546 0.645657
O O11 0.494580 0.773329 0.797240
O O12 0.750000 0.862307 0.183925
O O13 0.502448 0.908701 0.227114
O O14 0.508918 0.855973 0.080869
O O15 0.250000 0.950050 0.277423
O O16 0.500000 0.000000 0.262666
O O17 0.750000 0.778250 0.510308
O O18 0.980720 0.722299 0.494738
O O19 0.750000 0.166558 0.006414
O O20 0.527333 0.150110 0.894442
O O21 0.750000 0.676674 0.296530
#
# Coordination Sequence:
#
# PCOD9363925 Si02
#       8
#     8   8   8   8   8   8   8   8
#     4   9  17  30  48  71  97 125 160 199 241 291
#     4   9  19  34  52  74  98 124 156 196 245 298
#     4   9  17  30  46  66  96 131 166 205 245 285
#     4  11  21  33  51  74  99 131 170 209 250 298
#     4  10  20  36  55  75  99 125 156 200 253 306
#     4   8  15  27  42  62  90 124 161 197 234 276
#     4   9  18  32  48  70 101 136 170 204 243 288
#     4   9  17  30  49  72 101 136 171 206 244 290
#
# _framework density 17.003608
#
# number of rings (size 3 to 8) (size 9 to 14) (size 15 to 20)
#    0.000    2.750    0.000    2.625    0.000    5.500 
#    0.000    2.500    0.000    0.750    0.000    1.750 
#    0.000    0.000    0.000    0.000    0.000    0.000 
#
# Total GULP energy -178270.891461 kJ/mol
# GULP energy per Si atom -5570.965358 kJ/mol
# Density = 1.696491 g / cm^3
# Si number density = 17.003608 Si / 1000 Ang^3
#
#
#
# Elastic Constant Matrix: (Units=GPa)
#
#
# Indices 1 2 3 4 5 6 
#
# 1 43.0611 47.9548 33.3172 0.0000 0.0000 0.0000
# 2 47.9548 141.9166 71.0360 0.0000 0.0000 0.0000
# 3 33.3172 71.0360 87.7008 0.0000 0.0000 0.0000
# 4 0.0000 0.0000 0.0000 24.5994 0.0000 0.0000
# 5 0.0000 0.0000 0.0000 0.0000 10.8751 0.0000
# 6 0.0000 0.0000 0.0000 0.0000 0.0000 28.2585
#
#
#
# Elastic Compliance Matrix: (Units=1/GPa)
#
#
# Indices 1 2 3 4 5 6 
#
# 1 0.039693 -0.009864 -0.007090 0.000000 0.000000 0.000000
# 2 -0.009864 0.014303 -0.007838 0.000000 0.000000 0.000000
# 3 -0.007090 -0.007838 0.020444 0.000000 0.000000 0.000000
# 4 0.000000 0.000000 0.000000 0.040651 0.000000 0.000000
# 5 0.000000 0.000000 0.000000 0.000000 0.091953 0.000000
# 6 0.000000 0.000000 0.000000 0.000000 0.000000 0.035388
#
#
# Mechanical properties :
#
#
# Convention : Reuss Voigt Hill
#
# Bulk Modulus (GPa) = 40.22942 64.14381 52.18661
# Shear Modulus (GPa) = 16.65002 20.77130 18.71066
#
# Velocity S-wave (km/s) = 3.13262 3.49891 3.32082
# Velocity P-wave (km/s) = 6.06590 7.35722 6.74254
#
# Compressibility (1/GPa) = 0.02485743
#
# Stress axis : x y z
#
# Youngs Moduli (GPa) = 25.19330 69.91768 48.91414
#
# Poissons Ratio (x) = 0.68966 0.34678
# Poissons Ratio (y) = 0.24850 0.38337
# Poissons Ratio (z) = 0.17861 0.54798
#
# Static dielectric constant tensor:
#      x y z
#    x 1.580970 0.000000 0.000000 
#    y 0.000000 1.548590 0.000000 
#    z 0.000000 0.000000 1.612580 
# 
# From -- ./inp_files/15631.got.cif
#   From: 2010.05.17/outbox.cif.g08.bks.cpg/sg40_8_cif.got.tgz:15631.got - 2010.06.03 18:35:42.
