data_PCOD9363415
_publ_section_title
;
Structure prediction by ZEFSAII (Michael W. Deem and Ramdas Pophale) SiO2 
 PCOD9363415
Probable space group: A M A 2
;
_chemical_formula_sum "Si O2"
_cell_formula_units_Z 48
_cell_length_a 14.608042
_cell_length_b 10.279047
_cell_length_c 15.747606
_cell_angle_alpha 90.000000
_cell_angle_beta 90.000000
_cell_angle_gamma 90.000000
_cell_volume 2364.609342
_symmetry_space_group_name_H-M "A M A 2"
_symmetry_group_IT_number 40
_symmetry_cell_setting 'orthorhombic'
loop_
_space_group_symop_operation_xyz
x,y,z
-x,-y,z
1/2-x,y,z
1/2+x,-y,z
x,1/2+y,1/2+z
-x,1/2-y,1/2+z
1/2-x,1/2+y,1/2+z
1/2+x,1/2-y,1/2+z
loop_
_atom_site_type_symbol
_atom_site_label
_atom_site_fract_x
_atom_site_fract_y
_atom_site_fract_z
Si Si1 0.919503 0.399326 0.060760
Si Si2 0.958611 0.864039 0.239362
Si Si3 0.426704 0.116081 0.757595
Si Si4 0.250000 0.898242 0.033199
Si Si5 0.750000 0.899776 0.470747
Si Si6 0.952086 0.617444 0.555965
Si Si7 0.750000 0.300381 0.782525
Si Si8 0.750000 0.500314 0.342387
O O1 0.893062 0.371080 0.158987
O O2 0.946054 0.261510 0.017402
O O3 0.000000 0.500000 0.064416
O O4 0.839613 0.464424 0.007178
O O5 0.849325 0.840194 0.244318
O O6 0.016213 0.745464 0.279631
O O7 0.987846 0.864255 0.140291
O O8 0.000000 0.000000 0.273780
O O9 0.500000 0.000000 0.760622
O O10 0.339950 0.078106 0.813919
O O11 0.250000 0.743724 0.014349
O O12 0.250000 0.970213 0.942633
O O13 0.152641 0.923441 0.076923
O O14 0.750000 0.873790 0.372492
O O15 0.000000 0.500000 0.505342
O O16 0.750000 0.143696 0.797527
#
# Coordination Sequence:
#
# PCOD9363415 Si02
#       8
#     8   8   8   4   4   8   4   4
#     4   9  18  34  57  84 110 147 194 238 285 347
#     4  10  22  38  61  88 119 160 201 256 304 372
#     4  10  19  35  60  92 117 153 207 253 299 354
#     4   9  20  37  56  84 118 158 198 242 312 355
#     4   9  19  36  54  76 116 162 182 225 304 368
#     4   9  19  37  59  83 112 154 197 245 293 358
#     4  11  22  38  57  87 123 159 201 251 319 366
#     4  11  21  35  61  91 125 161 199 260 311 373
#
# _framework density 20.299334999999999
#
# number of rings (size 3 to 8) (size 9 to 14) (size 15 to 20)
#    0.000    2.333    1.667    0.500    0.000    6.667 
#    3.000    0.833    3.667    0.000    0.000    0.000 
#    0.000    0.000    0.000    0.000    0.000    0.000 
#
# Total GULP energy -133722.440078 kJ/mol
# GULP energy per Si atom -5571.768337 kJ/mol
# Density = 2.025313 g / cm^3
# Si number density = 20.299335 Si / 1000 Ang^3
#
#
#
# Elastic Constant Matrix: (Units=GPa)
#
#
# Indices 1 2 3 4 5 6 
#
# 1 186.5667 45.2994 50.3052 0.0000 0.0000 0.0000
# 2 45.2994 105.9673 3.9674 0.0000 0.0000 0.0000
# 3 50.3052 3.9674 39.6315 0.0000 0.0000 0.0000
# 4 0.0000 0.0000 0.0000 10.0894 0.0000 0.0000
# 5 0.0000 0.0000 0.0000 0.0000 56.3421 0.0000
# 6 0.0000 0.0000 0.0000 0.0000 0.0000 28.3705
#
#
#
# Elastic Compliance Matrix: (Units=1/GPa)
#
#
# Indices 1 2 3 4 5 6 
#
# 1 0.009315 -0.003553 -0.011468 0.000000 0.000000 0.000000
# 2 -0.003553 0.010827 0.003425 0.000000 0.000000 0.000000
# 3 -0.011468 0.003425 0.039446 0.000000 0.000000 0.000000
# 4 0.000000 0.000000 0.000000 0.099114 0.000000 0.000000
# 5 0.000000 0.000000 0.000000 0.000000 0.017749 0.000000
# 6 0.000000 0.000000 0.000000 0.000000 0.000000 0.035248
#
#
# Mechanical properties :
#
#
# Convention : Reuss Voigt Hill
#
# Bulk Modulus (GPa) = 27.47400 59.03440 43.25420
# Shear Modulus (GPa) = 20.24125 34.46664 27.35395
#
# Velocity S-wave (km/s) = 3.16118 4.12505 3.67485
# Velocity P-wave (km/s) = 5.18535 7.19952 6.27380
#
# Compressibility (1/GPa) = 0.03639805
#
# Stress axis : x y z
#
# Youngs Moduli (GPa) = 107.35721 92.35935 25.35127
#
# Poissons Ratio (x) = 0.32811 0.29072
# Poissons Ratio (y) = 0.38139 -0.08684
# Poissons Ratio (z) = 1.23114 -0.31637
#
# Static dielectric constant tensor:
#      x y z
#    x 1.736500 0.000000 0.000000 
#    y 0.000000 1.794350 0.000000 
#    z 0.000000 0.000000 1.736280 
# 
# From -- ./inp_files/20055.got.cif
#   From: 2010.05.17/outbox.cif.g08.bks.cpg/sg40_11_cif.got.tgz:20055.got - 2010.06.03 18:35:42.
