data_PCOD9363126
_publ_section_title
;
Structure prediction by ZEFSAII (Michael W. Deem and Ramdas Pophale) SiO2 
 PCOD9363126
Probable space group: A M A 2
;
_chemical_formula_sum "Si O2"
_cell_formula_units_Z 64
_cell_length_a 8.620855
_cell_length_b 31.224559
_cell_length_c 14.734382
_cell_angle_alpha 90.000000
_cell_angle_beta 90.000000
_cell_angle_gamma 90.000000
_cell_volume 3966.236244
_symmetry_space_group_name_H-M "A M A 2"
_symmetry_group_IT_number 40
_symmetry_cell_setting 'orthorhombic'
loop_
_space_group_symop_operation_xyz
x,y,z
-x,-y,z
1/2-x,y,z
1/2+x,-y,z
x,1/2+y,1/2+z
-x,1/2-y,1/2+z
1/2-x,1/2+y,1/2+z
1/2+x,1/2-y,1/2+z
loop_
_atom_site_type_symbol
_atom_site_label
_atom_site_fract_x
_atom_site_fract_y
_atom_site_fract_z
Si Si1 0.062558 0.546469 0.519210
Si Si2 0.063841 0.046842 0.230255
Si Si3 0.064168 0.202202 0.444570
Si Si4 0.568089 0.131539 0.313385
Si Si5 0.931514 0.366215 0.446755
Si Si6 0.564130 0.712027 0.335032
Si Si7 0.936153 0.730169 0.129510
Si Si8 0.070105 0.824511 0.117884
O O1 0.250000 0.546053 0.518484
O O2 0.014483 0.554445 0.624590
O O3 0.009119 0.584995 0.454100
O O4 0.000000 0.500000 0.493288
O O5 0.250000 0.046697 0.232728
O O6 0.000068 0.084677 0.293169
O O7 0.000000 0.000000 0.255338
O O8 0.250000 0.204545 0.453101
O O9 0.010321 0.245310 0.389801
O O10 0.017309 0.160430 0.387677
O O11 0.987400 0.202222 0.543669
O O12 0.750000 0.128487 0.335494
O O13 0.552788 0.156909 0.218226
O O14 0.750000 0.367073 0.425630
O O15 0.009884 0.331576 0.381953
O O16 0.959886 0.348691 0.548115
O O17 0.750000 0.713451 0.338281
O O18 0.518277 0.713703 0.229415
O O19 0.750000 0.736220 0.128289
O O20 0.021616 0.775314 0.116876
O O21 0.250000 0.829359 0.089293
#
# Coordination Sequence:
#
# PCOD9363126 Si02
#       8
#     8   8   8   8   8   8   8   8
#     4   9  19  32  48  73 102 135 170 209 256 306
#     4  10  19  33  51  74 106 138 173 214 260 309
#     4  11  22  36  53  76 104 135 175 216 258 307
#     4  11  22  34  51  76 104 141 181 213 257 310
#     4  11  21  33  51  75 103 137 176 212 255 305
#     4  10  22  36  51  74 103 136 174 213 257 307
#     4  11  22  37  53  71 101 137 175 217 257 300
#     4  11  21  31  48  73 103 137 175 212 252 301
#
# _framework density 16.136205
#
# number of rings (size 3 to 8) (size 9 to 14) (size 15 to 20)
#    0.000    1.500    3.750    2.250    0.000    4.000 
#    0.000    0.000    0.000    0.000    0.000    0.875 
#    0.000    4.000    0.000    0.000    0.000    0.000 
#
# Total GULP energy -178596.491642 kJ/mol
# GULP energy per Si atom -5581.140364 kJ/mol
# Density = 1.609948 g / cm^3
# Si number density = 16.136205 Si / 1000 Ang^3
#
#
#
# Elastic Constant Matrix: (Units=GPa)
#
#
# Indices 1 2 3 4 5 6 
#
# 1 14.3623 0.1137 8.0216 0.0000 0.0000 0.0000
# 2 0.1137 100.3766 24.8815 0.0000 0.0000 0.0000
# 3 8.0216 24.8815 62.4239 0.0000 0.0000 0.0000
# 4 0.0000 0.0000 0.0000 20.7389 0.0000 0.0000
# 5 0.0000 0.0000 0.0000 0.0000 12.0221 0.0000
# 6 0.0000 0.0000 0.0000 0.0000 0.0000 26.9415
#
#
#
# Elastic Compliance Matrix: (Units=1/GPa)
#
#
# Indices 1 2 3 4 5 6 
#
# 1 0.075606 0.002577 -0.010743 0.000000 0.000000 0.000000
# 2 0.002577 0.011143 -0.004773 0.000000 0.000000 0.000000
# 3 -0.010743 -0.004773 0.019302 0.000000 0.000000 0.000000
# 4 0.000000 0.000000 0.000000 0.048219 0.000000 0.000000
# 5 0.000000 0.000000 0.000000 0.000000 0.083180 0.000000
# 6 0.000000 0.000000 0.000000 0.000000 0.000000 0.037117
#
#
# Mechanical properties :
#
#
# Convention : Reuss Voigt Hill
#
# Bulk Modulus (GPa) = 12.47270 27.02181 19.74725
# Shear Modulus (GPa) = 15.28265 21.55024 18.41645
#
# Velocity S-wave (km/s) = 3.08084 3.65844 3.38200
# Velocity P-wave (km/s) = 4.51684 5.88456 5.24547
#
# Compressibility (1/GPa) = 0.08017512
#
# Stress axis : x y z
#
# Youngs Moduli (GPa) = 13.22641 89.74577 51.80740
#
# Poissons Ratio (x) = -0.23130 0.55656
# Poissons Ratio (y) = -0.03409 0.24725
# Poissons Ratio (z) = 0.14209 0.42831
#
# Static dielectric constant tensor:
#      x y z
#    x 1.551340 0.000000 0.000000 
#    y 0.000000 1.543980 0.000000 
#    z 0.000000 0.000000 1.532540 
# 
# From -- ./inp_files/10660.got.cif
#   From: 2010.05.17/outbox.cif.g08.bks.cpg/sg40_6_cif.got.tgz:10660.got - 2010.06.03 18:35:42.
