data_PCOD9363555
_publ_section_title
;
Structure prediction by ZEFSAII (Michael W. Deem and Ramdas Pophale) SiO2 
 PCOD9363555
Probable space group: A M A 2
;
_chemical_formula_sum "Si O2"
_cell_formula_units_Z 32
_cell_length_a 15.443281
_cell_length_b 12.033729
_cell_length_c 7.031531
_cell_angle_alpha 90.000000
_cell_angle_beta 90.000000
_cell_angle_gamma 90.000000
_cell_volume 1306.741538
_symmetry_space_group_name_H-M "A M A 2"
_symmetry_group_IT_number 40
_symmetry_cell_setting 'orthorhombic'
loop_
_space_group_symop_operation_xyz
x,y,z
-x,-y,z
1/2-x,y,z
1/2+x,-y,z
x,1/2+y,1/2+z
-x,1/2-y,1/2+z
1/2-x,1/2+y,1/2+z
1/2+x,1/2-y,1/2+z
loop_
_atom_site_type_symbol
_atom_site_label
_atom_site_fract_x
_atom_site_fract_y
_atom_site_fract_z
Si Si1 0.095165 0.970060 0.967400
Si Si2 0.846902 0.269833 0.909168
Si Si3 0.478860 0.887012 0.367182
Si Si4 0.654904 0.792022 0.867000
O O1 0.139690 0.861874 0.879359
O O2 0.147515 0.082870 0.941862
O O3 0.074207 0.931369 0.183704
O O4 0.000000 0.000000 0.890586
O O5 0.750000 0.303538 0.849806
O O6 0.928531 0.332874 0.821603
O O7 0.854147 0.293939 0.136860
O O8 0.419461 0.788798 0.446445
O O9 0.500000 0.000000 0.479236
O O10 0.750000 0.745409 0.908634
#
# Coordination Sequence:
#
# PCOD9363555 Si02
#       4
#     8   8   8   8
#     4  10  19  38  66  93 132 177 219 271 339 393
#     4  10  21  39  63  96 135 176 225 281 331 397
#     4  10  22  39  63  95 137 177 218 275 337 397
#     4  10  21  39  67  98 134 179 228 279 333 396
#
# _framework density 24.488391
#
# number of rings (size 3 to 8) (size 9 to 14) (size 15 to 20)
#    0.000    2.000    2.500    0.750    0.000    3.000 
#    0.000    7.500    0.000    0.000    0.000    0.000 
#    0.000    0.000    0.000    0.000    0.000    0.000 
#
# Total GULP energy -89432.276923 kJ/mol
# GULP energy per Si atom -5589.517308 kJ/mol
# Density = 2.443265 g / cm^3
# Si number density = 24.488391 Si / 1000 Ang^3
#
#
#
# Elastic Constant Matrix: (Units=GPa)
#
#
# Indices 1 2 3 4 5 6 
#
# 1 166.5967 78.5403 0.4335 0.0000 0.0000 0.0000
# 2 78.5403 204.8602 24.3842 0.0000 0.0000 0.0000
# 3 0.4335 24.3842 109.4463 0.0000 0.0000 0.0000
# 4 0.0000 0.0000 0.0000 15.3565 0.0000 0.0000
# 5 0.0000 0.0000 0.0000 0.0000 2.0743 0.0000
# 6 0.0000 0.0000 0.0000 0.0000 0.0000 59.0319
#
#
#
# Elastic Compliance Matrix: (Units=1/GPa)
#
#
# Indices 1 2 3 4 5 6 
#
# 1 0.007367 -0.002898 0.000616 0.000000 0.000000 0.000000
# 2 -0.002898 0.006154 -0.001360 0.000000 0.000000 0.000000
# 3 0.000616 -0.001360 0.009437 0.000000 0.000000 0.000000
# 4 0.000000 0.000000 0.000000 0.065119 0.000000 0.000000
# 5 0.000000 0.000000 0.000000 0.000000 0.482082 0.000000
# 6 0.000000 0.000000 0.000000 0.000000 0.000000 0.016940
#
#
# Mechanical properties :
#
#
# Convention : Reuss Voigt Hill
#
# Bulk Modulus (GPa) = 63.78931 76.40214 70.09573
# Shear Modulus (GPa) = 8.33879 40.46223 24.40051
#
# Velocity S-wave (km/s) = 1.84732 4.06926 3.16002
# Velocity P-wave (km/s) = 5.53674 7.30381 6.48078
#
# Compressibility (1/GPa) = 0.01567661
#
# Stress axis : x y z
#
# Youngs Moduli (GPa) = 135.73956 162.49106 105.96159
#
# Poissons Ratio (x) = 0.47087 -0.06532
# Poissons Ratio (y) = 0.39334 0.14407
# Poissons Ratio (z) = -0.08367 0.22093
#
# Static dielectric constant tensor:
#      x y z
#    x 1.908510 0.000000 0.000000 
#    y 0.000000 1.943500 0.000000 
#    z 0.000000 0.000000 2.061560 
# 
# From -- ./inp_files/5879.got.cif
#   From: 2010.05.17/outbox.cif.g08.bks.cpg/sg40_3_cif.got.tgz:5879.got - 2010.06.03 18:35:42.
