data_PCOD9363395
_publ_section_title
;
Structure prediction by ZEFSAII (Michael W. Deem and Ramdas Pophale) SiO2 
 PCOD9363395
Probable space group: A M A 2
;
_chemical_formula_sum "Si O2"
_cell_formula_units_Z 40
_cell_length_a 19.292331
_cell_length_b 5.460609
_cell_length_c 12.304078
_cell_angle_alpha 90.000000
_cell_angle_beta 90.000000
_cell_angle_gamma 90.000000
_cell_volume 1296.208487
_symmetry_space_group_name_H-M "A M A 2"
_symmetry_group_IT_number 40
_symmetry_cell_setting 'orthorhombic'
loop_
_space_group_symop_operation_xyz
x,y,z
-x,-y,z
1/2-x,y,z
1/2+x,-y,z
x,1/2+y,1/2+z
-x,1/2-y,1/2+z
1/2-x,1/2+y,1/2+z
1/2+x,1/2-y,1/2+z
loop_
_atom_site_type_symbol
_atom_site_label
_atom_site_fract_x
_atom_site_fract_y
_atom_site_fract_z
Si Si1 0.417441 0.772157 0.050070
Si Si2 0.602639 0.002531 0.855989
Si Si3 0.097451 0.527352 0.802115
Si Si4 0.582158 0.754996 0.104339
Si Si5 0.250000 0.008133 0.242474
Si Si6 0.250000 0.012862 0.739171
O O1 0.500452 0.750349 0.073180
O O2 0.383013 0.509080 0.078806
O O3 0.402354 0.958761 0.163247
O O4 0.393343 0.056924 0.994505
O O5 0.565144 0.739336 0.832019
O O6 0.682850 0.984507 0.816778
O O7 0.582421 0.287406 0.912234
O O8 0.078951 0.812101 0.743302
O O9 0.181399 0.513897 0.813787
O O10 0.250000 0.258259 0.175599
O O11 0.250000 0.763204 0.173264
#
# Coordination Sequence:
#
# PCOD9363395 Si02
#       6
#     8   8   8   8   4   4
#     4  10  21  38  55  77 114 151 184 238 295 342
#     4  10  19  35  59  84 109 147 193 235 282 347
#     4  10  19  35  59  84 109 147 193 235 282 347
#     4  10  21  38  55  77 114 151 184 238 295 342
#     4   8  16  30  52  82 112 138 180 238 286 332
#     4   8  16  30  52  82 112 138 180 238 286 332
#
# _framework density 30.859234000000001
#
# number of rings (size 3 to 8) (size 9 to 14) (size 15 to 20)
#    0.000    2.400    0.000    2.400    0.000    0.000 
#    0.000   18.000    0.000    0.000    0.000    0.000 
#    0.000    0.000    0.000    0.000    0.000    0.000 
#
# Total GULP energy -111471.629072 kJ/mol
# GULP energy per Si atom -5573.581454 kJ/mol
# Density = 3.078900 g / cm^3
# Si number density = 30.859234 Si / 1000 Ang^3
#
#
#
# Elastic Constant Matrix: (Units=GPa)
#
#
# Indices 1 2 3 4 5 6 
#
# 1 204.3449 1.9583 21.6099 0.0000 0.0000 0.0000
# 2 1.9583 511.1844 102.8088 0.0000 0.0000 0.0000
# 3 21.6099 102.8088 339.8610 0.0000 0.0000 0.0000
# 4 0.0000 0.0000 0.0000 73.9467 0.0000 0.0000
# 5 0.0000 0.0000 0.0000 0.0000 29.3214 0.0000
# 6 0.0000 0.0000 0.0000 0.0000 0.0000 24.8483
#
#
#
# Elastic Compliance Matrix: (Units=1/GPa)
#
#
# Indices 1 2 3 4 5 6 
#
# 1 0.004928 0.000047 -0.000328 0.000000 0.000000 0.000000
# 2 0.000047 0.002083 -0.000633 0.000000 0.000000 0.000000
# 3 -0.000328 -0.000633 0.003155 0.000000 0.000000 0.000000
# 4 0.000000 0.000000 0.000000 0.013523 0.000000 0.000000
# 5 0.000000 0.000000 0.000000 0.000000 0.034105 0.000000
# 6 0.000000 0.000000 0.000000 0.000000 0.000000 0.040244
#
#
# Mechanical properties :
#
#
# Convention : Reuss Voigt Hill
#
# Bulk Modulus (GPa) = 119.92581 145.34936 132.63758
# Shear Modulus (GPa) = 48.71139 87.55750 68.13444
#
# Velocity S-wave (km/s) = 3.97735 5.33243 4.70394
# Velocity P-wave (km/s) = 7.74848 9.22584 8.51924
#
# Compressibility (1/GPa) = 0.00833849
#
# Stress axis : x y z
#
# Youngs Moduli (GPa) = 202.92714 479.98124 316.98145
#
# Poissons Ratio (x) = -0.02256 0.10383
# Poissons Ratio (y) = -0.00954 0.20072
# Poissons Ratio (z) = 0.06647 0.30394
#
# Static dielectric constant tensor:
#      x y z
#    x 2.076160 0.000000 0.000000 
#    y 0.000000 2.665030 0.000000 
#    z 0.000000 0.000000 2.524560 
# 
# From -- ./inp_files/18377.got.cif
#   From: 2010.05.17/outbox.cif.g08.bks.cpg/sg40_10_cif.got.tgz:18377.got - 2010.06.03 18:35:42.
