data_PCOD9363451
_publ_section_title
;
Structure prediction by ZEFSAII (Michael W. Deem and Ramdas Pophale) SiO2 
 PCOD9363451
Probable space group: A M A 2
;
_chemical_formula_sum "Si O2"
_cell_formula_units_Z 60
_cell_length_a 33.576472
_cell_length_b 10.963805
_cell_length_c 8.530939
_cell_angle_alpha 90.000000
_cell_angle_beta 90.000000
_cell_angle_gamma 90.000000
_cell_volume 3140.459526
_symmetry_space_group_name_H-M "A M A 2"
_symmetry_group_IT_number 40
_symmetry_cell_setting 'orthorhombic'
loop_
_space_group_symop_operation_xyz
x,y,z
-x,-y,z
1/2-x,y,z
1/2+x,-y,z
x,1/2+y,1/2+z
-x,1/2-y,1/2+z
1/2-x,1/2+y,1/2+z
1/2+x,1/2-y,1/2+z
loop_
_atom_site_type_symbol
_atom_site_label
_atom_site_fract_x
_atom_site_fract_y
_atom_site_fract_z
Si Si1 0.660565 0.572188 0.186320
Si Si2 0.026259 0.712754 0.522819
Si Si3 0.500000 0.000000 0.796418
Si Si4 0.204155 0.185114 0.177376
Si Si5 0.468173 0.610146 0.871461
Si Si6 0.295781 0.662527 0.054048
Si Si7 0.702000 0.572482 0.521370
Si Si8 0.427243 0.932990 0.568042
O O1 0.678110 0.700360 0.122249
O O2 0.678109 0.450445 0.108013
O O3 0.676065 0.569025 0.364404
O O4 0.613546 0.572614 0.160526
O O5 0.033682 0.668119 0.699750
O O6 0.062004 0.805726 0.482646
O O7 0.020323 0.600489 0.406916
O O8 0.985899 0.791073 0.492816
O O9 0.464395 0.950942 0.687085
O O10 0.250000 0.210876 0.133682
O O11 0.202454 0.174368 0.365694
O O12 0.193659 0.052333 0.111733
O O13 0.500000 0.500000 0.859606
O O14 0.429732 0.544813 0.945115
O O15 0.250000 0.637917 0.100920
O O16 0.306640 0.799727 0.110143
O O17 0.750000 0.576312 0.485715
#
# Coordination Sequence:
#
# PCOD9363451 Si02
#       8
#     8   8   4   8   8   8   8   8
#     4  11  22  36  58  86 123 158 187 241 300 350
#     4  11  20  38  66  83 108 145 195 244 300 347
#     4  12  22  40  64  86 106 156 200 250 298 354
#     4   9  19  37  60  86 117 154 200 244 286 343
#     4  10  19  36  59  88 109 142 191 243 289 352
#     4   9  18  35  58  87 117 154 201 239 286 347
#     4   9  19  37  61  86 116 156 200 241 284 344
#     4  11  24  39  56  85 123 148 195 245 295 357
#
# _framework density 19.105485000000002
#
# number of rings (size 3 to 8) (size 9 to 14) (size 15 to 20)
#    0.000    1.867    4.000    2.000    0.000    4.267 
#    0.000    2.667    0.000    0.000    0.000    0.000 
#    0.000    0.000    0.000    0.000    0.000    0.000 
#
# Total GULP energy -167239.453053 kJ/mol
# GULP energy per Si atom -5574.648435 kJ/mol
# Density = 1.906200 g / cm^3
# Si number density = 19.105485 Si / 1000 Ang^3
#
#
#
# Elastic Constant Matrix: (Units=GPa)
#
#
# Indices 1 2 3 4 5 6 
#
# 1 75.4239 47.1717 15.3339 0.0000 0.0000 0.0000
# 2 47.1717 141.2227 38.6754 0.0000 0.0000 0.0000
# 3 15.3339 38.6754 51.6232 0.0000 0.0000 0.0000
# 4 0.0000 0.0000 0.0000 36.8227 0.0000 0.0000
# 5 0.0000 0.0000 0.0000 0.0000 15.1021 0.0000
# 6 0.0000 0.0000 0.0000 0.0000 0.0000 -7.5346
#
#
#
# Elastic Compliance Matrix: (Units=1/GPa)
#
#
# Indices 1 2 3 4 5 6 
#
# 1 0.016800 -0.005341 -0.000989 0.000000 0.000000 0.000000
# 2 -0.005341 0.010607 -0.006360 0.000000 0.000000 0.000000
# 3 -0.000989 -0.006360 0.024430 0.000000 0.000000 0.000000
# 4 0.000000 0.000000 0.000000 0.027157 0.000000 0.000000
# 5 0.000000 0.000000 0.000000 0.000000 0.066216 0.000000
# 6 0.000000 0.000000 0.000000 0.000000 0.000000 -0.132722
#
#
# Mechanical properties :
#
#
# Convention : Reuss Voigt Hill
#
# Bulk Modulus (GPa) = 37.79748 52.29243 45.04495
# Shear Modulus (GPa) = 107.10048 20.01732 63.55890
#
# Velocity S-wave (km/s) = 7.49528 3.24037 5.77404
# Velocity P-wave (km/s) = 9.73304 6.43660 8.25112
#
# Compressibility (1/GPa) = 0.02645679
#
# Stress axis : x y z
#
# Youngs Moduli (GPa) = 59.52527 94.28032 40.93380
#
# Poissons Ratio (x) = 0.50352 0.04048
# Poissons Ratio (y) = 0.31790 0.26034
# Poissons Ratio (z) = 0.05887 0.59962
#
# Static dielectric constant tensor:
#      x y z
#    x 1.637970 0.000000 0.000000 
#    y 0.000000 1.727020 0.000000 
#    z 0.000000 0.000000 1.673000 
# 
# From -- ./inp_files/9398.got.cif
#   From: 2010.05.17/outbox.cif.g08.bks.cpg/sg40_5_cif.got.tgz:9398.got - 2010.06.03 18:35:42.
