data_PCOD9363107
_publ_section_title
;
Structure prediction by ZEFSAII (Michael W. Deem and Ramdas Pophale) SiO2 
 PCOD9363107
Probable space group: A M A 2
;
_chemical_formula_sum "Si O2"
_cell_formula_units_Z 56
_cell_length_a 8.554512
_cell_length_b 19.020284
_cell_length_c 21.590007
_cell_angle_alpha 90.000000
_cell_angle_beta 90.000000
_cell_angle_gamma 90.000000
_cell_volume 3512.893797
_symmetry_space_group_name_H-M "A M A 2"
_symmetry_group_IT_number 40
_symmetry_cell_setting 'orthorhombic'
loop_
_space_group_symop_operation_xyz
x,y,z
-x,-y,z
1/2-x,y,z
1/2+x,-y,z
x,1/2+y,1/2+z
-x,1/2-y,1/2+z
1/2-x,1/2+y,1/2+z
1/2+x,1/2-y,1/2+z
loop_
_atom_site_type_symbol
_atom_site_label
_atom_site_fract_x
_atom_site_fract_y
_atom_site_fract_z
Si Si1 0.065467 0.576563 0.655000
Si Si2 0.940600 0.344487 0.029641
Si Si3 0.930568 0.706092 0.590155
Si Si4 0.069416 0.711996 0.222155
Si Si5 0.061466 0.351134 0.779022
Si Si6 0.939833 0.921842 0.656076
Si Si7 0.937928 0.420769 0.903968
O O1 0.250000 0.573008 0.663193
O O2 0.000000 0.500000 0.639488
O O3 0.022831 0.635108 0.603718
O O4 0.990808 0.603144 0.719731
O O5 0.750000 0.342403 0.030848
O O6 0.992152 0.264113 0.041892
O O7 0.988095 0.392695 0.088178
O O8 0.989910 0.378116 0.965061
O O9 0.750000 0.688673 0.575879
O O10 0.929324 0.748793 0.655378
O O11 0.250000 0.701313 0.240866
O O12 0.001446 0.771015 0.267691
O O13 0.002356 0.635321 0.206801
O O14 0.250000 0.349822 0.779382
O O15 0.999023 0.384314 0.841782
O O16 0.750000 0.921229 0.657253
O O17 0.000000 0.000000 0.665954
O O18 0.750000 0.422073 0.902980
O O19 0.000000 0.500000 0.907213
#
# Coordination Sequence:
#
# PCOD9363107 Si02
#       7
#     8   8   8   8   8   8   8
#     4  11  20  30  45  68  93 117 144 182 226 271
#     4   8  16  30  47  63  88 123 153 177 212 260
#     4   8  14  29  48  64  83 114 149 181 218 264
#     4   7  13  26  44  60  80 110 144 176 216 264
#     4  10  19  33  48  62  84 120 157 190 224 264
#     4   9  15  26  43  65  88 113 141 173 213 260
#     4  11  21  32  45  66  93 123 155 187 218 257
#
# _framework density 15.941273000000001
#
# number of rings (size 3 to 8) (size 9 to 14) (size 15 to 20)
#    0.000    2.857    0.000    5.571    0.000    0.000 
#    0.000    9.286    0.000    0.000    0.000    1.000 
#    0.000    4.571    0.000    0.000    0.000    0.000 
#
# Total GULP energy -155914.519974 kJ/mol
# GULP energy per Si atom -5568.375713 kJ/mol
# Density = 1.590499 g / cm^3
# Si number density = 15.941273 Si / 1000 Ang^3
#
#
#
# Elastic Constant Matrix: (Units=GPa)
#
#
# Indices 1 2 3 4 5 6 
#
# 1 43.0057 32.0192 19.5952 0.0000 0.0000 0.0000
# 2 32.0192 163.7286 68.5761 0.0000 0.0000 0.0000
# 3 19.5952 68.5761 77.7239 0.0000 0.0000 0.0000
# 4 0.0000 0.0000 0.0000 26.6617 0.0000 0.0000
# 5 0.0000 0.0000 0.0000 0.0000 227.9739 0.0000
# 6 0.0000 0.0000 0.0000 0.0000 0.0000 24.1754
#
#
#
# Elastic Compliance Matrix: (Units=1/GPa)
#
#
# Indices 1 2 3 4 5 6 
#
# 1 0.027806 -0.003968 -0.003509 0.000000 0.000000 0.000000
# 2 -0.003968 0.010254 -0.008047 0.000000 0.000000 0.000000
# 3 -0.003509 -0.008047 0.020850 0.000000 0.000000 0.000000
# 4 0.000000 0.000000 0.000000 0.037507 0.000000 0.000000
# 5 0.000000 0.000000 0.000000 0.000000 0.004386 0.000000
# 6 0.000000 0.000000 0.000000 0.000000 0.000000 0.041364
#
#
# Mechanical properties :
#
#
# Convention : Reuss Voigt Hill
#
# Bulk Modulus (GPa) = 35.89065 58.31547 47.10306
# Shear Modulus (GPa) = 27.39673 66.71339 47.05506
#
# Velocity S-wave (km/s) = 4.15010 6.47614 5.43892
# Velocity P-wave (km/s) = 6.74742 9.62192 8.30990
#
# Compressibility (1/GPa) = 0.02786241
#
# Stress axis : x y z
#
# Youngs Moduli (GPa) = 35.96348 97.52346 47.96064
#
# Poissons Ratio (x) = 0.38697 0.16831
# Poissons Ratio (y) = 0.14270 0.38593
# Poissons Ratio (z) = 0.12621 0.78474
#
# Static dielectric constant tensor:
#      x y z
#    x 1.542800 0.000000 0.000000 
#    y 0.000000 1.558580 0.000000 
#    z 0.000000 0.000000 1.520150 
# 
# From -- ./inp_files/22304.got.cif
#   From: 2010.05.17/outbox.cif.g08.bks.cpg/sg40_12_cif.got.tgz:22304.got - 2010.06.03 18:35:42.
