data_PCOD9363119
_publ_section_title
;
Structure prediction by ZEFSAII (Michael W. Deem and Ramdas Pophale) SiO2 
 PCOD9363119
Probable space group: A M A 2
;
_chemical_formula_sum "Si O2"
_cell_formula_units_Z 40
_cell_length_a 11.307693
_cell_length_b 11.927415
_cell_length_c 11.523385
_cell_angle_alpha 90.000000
_cell_angle_beta 90.000000
_cell_angle_gamma 90.000000
_cell_volume 1554.176763
_symmetry_space_group_name_H-M "A M A 2"
_symmetry_group_IT_number 40
_symmetry_cell_setting 'orthorhombic'
loop_
_space_group_symop_operation_xyz
x,y,z
-x,-y,z
1/2-x,y,z
1/2+x,-y,z
x,1/2+y,1/2+z
-x,1/2-y,1/2+z
1/2-x,1/2+y,1/2+z
1/2+x,1/2-y,1/2+z
loop_
_atom_site_type_symbol
_atom_site_label
_atom_site_fract_x
_atom_site_fract_y
_atom_site_fract_z
Si Si1 0.250000 0.882646 0.502940
Si Si2 0.250000 0.081993 0.159167
Si Si3 0.998362 0.371304 0.019494
Si Si4 0.250000 0.142208 0.537190
Si Si5 0.250000 0.300926 0.318110
Si Si6 0.250000 0.658773 0.388812
Si Si7 0.000000 0.500000 0.609207
Si Si8 0.509232 0.655557 0.389009
O O1 0.128993 0.853396 0.569318
O O2 0.250000 0.795178 0.396663
O O3 0.250000 0.016211 0.481127
O O4 0.250000 0.194458 0.234238
O O5 0.376239 0.019089 0.176367
O O6 0.250000 0.114407 0.022194
O O7 0.000000 0.500000 0.983112
O O8 0.879762 0.351155 0.093145
O O9 0.991099 0.289184 0.909795
O O10 0.250000 0.242841 0.445982
O O11 0.372149 0.370175 0.319139
O O12 0.379028 0.623462 0.344178
O O13 0.981719 0.602708 0.518305
#
# Coordination Sequence:
#
# PCOD9363119 Si02
#       8
#     4   4   8   4   4   4   4   8
#     4   8  12  22  38  62  84 122 165 213 248 310
#     4  10  21  37  52  82 125 155 191 237 318 342
#     4   8  13  22  38  65  98 121 162 227 265 301
#     4   8  14  23  37  63 100 117 159 211 270 309
#     4  10  19  33  50  85 111 148 187 251 286 348
#     4   8  16  31  51  72 102 146 186 230 274 349
#     4  10  20  38  58  84 118 164 194 240 294 370
#     4   9  17  31  54  78 108 146 202 233 276 351
#
# _framework density 25.737100000000002
#
# number of rings (size 3 to 8) (size 9 to 14) (size 15 to 20)
#    0.000    3.200    0.000    0.600    0.000    0.000 
#   18.000    0.000    0.000    0.000   49.400    0.000 
#    0.000    0.000    0.000    0.000    0.000    0.000 
#
# Total GULP energy -111371.772408 kJ/mol
# GULP energy per Si atom -5568.588620 kJ/mol
# Density = 2.567852 g / cm^3
# Si number density = 25.737100 Si / 1000 Ang^3
#
#
#
# Elastic Constant Matrix: (Units=GPa)
#
#
# Indices 1 2 3 4 5 6 
#
# 1 389.6925 24.4715 21.3689 0.0000 0.0000 0.0000
# 2 24.4715 93.8950 17.2710 0.0000 0.0000 0.0000
# 3 21.3689 17.2710 38.8220 0.0000 0.0000 0.0000
# 4 0.0000 0.0000 0.0000 11.3830 0.0000 0.0000
# 5 0.0000 0.0000 0.0000 0.0000 -23.0586 0.0000
# 6 0.0000 0.0000 0.0000 0.0000 0.0000 697.9677
#
#
#
# Elastic Compliance Matrix: (Units=1/GPa)
#
#
# Indices 1 2 3 4 5 6 
#
# 1 0.002664 -0.000462 -0.001261 0.000000 0.000000 0.000000
# 2 -0.000462 0.011680 -0.004941 0.000000 0.000000 0.000000
# 3 -0.001261 -0.004941 0.028651 0.000000 0.000000 0.000000
# 4 0.000000 0.000000 0.000000 0.087851 0.000000 0.000000
# 5 0.000000 0.000000 0.000000 0.000000 -0.043368 0.000000
# 6 0.000000 0.000000 0.000000 0.000000 0.000000 0.001433
#
#
# Mechanical properties :
#
#
# Convention : Reuss Voigt Hill
#
# Bulk Modulus (GPa) = 33.70923 72.07025 52.88974
# Shear Modulus (GPa) = 44.59181 167.87829 106.23505
#
# Velocity S-wave (km/s) = 4.16695 8.08516 6.43169
# Velocity P-wave (km/s) = 6.02306 10.73419 8.70345
#
# Compressibility (1/GPa) = 0.02966546
#
# Stress axis : x y z
#
# Youngs Moduli (GPa) = 375.33267 85.61900 34.90293
#
# Poissons Ratio (x) = 0.03960 0.04400
# Poissons Ratio (y) = 0.17358 0.17247
# Poissons Ratio (z) = 0.47321 0.42308
#
# Static dielectric constant tensor:
#      x y z
#    x 2.185730 0.000000 0.000000 
#    y 0.000000 2.018430 0.000000 
#    z 0.000000 0.000000 1.954090 
# 
# From -- ./inp_files/11110.got.cif
#   From: 2010.05.17/outbox.cif.g08.bks.cpg/sg40_6_cif.got.tgz:11110.got - 2010.06.03 18:35:42.
