data_PCOD9363274
_publ_section_title
;
Structure prediction by ZEFSAII (Michael W. Deem and Ramdas Pophale) SiO2 
 PCOD9363274
Probable space group: A M A 2
;
_chemical_formula_sum "Si O2"
_cell_formula_units_Z 64
_cell_length_a 8.274966
_cell_length_b 29.085116
_cell_length_c 12.971830
_cell_angle_alpha 90.000000
_cell_angle_beta 90.000000
_cell_angle_gamma 90.000000
_cell_volume 3122.038589
_symmetry_space_group_name_H-M "A M A 2"
_symmetry_group_IT_number 40
_symmetry_cell_setting 'orthorhombic'
loop_
_space_group_symop_operation_xyz
x,y,z
-x,-y,z
1/2-x,y,z
1/2+x,-y,z
x,1/2+y,1/2+z
-x,1/2-y,1/2+z
1/2-x,1/2+y,1/2+z
1/2+x,1/2-y,1/2+z
loop_
_atom_site_type_symbol
_atom_site_label
_atom_site_fract_x
_atom_site_fract_y
_atom_site_fract_z
Si Si1 0.056003 0.305391 0.119440
Si Si2 0.555033 0.047226 0.986669
Si Si3 0.057252 0.447724 0.836934
Si Si4 0.941325 0.333669 0.328253
Si Si5 0.940691 0.405975 0.051485
Si Si6 0.936593 0.569137 0.266664
Si Si7 0.055950 0.706867 0.546891
Si Si8 0.944995 0.619562 0.654364
O O1 0.250000 0.305179 0.131665
O O2 0.005705 0.259700 0.058603
O O3 0.970451 0.301445 0.230339
O O4 0.009345 0.354270 0.068318
O O5 0.750000 0.048702 0.981121
O O6 0.488873 0.047500 0.869928
O O7 0.500000 0.000000 0.038244
O O8 0.500520 0.090368 0.053930
O O9 0.250000 0.448409 0.829117
O O10 0.997818 0.409864 0.753198
O O11 0.000000 0.500000 0.818467
O O12 0.009728 0.430608 0.950798
O O13 0.750000 0.346019 0.332843
O O14 0.995303 0.312651 0.435977
O O15 0.048449 0.377495 0.298567
O O16 0.750000 0.402202 0.041397
O O17 0.979832 0.434259 0.156222
O O18 0.750000 0.555507 0.255003
O O19 0.250000 0.706219 0.547666
O O20 0.999538 0.671710 0.635720
O O21 0.750000 0.619488 0.656290
#
# Coordination Sequence:
#
# PCOD9363274 Si02
#       8
#     8   8   8   8   8   8   8   8
#     4  10  21  38  58  86 121 159 203 253 308 365
#     4  10  21  35  55  85 116 148 186 232 288 349
#     4  11  24  43  66  91 123 165 210 260 314 371
#     4  10  19  34  55  81 112 149 191 240 297 355
#     4  11  23  40  62  88 120 158 205 253 306 366
#     4  10  19  35  58  83 114 149 190 239 295 356
#     4  10  22  37  58  87 120 158 203 252 306 368
#     4  10  22  40  61  87 119 156 201 249 302 364
#
# _framework density 20.499428000000002
#
# number of rings (size 3 to 8) (size 9 to 14) (size 15 to 20)
#    0.000    1.750    1.250    4.500    0.000    5.500 
#    0.000    5.000    0.000    0.000    0.000    0.000 
#    0.000    0.000    0.000    0.000    0.000    0.000 
#
# Total GULP energy -178583.275587 kJ/mol
# GULP energy per Si atom -5580.727362 kJ/mol
# Density = 2.045277 g / cm^3
# Si number density = 20.499428 Si / 1000 Ang^3
#
#
#
# Elastic Constant Matrix: (Units=GPa)
#
#
# Indices 1 2 3 4 5 6 
#
# 1 32.6922 6.7812 8.0189 0.0000 0.0000 0.0000
# 2 6.7812 55.4747 16.5030 0.0000 0.0000 0.0000
# 3 8.0189 16.5030 97.7332 0.0000 0.0000 0.0000
# 4 0.0000 0.0000 0.0000 22.5472 0.0000 0.0000
# 5 0.0000 0.0000 0.0000 0.0000 16.6468 0.0000
# 6 0.0000 0.0000 0.0000 0.0000 0.0000 27.6496
#
#
#
# Elastic Compliance Matrix: (Units=1/GPa)
#
#
# Indices 1 2 3 4 5 6 
#
# 1 0.031771 -0.003273 -0.002054 0.000000 0.000000 0.000000
# 2 -0.003273 0.019317 -0.002993 0.000000 0.000000 0.000000
# 3 -0.002054 -0.002993 0.010906 0.000000 0.000000 0.000000
# 4 0.000000 0.000000 0.000000 0.044351 0.000000 0.000000
# 5 0.000000 0.000000 0.000000 0.000000 0.060072 0.000000
# 6 0.000000 0.000000 0.000000 0.000000 0.000000 0.036167
#
#
# Mechanical properties :
#
#
# Convention : Reuss Voigt Hill
#
# Bulk Modulus (GPa) = 22.04896 27.61180 24.83038
# Shear Modulus (GPa) = 21.33638 23.67518 22.50578
#
# Velocity S-wave (km/s) = 3.22969 3.40210 3.31701
# Velocity P-wave (km/s) = 4.96861 5.37877 5.17775
#
# Compressibility (1/GPa) = 0.04535361
#
# Stress axis : x y z
#
# Youngs Moduli (GPa) = 31.47521 51.76856 91.69335
#
# Poissons Ratio (x) = 0.16942 0.18835
# Poissons Ratio (y) = 0.10301 0.27446
# Poissons Ratio (z) = 0.06466 0.15496
#
# Static dielectric constant tensor:
#      x y z
#    x 1.698080 0.000000 0.000000 
#    y 0.000000 1.761770 0.000000 
#    z 0.000000 0.000000 1.756680 
# 
# From -- ./inp_files/10604.got.cif
#   From: 2010.05.17/outbox.cif.g08.bks.cpg/sg40_6_cif.got.tgz:10604.got - 2010.06.03 18:35:42.
