data_PCOD9363484
_publ_section_title
;
Structure prediction by ZEFSAII (Michael W. Deem and Ramdas Pophale) SiO2 
 PCOD9363484
Probable space group: A M A 2
;
_chemical_formula_sum "Si O2"
_cell_formula_units_Z 64
_cell_length_a 16.835654
_cell_length_b 19.221103
_cell_length_c 9.939152
_cell_angle_alpha 90.000000
_cell_angle_beta 90.000000
_cell_angle_gamma 90.000000
_cell_volume 3216.307993
_symmetry_space_group_name_H-M "A M A 2"
_symmetry_group_IT_number 40
_symmetry_cell_setting 'orthorhombic'
loop_
_space_group_symop_operation_xyz
x,y,z
-x,-y,z
1/2-x,y,z
1/2+x,-y,z
x,1/2+y,1/2+z
-x,1/2-y,1/2+z
1/2-x,1/2+y,1/2+z
1/2+x,1/2-y,1/2+z
loop_
_atom_site_type_symbol
_atom_site_label
_atom_site_fract_x
_atom_site_fract_y
_atom_site_fract_z
Si Si1 0.924632 0.955904 0.750000
Si Si2 0.343886 0.609903 0.002014
Si Si3 0.997102 0.687779 0.956515
Si Si4 0.839332 0.576849 0.367804
Si Si5 0.337522 0.874890 0.559562
Si Si6 0.977756 0.079486 0.214233
Si Si7 0.507609 0.148567 0.940958
Si Si8 0.838422 0.016121 0.313600
O O1 0.862835 0.935130 0.635365
O O2 0.962627 0.888717 0.819067
O O3 0.884100 0.002791 0.865315
O O4 0.000000 0.000000 0.692889
O O5 0.250000 0.629796 0.999596
O O6 0.413997 0.667257 0.005650
O O7 0.360332 0.560114 0.872498
O O8 0.992706 0.769992 0.938779
O O9 0.919740 0.667202 0.044929
O O10 0.986769 0.639959 0.823675
O O11 0.750000 0.575650 0.419453
O O12 0.898594 0.633603 0.427345
O O13 0.836092 0.593775 0.208024
O O14 0.250000 0.839492 0.539768
O O15 0.341222 0.935013 0.446616
O O16 0.884958 0.060251 0.202372
O O17 0.015456 0.107764 0.077978
O O18 0.000000 0.000000 0.258252
O O19 0.750000 0.007815 0.264797
#
# Coordination Sequence:
#
# PCOD9363484 Si02
#       8
#     8   8   8   8   8   8   8   8
#     4  10  20  36  63  91 119 158 206 262 322 383
#     4  11  21  36  63  96 125 153 209 273 320 374
#     4  11  24  39  64  87 125 171 212 261 325 375
#     4  10  19  36  63  90 121 157 201 256 317 383
#     4   9  18  35  62  91 117 152 205 263 316 375
#     4  11  22  40  62  87 123 170 215 258 311 387
#     4  11  26  39  58  91 129 171 212 257 322 398
#     4   9  18  34  59  92 118 151 209 268 311 364
#
# _framework density 19.898592000000001
#
# number of rings (size 3 to 8) (size 9 to 14) (size 15 to 20)
#    0.000    1.750    2.500    3.000    5.250    1.000 
#    0.000    1.250    0.000    1.500    0.000    0.000 
#    0.000    0.000    0.000    0.000    0.000    0.000 
#
# Total GULP energy -178172.658366 kJ/mol
# GULP energy per Si atom -5567.895574 kJ/mol
# Density = 1.985330 g / cm^3
# Si number density = 19.898592 Si / 1000 Ang^3
#
#
#
# Elastic Constant Matrix: (Units=GPa)
#
#
# Indices 1 2 3 4 5 6 
#
# 1 131.2971 49.5565 0.3046 0.0000 0.0000 0.0000
# 2 49.5565 125.5540 12.2217 0.0000 0.0000 0.0000
# 3 0.3046 12.2217 34.3851 0.0000 0.0000 0.0000
# 4 0.0000 0.0000 0.0000 14.1294 0.0000 0.0000
# 5 0.0000 0.0000 0.0000 0.0000 21.3188 0.0000
# 6 0.0000 0.0000 0.0000 0.0000 0.0000 8.1788
#
#
#
# Elastic Compliance Matrix: (Units=1/GPa)
#
#
# Indices 1 2 3 4 5 6 
#
# 1 0.008999 -0.003671 0.001225 0.000000 0.000000 0.000000
# 2 -0.003671 0.009748 -0.003432 0.000000 0.000000 0.000000
# 3 0.001225 -0.003432 0.030291 0.000000 0.000000 0.000000
# 4 0.000000 0.000000 0.000000 0.070774 0.000000 0.000000
# 5 0.000000 0.000000 0.000000 0.000000 0.046907 0.000000
# 6 0.000000 0.000000 0.000000 0.000000 0.000000 0.122267
#
#
# Mechanical properties :
#
#
# Convention : Reuss Voigt Hill
#
# Bulk Modulus (GPa) = 26.82266 46.15573 36.48920
# Shear Modulus (GPa) = 15.96575 24.00231 19.98403
#
# Velocity S-wave (km/s) = 2.83566 3.47685 3.17250
# Velocity P-wave (km/s) = 4.92242 6.27406 5.63889
#
# Compressibility (1/GPa) = 0.03728191
#
# Stress axis : x y z
#
# Youngs Moduli (GPa) = 111.12174 102.58679 33.01259
#
# Poissons Ratio (x) = 0.37662 -0.04045
# Poissons Ratio (y) = 0.40795 0.11331
# Poissons Ratio (z) = -0.13614 0.35210
#
# Static dielectric constant tensor:
#      x y z
#    x 1.906580 0.000000 0.000000 
#    y 0.000000 1.698530 0.000000 
#    z 0.000000 0.000000 1.729150 
# 
# From -- ./inp_files/7803.got.cif
#   From: 2010.05.17/outbox.cif.g08.bks.cpg/sg40_4_cif.got.tgz:7803.got - 2010.06.03 18:35:42.
