data_PCOD9363075
_publ_section_title
;
Structure prediction by ZEFSAII (Michael W. Deem and Ramdas Pophale) SiO2 
 PCOD9363075
Probable space group: A M A 2
;
_chemical_formula_sum "Si O2"
_cell_formula_units_Z 64
_cell_length_a 9.075674
_cell_length_b 20.946128
_cell_length_c 19.962750
_cell_angle_alpha 90.000000
_cell_angle_beta 90.000000
_cell_angle_gamma 90.000000
_cell_volume 3794.923352
_symmetry_space_group_name_H-M "A M A 2"
_symmetry_group_IT_number 40
_symmetry_cell_setting 'orthorhombic'
loop_
_space_group_symop_operation_xyz
x,y,z
-x,-y,z
1/2-x,y,z
1/2+x,-y,z
x,1/2+y,1/2+z
-x,1/2-y,1/2+z
1/2-x,1/2+y,1/2+z
1/2+x,1/2-y,1/2+z
loop_
_atom_site_type_symbol
_atom_site_label
_atom_site_fract_x
_atom_site_fract_y
_atom_site_fract_z
Si Si1 0.423421 0.766048 0.446420
Si Si2 0.072595 0.806113 0.593658
Si Si3 0.925664 0.614771 0.315471
Si Si4 0.924322 0.767001 0.308784
Si Si5 0.573009 0.565129 0.170600
Si Si6 0.426103 0.809102 0.175230
Si Si7 0.923733 0.386902 0.454185
Si Si8 0.073791 0.434421 0.588996
O O1 0.250000 0.775691 0.432299
O O2 0.462476 0.801433 0.515084
O O3 0.517072 0.785358 0.382038
O O4 0.443783 0.690031 0.458673
O O5 0.250000 0.798040 0.600875
O O6 0.031500 0.873306 0.626787
O O7 0.994586 0.748572 0.632250
O O8 0.750000 0.607185 0.326230
O O9 0.952327 0.690469 0.303007
O O10 0.969642 0.578816 0.247815
O O11 0.011993 0.594209 0.381823
O O12 0.750000 0.776669 0.302959
O O13 0.007247 0.802787 0.249250
O O14 0.500000 0.500000 0.147163
O O15 0.750000 0.559867 0.168645
O O16 0.250000 0.802710 0.177680
O O17 0.461853 0.875404 0.138033
O O18 0.750000 0.400904 0.458555
O O19 0.009424 0.418246 0.515628
O O20 0.250000 0.440836 0.585211
O O21 0.000000 0.500000 0.612272
#
# Coordination Sequence:
#
# PCOD9363075 Si02
#       8
#     8   8   8   8   8   8   8   8
#     4   9  18  32  54  82 110 139 177 223 269 322
#     4  10  19  36  58  80 108 144 181 220 273 325
#     4   9  18  33  51  73 108 148 183 220 261 316
#     4  10  19  33  55  80 110 143 177 222 271 322
#     4  10  21  36  53  76 107 145 183 220 266 315
#     4  11  22  35  56  84 110 138 180 229 272 319
#     4  10  19  32  53  79 108 143 180 220 266 319
#     4  11  24  39  55  78 109 145 182 224 272 325
#
# _framework density 16.864636000000001
#
# number of rings (size 3 to 8) (size 9 to 14) (size 15 to 20)
#    0.000    2.000    2.500    1.500    0.000    4.500 
#    0.000    1.250    0.000    0.750    0.000    1.750 
#    0.000    0.000    0.000    0.000    0.000    0.000 
#
# Total GULP energy -178672.404367 kJ/mol
# GULP energy per Si atom -5583.512636 kJ/mol
# Density = 1.682625 g / cm^3
# Si number density = 16.864636 Si / 1000 Ang^3
#
#
#
# Elastic Constant Matrix: (Units=GPa)
#
#
# Indices 1 2 3 4 5 6 
#
# 1 51.0677 55.4336 52.4568 0.0000 0.0000 0.0000
# 2 55.4336 109.3245 68.3313 0.0000 0.0000 0.0000
# 3 52.4568 68.3313 113.6335 0.0000 0.0000 0.0000
# 4 0.0000 0.0000 0.0000 18.3722 0.0000 0.0000
# 5 0.0000 0.0000 0.0000 0.0000 29.0189 0.0000
# 6 0.0000 0.0000 0.0000 0.0000 0.0000 25.4148
#
#
#
# Elastic Compliance Matrix: (Units=1/GPa)
#
#
# Indices 1 2 3 4 5 6 
#
# 1 0.054089 -0.018937 -0.013582 0.000000 0.000000 0.000000
# 2 -0.018937 0.021285 -0.004058 0.000000 0.000000 0.000000
# 3 -0.013582 -0.004058 0.017510 0.000000 0.000000 0.000000
# 4 0.000000 0.000000 0.000000 0.054430 0.000000 0.000000
# 5 0.000000 0.000000 0.000000 0.000000 0.034460 0.000000
# 6 0.000000 0.000000 0.000000 0.000000 0.000000 0.039347
#
#
# Mechanical properties :
#
#
# Convention : Reuss Voigt Hill
#
# Bulk Modulus (GPa) = 50.68036 69.60767 60.14401
# Shear Modulus (GPa) = 16.61945 21.08144 18.85044
#
# Velocity S-wave (km/s) = 3.14261 3.53942 3.34690
# Velocity P-wave (km/s) = 6.57910 7.62019 7.11870
#
# Compressibility (1/GPa) = 0.01973151
#
# Stress axis : x y z
#
# Youngs Moduli (GPa) = 18.48796 46.98064 57.11042
#
# Poissons Ratio (x) = 0.88968 0.77566
# Poissons Ratio (y) = 0.35011 0.23173
# Poissons Ratio (z) = 0.25110 0.19063
#
# Static dielectric constant tensor:
#      x y z
#    x 1.559570 0.000000 0.000000 
#    y 0.000000 1.560810 0.000000 
#    z 0.000000 0.000000 1.558540 
# 
# From -- ./inp_files/19633.got.cif
#   From: 2010.05.17/outbox.cif.g08.bks.cpg/sg40_10_cif.got.tgz:19633.got - 2010.06.03 18:35:42.
