data_PCOD9363510
_publ_section_title
;
Structure prediction by ZEFSAII (Michael W. Deem and Ramdas Pophale) SiO2 
 PCOD9363510
Probable space group: A M A 2
;
_chemical_formula_sum "Si O2"
_cell_formula_units_Z 60
_cell_length_a 30.988284
_cell_length_b 11.061297
_cell_length_c 8.489635
_cell_angle_alpha 90.000000
_cell_angle_beta 90.000000
_cell_angle_gamma 90.000000
_cell_volume 2909.997392
_symmetry_space_group_name_H-M "A M A 2"
_symmetry_group_IT_number 40
_symmetry_cell_setting 'orthorhombic'
loop_
_space_group_symop_operation_xyz
x,y,z
-x,-y,z
1/2-x,y,z
1/2+x,-y,z
x,1/2+y,1/2+z
-x,1/2-y,1/2+z
1/2-x,1/2+y,1/2+z
1/2+x,1/2-y,1/2+z
loop_
_atom_site_type_symbol
_atom_site_label
_atom_site_fract_x
_atom_site_fract_y
_atom_site_fract_z
Si Si1 0.529570 0.712641 0.379710
Si Si2 0.166788 0.065370 0.142790
Si Si3 0.799234 0.933789 0.477850
Si Si4 0.078258 0.067155 0.331510
Si Si5 0.801226 0.670053 0.476257
Si Si6 0.000000 0.000000 0.102215
Si Si7 0.965878 0.110156 0.530088
Si Si8 0.800888 0.185724 0.598778
O O1 0.568337 0.805680 0.417803
O O2 0.523094 0.599339 0.493389
O O3 0.485991 0.790675 0.411655
O O4 0.537380 0.667971 0.202042
O O5 0.200256 0.065608 0.288570
O O6 0.120995 0.069515 0.229583
O O7 0.175394 0.190545 0.051529
O O8 0.173999 0.944113 0.045330
O O9 0.750000 0.935376 0.536529
O O10 0.817394 0.803414 0.529432
O O11 0.818898 0.060862 0.529156
O O12 0.075013 0.955500 0.452446
O O13 0.037642 0.052151 0.212923
O O14 0.750000 0.659800 0.515480
O O15 0.804251 0.671254 0.287192
O O16 0.000000 0.000000 0.544757
O O17 0.750000 0.197655 0.556651
#
# Coordination Sequence:
#
# PCOD9363510 Si02
#       8
#     8   8   8   8   8   4   8   8
#     4  11  20  38  65  82 108 146 196 244 299 347
#     4  11  22  36  58  86 123 158 187 241 300 350
#     4   9  19  37  59  84 116 156 201 242 284 343
#     4  11  24  39  56  85 123 148 194 246 296 356
#     4   9  18  35  60  85 115 156 199 239 287 346
#     4  12  22  38  62  86 108 156 200 250 296 356
#     4  10  19  37  61  85 106 143 190 243 291 350
#     4   9  19  37  60  86 117 154 200 244 286 343
#
# _framework density 20.618575
#
# number of rings (size 3 to 8) (size 9 to 14) (size 15 to 20)
#    0.000    1.867    4.000    2.000    0.000    4.267 
#    0.000    2.667    2.933    0.000    0.000    0.000 
#    0.000    0.000    0.000    0.000    0.000    0.000 
#
# Total GULP energy -167295.698573 kJ/mol
# GULP energy per Si atom -5576.523286 kJ/mol
# Density = 2.057165 g / cm^3
# Si number density = 20.618575 Si / 1000 Ang^3
#
#
#
# Elastic Constant Matrix: (Units=GPa)
#
#
# Indices 1 2 3 4 5 6 
#
# 1 46.9339 5.3607 2.3870 0.0000 0.0000 0.0000
# 2 5.3607 161.6314 38.5124 0.0000 0.0000 0.0000
# 3 2.3870 38.5124 54.6800 0.0000 0.0000 0.0000
# 4 0.0000 0.0000 0.0000 33.6528 0.0000 0.0000
# 5 0.0000 0.0000 0.0000 0.0000 9.2650 0.0000
# 6 0.0000 0.0000 0.0000 0.0000 0.0000 4.6603
#
#
#
# Elastic Compliance Matrix: (Units=1/GPa)
#
#
# Indices 1 2 3 4 5 6 
#
# 1 0.021400 -0.000585 -0.000522 0.000000 0.000000 0.000000
# 2 -0.000585 0.007451 -0.005222 0.000000 0.000000 0.000000
# 3 -0.000522 -0.005222 0.021989 0.000000 0.000000 0.000000
# 4 0.000000 0.000000 0.000000 0.029715 0.000000 0.000000
# 5 0.000000 0.000000 0.000000 0.000000 0.107933 0.000000
# 6 0.000000 0.000000 0.000000 0.000000 0.000000 0.214581
#
#
# Mechanical properties :
#
#
# Convention : Reuss Voigt Hill
#
# Bulk Modulus (GPa) = 26.19114 39.52952 32.86033
# Shear Modulus (GPa) = 11.66986 23.98127 17.82556
#
# Velocity S-wave (km/s) = 2.38163 3.41411 2.94349
# Velocity P-wave (km/s) = 4.50479 5.89533 5.24634
#
# Compressibility (1/GPa) = 0.03818084
#
# Stress axis : x y z
#
# Youngs Moduli (GPa) = 46.72909 134.21704 45.47716
#
# Poissons Ratio (x) = 0.07857 0.02373
# Poissons Ratio (y) = 0.02736 0.23749
# Poissons Ratio (z) = 0.02439 0.70089
#
# Static dielectric constant tensor:
#      x y z
#    x 1.755620 0.000000 0.000000 
#    y 0.000000 1.802900 0.000000 
#    z 0.000000 0.000000 1.725000 
# 
# From -- ./inp_files/9412.got.cif
#   From: 2010.05.17/outbox.cif.g08.bks.cpg/sg40_5_cif.got.tgz:9412.got - 2010.06.03 18:35:42.
