data_PCOD9363552
_publ_section_title
;
Structure prediction by ZEFSAII (Michael W. Deem and Ramdas Pophale) SiO2 
 PCOD9363552
Probable space group: A M A 2
;
_chemical_formula_sum "Si O2"
_cell_formula_units_Z 64
_cell_length_a 19.748122
_cell_length_b 9.207344
_cell_length_c 16.643862
_cell_angle_alpha 90.000000
_cell_angle_beta 90.000000
_cell_angle_gamma 90.000000
_cell_volume 3026.316022
_symmetry_space_group_name_H-M "A M A 2"
_symmetry_group_IT_number 40
_symmetry_cell_setting 'orthorhombic'
loop_
_space_group_symop_operation_xyz
x,y,z
-x,-y,z
1/2-x,y,z
1/2+x,-y,z
x,1/2+y,1/2+z
-x,1/2-y,1/2+z
1/2-x,1/2+y,1/2+z
1/2+x,1/2-y,1/2+z
loop_
_atom_site_type_symbol
_atom_site_label
_atom_site_fract_x
_atom_site_fract_y
_atom_site_fract_z
Si Si1 0.325130 0.001435 0.725830
Si Si2 0.825693 0.175483 0.486668
Si Si3 0.170831 0.505178 0.548312
Si Si4 0.070277 0.072765 0.446896
Si Si5 0.830933 0.684666 0.384906
Si Si6 0.069657 0.414258 0.691239
Si Si7 0.060336 0.106570 0.622645
Si Si8 0.677915 0.178280 0.300415
O O1 0.250000 0.953005 0.702503
O O2 0.345835 0.903314 0.802423
O O3 0.373758 0.015898 0.650075
O O4 0.321831 0.168379 0.755233
O O5 0.750000 0.118560 0.506047
O O6 0.838346 0.322436 0.535131
O O7 0.883408 0.056024 0.482510
O O8 0.824022 0.219968 0.392934
O O9 0.250000 0.478708 0.570606
O O10 0.160344 0.418998 0.463817
O O11 0.119505 0.456384 0.617641
O O12 0.054681 0.156899 0.530277
O O13 0.117728 0.179761 0.395041
O O14 0.000000 0.000000 0.415801
O O15 0.750000 0.725070 0.383734
O O16 0.115677 0.418163 0.771078
O O17 0.000000 0.500000 0.694048
O O18 0.052627 0.246580 0.677414
O O19 0.000000 0.000000 0.638335
O O20 0.750000 0.102648 0.284446
#
# Coordination Sequence:
#
# PCOD9363552 Si02
#       8
#     8   8   8   8   8   8   8   8
#     4   9  18  37  66  92 116 151 205 258 302 358
#     4  10  21  39  62  87 123 160 197 252 313 367
#     4  10  20  36  62  93 118 152 205 258 306 365
#     4  11  24  40  58  87 129 167 201 247 308 371
#     4  10  19  38  64  94 121 151 205 262 305 362
#     4  11  23  38  64  88 122 163 205 255 305 366
#     4  10  23  42  58  85 127 166 201 249 308 371
#     4   9  18  38  63  90 119 156 199 251 311 364
#
# _framework density 21.147824
#
# number of rings (size 3 to 8) (size 9 to 14) (size 15 to 20)
#    0.000    2.000    2.500    0.750    3.500    2.000 
#    6.750    0.625    0.000    0.000    0.000    0.000 
#    0.000    0.000    0.000    0.000    0.000    0.000 
#
# Total GULP energy -178466.978626 kJ/mol
# GULP energy per Si atom -5577.093082 kJ/mol
# Density = 2.109969 g / cm^3
# Si number density = 21.147824 Si / 1000 Ang^3
#
#
#
# Elastic Constant Matrix: (Units=GPa)
#
#
# Indices 1 2 3 4 5 6 
#
# 1 112.3466 58.0511 19.3818 0.0000 0.0000 0.0000
# 2 58.0511 72.9866 10.4611 0.0000 0.0000 0.0000
# 3 19.3818 10.4611 30.2399 0.0000 0.0000 0.0000
# 4 0.0000 0.0000 0.0000 14.9672 0.0000 0.0000
# 5 0.0000 0.0000 0.0000 0.0000 25.3229 0.0000
# 6 0.0000 0.0000 0.0000 0.0000 0.0000 32.9870
#
#
#
# Elastic Compliance Matrix: (Units=1/GPa)
#
#
# Indices 1 2 3 4 5 6 
#
# 1 0.016151 -0.011955 -0.006216 0.000000 0.000000 0.000000
# 2 -0.011955 0.023265 -0.000386 0.000000 0.000000 0.000000
# 3 -0.006216 -0.000386 0.037186 0.000000 0.000000 0.000000
# 4 0.000000 0.000000 0.000000 0.066813 0.000000 0.000000
# 5 0.000000 0.000000 0.000000 0.000000 0.039490 0.000000
# 6 0.000000 0.000000 0.000000 0.000000 0.000000 0.030315
#
#
# Mechanical properties :
#
#
# Convention : Reuss Voigt Hill
#
# Bulk Modulus (GPa) = 25.32372 43.48457 34.40415
# Shear Modulus (GPa) = 18.97568 23.16737 21.07153
#
# Velocity S-wave (km/s) = 2.99873 3.31342 3.15999
# Velocity P-wave (km/s) = 4.89800 5.93676 5.44222
#
# Compressibility (1/GPa) = 0.03948866
#
# Stress axis : x y z
#
# Youngs Moduli (GPa) = 61.91751 42.98341 26.89154
#
# Poissons Ratio (x) = 0.51385 0.16716
# Poissons Ratio (y) = 0.74020 0.01038
# Poissons Ratio (z) = 0.38487 0.01659
#
# Static dielectric constant tensor:
#      x y z
#    x 1.719360 0.000000 0.000000 
#    y 0.000000 1.763750 0.000000 
#    z 0.000000 0.000000 1.810120 
# 
# From -- ./inp_files/21371.got.cif
#   From: 2010.05.17/outbox.cif.g08.bks.cpg/sg40_11_cif.got.tgz:21371.got - 2010.06.03 18:35:42.
