data_PCOD9363261
_publ_section_title
;
Structure prediction by ZEFSAII (Michael W. Deem and Ramdas Pophale) SiO2 
 PCOD9363261
Probable space group: A M A 2
;
_chemical_formula_sum "Si O2"
_cell_formula_units_Z 40
_cell_length_a 8.408856
_cell_length_b 26.265997
_cell_length_c 9.958101
_cell_angle_alpha 90.000000
_cell_angle_beta 90.000000
_cell_angle_gamma 90.000000
_cell_volume 2199.415759
_symmetry_space_group_name_H-M "A M A 2"
_symmetry_group_IT_number 40
_symmetry_cell_setting 'orthorhombic'
loop_
_space_group_symop_operation_xyz
x,y,z
-x,-y,z
1/2-x,y,z
1/2+x,-y,z
x,1/2+y,1/2+z
-x,1/2-y,1/2+z
1/2-x,1/2+y,1/2+z
1/2+x,1/2-y,1/2+z
loop_
_atom_site_type_symbol
_atom_site_label
_atom_site_fract_x
_atom_site_fract_y
_atom_site_fract_z
Si Si1 0.943282 0.862567 0.506780
Si Si2 0.062982 0.858113 0.924596
Si Si3 0.438957 0.222526 0.718185
Si Si4 0.558917 0.442510 0.227821
Si Si5 0.561428 0.336110 0.713424
O O1 0.750000 0.862017 0.504700
O O2 0.990280 0.812504 0.591817
O O3 0.992080 0.911406 0.594070
O O4 0.997662 0.859968 0.353751
O O5 0.250000 0.850839 0.904655
O O6 0.974046 0.811855 0.848650
O O7 0.007995 0.909675 0.851599
O O8 0.021765 0.857221 0.080926
O O9 0.250000 0.231831 0.707638
O O10 0.528015 0.275804 0.721678
O O11 0.500000 0.500000 0.227564
O O12 0.750000 0.441253 0.234066
O O13 0.750000 0.344766 0.701729
#
# Coordination Sequence:
#
# PCOD9363261 Si02
#       5
#     8   8   8   8   8
#     4   8  18  34  53  76 106 139 175 217 268 321
#     4  11  22  36  53  79 111 147 186 223 263 318
#     4  10  19  34  54  79 110 147 185 224 267 320
#     4  10  20  39  62  82 102 133 176 226 278 331
#     4  11  20  33  53  80 113 148 180 222 271 318
#
# _framework density 18.186648999999999
#
# number of rings (size 3 to 8) (size 9 to 14) (size 15 to 20)
#    0.000    2.000    0.000    6.000    0.000    1.600 
#    0.000   12.000    0.000    2.400    0.000    0.000 
#    0.000    0.000    0.000    0.000    0.000    0.000 
#
# Total GULP energy -111697.011942 kJ/mol
# GULP energy per Si atom -5584.850597 kJ/mol
# Density = 1.814526 g / cm^3
# Si number density = 18.186649 Si / 1000 Ang^3
#
#
#
# Elastic Constant Matrix: (Units=GPa)
#
#
# Indices 1 2 3 4 5 6 
#
# 1 29.2604 -6.5326 -2.6328 0.0000 0.0000 0.0000
# 2 -6.5326 102.6346 50.2832 0.0000 0.0000 0.0000
# 3 -2.6328 50.2832 149.2515 0.0000 0.0000 0.0000
# 4 0.0000 0.0000 0.0000 2.0905 0.0000 0.0000
# 5 0.0000 0.0000 0.0000 0.0000 18.7576 0.0000
# 6 0.0000 0.0000 0.0000 0.0000 0.0000 23.4274
#
#
#
# Elastic Compliance Matrix: (Units=1/GPa)
#
#
# Indices 1 2 3 4 5 6 
#
# 1 0.034672 0.002284 -0.000158 0.000000 0.000000 0.000000
# 2 0.002284 0.011820 -0.003942 0.000000 0.000000 0.000000
# 3 -0.000158 -0.003942 0.008025 0.000000 0.000000 0.000000
# 4 0.000000 0.000000 0.000000 0.478363 0.000000 0.000000
# 5 0.000000 0.000000 0.000000 0.000000 0.053312 0.000000
# 6 0.000000 0.000000 0.000000 0.000000 0.000000 0.042685
#
#
# Mechanical properties :
#
#
# Convention : Reuss Voigt Hill
#
# Bulk Modulus (GPa) = 19.65190 40.37579 30.01385
# Shear Modulus (GPa) = 7.69859 24.85701 16.27780
#
# Velocity S-wave (km/s) = 2.05968 3.70100 2.99497
# Velocity P-wave (km/s) = 4.06024 6.36492 5.33843
#
# Compressibility (1/GPa) = 0.05088566
#
# Stress axis : x y z
#
# Youngs Moduli (GPa) = 28.84202 84.60306 124.60535
#
# Poissons Ratio (x) = -0.19325 0.01968
# Poissons Ratio (y) = -0.06588 0.49118
# Poissons Ratio (z) = 0.00456 0.33349
#
# Static dielectric constant tensor:
#      x y z
#    x 1.622320 0.000000 0.000000 
#    y 0.000000 1.588790 0.000000 
#    z 0.000000 0.000000 1.635270 
# 
# From -- ./inp_files/4220.got.cif
#   From: 2010.05.17/outbox.cif.g08.bks.cpg/sg40_3_cif.got.tgz:4220.got - 2010.06.03 18:35:42.
