data_PCOD9363539
_publ_section_title
;
Structure prediction by ZEFSAII (Michael W. Deem and Ramdas Pophale) SiO2 
 PCOD9363539
Probable space group: A M A 2
;
_chemical_formula_sum "Si O2"
_cell_formula_units_Z 48
_cell_length_a 23.173572
_cell_length_b 7.308541
_cell_length_c 11.972111
_cell_angle_alpha 90.000000
_cell_angle_beta 90.000000
_cell_angle_gamma 90.000000
_cell_volume 2027.656592
_symmetry_space_group_name_H-M "A M A 2"
_symmetry_group_IT_number 40
_symmetry_cell_setting 'orthorhombic'
loop_
_space_group_symop_operation_xyz
x,y,z
-x,-y,z
1/2-x,y,z
1/2+x,-y,z
x,1/2+y,1/2+z
-x,1/2-y,1/2+z
1/2-x,1/2+y,1/2+z
1/2+x,1/2-y,1/2+z
loop_
_atom_site_type_symbol
_atom_site_label
_atom_site_fract_x
_atom_site_fract_y
_atom_site_fract_z
Si Si1 0.123313 0.580982 0.264610
Si Si2 0.750000 0.467606 0.742458
Si Si3 0.625470 0.479319 0.754112
Si Si4 0.750000 0.057401 0.006496
Si Si5 0.250000 0.589763 0.255971
Si Si6 0.500000 0.000000 0.781577
Si Si7 0.965291 0.826941 0.428883
Si Si8 0.875656 0.072897 0.015740
O O1 0.123501 0.800462 0.258998
O O2 0.186415 0.522036 0.216027
O O3 0.122217 0.522273 0.395306
O O4 0.062302 0.500366 0.220661
O O5 0.688911 0.410409 0.791307
O O6 0.750000 0.417815 0.611218
O O7 0.750000 0.689896 0.745008
O O8 0.578049 0.399807 0.834042
O O9 0.617304 0.441497 0.622313
O O10 0.811124 0.157281 0.021603
O O11 0.750000 0.960396 0.887521
O O12 0.497339 0.176469 0.863124
O O13 0.926319 0.720510 0.517485
O O14 0.000000 0.000000 0.471786
#
# Coordination Sequence:
#
# PCOD9363539 Si02
#       8
#     8   4   8   4   4   4   8   8
#     4   9  17  34  56  80 117 146 192 242 287 350
#     4   8  16  29  57  87 113 144 193 242 291 363
#     4  10  19  38  60  87 118 155 194 245 305 353
#     4   8  14  31  55  83 115 144 189 242 295 357
#     4   8  14  26  52  80 104 152 180 230 304 332
#     4  10  20  38  58  82 122 152 192 256 284 344
#     4  11  22  40  59  84 123 155 203 252 286 358
#     4   9  20  36  59  87 116 154 194 245 302 356
#
# _framework density 23.672647999999999
#
# number of rings (size 3 to 8) (size 9 to 14) (size 15 to 20)
#    0.000    2.667    1.667    0.000    0.000    0.667 
#    7.500    4.167    0.000    0.000    0.000   37.333 
#    0.000    0.000    0.000    0.000    0.000    0.000 
#
# Total GULP energy -133847.467782 kJ/mol
# GULP energy per Si atom -5576.977824 kJ/mol
# Density = 2.361877 g / cm^3
# Si number density = 23.672648 Si / 1000 Ang^3
#
#
#
# Elastic Constant Matrix: (Units=GPa)
#
#
# Indices 1 2 3 4 5 6 
#
# 1 197.9950 12.8845 16.7301 0.0000 0.0000 0.0000
# 2 12.8845 61.3904 -1.5557 0.0000 0.0000 0.0000
# 3 16.7301 -1.5557 66.2985 0.0000 0.0000 0.0000
# 4 0.0000 0.0000 0.0000 25.5175 0.0000 0.0000
# 5 0.0000 0.0000 0.0000 0.0000 20.1415 0.0000
# 6 0.0000 0.0000 0.0000 0.0000 0.0000 -31.7456
#
#
#
# Elastic Compliance Matrix: (Units=1/GPa)
#
#
# Indices 1 2 3 4 5 6 
#
# 1 0.005238 -0.001134 -0.001348 0.000000 0.000000 0.000000
# 2 -0.001134 0.016544 0.000674 0.000000 0.000000 0.000000
# 3 -0.001348 0.000674 0.015439 0.000000 0.000000 0.000000
# 4 0.000000 0.000000 0.000000 0.039189 0.000000 0.000000
# 5 0.000000 0.000000 0.000000 0.000000 0.049649 0.000000
# 6 0.000000 0.000000 0.000000 0.000000 0.000000 -0.031500
#
#
# Mechanical properties :
#
#
# Convention : Reuss Voigt Hill
#
# Bulk Modulus (GPa) = 29.75626 42.42241 36.08934
# Shear Modulus (GPa) = 45.71354 22.62434 34.16894
#
# Velocity S-wave (km/s) = 4.39916 3.09482 3.80332
# Velocity P-wave (km/s) = 6.19683 5.54345 5.87922
#
# Compressibility (1/GPa) = 0.03360637
#
# Stress axis : x y z
#
# Youngs Moduli (GPa) = 190.90005 60.44416 64.76931
#
# Poissons Ratio (x) = 0.06852 0.08734
# Poissons Ratio (y) = 0.21640 -0.04367
# Poissons Ratio (z) = 0.25742 -0.04076
#
# Static dielectric constant tensor:
#      x y z
#    x 1.981640 0.000000 0.000000 
#    y 0.000000 1.899470 0.000000 
#    z 0.000000 0.000000 1.881910 
# 
# From -- ./inp_files/13962.got.cif
#   From: 2010.05.17/outbox.cif.g08.bks.cpg/sg40_7_cif.got.tgz:13962.got - 2010.06.03 18:35:42.
