data_PCOD9363161
_publ_section_title
;
Structure prediction by ZEFSAII (Michael W. Deem and Ramdas Pophale) SiO2 
 PCOD9363161
Probable space group: A M A 2
;
_chemical_formula_sum "Si O2"
_cell_formula_units_Z 40
_cell_length_a 28.684087
_cell_length_b 6.510294
_cell_length_c 8.015465
_cell_angle_alpha 90.000000
_cell_angle_beta 90.000000
_cell_angle_gamma 90.000000
_cell_volume 1496.822678
_symmetry_space_group_name_H-M "A M A 2"
_symmetry_group_IT_number 40
_symmetry_cell_setting 'orthorhombic'
loop_
_space_group_symop_operation_xyz
x,y,z
-x,-y,z
1/2-x,y,z
1/2+x,-y,z
x,1/2+y,1/2+z
-x,1/2-y,1/2+z
1/2-x,1/2+y,1/2+z
1/2+x,1/2-y,1/2+z
loop_
_atom_site_type_symbol
_atom_site_label
_atom_site_fract_x
_atom_site_fract_y
_atom_site_fract_z
Si Si1 0.072359 0.706083 0.242890
Si Si2 0.394692 0.686764 0.776522
Si Si3 0.658843 0.355561 0.090037
Si Si4 0.983172 0.778149 0.086782
Si Si5 0.198254 0.535122 0.751950
O O1 0.121173 0.576790 0.229669
O O2 0.041323 0.685275 0.410218
O O3 0.032823 0.665799 0.099240
O O4 0.092400 0.940446 0.265786
O O5 0.441311 0.786986 0.707554
O O6 0.343842 0.679961 0.685744
O O7 0.380446 0.740417 0.964663
O O8 0.692059 0.185915 0.168622
O O9 0.687683 0.479351 0.950998
O O10 0.000000 0.000000 0.150375
O O11 0.250000 0.616729 0.724533
#
# Coordination Sequence:
#
# PCOD9363161 Si02
#       5
#     8   8   8   8   8
#     4  10  19  33  53  81 117 158 195 251 305 378
#     4   8  19  34  51  80 112 145 200 253 303 381
#     4   9  18  33  54  85 113 153 206 259 318 389
#     4  10  20  34  54  84 118 156 199 240 304 377
#     4   9  17  32  59  84 110 156 209 263 328 392
#
# _framework density 26.723272000000001
#
# number of rings (size 3 to 8) (size 9 to 14) (size 15 to 20)
#    1.200    1.600    0.000    1.800    0.000    1.600 
#    0.000    0.000    0.000    6.000    0.000    0.000 
#    0.000    0.000    0.000    0.000    0.000    0.000 
#
# Total GULP energy -111445.978885 kJ/mol
# GULP energy per Si atom -5572.298944 kJ/mol
# Density = 2.666245 g / cm^3
# Si number density = 26.723272 Si / 1000 Ang^3
#
#
#
# Elastic Constant Matrix: (Units=GPa)
#
#
# Indices 1 2 3 4 5 6 
#
# 1 227.1541 39.1148 29.3607 0.0000 0.0000 0.0000
# 2 39.1148 51.1214 15.0161 0.0000 0.0000 0.0000
# 3 29.3607 15.0161 94.5200 0.0000 0.0000 0.0000
# 4 0.0000 0.0000 0.0000 46.1086 0.0000 0.0000
# 5 0.0000 0.0000 0.0000 0.0000 31.6089 0.0000
# 6 0.0000 0.0000 0.0000 0.0000 0.0000 38.2711
#
#
#
# Elastic Compliance Matrix: (Units=1/GPa)
#
#
# Indices 1 2 3 4 5 6 
#
# 1 0.005163 -0.003650 -0.001024 0.000000 0.000000 0.000000
# 2 -0.003650 0.023099 -0.002536 0.000000 0.000000 0.000000
# 3 -0.001024 -0.002536 0.011301 0.000000 0.000000 0.000000
# 4 0.000000 0.000000 0.000000 0.021688 0.000000 0.000000
# 5 0.000000 0.000000 0.000000 0.000000 0.031637 0.000000
# 6 0.000000 0.000000 0.000000 0.000000 0.000000 0.026129
#
#
# Mechanical properties :
#
#
# Convention : Reuss Voigt Hill
#
# Bulk Modulus (GPa) = 39.77202 59.97542 49.87372
# Shear Modulus (GPa) = 35.25675 42.48464 38.87070
#
# Velocity S-wave (km/s) = 3.63620 3.99155 3.81801
# Velocity P-wave (km/s) = 5.70477 6.61326 6.17575
#
# Compressibility (1/GPa) = 0.02514330
#
# Stress axis : x y z
#
# Youngs Moduli (GPa) = 193.68151 43.29254 88.48987
#
# Poissons Ratio (x) = 0.15800 0.09061
# Poissons Ratio (y) = 0.70688 0.22440
# Poissons Ratio (z) = 0.19833 0.10979
#
# Static dielectric constant tensor:
#      x y z
#    x 2.100000 0.000000 0.000000 
#    y 0.000000 2.485650 0.000000 
#    z 0.000000 0.000000 2.154880 
# 
# From -- ./inp_files/9274.got.cif
#   From: 2010.05.17/outbox.cif.g08.bks.cpg/sg40_5_cif.got.tgz:9274.got - 2010.06.03 18:35:42.
