data_PCOD9363201
_publ_section_title
;
Structure prediction by ZEFSAII (Michael W. Deem and Ramdas Pophale) SiO2 
 PCOD9363201
Probable space group: A M A 2
;
_chemical_formula_sum "Si O2"
_cell_formula_units_Z 56
_cell_length_a 17.839928
_cell_length_b 17.728099
_cell_length_c 9.091857
_cell_angle_alpha 90.000000
_cell_angle_beta 90.000000
_cell_angle_gamma 90.000000
_cell_volume 2875.463518
_symmetry_space_group_name_H-M "A M A 2"
_symmetry_group_IT_number 40
_symmetry_cell_setting 'orthorhombic'
loop_
_space_group_symop_operation_xyz
x,y,z
-x,-y,z
1/2-x,y,z
1/2+x,-y,z
x,1/2+y,1/2+z
-x,1/2-y,1/2+z
1/2-x,1/2+y,1/2+z
1/2+x,1/2-y,1/2+z
loop_
_atom_site_type_symbol
_atom_site_label
_atom_site_fract_x
_atom_site_fract_y
_atom_site_fract_z
Si Si1 0.505481 0.143223 0.636260
Si Si2 0.667234 0.763754 0.912000
Si Si3 0.492445 0.285272 0.829085
Si Si4 0.666467 0.080030 0.960786
Si Si5 0.486443 0.919951 0.122090
Si Si6 0.332876 0.850303 0.659283
Si Si7 0.601364 0.925202 0.852532
O O1 0.517196 0.205001 0.766193
O O2 0.482478 0.190222 0.491725
O O3 0.589004 0.110577 0.609427
O O4 0.442116 0.087865 0.698648
O O5 0.750000 0.745726 0.854698
O O6 0.598060 0.722296 0.834766
O O7 0.651333 0.852126 0.890678
O O8 0.664111 0.731300 0.079088
O O9 0.513712 0.350584 0.717526
O O10 0.750000 0.074851 0.024099
O O11 0.666301 0.144142 0.835368
O O12 0.646604 0.002231 0.873695
O O13 0.599820 0.089843 0.076011
O O14 0.500000 0.000000 0.200754
O O15 0.535693 0.925034 0.974580
O O16 0.250000 0.881880 0.616124
#
# Coordination Sequence:
#
# PCOD9363201 Si02
#       7
#     8   8   8   8   8   8   8
#     4  10  19  33  55  77 105 140 176 225 266 318
#     4   9  18  32  52  77 106 140 177 218 266 321
#     4  10  20  34  53  79 106 137 180 225 269 317
#     4  10  20  33  55  80 108 141 179 225 272 326
#     4  10  20  35  51  77 107 139 178 221 269 325
#     4   9  17  30  49  78 103 132 171 212 266 318
#     4  10  19  35  55  78 106 141 183 222 268 328
#
# _framework density 19.475121999999999
#
# number of rings (size 3 to 8) (size 9 to 14) (size 15 to 20)
#    0.000    2.286    1.429    3.000    0.000    0.571 
#    5.143    0.000    0.000    0.857    0.000    0.000 
#    0.000    0.000    0.000    0.000    0.000    0.000 
#
# Total GULP energy -155902.155055 kJ/mol
# GULP energy per Si atom -5567.934109 kJ/mol
# Density = 1.943080 g / cm^3
# Si number density = 19.475122 Si / 1000 Ang^3
#
#
#
# Elastic Constant Matrix: (Units=GPa)
#
#
# Indices 1 2 3 4 5 6 
#
# 1 101.7089 -1.9486 11.7971 0.0000 0.0000 0.0000
# 2 -1.9486 39.9247 7.7405 0.0000 0.0000 0.0000
# 3 11.7971 7.7405 41.8663 0.0000 0.0000 0.0000
# 4 0.0000 0.0000 0.0000 20.5965 0.0000 0.0000
# 5 0.0000 0.0000 0.0000 0.0000 13.1113 0.0000
# 6 0.0000 0.0000 0.0000 0.0000 0.0000 24.2694
#
#
#
# Elastic Compliance Matrix: (Units=1/GPa)
#
#
# Indices 1 2 3 4 5 6 
#
# 1 0.010210 0.001095 -0.003080 0.000000 0.000000 0.000000
# 2 0.001095 0.026096 -0.005133 0.000000 0.000000 0.000000
# 3 -0.003080 -0.005133 0.025702 0.000000 0.000000 0.000000
# 4 0.000000 0.000000 0.000000 0.048552 0.000000 0.000000
# 5 0.000000 0.000000 0.000000 0.000000 0.076270 0.000000
# 6 0.000000 0.000000 0.000000 0.000000 0.000000 0.041204
#
#
# Mechanical properties :
#
#
# Convention : Reuss Voigt Hill
#
# Bulk Modulus (GPa) = 20.93222 24.29755 22.61488
# Shear Modulus (GPa) = 19.36527 22.65616 21.01072
#
# Velocity S-wave (km/s) = 3.15677 3.41448 3.28815
# Velocity P-wave (km/s) = 4.90494 5.29605 5.10424
#
# Compressibility (1/GPa) = 0.04777325
#
# Stress axis : x y z
#
# Youngs Moduli (GPa) = 97.94161 38.32023 38.90679
#
# Poissons Ratio (x) = -0.04198 0.11982
# Poissons Ratio (y) = -0.10728 0.19973
# Poissons Ratio (z) = 0.30162 0.19672
#
# Static dielectric constant tensor:
#      x y z
#    x 1.732050 0.000000 0.000000 
#    y 0.000000 1.721070 0.000000 
#    z 0.000000 0.000000 1.686910 
# 
# From -- ./inp_files/7749.got.cif
#   From: 2010.05.17/outbox.cif.g08.bks.cpg/sg40_4_cif.got.tgz:7749.got - 2010.06.03 18:35:42.
