data_PCOD9363414
_publ_section_title
;
Structure prediction by ZEFSAII (Michael W. Deem and Ramdas Pophale) SiO2 
 PCOD9363414
Probable space group: A M A 2
;
_chemical_formula_sum "Si O2"
_cell_formula_units_Z 56
_cell_length_a 14.703552
_cell_length_b 19.157008
_cell_length_c 10.173148
_cell_angle_alpha 90.000000
_cell_angle_beta 90.000000
_cell_angle_gamma 90.000000
_cell_volume 2865.532280
_symmetry_space_group_name_H-M "A M A 2"
_symmetry_group_IT_number 40
_symmetry_cell_setting 'orthorhombic'
loop_
_space_group_symop_operation_xyz
x,y,z
-x,-y,z
1/2-x,y,z
1/2+x,-y,z
x,1/2+y,1/2+z
-x,1/2-y,1/2+z
1/2-x,1/2+y,1/2+z
1/2+x,1/2-y,1/2+z
loop_
_atom_site_type_symbol
_atom_site_label
_atom_site_fract_x
_atom_site_fract_y
_atom_site_fract_z
Si Si1 0.503912 0.892751 0.730420
Si Si2 0.025594 0.257992 0.062040
Si Si3 0.855605 0.005144 0.664442
Si Si4 0.905223 0.458895 0.683183
Si Si5 0.845897 0.074934 0.379465
Si Si6 0.353949 0.643473 0.456048
Si Si7 0.490092 0.670845 0.811330
O O1 0.467184 0.829503 0.643114
O O2 0.417471 0.943500 0.755043
O O3 0.563073 0.867607 0.854232
O O4 0.581991 0.936529 0.654383
O O5 0.985043 0.206534 0.172849
O O6 0.118128 0.217129 0.023577
O O7 0.969075 0.275146 0.929091
O O8 0.750000 0.995271 0.706174
O O9 0.854264 0.038033 0.519817
O O10 0.852388 0.516559 0.766384
O O11 0.862249 0.422228 0.556002
O O12 0.000000 0.500000 0.651324
O O13 0.921344 0.391837 0.778298
O O14 0.750000 0.111816 0.371873
O O15 0.923124 0.130668 0.363611
O O16 0.250000 0.646221 0.405982
#
# Coordination Sequence:
#
# PCOD9363414 Si02
#       7
#     8   8   8   8   8   8   8
#     4  11  22  39  63  86 130 164 208 262 321 373
#     4  11  21  39  60  86 119 165 210 255 312 372
#     4  10  22  37  63  95 122 162 210 260 322 382
#     4   9  20  36  62  89 118 159 206 258 324 369
#     4  10  19  35  60  89 118 151 200 262 313 375
#     4  11  24  40  62  92 124 171 219 259 318 393
#     4  10  20  36  58  85 118 161 207 248 307 375
#
# _framework density 19.542618000000001
#
# number of rings (size 3 to 8) (size 9 to 14) (size 15 to 20)
#    0.000    1.714    2.857    1.714    6.000    1.143 
#    0.000    0.000    0.000    6.857    0.000    0.000 
#    0.000    0.000    0.000    0.000    0.000    0.000 
#
# Total GULP energy -155871.193137 kJ/mol
# GULP energy per Si atom -5566.828326 kJ/mol
# Density = 1.949814 g / cm^3
# Si number density = 19.542618 Si / 1000 Ang^3
#
#
#
# Elastic Constant Matrix: (Units=GPa)
#
#
# Indices 1 2 3 4 5 6 
#
# 1 80.1184 23.5245 17.7203 0.0000 0.0000 0.0000
# 2 23.5245 71.5755 20.6046 0.0000 0.0000 0.0000
# 3 17.7203 20.6046 77.0158 0.0000 0.0000 0.0000
# 4 0.0000 0.0000 0.0000 35.0957 0.0000 0.0000
# 5 0.0000 0.0000 0.0000 0.0000 22.3930 0.0000
# 6 0.0000 0.0000 0.0000 0.0000 0.0000 3.8328
#
#
#
# Elastic Compliance Matrix: (Units=1/GPa)
#
#
# Indices 1 2 3 4 5 6 
#
# 1 0.014144 -0.004022 -0.002178 0.000000 0.000000 0.000000
# 2 -0.004022 0.016281 -0.003430 0.000000 0.000000 0.000000
# 3 -0.002178 -0.003430 0.014403 0.000000 0.000000 0.000000
# 4 0.000000 0.000000 0.000000 0.028494 0.000000 0.000000
# 5 0.000000 0.000000 0.000000 0.000000 0.044657 0.000000
# 6 0.000000 0.000000 0.000000 0.000000 0.000000 0.260905
#
#
# Mechanical properties :
#
#
# Convention : Reuss Voigt Hill
#
# Bulk Modulus (GPa) = 39.11256 39.15652 39.13454
# Shear Modulus (GPa) = 12.29508 23.38833 17.84170
#
# Velocity S-wave (km/s) = 2.51099 3.46321 3.02481
# Velocity P-wave (km/s) = 5.33519 6.00598 5.68049
#
# Compressibility (1/GPa) = 0.02556723
#
# Stress axis : x y z
#
# Youngs Moduli (GPa) = 70.70049 61.42309 69.42844
#
# Poissons Ratio (x) = 0.24702 0.15125
# Poissons Ratio (y) = 0.28433 0.23816
# Poissons Ratio (z) = 0.15402 0.21070
#
# Static dielectric constant tensor:
#      x y z
#    x 1.667480 0.000000 0.000000 
#    y 0.000000 1.727030 0.000000 
#    z 0.000000 0.000000 1.744960 
# 
# From -- ./inp_files/6711.got.cif
#   From: 2010.05.17/outbox.cif.g08.bks.cpg/sg40_4_cif.got.tgz:6711.got - 2010.06.03 18:35:42.
