data_PCOD9363182
_publ_section_title
;
Structure prediction by ZEFSAII (Michael W. Deem and Ramdas Pophale) SiO2 
 PCOD9363182
Probable space group: A M A 2
;
_chemical_formula_sum "Si O2"
_cell_formula_units_Z 64
_cell_length_a 8.754150
_cell_length_b 21.174296
_cell_length_c 19.889382
_cell_angle_alpha 90.000000
_cell_angle_beta 90.000000
_cell_angle_gamma 90.000000
_cell_volume 3686.754786
_symmetry_space_group_name_H-M "A M A 2"
_symmetry_group_IT_number 40
_symmetry_cell_setting 'orthorhombic'
loop_
_space_group_symop_operation_xyz
x,y,z
-x,-y,z
1/2-x,y,z
1/2+x,-y,z
x,1/2+y,1/2+z
-x,1/2-y,1/2+z
1/2-x,1/2+y,1/2+z
1/2+x,1/2-y,1/2+z
loop_
_atom_site_type_symbol
_atom_site_label
_atom_site_fract_x
_atom_site_fract_y
_atom_site_fract_z
Si Si1 0.932388 0.565592 0.553410
Si Si2 0.432410 0.811996 0.554839
Si Si3 0.432882 0.117950 0.187404
Si Si4 0.567141 0.259203 0.187173
Si Si5 0.932626 0.692510 0.474558
Si Si6 0.432853 0.066997 0.479504
Si Si7 0.066689 0.623282 0.838142
Si Si8 0.068635 0.736649 0.340796
O O1 0.750000 0.562157 0.554267
O O2 0.977464 0.626776 0.509619
O O3 0.000000 0.500000 0.527434
O O4 0.992617 0.577330 0.628822
O O5 0.250000 0.813293 0.554681
O O6 0.496545 0.802753 0.629887
O O7 0.490019 0.751190 0.512841
O O8 0.498465 0.874814 0.520905
O O9 0.250000 0.117249 0.180100
O O10 0.494032 0.189590 0.179853
O O11 0.472553 0.098143 0.263840
O O12 0.750000 0.253849 0.178358
O O13 0.536413 0.281352 0.263422
O O14 0.750000 0.699622 0.480202
O O15 0.983035 0.696677 0.397218
O O16 0.250000 0.067262 0.485819
O O17 0.472178 0.079496 0.400972
O O18 0.500000 0.000000 0.500901
O O19 0.250000 0.634240 0.839123
O O20 0.985518 0.690699 0.847680
O O21 0.250000 0.733290 0.351912
#
# Coordination Sequence:
#
# PCOD9363182 Si02
#       8
#     8   8   8   8   8   8   8   8
#     4  11  24  39  56  79 112 152 191 235 286 337
#     4  12  23  36  59  87 112 148 193 237 283 337
#     4  10  19  33  54  81 112 150 192 231 273 331
#     4  10  20  35  55  84 117 148 183 232 287 334
#     4  11  22  37  58  83 114 149 186 235 288 335
#     4  11  23  39  57  80 115 154 191 238 285 339
#     4   9  19  34  53  78 112 152 189 228 277 329
#     4  10  20  33  56  86 114 145 186 232 279 336
#
# _framework density 17.359441
#
# number of rings (size 3 to 8) (size 9 to 14) (size 15 to 20)
#    0.000    1.500    2.500    3.375    0.000    4.500 
#    0.000    1.250    0.000    0.750    0.000    1.750 
#    0.000    0.000    0.000    0.000    0.000    0.000 
#
# Total GULP energy -178773.942145 kJ/mol
# GULP energy per Si atom -5586.685692 kJ/mol
# Density = 1.731993 g / cm^3
# Si number density = 17.359441 Si / 1000 Ang^3
#
#
#
# Elastic Constant Matrix: (Units=GPa)
#
#
# Indices 1 2 3 4 5 6 
#
# 1 59.3511 44.5395 41.0982 0.0000 0.0000 0.0000
# 2 44.5395 118.8253 60.6590 0.0000 0.0000 0.0000
# 3 41.0982 60.6590 97.6820 0.0000 0.0000 0.0000
# 4 0.0000 0.0000 0.0000 20.7998 0.0000 0.0000
# 5 0.0000 0.0000 0.0000 0.0000 33.6727 0.0000
# 6 0.0000 0.0000 0.0000 0.0000 0.0000 27.8902
#
#
#
# Elastic Compliance Matrix: (Units=1/GPa)
#
#
# Indices 1 2 3 4 5 6 
#
# 1 0.026594 -0.006232 -0.007319 0.000000 0.000000 0.000000
# 2 -0.006232 0.013782 -0.005937 0.000000 0.000000 0.000000
# 3 -0.007319 -0.005937 0.017003 0.000000 0.000000 0.000000
# 4 0.000000 0.000000 0.000000 0.048077 0.000000 0.000000
# 5 0.000000 0.000000 0.000000 0.000000 0.029698 0.000000
# 6 0.000000 0.000000 0.000000 0.000000 0.000000 0.035855
#
#
# Mechanical properties :
#
#
# Convention : Reuss Voigt Hill
#
# Bulk Modulus (GPa) = 54.33556 63.16133 58.74845
# Shear Modulus (GPa) = 23.13549 25.11001 24.12275
#
# Velocity S-wave (km/s) = 3.65462 3.80738 3.73178
# Velocity P-wave (km/s) = 7.01260 7.46938 7.24459
#
# Compressibility (1/GPa) = 0.01840415
#
# Stress axis : x y z
#
# Youngs Moduli (GPa) = 37.60302 72.55758 58.81273
#
# Poissons Ratio (x) = 0.45217 0.43045
# Poissons Ratio (y) = 0.23434 0.34914
# Poissons Ratio (z) = 0.27521 0.43074
#
# Static dielectric constant tensor:
#      x y z
#    x 1.577650 0.000000 0.000000 
#    y 0.000000 1.563760 0.000000 
#    z 0.000000 0.000000 1.609450 
# 
# From -- ./inp_files/22365.got.cif
#   From: 2010.05.17/outbox.cif.g08.bks.cpg/sg40_12_cif.got.tgz:22365.got - 2010.06.03 18:35:42.
