data_PCOD9363795
_publ_section_title
;
Structure prediction by ZEFSAII (Michael W. Deem and Ramdas Pophale) SiO2 
 PCOD9363795
Probable space group: A M A 2
;
_chemical_formula_sum "Si O2"
_cell_formula_units_Z 40
_cell_length_a 10.710112
_cell_length_b 16.461497
_cell_length_c 9.846661
_cell_angle_alpha 90.000000
_cell_angle_beta 90.000000
_cell_angle_gamma 90.000000
_cell_volume 1736.010413
_symmetry_space_group_name_H-M "A M A 2"
_symmetry_group_IT_number 40
_symmetry_cell_setting 'orthorhombic'
loop_
_space_group_symop_operation_xyz
x,y,z
-x,-y,z
1/2-x,y,z
1/2+x,-y,z
x,1/2+y,1/2+z
-x,1/2-y,1/2+z
1/2-x,1/2+y,1/2+z
1/2+x,1/2-y,1/2+z
loop_
_atom_site_type_symbol
_atom_site_label
_atom_site_fract_x
_atom_site_fract_y
_atom_site_fract_z
Si Si1 0.750000 0.801183 0.428071
Si Si2 0.514126 0.690824 0.810244
Si Si3 0.250000 0.766703 0.457413
Si Si4 0.750000 0.369903 0.228245
Si Si5 0.250000 0.835802 0.721169
Si Si6 0.598727 0.568069 0.587383
Si Si7 0.510476 0.114477 0.787130
O O1 0.620272 0.836020 0.367722
O O2 0.750000 0.815914 0.590330
O O3 0.750000 0.707244 0.371411
O O4 0.625748 0.685173 0.917850
O O5 0.564542 0.646146 0.677655
O O6 0.504574 0.787235 0.783917
O O7 0.250000 0.685070 0.367123
O O8 0.250000 0.759287 0.618811
O O9 0.621148 0.418561 0.238166
O O10 0.367753 0.892417 0.697814
O O11 0.500000 0.500000 0.639323
O O12 0.750000 0.550810 0.591663
O O13 0.550624 0.585571 0.435372
#
# Coordination Sequence:
#
# PCOD9363795 Si02
#       7
#     4   8   4   4   4   8   8
#     4  10  22  34  60 101 147 177 229 295 367 427
#     4  10  23  37  69  99 143 181 248 298 365 413
#     4  10  20  34  60  99 141 183 233 299 367 419
#     4  10  22  34  60 101 147 177 229 295 367 427
#     4  10  20  34  60  99 141 183 233 299 367 419
#     4  12  28  50  72 108 153 200 247 304 369 452
#     4  10  23  37  69  99 143 181 248 298 365 413
#
# _framework density 23.041333999999999
#
# number of rings (size 3 to 8) (size 9 to 14) (size 15 to 20)
#    0.000    1.600    2.000    1.200   25.200    0.000 
#    0.000    0.000    0.000    7.200    0.000    0.000 
#    0.000    0.000    0.000    0.000    0.000    0.000 
#
# Total GULP energy -111499.085711 kJ/mol
# GULP energy per Si atom -5574.954286 kJ/mol
# Density = 2.298889 g / cm^3
# Si number density = 23.041334 Si / 1000 Ang^3
#
#
#
# Elastic Constant Matrix: (Units=GPa)
#
#
# Indices 1 2 3 4 5 6 
#
# 1 269.0126 26.4030 24.0475 0.0000 0.0000 0.0000
# 2 26.4030 72.9414 27.5495 0.0000 0.0000 0.0000
# 3 24.0475 27.5495 68.4733 0.0000 0.0000 0.0000
# 4 0.0000 0.0000 0.0000 15.2470 0.0000 0.0000
# 5 0.0000 0.0000 0.0000 0.0000 49.1806 0.0000
# 6 0.0000 0.0000 0.0000 0.0000 0.0000 10.7464
#
#
#
# Elastic Compliance Matrix: (Units=1/GPa)
#
#
# Indices 1 2 3 4 5 6 
#
# 1 0.003906 -0.001056 -0.000947 0.000000 0.000000 0.000000
# 2 -0.001056 0.016452 -0.006248 0.000000 0.000000 0.000000
# 3 -0.000947 -0.006248 0.017451 0.000000 0.000000 0.000000
# 4 0.000000 0.000000 0.000000 0.065587 0.000000 0.000000
# 5 0.000000 0.000000 0.000000 0.000000 0.020333 0.000000
# 6 0.000000 0.000000 0.000000 0.000000 0.000000 0.093055
#
#
# Mechanical properties :
#
#
# Convention : Reuss Voigt Hill
#
# Bulk Modulus (GPa) = 46.93563 62.93637 54.93600
# Shear Modulus (GPa) = 20.79980 37.19662 28.99821
#
# Velocity S-wave (km/s) = 3.00778 4.02225 3.55143
# Velocity P-wave (km/s) = 5.69884 6.99608 6.38051
#
# Compressibility (1/GPa) = 0.02130578
#
# Stress axis : x y z
#
# Youngs Moduli (GPa) = 256.04363 60.78335 57.30454
#
# Poissons Ratio (x) = 0.06420 0.05425
# Poissons Ratio (y) = 0.27043 0.35806
# Poissons Ratio (z) = 0.24239 0.37979
#
# Static dielectric constant tensor:
#      x y z
#    x 0.986410 0.000000 0.000000 
#    y 0.000000 1.946850 0.000000 
#    z 0.000000 0.000000 1.878230 
# 
# From -- ./inp_files/5175.got.cif
#   From: 2010.05.17/outbox.cif.g08.bks.cpg/sg40_3_cif.got.tgz:5175.got - 2010.06.03 18:35:42.
