data_PCOD9363651
_publ_section_title
;
Structure prediction by ZEFSAII (Michael W. Deem and Ramdas Pophale) SiO2 
 PCOD9363651
Probable space group: A M A 2
;
_chemical_formula_sum "Si O2"
_cell_formula_units_Z 64
_cell_length_a 8.711049
_cell_length_b 30.825128
_cell_length_c 14.662808
_cell_angle_alpha 90.000000
_cell_angle_beta 90.000000
_cell_angle_gamma 90.000000
_cell_volume 3937.245480
_symmetry_space_group_name_H-M "A M A 2"
_symmetry_group_IT_number 40
_symmetry_cell_setting 'orthorhombic'
loop_
_space_group_symop_operation_xyz
x,y,z
-x,-y,z
1/2-x,y,z
1/2+x,-y,z
x,1/2+y,1/2+z
-x,1/2-y,1/2+z
1/2-x,1/2+y,1/2+z
1/2+x,1/2-y,1/2+z
loop_
_atom_site_type_symbol
_atom_site_label
_atom_site_fract_x
_atom_site_fract_y
_atom_site_fract_z
Si Si1 0.068426 0.301448 0.016500
Si Si2 0.569407 0.233770 0.323035
Si Si3 0.067247 0.545863 0.242260
Si Si4 0.927193 0.674651 0.334186
Si Si5 0.430345 0.633260 0.507711
Si Si6 0.932612 0.714911 0.612233
Si Si7 0.431491 0.136018 0.655048
Si Si8 0.933081 0.047031 0.944898
O O1 0.250000 0.304437 0.034728
O O2 0.007895 0.256811 0.063213
O O3 0.983307 0.342120 0.061495
O O4 0.046189 0.298307 0.907727
O O5 0.750000 0.247676 0.326508
O O6 0.461268 0.274630 0.341242
O O7 0.540843 0.217135 0.221020
O O8 0.250000 0.542111 0.256609
O O9 0.038972 0.585231 0.172793
O O10 0.000000 0.500000 0.210611
O O11 0.991311 0.555263 0.340893
O O12 0.750000 0.664420 0.354006
O O13 0.035551 0.650800 0.406022
O O14 0.973872 0.660442 0.233434
O O15 0.250000 0.629836 0.523713
O O16 0.502418 0.670194 0.571851
O O17 0.507165 0.585915 0.508324
O O18 0.750000 0.716907 0.595906
O O19 0.250000 0.143659 0.668897
O O20 0.750000 0.045792 0.944492
O O21 0.000000 0.000000 0.970730
#
# Coordination Sequence:
#
# PCOD9363651 Si02
#       8
#     8   8   8   8   8   8   8   8
#     4  11  22  35  53  77 104 139 180 220 261 313
#     4  10  22  38  53  71 105 141 175 222 268 306
#     4  10  20  33  51  74 105 139 173 214 263 311
#     4  12  22  31  51  76 102 140 182 218 259 311
#     4  12  23  36  52  75 108 142 179 219 263 313
#     4  11  22  36  54  76 103 139 179 219 265 314
#     4  11  22  35  51  74 107 143 176 217 264 312
#     4  11  21  34  53  77 106 139 176 214 261 313
#
# _framework density 16.255019000000001
#
# number of rings (size 3 to 8) (size 9 to 14) (size 15 to 20)
#    0.000    1.000    3.750    5.625    0.000    2.500 
#    0.000    0.000    0.000    0.000    0.000    0.875 
#    0.000    2.000    0.000    0.000    0.000    0.000 
#
# Total GULP energy -178741.579185 kJ/mol
# GULP energy per Si atom -5585.674350 kJ/mol
# Density = 1.621802 g / cm^3
# Si number density = 16.255019 Si / 1000 Ang^3
#
#
#
# Elastic Constant Matrix: (Units=GPa)
#
#
# Indices 1 2 3 4 5 6 
#
# 1 74.6624 30.5336 7.2747 0.0000 0.0000 0.0000
# 2 30.5336 87.5011 6.4303 0.0000 0.0000 0.0000
# 3 7.2747 6.4303 43.3865 0.0000 0.0000 0.0000
# 4 0.0000 0.0000 0.0000 22.4802 0.0000 0.0000
# 5 0.0000 0.0000 0.0000 0.0000 19.6956 0.0000
# 6 0.0000 0.0000 0.0000 0.0000 0.0000 2.0838
#
#
#
# Elastic Compliance Matrix: (Units=1/GPa)
#
#
# Indices 1 2 3 4 5 6 
#
# 1 0.015768 -0.005367 -0.001849 0.000000 0.000000 0.000000
# 2 -0.005367 0.013381 -0.001083 0.000000 0.000000 0.000000
# 3 -0.001849 -0.001083 0.023519 0.000000 0.000000 0.000000
# 4 0.000000 0.000000 0.000000 0.044483 0.000000 0.000000
# 5 0.000000 0.000000 0.000000 0.000000 0.050773 0.000000
# 6 0.000000 0.000000 0.000000 0.000000 0.000000 0.479901
#
#
# Mechanical properties :
#
#
# Convention : Reuss Voigt Hill
#
# Bulk Modulus (GPa) = 27.72281 32.66971 30.19626
# Shear Modulus (GPa) = 7.61678 19.60602 13.61140
#
# Velocity S-wave (km/s) = 2.16702 3.47674 2.89687
# Velocity P-wave (km/s) = 4.83252 6.02153 5.45949
#
# Compressibility (1/GPa) = 0.03607138
#
# Stress axis : x y z
#
# Youngs Moduli (GPa) = 63.41792 74.73447 42.51854
#
# Poissons Ratio (x) = 0.40107 0.07860
# Poissons Ratio (y) = 0.34034 0.04606
# Poissons Ratio (z) = 0.11723 0.08096
#
# Static dielectric constant tensor:
#      x y z
#    x 1.547440 0.000000 0.000000 
#    y 0.000000 1.555510 0.000000 
#    z 0.000000 0.000000 1.535430 
# 
# From -- ./inp_files/15892.got.cif
#   From: 2010.05.17/outbox.cif.g08.bks.cpg/sg40_8_cif.got.tgz:15892.got - 2010.06.03 18:35:42.
