data_PCOD9363914
_publ_section_title
;
Structure prediction by ZEFSAII (Michael W. Deem and Ramdas Pophale) SiO2 
 PCOD9363914
Probable space group: A M A 2
;
_chemical_formula_sum "Si O2"
_cell_formula_units_Z 40
_cell_length_a 13.782241
_cell_length_b 7.513886
_cell_length_c 14.367973
_cell_angle_alpha 90.000000
_cell_angle_beta 90.000000
_cell_angle_gamma 90.000000
_cell_volume 1487.921245
_symmetry_space_group_name_H-M "A M A 2"
_symmetry_group_IT_number 40
_symmetry_cell_setting 'orthorhombic'
loop_
_space_group_symop_operation_xyz
x,y,z
-x,-y,z
1/2-x,y,z
1/2+x,-y,z
x,1/2+y,1/2+z
-x,1/2-y,1/2+z
1/2-x,1/2+y,1/2+z
1/2+x,1/2-y,1/2+z
loop_
_atom_site_type_symbol
_atom_site_label
_atom_site_fract_x
_atom_site_fract_y
_atom_site_fract_z
Si Si1 0.909511 0.764074 0.626310
Si Si2 0.615408 0.504919 0.776635
Si Si3 0.639848 0.661698 0.127365
Si Si4 0.880577 0.795839 0.919169
Si Si5 0.612383 0.697938 0.412841
O O1 0.868835 0.583393 0.673124
O O2 0.876764 0.767540 0.518457
O O3 0.027832 0.763859 0.645046
O O4 0.872121 0.956439 0.659788
O O5 0.500000 0.500000 0.788240
O O6 0.651958 0.666079 0.839036
O O7 0.646023 0.323670 0.828449
O O8 0.750000 0.719240 0.157505
O O9 0.641718 0.701680 0.016801
O O10 0.996259 0.807769 0.907795
O O11 0.849294 0.998575 0.910854
#
# Coordination Sequence:
#
# PCOD9363914 Si02
#       5
#     8   8   8   8   8
#     4  10  21  38  68  99 130 191 238 289 374 436
#     4  10  20  35  63 101 130 173 231 289 352 431
#     4  10  21  40  67 100 142 188 242 305 371 444
#     4   9  18  36  62  93 130 173 222 286 354 425
#     4   9  18  35  60  97 128 166 229 281 345 438
#
# _framework density 26.883144999999999
#
# number of rings (size 3 to 8) (size 9 to 14) (size 15 to 20)
#    0.000    2.400    2.000    0.000    5.600    6.400 
#    0.000    2.000    0.000   10.800    0.000    0.000 
#    0.000    0.000    0.000    0.000    0.000    0.000 
#
# Total GULP energy -111551.763141 kJ/mol
# GULP energy per Si atom -5577.588157 kJ/mol
# Density = 2.682196 g / cm^3
# Si number density = 26.883145 Si / 1000 Ang^3
#
#
#
# Elastic Constant Matrix: (Units=GPa)
#
#
# Indices 1 2 3 4 5 6 
#
# 1 207.3519 23.9706 37.8575 0.0000 0.0000 0.0000
# 2 23.9706 190.9910 67.9422 0.0000 0.0000 0.0000
# 3 37.8575 67.9422 115.0461 0.0000 0.0000 0.0000
# 4 0.0000 0.0000 0.0000 59.2999 0.0000 0.0000
# 5 0.0000 0.0000 0.0000 0.0000 -92.4668 0.0000
# 6 0.0000 0.0000 0.0000 0.0000 0.0000 -43.3952
#
#
#
# Elastic Compliance Matrix: (Units=1/GPa)
#
#
# Indices 1 2 3 4 5 6 
#
# 1 0.005131 -0.000055 -0.001656 0.000000 0.000000 0.000000
# 2 -0.000055 0.006629 -0.003897 0.000000 0.000000 0.000000
# 3 -0.001656 -0.003897 0.011538 0.000000 0.000000 0.000000
# 4 0.000000 0.000000 0.000000 0.016863 0.000000 0.000000
# 5 0.000000 0.000000 0.000000 0.000000 -0.010815 0.000000
# 6 0.000000 0.000000 0.000000 0.000000 0.000000 -0.023044
#
#
# Mechanical properties :
#
#
# Convention : Reuss Voigt Hill
#
# Bulk Modulus (GPa) = 82.75938 85.88107 84.32023
# Shear Modulus (GPa) = 232.05147 10.26214 121.15680
#
# Velocity S-wave (km/s) = 9.30086 1.95591 6.72055
# Velocity P-wave (km/s) = 12.09103 6.09231 9.57364
#
# Compressibility (1/GPa) = 0.01208322
#
# Stress axis : x y z
#
# Youngs Moduli (GPa) = 194.87712 150.85336 86.66677
#
# Poissons Ratio (x) = 0.00828 0.14353
# Poissons Ratio (y) = 0.01069 0.33772
# Poissons Ratio (z) = 0.32275 0.58784
#
# Static dielectric constant tensor:
#      x y z
#    x 2.508660 0.000000 0.000000 
#    y 0.000000 2.076410 0.000000 
#    z 0.000000 0.000000 2.078220 
# 
# From -- ./inp_files/17466.got.cif
#   From: 2010.05.17/outbox.cif.g08.bks.cpg/sg40_9_cif.got.tgz:17466.got - 2010.06.03 18:35:42.
