data_PCOD9363582
_publ_section_title
;
Structure prediction by ZEFSAII (Michael W. Deem and Ramdas Pophale) SiO2 
 PCOD9363582
Probable space group: A M A 2
;
_chemical_formula_sum "Si O2"
_cell_formula_units_Z 64
_cell_length_a 17.208493
_cell_length_b 12.404991
_cell_length_c 14.075751
_cell_angle_alpha 90.000000
_cell_angle_beta 90.000000
_cell_angle_gamma 90.000000
_cell_volume 3004.767468
_symmetry_space_group_name_H-M "A M A 2"
_symmetry_group_IT_number 40
_symmetry_cell_setting 'orthorhombic'
loop_
_space_group_symop_operation_xyz
x,y,z
-x,-y,z
1/2-x,y,z
1/2+x,-y,z
x,1/2+y,1/2+z
-x,1/2-y,1/2+z
1/2-x,1/2+y,1/2+z
1/2+x,1/2-y,1/2+z
loop_
_atom_site_type_symbol
_atom_site_label
_atom_site_fract_x
_atom_site_fract_y
_atom_site_fract_z
Si Si1 0.926080 0.741225 0.979520
Si Si2 0.837518 0.678322 0.438063
Si Si3 0.157189 0.976658 0.488357
Si Si4 0.500245 0.379948 0.648676
Si Si5 0.834692 0.211648 0.153131
Si Si6 0.344279 0.049346 0.897040
Si Si7 0.661009 0.455795 0.192672
Si Si8 0.434650 0.642043 0.856708
O O1 0.859708 0.650790 0.990111
O O2 0.889479 0.845094 0.928082
O O3 0.990000 0.677453 0.917415
O O4 0.965789 0.790938 0.075110
O O5 0.750000 0.670799 0.402779
O O6 0.837911 0.735849 0.540185
O O7 0.861680 0.555853 0.459988
O O8 0.884279 0.749450 0.365430
O O9 0.250000 0.998573 0.479209
O O10 0.125797 0.015220 0.591741
O O11 0.110877 0.044281 0.408462
O O12 0.500000 0.500000 0.606388
O O13 0.411549 0.352415 0.676115
O O14 0.546685 0.382250 0.747775
O O15 0.750000 0.160153 0.172002
O O16 0.837121 0.326774 0.202806
O O17 0.250000 0.068683 0.896669
O O18 0.371282 0.007824 0.793041
O O19 0.750000 0.495388 0.187377
#
# Coordination Sequence:
#
# PCOD9363582 Si02
#       8
#     8   8   8   8   8   8   8   8
#     4  12  25  41  67  95 138 175 224 288 351 415
#     4  10  20  39  67  94 126 173 227 272 330 409
#     4  11  23  44  68  96 131 177 229 285 345 412
#     4  12  26  44  63 101 142 175 222 285 355 421
#     4  10  19  40  69  92 120 175 230 270 324 407
#     4  10  22  39  61  94 132 173 217 276 343 407
#     4   9  18  35  64  93 120 157 219 275 319 388
#     4  12  25  43  67  96 135 180 223 282 351 416
#
# _framework density 21.299486999999999
#
# number of rings (size 3 to 8) (size 9 to 14) (size 15 to 20)
#    0.000    1.250    2.500    3.375    1.750    0.000 
#    0.000    6.875    0.000    0.000    0.000    0.000 
#    0.000    0.000    0.000    0.000    0.000    0.000 
#
# Total GULP energy -178565.750480 kJ/mol
# GULP energy per Si atom -5580.179702 kJ/mol
# Density = 2.125101 g / cm^3
# Si number density = 21.299487 Si / 1000 Ang^3
#
#
#
# Elastic Constant Matrix: (Units=GPa)
#
#
# Indices 1 2 3 4 5 6 
#
# 1 77.4531 32.2530 27.3482 0.0000 0.0000 0.0000
# 2 32.2530 95.8175 14.4671 0.0000 0.0000 0.0000
# 3 27.3482 14.4671 89.4756 0.0000 0.0000 0.0000
# 4 0.0000 0.0000 0.0000 17.7927 0.0000 0.0000
# 5 0.0000 0.0000 0.0000 0.0000 18.0855 0.0000
# 6 0.0000 0.0000 0.0000 0.0000 0.0000 29.2002
#
#
#
# Elastic Compliance Matrix: (Units=1/GPa)
#
#
# Indices 1 2 3 4 5 6 
#
# 1 0.016445 -0.004896 -0.004235 0.000000 0.000000 0.000000
# 2 -0.004896 0.012155 -0.000469 0.000000 0.000000 0.000000
# 3 -0.004235 -0.000469 0.012546 0.000000 0.000000 0.000000
# 4 0.000000 0.000000 0.000000 0.056203 0.000000 0.000000
# 5 0.000000 0.000000 0.000000 0.000000 0.055293 0.000000
# 6 0.000000 0.000000 0.000000 0.000000 0.000000 0.034246
#
#
# Mechanical properties :
#
#
# Convention : Reuss Voigt Hill
#
# Bulk Modulus (GPa) = 45.56374 45.65363 45.60869
# Shear Modulus (GPa) = 23.42967 25.59421 24.51194
#
# Velocity S-wave (km/s) = 3.32024 3.47022 3.39606
# Velocity P-wave (km/s) = 6.01141 6.12677 6.06936
#
# Compressibility (1/GPa) = 0.02194727
#
# Stress axis : x y z
#
# Youngs Moduli (GPa) = 60.80809 82.26798 79.70412
#
# Poissons Ratio (x) = 0.40280 0.33753
# Poissons Ratio (y) = 0.29773 0.03737
# Poissons Ratio (z) = 0.25751 0.03857
#
# Static dielectric constant tensor:
#      x y z
#    x 1.809020 0.000000 0.000000 
#    y 0.000000 1.773980 0.000000 
#    z 0.000000 0.000000 1.777620 
# 
# From -- ./inp_files/17888.got.cif
#   From: 2010.05.17/outbox.cif.g08.bks.cpg/sg40_9_cif.got.tgz:17888.got - 2010.06.03 18:35:42.
