data_PCOD9363103
_publ_section_title
;
Structure prediction by ZEFSAII (Michael W. Deem and Ramdas Pophale) SiO2 
 PCOD9363103
Probable space group: A M A 2
;
_chemical_formula_sum "Si O2"
_cell_formula_units_Z 64
_cell_length_a 8.568527
_cell_length_b 25.372903
_cell_length_c 15.150508
_cell_angle_alpha 90.000000
_cell_angle_beta 90.000000
_cell_angle_gamma 90.000000
_cell_volume 3293.847770
_symmetry_space_group_name_H-M "A M A 2"
_symmetry_group_IT_number 40
_symmetry_cell_setting 'orthorhombic'
loop_
_space_group_symop_operation_xyz
x,y,z
-x,-y,z
1/2-x,y,z
1/2+x,-y,z
x,1/2+y,1/2+z
-x,1/2-y,1/2+z
1/2-x,1/2+y,1/2+z
1/2+x,1/2-y,1/2+z
loop_
_atom_site_type_symbol
_atom_site_label
_atom_site_fract_x
_atom_site_fract_y
_atom_site_fract_z
Si Si1 0.435942 0.127486 0.153510
Si Si2 0.062843 0.655314 0.269072
Si Si3 0.564846 0.715703 0.957075
Si Si4 0.066095 0.232170 0.264059
Si Si5 0.566817 0.394788 0.987325
Si Si6 0.934639 0.558912 0.808459
Si Si7 0.934195 0.057353 0.659436
Si Si8 0.060378 0.165816 0.971568
O O1 0.250000 0.115656 0.157118
O O2 0.455824 0.186327 0.192893
O O3 0.524401 0.087913 0.217416
O O4 0.490173 0.129227 0.052144
O O5 0.250000 0.660443 0.265849
O O6 0.013726 0.650884 0.372359
O O7 0.987761 0.709818 0.234826
O O8 0.010383 0.604380 0.215601
O O9 0.750000 0.709486 0.971490
O O10 0.529588 0.717278 0.852111
O O11 0.476864 0.666492 0.998943
O O12 0.513560 0.773523 0.988713
O O13 0.250000 0.233622 0.286664
O O14 0.750000 0.402845 0.999822
O O15 0.517322 0.410581 0.888770
O O16 0.475340 0.429835 0.057845
O O17 0.750000 0.558957 0.823609
O O18 0.000000 0.500000 0.806947
O O19 0.750000 0.058078 0.672097
O O20 0.000000 0.000000 0.682899
O O21 0.250000 0.165937 0.972750
#
# Coordination Sequence:
#
# PCOD9363103 Si02
#       8
#     8   8   8   8   8   8   8   8
#     4  10  20  37  60  89 124 163 206 252 305 360
#     4  10  21  40  63  89 123 161 207 257 310 365
#     4  10  19  34  57  87 124 165 205 246 301 362
#     4  10  19  32  56  88 125 164 202 248 304 362
#     4  12  24  40  61  91 125 161 202 248 304 368
#     4  12  25  42  63  88 121 163 206 254 307 365
#     4  12  26  45  66  90 120 157 205 257 312 371
#     4   8  18  36  60  88 123 162 201 251 303 356
#
# _framework density 19.430164000000001
#
# number of rings (size 3 to 8) (size 9 to 14) (size 15 to 20)
#    0.000    1.500    1.250    5.625    1.750    0.500 
#    0.000    4.375    0.000    0.000    0.000    0.000 
#    0.000    0.000    0.000    0.000    0.000    0.000 
#
# Total GULP energy -178874.520840 kJ/mol
# GULP energy per Si atom -5589.828776 kJ/mol
# Density = 1.938594 g / cm^3
# Si number density = 19.430164 Si / 1000 Ang^3
#
#
#
# Elastic Constant Matrix: (Units=GPa)
#
#
# Indices 1 2 3 4 5 6 
#
# 1 45.5104 0.9634 -5.8797 0.0000 0.0000 0.0000
# 2 0.9634 75.2220 5.8369 0.0000 0.0000 0.0000
# 3 -5.8797 5.8369 35.8749 0.0000 0.0000 0.0000
# 4 0.0000 0.0000 0.0000 26.4257 0.0000 0.0000
# 5 0.0000 0.0000 0.0000 0.0000 4.1479 0.0000
# 6 0.0000 0.0000 0.0000 0.0000 0.0000 -0.4176
#
#
#
# Elastic Compliance Matrix: (Units=1/GPa)
#
#
# Indices 1 2 3 4 5 6 
#
# 1 0.022473 -0.000581 0.003778 0.000000 0.000000 0.000000
# 2 -0.000581 0.013479 -0.002288 0.000000 0.000000 0.000000
# 3 0.003778 -0.002288 0.028866 0.000000 0.000000 0.000000
# 4 0.000000 0.000000 0.000000 0.037842 0.000000 0.000000
# 5 0.000000 0.000000 0.000000 0.000000 0.241089 0.000000
# 6 0.000000 0.000000 0.000000 0.000000 0.000000 -2.394672
#
#
# Mechanical properties :
#
#
# Convention : Reuss Voigt Hill
#
# Bulk Modulus (GPa) = 15.00702 17.60540 16.30621
# Shear Modulus (GPa) = -2.46241 16.41031 6.97395
#
# Velocity S-wave (km/s) = -1.12697 2.90932 1.89658
# Velocity P-wave (km/s) = 2.45905 4.51287 3.63407
#
# Compressibility (1/GPa) = 0.06663547
#
# Stress axis : x y z
#
# Youngs Moduli (GPa) = 44.49711 74.18960 34.64276
#
# Poissons Ratio (x) = 0.04310 -0.13087
# Poissons Ratio (y) = 0.02585 0.07927
# Poissons Ratio (z) = -0.16810 0.16977
#
# Static dielectric constant tensor:
#      x y z
#    x 1.655710 0.000000 0.000000 
#    y 0.000000 1.644870 0.000000 
#    z 0.000000 0.000000 1.691430 
# 
# From -- ./inp_files/15699.got.cif
#   From: 2010.05.17/outbox.cif.g08.bks.cpg/sg40_8_cif.got.tgz:15699.got - 2010.06.03 18:35:42.
