data_PCOD9363567
_publ_section_title
;
Structure prediction by ZEFSAII (Michael W. Deem and Ramdas Pophale) SiO2 
 PCOD9363567
Probable space group: A M A 2
;
_chemical_formula_sum "Si O2"
_cell_formula_units_Z 52
_cell_length_a 17.990998
_cell_length_b 7.589649
_cell_length_c 18.292546
_cell_angle_alpha 90.000000
_cell_angle_beta 90.000000
_cell_angle_gamma 90.000000
_cell_volume 2497.762279
_symmetry_space_group_name_H-M "A M A 2"
_symmetry_group_IT_number 40
_symmetry_cell_setting 'orthorhombic'
loop_
_space_group_symop_operation_xyz
x,y,z
-x,-y,z
1/2-x,y,z
1/2+x,-y,z
x,1/2+y,1/2+z
-x,1/2-y,1/2+z
1/2-x,1/2+y,1/2+z
1/2+x,1/2-y,1/2+z
loop_
_atom_site_type_symbol
_atom_site_label
_atom_site_fract_x
_atom_site_fract_y
_atom_site_fract_z
Si Si1 0.750000 0.523147 0.057030
Si Si2 0.750000 0.223935 0.944036
Si Si3 0.483389 0.205697 0.239875
Si Si4 0.917732 0.599906 0.103667
Si Si5 0.750000 0.314403 0.421993
Si Si6 0.595502 0.856835 0.387935
Si Si7 0.979520 0.822722 0.983048
Si Si8 0.901336 0.767350 0.845716
O O1 0.830742 0.534810 0.099748
O O2 0.750000 0.331761 0.019308
O O3 0.750000 0.668730 0.988538
O O4 0.678206 0.292943 0.900728
O O5 0.750000 0.013557 0.953277
O O6 0.435121 0.288347 0.176099
O O7 0.437905 0.226330 0.314876
O O8 0.563072 0.289152 0.265534
O O9 0.500000 0.000000 0.224824
O O10 0.000000 0.500000 0.099320
O O11 0.922098 0.716560 0.030823
O O12 0.817304 0.296210 0.365131
O O13 0.549255 0.794922 0.458739
O O14 0.585401 0.064225 0.371931
O O15 0.941409 0.881461 0.907715
O O16 0.000000 0.000000 0.024943
#
# Coordination Sequence:
#
# PCOD9363567 Si02
#       8
#     4   4   8   8   4   8   8   8
#     4  12  26  47  66 102 146 178 238 300 361 413
#     4  12  22  37  65  98 133 169 225 292 352 403
#     4   9  22  42  65  93 130 183 228 274 349 424
#     4  12  25  43  65  91 140 188 231 287 359 419
#     4  12  22  38  67 106 133 171 227 304 349 414
#     4  10  20  37  64  91 128 172 221 283 343 407
#     4  11  20  33  59  92 122 166 227 282 333 415
#     4  10  19  39  63  92 133 168 223 281 348 406
#
# _framework density 20.818633999999999
#
# number of rings (size 3 to 8) (size 9 to 14) (size 15 to 20)
#    0.000    1.231    3.077    4.615    0.000    4.308 
#    2.769    1.538    0.000    0.000    0.000    0.000 
#    0.000    0.000    0.000    0.000    0.000    0.000 
#
# Total GULP energy -144751.346638 kJ/mol
# GULP energy per Si atom -5567.359486 kJ/mol
# Density = 2.077125 g / cm^3
# Si number density = 20.818634 Si / 1000 Ang^3
#
#
#
# Elastic Constant Matrix: (Units=GPa)
#
#
# Indices 1 2 3 4 5 6 
#
# 1 181.3432 28.4542 42.6636 0.0000 0.0000 0.0000
# 2 28.4542 62.7428 21.2823 0.0000 0.0000 0.0000
# 3 42.6636 21.2823 93.3625 0.0000 0.0000 0.0000
# 4 0.0000 0.0000 0.0000 18.6757 0.0000 0.0000
# 5 0.0000 0.0000 0.0000 0.0000 32.3648 0.0000
# 6 0.0000 0.0000 0.0000 0.0000 0.0000 24.2642
#
#
#
# Elastic Compliance Matrix: (Units=1/GPa)
#
#
# Indices 1 2 3 4 5 6 
#
# 1 0.006419 -0.002077 -0.002460 0.000000 0.000000 0.000000
# 2 -0.002077 0.017946 -0.003142 0.000000 0.000000 0.000000
# 3 -0.002460 -0.003142 0.012551 0.000000 0.000000 0.000000
# 4 0.000000 0.000000 0.000000 0.053546 0.000000 0.000000
# 5 0.000000 0.000000 0.000000 0.000000 0.030898 0.000000
# 6 0.000000 0.000000 0.000000 0.000000 0.000000 0.041213
#
#
# Mechanical properties :
#
#
# Convention : Reuss Voigt Hill
#
# Bulk Modulus (GPa) = 46.38415 58.02764 52.20589
# Shear Modulus (GPa) = 27.01024 31.39750 29.20387
#
# Velocity S-wave (km/s) = 3.60586 3.88770 3.74943
# Velocity P-wave (km/s) = 6.29800 6.93438 6.62384
#
# Compressibility (1/GPa) = 0.02155909
#
# Stress axis : x y z
#
# Youngs Moduli (GPa) = 155.78814 55.72416 79.67367
#
# Poissons Ratio (x) = 0.11572 0.19599
# Poissons Ratio (y) = 0.32352 0.25032
# Poissons Ratio (z) = 0.38322 0.17507
#
# Static dielectric constant tensor:
#      x y z
#    x 1.870580 0.000000 0.000000 
#    y 0.000000 1.845180 0.000000 
#    z 0.000000 0.000000 1.732210 
# 
# From -- ./inp_files/21114.got.cif
#   From: 2010.05.17/outbox.cif.g08.bks.cpg/sg40_11_cif.got.tgz:21114.got - 2010.06.03 18:35:42.
