data_PCOD9363871
_publ_section_title
;
Structure prediction by ZEFSAII (Michael W. Deem and Ramdas Pophale) SiO2 
 PCOD9363871
Probable space group: A M A 2
;
_chemical_formula_sum "Si O2"
_cell_formula_units_Z 28
_cell_length_a 13.651907
_cell_length_b 7.996689
_cell_length_c 12.341603
_cell_angle_alpha 90.000000
_cell_angle_beta 90.000000
_cell_angle_gamma 90.000000
_cell_volume 1347.333473
_symmetry_space_group_name_H-M "A M A 2"
_symmetry_group_IT_number 40
_symmetry_cell_setting 'orthorhombic'
loop_
_space_group_symop_operation_xyz
x,y,z
-x,-y,z
1/2-x,y,z
1/2+x,-y,z
x,1/2+y,1/2+z
-x,1/2-y,1/2+z
1/2-x,1/2+y,1/2+z
1/2+x,1/2-y,1/2+z
loop_
_atom_site_type_symbol
_atom_site_label
_atom_site_fract_x
_atom_site_fract_y
_atom_site_fract_z
Si Si1 0.000000 0.000000 0.853010
Si Si2 0.445346 0.728135 0.542741
Si Si3 0.364801 0.218103 0.260627
Si Si4 0.861421 0.410862 0.998982
O O1 0.071294 0.884260 0.783270
O O2 0.938561 0.883536 0.935560
O O3 0.406633 0.640308 0.650623
O O4 0.558160 0.788624 0.550998
O O5 0.384652 0.899282 0.529792
O O6 0.250000 0.255955 0.248209
O O7 0.375524 0.108686 0.369174
O O8 0.750000 0.366098 0.025630
#
# Coordination Sequence:
#
# PCOD9363871 Si02
#       4
#     4   8   8   8
#     4  10  22  36  56  84 110 140 182 226 268 320
#     4  10  20  35  58  81 109 144 180 223 272 318
#     4  10  21  37  56  81 112 144 181 224 268 318
#     4   9  19  36  56  79 110 145 181 222 268 321
#
# _framework density 20.781789
#
# number of rings (size 3 to 8) (size 9 to 14) (size 15 to 20)
#    0.000    2.286    0.000    2.571    0.000    6.857 
#    0.000    0.000    0.000   15.429    0.000    0.000 
#    0.000    0.000    0.000    0.000    0.000    0.000 
#
# Total GULP energy -78201.407860 kJ/mol
# GULP energy per Si atom -5585.814847 kJ/mol
# Density = 2.073449 g / cm^3
# Si number density = 20.781789 Si / 1000 Ang^3
#
#
#
# Elastic Constant Matrix: (Units=GPa)
#
#
# Indices 1 2 3 4 5 6 
#
# 1 102.2824 -7.9338 52.2342 0.0000 0.0000 0.0000
# 2 -7.9338 28.4293 7.7186 0.0000 0.0000 0.0000
# 3 52.2342 7.7186 92.7967 0.0000 0.0000 0.0000
# 4 0.0000 0.0000 0.0000 9.8578 0.0000 0.0000
# 5 0.0000 0.0000 0.0000 0.0000 34.1999 0.0000
# 6 0.0000 0.0000 0.0000 0.0000 0.0000 12.4985
#
#
#
# Elastic Compliance Matrix: (Units=1/GPa)
#
#
# Indices 1 2 3 4 5 6 
#
# 1 0.014825 0.006551 -0.008890 0.000000 0.000000 0.000000
# 2 0.006551 0.038882 -0.006921 0.000000 0.000000 0.000000
# 3 -0.008890 -0.006921 0.016356 0.000000 0.000000 0.000000
# 4 0.000000 0.000000 0.000000 0.101443 0.000000 0.000000
# 5 0.000000 0.000000 0.000000 0.000000 0.029240 0.000000
# 6 0.000000 0.000000 0.000000 0.000000 0.000000 0.080010
#
#
# Mechanical properties :
#
#
# Convention : Reuss Voigt Hill
#
# Bulk Modulus (GPa) = 19.40158 36.39402 27.89780
# Shear Modulus (GPa) = 15.79996 22.74386 19.27191
#
# Velocity S-wave (km/s) = 2.76031 3.31178 3.04854
# Velocity P-wave (km/s) = 4.41760 5.67224 5.08377
#
# Compressibility (1/GPa) = 0.05154220
#
# Stress axis : x y z
#
# Youngs Moduli (GPa) = 67.45481 25.71869 61.14047
#
# Poissons Ratio (x) = -0.16848 0.54351
# Poissons Ratio (y) = -0.44188 0.42318
# Poissons Ratio (z) = 0.59964 0.17801
#
# Static dielectric constant tensor:
#      x y z
#    x 1.723460 0.000000 0.000000 
#    y 0.000000 1.731110 0.000000 
#    z 0.000000 0.000000 1.756280 
# 
# From -- ./inp_files/11658.got.cif
#   From: 2010.05.17/outbox.cif.g08.bks.cpg/sg40_6_cif.got.tgz:11658.got - 2010.06.03 18:35:42.
