data_PCOD9363283
_publ_section_title
;
Structure prediction by ZEFSAII (Michael W. Deem and Ramdas Pophale) SiO2 
 PCOD9363283
Probable space group: A M A 2
;
_chemical_formula_sum "Si O2"
_cell_formula_units_Z 64
_cell_length_a 8.783815
_cell_length_b 20.079267
_cell_length_c 20.914807
_cell_angle_alpha 90.000000
_cell_angle_beta 90.000000
_cell_angle_gamma 90.000000
_cell_volume 3688.798192
_symmetry_space_group_name_H-M "A M A 2"
_symmetry_group_IT_number 40
_symmetry_cell_setting 'orthorhombic'
loop_
_space_group_symop_operation_xyz
x,y,z
-x,-y,z
1/2-x,y,z
1/2+x,-y,z
x,1/2+y,1/2+z
-x,1/2-y,1/2+z
1/2-x,1/2+y,1/2+z
1/2+x,1/2-y,1/2+z
loop_
_atom_site_type_symbol
_atom_site_label
_atom_site_fract_x
_atom_site_fract_y
_atom_site_fract_z
Si Si1 0.067693 0.293116 0.553970
Si Si2 0.932640 0.287831 0.803515
Si Si3 0.433502 0.711277 0.183503
Si Si4 0.431381 0.791083 0.437435
Si Si5 0.932690 0.928973 0.099881
Si Si6 0.067718 0.569856 0.131507
Si Si7 0.567452 0.429213 0.980486
Si Si8 0.432413 0.570033 0.750350
O O1 0.250000 0.294459 0.547083
O O2 0.032093 0.253453 0.619548
O O3 0.996164 0.253734 0.494812
O O4 0.002077 0.367071 0.562021
O O5 0.750000 0.286649 0.809271
O O6 0.980957 0.364093 0.787867
O O7 0.985320 0.243457 0.743985
O O8 0.009306 0.265728 0.869211
O O9 0.250000 0.713031 0.192349
O O10 0.481413 0.635297 0.169633
O O11 0.250000 0.792205 0.439744
O O12 0.496920 0.865620 0.446180
O O13 0.750000 0.929086 0.095193
O O14 0.974098 0.921154 0.175335
O O15 0.000000 0.000000 0.079173
O O16 0.250000 0.566394 0.134797
O O17 0.000000 0.500000 0.153986
O O18 0.029276 0.577898 0.056212
O O19 0.500000 0.500000 0.958926
O O20 0.750000 0.428940 0.973474
O O21 0.500000 0.500000 0.773033
O O22 0.250000 0.565791 0.753703
#
# Coordination Sequence:
#
# PCOD9363283 Si02
#       8
#     8   8   8   8   8   8   8   8
#     4  11  21  37  60  85 114 150 188 237 288 336
#     4  11  23  39  56  80 113 150 191 237 284 337
#     4  10  20  36  58  84 113 146 186 232 284 337
#     4  12  25  39  56  81 113 154 195 237 286 342
#     4  10  19  34  55  86 117 147 188 233 282 337
#     4   9  18  33  54  83 114 144 181 228 278 330
#     4  10  19  35  55  81 114 152 192 233 279 334
#     4   9  19  33  52  78 110 147 186 227 271 326
#
# _framework density 17.349824000000002
#
# number of rings (size 3 to 8) (size 9 to 14) (size 15 to 20)
#    0.000    1.750    2.500    2.625    0.000    3.500 
#    0.000    1.250    0.000    0.750    0.000    3.500 
#    0.000    0.000    0.000    0.000    0.000    0.000 
#
# Total GULP energy -178750.238950 kJ/mol
# GULP energy per Si atom -5585.944967 kJ/mol
# Density = 1.731034 g / cm^3
# Si number density = 17.349824 Si / 1000 Ang^3
#
#
#
# Elastic Constant Matrix: (Units=GPa)
#
#
# Indices 1 2 3 4 5 6 
#
# 1 65.3117 45.4852 49.6089 0.0000 0.0000 0.0000
# 2 45.4852 126.5863 57.4983 0.0000 0.0000 0.0000
# 3 49.6089 57.4983 100.9716 0.0000 0.0000 0.0000
# 4 0.0000 0.0000 0.0000 17.8543 0.0000 0.0000
# 5 0.0000 0.0000 0.0000 0.0000 12.3335 0.0000
# 6 0.0000 0.0000 0.0000 0.0000 0.0000 33.6494
#
#
#
# Elastic Compliance Matrix: (Units=1/GPa)
#
#
# Indices 1 2 3 4 5 6 
#
# 1 0.026474 -0.004862 -0.010238 0.000000 0.000000 0.000000
# 2 -0.004862 0.011549 -0.004188 0.000000 0.000000 0.000000
# 3 -0.010238 -0.004188 0.017319 0.000000 0.000000 0.000000
# 4 0.000000 0.000000 0.000000 0.056009 0.000000 0.000000
# 5 0.000000 0.000000 0.000000 0.000000 0.081080 0.000000
# 6 0.000000 0.000000 0.000000 0.000000 0.000000 0.029718
#
#
# Mechanical properties :
#
#
# Convention : Reuss Voigt Hill
#
# Bulk Modulus (GPa) = 59.64697 66.45048 63.04872
# Shear Modulus (GPa) = 18.77481 22.11924 20.44703
#
# Velocity S-wave (km/s) = 3.29315 3.57444 3.43667
# Velocity P-wave (km/s) = 6.99381 7.44440 7.22262
#
# Compressibility (1/GPa) = 0.01676531
#
# Stress axis : x y z
#
# Youngs Moduli (GPa) = 37.77256 86.58755 57.74094
#
# Poissons Ratio (x) = 0.42101 0.59117
# Poissons Ratio (y) = 0.18366 0.24180
# Poissons Ratio (z) = 0.38673 0.36260
#
# Static dielectric constant tensor:
#      x y z
#    x 1.576760 0.000000 0.000000 
#    y 0.000000 1.580960 0.000000 
#    z 0.000000 0.000000 1.582050 
# 
# From -- ./inp_files/19596.got.cif
#   From: 2010.05.17/outbox.cif.g08.bks.cpg/sg40_10_cif.got.tgz:19596.got - 2010.06.03 18:35:42.
