data_PCOD9363081
_publ_section_title
;
Structure prediction by ZEFSAII (Michael W. Deem and Ramdas Pophale) SiO2 
 PCOD9363081
Probable space group: A M A 2
;
_chemical_formula_sum "Si O2"
_cell_formula_units_Z 32
_cell_length_a 5.748309
_cell_length_b 27.330070
_cell_length_c 6.981575
_cell_angle_alpha 90.000000
_cell_angle_beta 90.000000
_cell_angle_gamma 90.000000
_cell_volume 1096.817213
_symmetry_space_group_name_H-M "A M A 2"
_symmetry_group_IT_number 40
_symmetry_cell_setting 'orthorhombic'
loop_
_space_group_symop_operation_xyz
x,y,z
-x,-y,z
1/2-x,y,z
1/2+x,-y,z
x,1/2+y,1/2+z
-x,1/2-y,1/2+z
1/2-x,1/2+y,1/2+z
1/2+x,1/2-y,1/2+z
loop_
_atom_site_type_symbol
_atom_site_label
_atom_site_fract_x
_atom_site_fract_y
_atom_site_fract_z
Si Si1 0.750000 0.514856 0.962250
Si Si2 0.250000 0.235902 0.069904
Si Si3 0.750000 0.477155 0.514439
Si Si4 0.750000 0.642149 0.698867
Si Si5 0.750000 0.368814 0.763496
Si Si6 0.750000 0.754907 0.647752
Si Si7 0.750000 0.386095 0.222309
Si Si8 0.250000 0.873894 0.619452
O O1 0.500000 0.500000 0.042994
O O2 0.750000 0.487229 0.751210
O O3 0.750000 0.572341 0.016465
O O4 0.250000 0.190348 0.220857
O O5 0.250000 0.219045 0.853097
O O6 0.489257 0.265311 0.083704
O O7 0.500000 0.500000 0.467851
O O8 0.750000 0.430801 0.370039
O O9 0.500463 0.615471 0.675727
O O10 0.750000 0.695909 0.608400
O O11 0.750000 0.656416 0.923639
O O12 0.750000 0.385391 0.984498
O O13 0.482644 0.367437 0.242118
#
# Coordination Sequence:
#
# PCOD9363081 Si02
#       8
#     4   4   4   4   4   4   4   4
#     4  10  21  35  50  75 109 137 172 227 283 321
#     4  10  19  33  55  88 117 150 190 233 281 333
#     4  10  21  35  50  75 109 137 172 227 283 321
#     4   8  16  30  49  78 102 138 178 220 258 316
#     4   8  16  30  49  78 102 138 178 220 258 316
#     4  10  19  33  55  88 117 150 190 233 281 333
#     4  10  19  32  53  81  99 137 187 224 261 321
#     4  10  19  32  53  81  99 137 187 224 261 321
#
# _framework density 29.175325999999998
#
# number of rings (size 3 to 8) (size 9 to 14) (size 15 to 20)
#    0.000    2.500    0.000    2.250    0.000    3.000 
#    0.000    0.000    0.000    0.000  351.000    0.000 
#    0.000    0.000    0.000    0.000    0.000    0.000 
#
# Total GULP energy -89129.547758 kJ/mol
# GULP energy per Si atom -5570.596735 kJ/mol
# Density = 2.910892 g / cm^3
# Si number density = 29.175326 Si / 1000 Ang^3
#
#
#
# Elastic Constant Matrix: (Units=GPa)
#
#
# Indices 1 2 3 4 5 6 
#
# 1 376.5082 58.3437 68.8289 0.0000 0.0000 0.0000
# 2 58.3437 112.3532 47.7814 0.0000 0.0000 0.0000
# 3 68.8289 47.7814 143.2460 0.0000 0.0000 0.0000
# 4 0.0000 0.0000 0.0000 33.2742 0.0000 0.0000
# 5 0.0000 0.0000 0.0000 0.0000 22.5765 0.0000
# 6 0.0000 0.0000 0.0000 0.0000 0.0000 18.9038
#
#
#
# Elastic Compliance Matrix: (Units=1/GPa)
#
#
# Indices 1 2 3 4 5 6 
#
# 1 0.003026 -0.001111 -0.001084 0.000000 0.000000 0.000000
# 2 -0.001111 0.010779 -0.003062 0.000000 0.000000 0.000000
# 3 -0.001084 -0.003062 0.008523 0.000000 0.000000 0.000000
# 4 0.000000 0.000000 0.000000 0.030053 0.000000 0.000000
# 5 0.000000 0.000000 0.000000 0.000000 0.044294 0.000000
# 6 0.000000 0.000000 0.000000 0.000000 0.000000 0.052899
#
#
# Mechanical properties :
#
#
# Convention : Reuss Voigt Hill
#
# Bulk Modulus (GPa) = 84.62924 109.11284 96.87104
# Shear Modulus (GPa) = 30.48295 45.42781 37.95538
#
# Velocity S-wave (km/s) = 3.23587 3.95024 3.61077
# Velocity P-wave (km/s) = 6.55982 7.63453 7.11749
#
# Compressibility (1/GPa) = 0.01181625
#
# Stress axis : x y z
#
# Youngs Moduli (GPa) = 330.44976 92.76936 117.32939
#
# Poissons Ratio (x) = 0.10303 0.12714
# Poissons Ratio (y) = 0.36701 0.35926
# Poissons Ratio (z) = 0.35807 0.28406
#
# Static dielectric constant tensor:
#      x y z
#    x 2.226740 0.000000 0.000000 
#    y 0.000000 2.430770 0.000000 
#    z 0.000000 0.000000 2.292360 
# 
# From -- ./inp_files/3686.got.cif
#   From: 2010.05.17/outbox.cif.g08.bks.cpg/sg40_2_cif.got.tgz:3686.got - 2010.06.03 18:35:42.
