data_PCOD9363961
_publ_section_title
;
Structure prediction by ZEFSAII (Michael W. Deem and Ramdas Pophale) SiO2 
 PCOD9363961
Probable space group: A M A 2
;
_chemical_formula_sum "Si O2"
_cell_formula_units_Z 64
_cell_length_a 21.469148
_cell_length_b 9.948863
_cell_length_c 14.429149
_cell_angle_alpha 90.000000
_cell_angle_beta 90.000000
_cell_angle_gamma 90.000000
_cell_volume 3081.974056
_symmetry_space_group_name_H-M "A M A 2"
_symmetry_group_IT_number 40
_symmetry_cell_setting 'orthorhombic'
loop_
_space_group_symop_operation_xyz
x,y,z
-x,-y,z
1/2-x,y,z
1/2+x,-y,z
x,1/2+y,1/2+z
-x,1/2-y,1/2+z
1/2-x,1/2+y,1/2+z
1/2+x,1/2-y,1/2+z
loop_
_atom_site_type_symbol
_atom_site_label
_atom_site_fract_x
_atom_site_fract_y
_atom_site_fract_z
Si Si1 0.861390 0.056985 0.178740
Si Si2 0.927813 0.474729 0.102633
Si Si3 0.966031 0.753760 0.749451
Si Si4 0.088806 0.223570 0.144622
Si Si5 0.184720 0.372710 0.867013
Si Si6 0.820906 0.357882 0.971883
Si Si7 0.322526 0.433864 0.467096
Si Si8 0.415504 0.670122 0.437422
O O1 0.926438 0.123964 0.214059
O O2 0.818722 0.124426 0.256581
O O3 0.863945 0.894035 0.174472
O O4 0.840269 0.091980 0.075179
O O5 0.939269 0.379204 0.190707
O O6 0.896979 0.618774 0.128212
O O7 0.878920 0.396931 0.037465
O O8 0.000000 0.500000 0.066224
O O9 0.963712 0.802203 0.855780
O O10 0.035486 0.725042 0.720137
O O11 0.062559 0.175872 0.043461
O O12 0.250000 0.314504 0.899403
O O13 0.131177 0.293151 0.918146
O O14 0.180118 0.525893 0.896573
O O15 0.750000 0.357074 0.015087
O O16 0.829012 0.213603 0.924872
O O17 0.250000 0.477568 0.460625
O O18 0.372254 0.538735 0.427603
#
# Coordination Sequence:
#
# PCOD9363961 Si02
#       8
#     8   8   8   8   8   8   8   8
#     4  10  20  36  57  85 120 154 201 246 310 357
#     4  10  20  39  60  82 122 159 202 249 303 371
#     4  10  21  39  58  84 120 158 206 252 306 368
#     4  10  21  39  58  85 119 156 205 255 303 365
#     4  10  20  36  58  87 120 156 201 249 302 368
#     4  10  20  37  59  89 121 158 202 248 306 366
#     4  10  20  36  60  89 120 155 198 252 310 369
#     4  10  21  38  61  86 118 157 204 248 314 366
#
# _framework density 20.765912
#
# number of rings (size 3 to 8) (size 9 to 14) (size 15 to 20)
#    0.000    2.000    2.500    1.125    0.000    1.000 
#    4.500    8.750    0.000    0.000    0.000    0.000 
#    0.000    0.000    0.000    0.000    0.000    0.000 
#
# Total GULP energy -178175.054782 kJ/mol
# GULP energy per Si atom -5567.970462 kJ/mol
# Density = 2.071865 g / cm^3
# Si number density = 20.765912 Si / 1000 Ang^3
#
#
#
# Elastic Constant Matrix: (Units=GPa)
#
#
# Indices 1 2 3 4 5 6 
#
# 1 46.3060 10.9083 20.1044 0.0000 0.0000 0.0000
# 2 10.9083 108.1433 -17.5137 0.0000 0.0000 0.0000
# 3 20.1044 -17.5137 48.0772 0.0000 0.0000 0.0000
# 4 0.0000 0.0000 0.0000 10.0246 0.0000 0.0000
# 5 0.0000 0.0000 0.0000 0.0000 -9.9104 0.0000
# 6 0.0000 0.0000 0.0000 0.0000 0.0000 17.3944
#
#
#
# Elastic Compliance Matrix: (Units=1/GPa)
#
#
# Indices 1 2 3 4 5 6 
#
# 1 0.028875 -0.005173 -0.013959 0.000000 0.000000 0.000000
# 2 -0.005173 0.010754 0.006081 0.000000 0.000000 0.000000
# 3 -0.013959 0.006081 0.028852 0.000000 0.000000 0.000000
# 4 0.000000 0.000000 0.000000 0.099755 0.000000 0.000000
# 5 0.000000 0.000000 0.000000 0.000000 -0.100904 0.000000
# 6 0.000000 0.000000 0.000000 0.000000 0.000000 0.057490
#
#
# Mechanical properties :
#
#
# Convention : Reuss Voigt Hill
#
# Bulk Modulus (GPa) = 23.59759 25.50271 24.55015
# Shear Modulus (GPa) = 30.29393 16.10355 23.19874
#
# Velocity S-wave (km/s) = 3.82361 2.78777 3.34601
# Velocity P-wave (km/s) = 5.55712 4.76129 5.17453
#
# Compressibility (1/GPa) = 0.04237721
#
# Stress axis : x y z
#
# Youngs Moduli (GPa) = 34.63260 92.99261 34.65953
#
# Poissons Ratio (x) = 0.48107 0.48381
# Poissons Ratio (y) = 0.17916 -0.21075
# Poissons Ratio (z) = 0.48343 -0.56545
#
# Static dielectric constant tensor:
#      x y z
#    x 1.804720 0.000000 0.000000 
#    y 0.000000 1.766710 0.000000 
#    z 0.000000 0.000000 1.750550 
# 
# From -- ./inp_files/18543.got.cif
#   From: 2010.05.17/outbox.cif.g08.bks.cpg/sg40_10_cif.got.tgz:18543.got - 2010.06.03 18:35:42.
