data_PCOD9363329
_publ_section_title
;
Structure prediction by ZEFSAII (Michael W. Deem and Ramdas Pophale) SiO2 
 PCOD9363329
Probable space group: A M A 2
;
_chemical_formula_sum "Si O2"
_cell_formula_units_Z 48
_cell_length_a 8.588180
_cell_length_b 29.009089
_cell_length_c 10.562193
_cell_angle_alpha 90.000000
_cell_angle_beta 90.000000
_cell_angle_gamma 90.000000
_cell_volume 2631.414889
_symmetry_space_group_name_H-M "A M A 2"
_symmetry_group_IT_number 40
_symmetry_cell_setting 'orthorhombic'
loop_
_space_group_symop_operation_xyz
x,y,z
-x,-y,z
1/2-x,y,z
1/2+x,-y,z
x,1/2+y,1/2+z
-x,1/2-y,1/2+z
1/2-x,1/2+y,1/2+z
1/2+x,1/2-y,1/2+z
loop_
_atom_site_type_symbol
_atom_site_label
_atom_site_fract_x
_atom_site_fract_y
_atom_site_fract_z
Si Si1 0.564470 0.450445 0.002340
Si Si2 0.436984 0.856756 0.404303
Si Si3 0.563247 0.049195 0.787478
Si Si4 0.439290 0.298637 0.150115
Si Si5 0.936729 0.307807 0.654386
Si Si6 0.061733 0.854051 0.901395
O O1 0.500000 0.500000 0.959257
O O2 0.750000 0.451776 0.004905
O O3 0.501918 0.443472 0.145726
O O4 0.504701 0.407873 0.919994
O O5 0.250000 0.859237 0.406810
O O6 0.490015 0.826735 0.526100
O O7 0.492330 0.832297 0.276946
O O8 0.750000 0.047333 0.778385
O O9 0.519912 0.092881 0.872866
O O10 0.500000 0.000000 0.833195
O O11 0.250000 0.299090 0.148831
O O12 0.489656 0.245566 0.147768
O O13 0.487478 0.324223 0.278796
O O14 0.750000 0.308209 0.664316
O O15 0.988454 0.333862 0.527720
O O16 0.250000 0.851404 0.910734
#
# Coordination Sequence:
#
# PCOD9363329 Si02
#       6
#     8   8   8   8   8   8
#     4  11  21  35  58  88 117 147 188 237 287 341
#     4  11  21  39  61  84 116 156 194 238 290 341
#     4  10  19  34  58  85 114 147 188 234 285 338
#     4   9  19  37  60  83 113 150 195 241 285 339
#     4  11  23  37  55  85 119 152 192 241 289 342
#     4  10  20  38  59  81 113 154 190 229 287 347
#
# _framework density 18.241139
#
# number of rings (size 3 to 8) (size 9 to 14) (size 15 to 20)
#    0.000    1.667    1.667    5.000    0.000    1.333 
#    0.000    4.167    0.000    2.000    0.000    0.000 
#    0.000    0.000    0.000    0.000    0.000    0.000 
#
# Total GULP energy -134093.487852 kJ/mol
# GULP energy per Si atom -5587.228661 kJ/mol
# Density = 1.819962 g / cm^3
# Si number density = 18.241139 Si / 1000 Ang^3
#
#
#
# Elastic Constant Matrix: (Units=GPa)
#
#
# Indices 1 2 3 4 5 6 
#
# 1 68.3060 52.5865 33.5720 0.0000 0.0000 0.0000
# 2 52.5865 191.0907 85.7746 0.0000 0.0000 0.0000
# 3 33.5720 85.7746 129.1527 0.0000 0.0000 0.0000
# 4 0.0000 0.0000 0.0000 -16.6215 0.0000 0.0000
# 5 0.0000 0.0000 0.0000 0.0000 20.3153 0.0000
# 6 0.0000 0.0000 0.0000 0.0000 0.0000 17.0327
#
#
#
# Elastic Compliance Matrix: (Units=1/GPa)
#
#
# Indices 1 2 3 4 5 6 
#
# 1 0.018961 -0.004282 -0.002085 0.000000 0.000000 0.000000
# 2 -0.004282 0.008423 -0.004481 0.000000 0.000000 0.000000
# 3 -0.002085 -0.004481 0.011261 0.000000 0.000000 0.000000
# 4 0.000000 0.000000 0.000000 -0.060163 0.000000 0.000000
# 5 0.000000 0.000000 0.000000 0.000000 0.049224 0.000000
# 6 0.000000 0.000000 0.000000 0.000000 0.000000 0.058711
#
#
# Mechanical properties :
#
#
# Convention : Reuss Voigt Hill
#
# Bulk Modulus (GPa) = 59.00016 81.37951 70.18983
# Shear Modulus (GPa) = 43.95149 18.58637 31.26893
#
# Velocity S-wave (km/s) = 4.91396 3.19553 4.14478
# Velocity P-wave (km/s) = 8.03808 7.63709 7.84015
#
# Compressibility (1/GPa) = 0.01694911
#
# Stress axis : x y z
#
# Youngs Moduli (GPa) = 52.73862 118.72529 88.80565
#
# Poissons Ratio (x) = 0.50840 0.18515
# Poissons Ratio (y) = 0.22584 0.39792
# Poissons Ratio (z) = 0.10996 0.53198
#
# Static dielectric constant tensor:
#      x y z
#    x 1.615740 0.000000 0.000000 
#    y 0.000000 1.628270 0.000000 
#    z 0.000000 0.000000 1.584910 
# 
# From -- ./inp_files/4632.got.cif
#   From: 2010.05.17/outbox.cif.g08.bks.cpg/sg40_3_cif.got.tgz:4632.got - 2010.06.03 18:35:42.
