data_PCOD9363237
_publ_section_title
;
Structure prediction by ZEFSAII (Michael W. Deem and Ramdas Pophale) SiO2 
 PCOD9363237
Probable space group: A M A 2
;
_chemical_formula_sum "Si O2"
_cell_formula_units_Z 64
_cell_length_a 8.760076
_cell_length_b 25.606208
_cell_length_c 15.277272
_cell_angle_alpha 90.000000
_cell_angle_beta 90.000000
_cell_angle_gamma 90.000000
_cell_volume 3426.880450
_symmetry_space_group_name_H-M "A M A 2"
_symmetry_group_IT_number 40
_symmetry_cell_setting 'orthorhombic'
loop_
_space_group_symop_operation_xyz
x,y,z
-x,-y,z
1/2-x,y,z
1/2+x,-y,z
x,1/2+y,1/2+z
-x,1/2-y,1/2+z
1/2-x,1/2+y,1/2+z
1/2+x,1/2-y,1/2+z
loop_
_atom_site_type_symbol
_atom_site_label
_atom_site_fract_x
_atom_site_fract_y
_atom_site_fract_z
Si Si1 0.070101 0.635901 0.610740
Si Si2 0.065974 0.150477 0.478709
Si Si3 0.565721 0.943976 0.604680
Si Si4 0.568947 0.164940 0.287064
Si Si5 0.932869 0.897557 0.789067
Si Si6 0.569700 0.233127 0.017204
Si Si7 0.568192 0.057807 0.968728
Si Si8 0.431170 0.218616 0.828258
O O1 0.250000 0.628502 0.604063
O O2 0.014700 0.633837 0.710626
O O3 0.023351 0.693178 0.575945
O O4 0.988414 0.594577 0.547441
O O5 0.250000 0.149886 0.467048
O O6 0.020231 0.101590 0.537702
O O7 0.029980 0.205734 0.525423
O O8 0.988447 0.150334 0.383794
O O9 0.750000 0.945881 0.604900
O O10 0.516065 0.928093 0.702726
O O11 0.500000 0.000000 0.580597
O O12 0.750000 0.157247 0.280030
O O13 0.538338 0.227412 0.278200
O O14 0.750000 0.904606 0.798843
O O15 0.959774 0.835453 0.778761
O O16 0.010896 0.917808 0.877086
O O17 0.750000 0.226297 0.034023
O O18 0.529676 0.219296 0.916643
O O19 0.750000 0.055477 0.968590
O O20 0.500000 0.000000 0.977528
O O21 0.250000 0.219382 0.852100
#
# Coordination Sequence:
#
# PCOD9363237 Si02
#       8
#     8   8   8   8   8   8   8   8
#     4  12  24  39  59  87 123 161 201 247 298 357
#     4   9  20  39  61  85 117 156 198 246 305 360
#     4  10  22  39  60  85 116 157 202 248 295 348
#     4  10  21  37  60  89 121 157 198 248 301 356
#     4  10  20  36  59  88 123 162 198 240 297 357
#     4  10  19  33  57  86 117 152 195 242 293 355
#     4  12  25  42  63  88 120 160 203 251 301 359
#     4   9  18  33  56  84 121 159 193 233 292 358
#
# _framework density 18.675878000000001
#
# number of rings (size 3 to 8) (size 9 to 14) (size 15 to 20)
#    0.000    1.750    1.250    3.375    1.750    3.000 
#    0.000    0.625    0.000    1.500    0.000    0.000 
#    0.000    0.000    0.000    0.000    0.000    0.000 
#
# Total GULP energy -178785.663944 kJ/mol
# GULP energy per Si atom -5587.051998 kJ/mol
# Density = 1.863337 g / cm^3
# Si number density = 18.675878 Si / 1000 Ang^3
#
#
#
# Elastic Constant Matrix: (Units=GPa)
#
#
# Indices 1 2 3 4 5 6 
#
# 1 66.2868 42.9063 38.3603 0.0000 0.0000 0.0000
# 2 42.9063 128.4030 60.6710 0.0000 0.0000 0.0000
# 3 38.3603 60.6710 85.4373 0.0000 0.0000 0.0000
# 4 0.0000 0.0000 0.0000 26.2966 0.0000 0.0000
# 5 0.0000 0.0000 0.0000 0.0000 21.7734 0.0000
# 6 0.0000 0.0000 0.0000 0.0000 0.0000 25.1680
#
#
#
# Elastic Compliance Matrix: (Units=1/GPa)
#
#
# Indices 1 2 3 4 5 6 
#
# 1 0.021651 -0.003975 -0.006898 0.000000 0.000000 0.000000
# 2 -0.003975 0.012451 -0.007057 0.000000 0.000000 0.000000
# 3 -0.006898 -0.007057 0.019813 0.000000 0.000000 0.000000
# 4 0.000000 0.000000 0.000000 0.038028 0.000000 0.000000
# 5 0.000000 0.000000 0.000000 0.000000 0.045928 0.000000
# 6 0.000000 0.000000 0.000000 0.000000 0.000000 0.039733
#
#
# Mechanical properties :
#
#
# Convention : Reuss Voigt Hill
#
# Bulk Modulus (GPa) = 55.38835 62.66689 59.02762
# Shear Modulus (GPa) = 22.78103 23.86023 23.32063
#
# Velocity S-wave (km/s) = 3.49637 3.57823 3.53753
# Velocity P-wave (km/s) = 6.78392 7.12035 6.95417
#
# Compressibility (1/GPa) = 0.01805434
#
# Stress axis : x y z
#
# Youngs Moduli (GPa) = 46.18703 80.31709 50.47282
#
# Poissons Ratio (x) = 0.31930 0.34816
# Poissons Ratio (y) = 0.18361 0.35616
# Poissons Ratio (z) = 0.31860 0.56676
#
# Static dielectric constant tensor:
#      x y z
#    x 1.628160 0.000000 0.000000 
#    y 0.000000 1.639920 0.000000 
#    z 0.000000 0.000000 1.631270 
# 
# From -- ./inp_files/15617.got.cif
#   From: 2010.05.17/outbox.cif.g08.bks.cpg/sg40_8_cif.got.tgz:15617.got - 2010.06.03 18:35:42.
