data_PCOD9363630
_publ_section_title
;
Structure prediction by ZEFSAII (Michael W. Deem and Ramdas Pophale) SiO2 
 PCOD9363630
Probable space group: A M A 2
;
_chemical_formula_sum "Si O2"
_cell_formula_units_Z 40
_cell_length_a 15.052510
_cell_length_b 24.625757
_cell_length_c 5.332638
_cell_angle_alpha 90.000000
_cell_angle_beta 90.000000
_cell_angle_gamma 90.000000
_cell_volume 1976.699340
_symmetry_space_group_name_H-M "A M A 2"
_symmetry_group_IT_number 40
_symmetry_cell_setting 'orthorhombic'
loop_
_space_group_symop_operation_xyz
x,y,z
-x,-y,z
1/2-x,y,z
1/2+x,-y,z
x,1/2+y,1/2+z
-x,1/2-y,1/2+z
1/2-x,1/2+y,1/2+z
1/2+x,1/2-y,1/2+z
loop_
_atom_site_type_symbol
_atom_site_label
_atom_site_fract_x
_atom_site_fract_y
_atom_site_fract_z
Si Si1 0.641694 0.723455 0.895600
Si Si2 0.591346 0.032456 0.845223
Si Si3 0.750000 0.447672 0.310706
Si Si4 0.852438 0.775203 0.396029
Si Si5 0.750000 0.878648 0.309639
Si Si6 0.357645 0.403633 0.844724
O O1 0.750000 0.728927 0.909323
O O2 0.609271 0.759572 0.663191
O O3 0.621994 0.660432 0.852910
O O4 0.606060 0.746252 0.157533
O O5 0.666315 0.986418 0.843851
O O6 0.500000 0.000000 0.848756
O O7 0.604168 0.067772 0.593269
O O8 0.605111 0.069160 0.092245
O O9 0.750000 0.403416 0.533151
O O10 0.750000 0.421424 0.034605
O O11 0.750000 0.753478 0.409981
O O12 0.834872 0.838734 0.347093
O O13 0.250000 0.409935 0.846137
#
# Coordination Sequence:
#
# PCOD9363630 Si02
#       6
#     8   8   4   8   4   8
#     4   9  15  26  50  80 120 136 179 244 292 343
#     4  12  25  41  60  87 125 162 204 253 303 355
#     4  12  22  40  57  84 113 162 204 244 286 352
#     4   8  15  27  44  82 115 136 184 238 280 342
#     4  10  20  32  57  82 121 152 200 246 276 362
#     4  11  20  37  60  90 121 153 197 252 305 355
#
# _framework density 20.235752999999999
#
# number of rings (size 3 to 8) (size 9 to 14) (size 15 to 20)
#    0.600    1.200    2.000    4.200    0.000    3.200 
#    0.000    0.000    0.000    0.000    0.000   28.000 
#    0.000    0.000    0.000    0.000    0.000    0.000 
#
# Total GULP energy -111621.828976 kJ/mol
# GULP energy per Si atom -5581.091449 kJ/mol
# Density = 2.018970 g / cm^3
# Si number density = 20.235753 Si / 1000 Ang^3
#
#
#
# Elastic Constant Matrix: (Units=GPa)
#
#
# Indices 1 2 3 4 5 6 
#
# 1 57.8626 -2.9728 -13.6194 0.0000 0.0000 0.0000
# 2 -2.9728 29.1837 -17.3205 0.0000 0.0000 0.0000
# 3 -13.6194 -17.3205 84.0796 0.0000 0.0000 0.0000
# 4 0.0000 0.0000 0.0000 46.1918 0.0000 0.0000
# 5 0.0000 0.0000 0.0000 0.0000 3.9596 0.0000
# 6 0.0000 0.0000 0.0000 0.0000 0.0000 -23.0672
#
#
#
# Elastic Compliance Matrix: (Units=1/GPa)
#
#
# Indices 1 2 3 4 5 6 
#
# 1 0.018398 0.004150 0.003835 0.000000 0.000000 0.000000
# 2 0.004150 0.039975 0.008907 0.000000 0.000000 0.000000
# 3 0.003835 0.008907 0.014350 0.000000 0.000000 0.000000
# 4 0.000000 0.000000 0.000000 0.021649 0.000000 0.000000
# 5 0.000000 0.000000 0.000000 0.000000 0.252548 0.000000
# 6 0.000000 0.000000 0.000000 0.000000 0.000000 -0.043352
#
#
# Mechanical properties :
#
#
# Convention : Reuss Voigt Hill
#
# Bulk Modulus (GPa) = 9.38900 11.47786 10.43343
# Shear Modulus (GPa) = 16.37811 19.08608 17.73210
#
# Velocity S-wave (km/s) = 2.84802 3.07447 2.96341
# Velocity P-wave (km/s) = 3.93254 4.27639 4.10806
#
# Compressibility (1/GPa) = 0.10650763
#
# Stress axis : x y z
#
# Youngs Moduli (GPa) = 54.35307 25.01574 69.68843
#
# Poissons Ratio (x) = -0.10382 -0.26726
# Poissons Ratio (y) = -0.22558 -0.62072
# Poissons Ratio (z) = -0.20845 -0.22282
#
# Static dielectric constant tensor:
#      x y z
#    x 1.709940 0.000000 0.000000 
#    y 0.000000 1.684400 0.000000 
#    z 0.000000 0.000000 1.727660 
# 
# From -- ./inp_files/1241.got.cif
#   From: 2010.05.17/outbox.cif.g08.bks.cpg/sg40_1_cif.got.tgz:1241.got - 2010.06.03 18:35:42.
