data_PCOD9363532
_publ_section_title
;
Structure prediction by ZEFSAII (Michael W. Deem and Ramdas Pophale) SiO2 
 PCOD9363532
Probable space group: A M A 2
;
_chemical_formula_sum "Si O2"
_cell_formula_units_Z 36
_cell_length_a 15.762575
_cell_length_b 7.400059
_cell_length_c 17.249740
_cell_angle_alpha 90.000000
_cell_angle_beta 90.000000
_cell_angle_gamma 90.000000
_cell_volume 2012.078414
_symmetry_space_group_name_H-M "A M A 2"
_symmetry_group_IT_number 40
_symmetry_cell_setting 'orthorhombic'
loop_
_space_group_symop_operation_xyz
x,y,z
-x,-y,z
1/2-x,y,z
1/2+x,-y,z
x,1/2+y,1/2+z
-x,1/2-y,1/2+z
1/2-x,1/2+y,1/2+z
1/2+x,1/2-y,1/2+z
loop_
_atom_site_type_symbol
_atom_site_label
_atom_site_fract_x
_atom_site_fract_y
_atom_site_fract_z
Si Si1 0.156788 0.750300 0.339720
Si Si2 0.852127 0.544922 0.207289
Si Si3 0.000000 0.000000 0.583812
Si Si4 0.414434 0.613344 0.802553
Si Si5 0.498695 0.713092 0.449956
O O1 0.250000 0.696881 0.365591
O O2 0.131590 0.611460 0.271673
O O3 0.091383 0.747863 0.409484
O O4 0.153812 0.955186 0.309914
O O5 0.750000 0.546490 0.191322
O O6 0.915227 0.509447 0.135926
O O7 0.883381 0.733501 0.244381
O O8 0.993177 0.827668 0.527429
O O9 0.500000 0.500000 0.780641
O O10 0.435684 0.712575 0.884493
O O11 0.500000 0.500000 0.462908
#
# Coordination Sequence:
#
# PCOD9363532 Si02
#       5
#     8   8   4   8   8
#     4  10  20  37  64  92 115 154 214 259 297 365
#     4  11  24  41  64  93 129 168 208 260 318 377
#     4  12  24  40  58  92 134 164 198 256 324 378
#     4  10  19  37  66  91 115 159 214 259 305 364
#     4  11  21  38  61  89 119 162 205 250 311 362
#
# _framework density 17.891946999999998
#
# number of rings (size 3 to 8) (size 9 to 14) (size 15 to 20)
#    0.000    1.333    5.556    3.333    0.000    3.556 
#    0.000    1.111    0.000    0.000    0.000    0.000 
#    0.000    0.000    0.000    0.000    0.000    0.000 
#
# Total GULP energy -100383.174960 kJ/mol
# GULP energy per Si atom -5576.843053 kJ/mol
# Density = 1.785122 g / cm^3
# Si number density = 17.891947 Si / 1000 Ang^3
#
#
#
# Elastic Constant Matrix: (Units=GPa)
#
#
# Indices 1 2 3 4 5 6 
#
# 1 97.5806 39.2868 68.4607 0.0000 0.0000 0.0000
# 2 39.2868 165.8485 64.5490 0.0000 0.0000 0.0000
# 3 68.4607 64.5490 112.5518 0.0000 0.0000 0.0000
# 4 0.0000 0.0000 0.0000 36.8144 0.0000 0.0000
# 5 0.0000 0.0000 0.0000 0.0000 18.9174 0.0000
# 6 0.0000 0.0000 0.0000 0.0000 0.0000 14.0252
#
#
#
# Elastic Compliance Matrix: (Units=1/GPa)
#
#
# Indices 1 2 3 4 5 6 
#
# 1 0.017877 -0.000003 -0.010872 0.000000 0.000000 0.000000
# 2 -0.000003 0.007762 -0.004450 0.000000 0.000000 0.000000
# 3 -0.010872 -0.004450 0.018050 0.000000 0.000000 0.000000
# 4 0.000000 0.000000 0.000000 0.027163 0.000000 0.000000
# 5 0.000000 0.000000 0.000000 0.000000 0.052861 0.000000
# 6 0.000000 0.000000 0.000000 0.000000 0.000000 0.071300
#
#
# Mechanical properties :
#
#
# Convention : Reuss Voigt Hill
#
# Bulk Modulus (GPa) = 76.69314 80.06377 78.37845
# Shear Modulus (GPa) = 21.73826 27.53035 24.63431
#
# Velocity S-wave (km/s) = 3.48943 3.92688 3.71460
# Velocity P-wave (km/s) = 7.69367 8.08741 7.89299
#
# Compressibility (1/GPa) = 0.01303898
#
# Stress axis : x y z
#
# Youngs Moduli (GPa) = 55.93866 128.82931 55.40311
#
# Poissons Ratio (x) = 0.00043 0.60233
# Poissons Ratio (y) = 0.00019 0.24652
# Poissons Ratio (z) = 0.60815 0.57324
#
# Static dielectric constant tensor:
#      x y z
#    x 1.634270 0.000000 0.000000 
#    y 0.000000 1.657990 0.000000 
#    z 0.000000 0.000000 1.589880 
# 
# From -- ./inp_files/20345.got.cif
#   From: 2010.05.17/outbox.cif.g08.bks.cpg/sg40_11_cif.got.tgz:20345.got - 2010.06.03 18:35:42.
