data_PCOD9363590
_publ_section_title
;
Structure prediction by ZEFSAII (Michael W. Deem and Ramdas Pophale) SiO2 
 PCOD9363590
Probable space group: A M A 2
;
_chemical_formula_sum "Si O2"
_cell_formula_units_Z 60
_cell_length_a 9.076065
_cell_length_b 14.664716
_cell_length_c 24.489877
_cell_angle_alpha 90.000000
_cell_angle_beta 90.000000
_cell_angle_gamma 90.000000
_cell_volume 3259.551583
_symmetry_space_group_name_H-M "A M A 2"
_symmetry_group_IT_number 40
_symmetry_cell_setting 'orthorhombic'
loop_
_space_group_symop_operation_xyz
x,y,z
-x,-y,z
1/2-x,y,z
1/2+x,-y,z
x,1/2+y,1/2+z
-x,1/2-y,1/2+z
1/2-x,1/2+y,1/2+z
1/2+x,1/2-y,1/2+z
loop_
_atom_site_type_symbol
_atom_site_label
_atom_site_fract_x
_atom_site_fract_y
_atom_site_fract_z
Si Si1 0.425636 0.596346 0.798630
Si Si2 0.424890 0.791190 0.210753
Si Si3 0.576205 0.704541 0.894973
Si Si4 0.575205 0.598508 0.006159
Si Si5 0.580405 0.826961 0.609057
Si Si6 0.925433 0.913349 0.882481
Si Si7 0.585834 0.632090 0.270879
Si Si8 0.000000 0.000000 0.681080
O O1 0.500000 0.500000 0.812759
O O2 0.250000 0.589673 0.798811
O O3 0.485876 0.627821 0.739278
O O4 0.481214 0.668517 0.844162
O O5 0.250000 0.807483 0.213441
O O6 0.462944 0.755237 0.150021
O O7 0.470855 0.705188 0.247914
O O8 0.750000 0.691891 0.881225
O O9 0.556264 0.812024 0.907020
O O10 0.541012 0.645930 0.948496
O O11 0.500000 0.500000 0.009588
O O12 0.750000 0.587014 0.010296
O O13 0.518922 0.659666 0.056270
O O14 0.750000 0.813650 0.593211
O O15 0.570286 0.922131 0.643145
O O16 0.750000 0.928459 0.874101
O O17 0.016012 0.905270 0.826000
O O18 0.000000 0.000000 0.912038
O O19 0.750000 0.670696 0.279979
O O20 0.598012 0.556251 0.223790
#
# Coordination Sequence:
#
# PCOD9363590 Si02
#       8
#     8   8   8   8   8   8   8   4
#     4  12  24  38  61  89 119 158 202 246 296 352
#     4  10  21  37  55  80 117 152 188 234 288 343
#     4  10  23  42  60  82 117 158 198 248 300 349
#     4  11  23  39  60  85 114 152 198 245 297 353
#     4  10  21  36  56  83 116 154 190 233 288 344
#     4  11  22  36  56  81 116 152 191 239 291 350
#     4  11  20  30  49  78 112 149 187 222 275 340
#     4  10  20  30  50  78 120 152 184 224 278 340
#
# _framework density 18.407440000000001
#
# number of rings (size 3 to 8) (size 9 to 14) (size 15 to 20)
#    0.000    1.333    2.667    3.600    0.000    6.400 
#    0.000    0.000    0.000    0.800    0.000    3.733 
#    0.000    0.000    0.000    0.000    0.000    0.000 
#
# Total GULP energy -167373.165720 kJ/mol
# GULP energy per Si atom -5579.105524 kJ/mol
# Density = 1.836554 g / cm^3
# Si number density = 18.407440 Si / 1000 Ang^3
#
#
#
# Elastic Constant Matrix: (Units=GPa)
#
#
# Indices 1 2 3 4 5 6 
#
# 1 96.8950 36.0261 52.1900 0.0000 0.0000 0.0000
# 2 36.0261 73.4990 25.6161 0.0000 0.0000 0.0000
# 3 52.1900 25.6161 86.4765 0.0000 0.0000 0.0000
# 4 0.0000 0.0000 0.0000 22.4640 0.0000 0.0000
# 5 0.0000 0.0000 0.0000 0.0000 1.1981 0.0000
# 6 0.0000 0.0000 0.0000 0.0000 0.0000 25.1097
#
#
#
# Elastic Compliance Matrix: (Units=1/GPa)
#
#
# Indices 1 2 3 4 5 6 
#
# 1 0.016955 -0.005290 -0.008665 0.000000 0.000000 0.000000
# 2 -0.005290 0.016823 -0.001790 0.000000 0.000000 0.000000
# 3 -0.008665 -0.001790 0.017324 0.000000 0.000000 0.000000
# 4 0.000000 0.000000 0.000000 0.044516 0.000000 0.000000
# 5 0.000000 0.000000 0.000000 0.000000 0.834666 0.000000
# 6 0.000000 0.000000 0.000000 0.000000 0.000000 0.039825
#
#
# Mechanical properties :
#
#
# Convention : Reuss Voigt Hill
#
# Bulk Modulus (GPa) = 50.99682 53.83723 52.41702
# Shear Modulus (GPa) = 4.95964 19.29023 12.12494
#
# Velocity S-wave (km/s) = 1.64323 3.24073 2.56929
# Velocity P-wave (km/s) = 5.60044 6.58135 6.11061
#
# Compressibility (1/GPa) = 0.01960907
#
# Stress axis : x y z
#
# Youngs Moduli (GPa) = 58.98006 59.44321 57.72372
#
# Poissons Ratio (x) = 0.31448 0.50020
# Poissons Ratio (y) = 0.31203 0.10335
# Poissons Ratio (z) = 0.51109 0.10642
#
# Static dielectric constant tensor:
#      x y z
#    x 1.608190 0.000000 0.000000 
#    y 0.000000 1.681570 0.000000 
#    z 0.000000 0.000000 1.620630 
# 
# From -- ./inp_files/24175.got.cif
#   From: 2010.05.17/outbox.cif.g08.bks.cpg/sg40_13_cif.got.tgz:24175.got - 2010.06.03 18:35:42.
