data_PCOD9363397
_publ_section_title
;
Structure prediction by ZEFSAII (Michael W. Deem and Ramdas Pophale) SiO2 
 PCOD9363397
Probable space group: A M A 2
;
_chemical_formula_sum "Si O2"
_cell_formula_units_Z 48
_cell_length_a 8.496848
_cell_length_b 20.984082
_cell_length_c 14.924056
_cell_angle_alpha 90.000000
_cell_angle_beta 90.000000
_cell_angle_gamma 90.000000
_cell_volume 2660.937622
_symmetry_space_group_name_H-M "A M A 2"
_symmetry_group_IT_number 40
_symmetry_cell_setting 'orthorhombic'
loop_
_space_group_symop_operation_xyz
x,y,z
-x,-y,z
1/2-x,y,z
1/2+x,-y,z
x,1/2+y,1/2+z
-x,1/2-y,1/2+z
1/2-x,1/2+y,1/2+z
1/2+x,1/2-y,1/2+z
loop_
_atom_site_type_symbol
_atom_site_label
_atom_site_fract_x
_atom_site_fract_y
_atom_site_fract_z
Si Si1 0.940802 0.190956 0.085000
Si Si2 0.061795 0.930624 0.199323
Si Si3 0.438532 0.569963 0.080573
Si Si4 0.441501 0.769758 0.889039
Si Si5 0.440308 0.121327 0.386673
Si Si6 0.061028 0.812882 0.695163
O O1 0.750000 0.192828 0.086641
O O2 0.992570 0.126052 0.133411
O O3 0.001919 0.251624 0.139998
O O4 0.992617 0.198288 0.981927
O O5 0.250000 0.931581 0.198453
O O6 0.005432 0.913408 0.299351
O O7 0.000000 0.000000 0.173459
O O8 0.500000 0.500000 0.102906
O O9 0.250000 0.570309 0.081149
O O10 0.498490 0.623733 0.148234
O O11 0.490925 0.589140 0.979772
O O12 0.250000 0.769768 0.889376
O O13 0.489864 0.695528 0.886708
O O14 0.492524 0.804164 0.798037
O O15 0.250000 0.119647 0.382900
O O16 0.250000 0.813408 0.693616
#
# Coordination Sequence:
#
# PCOD9363397 Si02
#       6
#     8   8   8   8   8   8
#     4  10  20  38  59  81 111 150 190 231 278 329
#     4  11  23  36  56  83 116 151 188 233 280 335
#     4  11  23  39  58  82 116 153 189 230 280 335
#     4   9  18  35  58  84 113 146 182 227 281 331
#     4  10  19  35  59  84 115 149 182 228 282 337
#     4  11  21  35  59  86 113 147 187 231 278 334
#
# _framework density 18.038754999999998
#
# number of rings (size 3 to 8) (size 9 to 14) (size 15 to 20)
#    0.000    1.667    3.333    2.000    0.000    3.333 
#    0.000    2.500    0.000    2.000    0.000    0.000 
#    0.000    0.000    0.000    0.000    0.000    0.000 
#
# Total GULP energy -134060.881078 kJ/mol
# GULP energy per Si atom -5585.870045 kJ/mol
# Density = 1.799770 g / cm^3
# Si number density = 18.038755 Si / 1000 Ang^3
#
#
#
# Elastic Constant Matrix: (Units=GPa)
#
#
# Indices 1 2 3 4 5 6 
#
# 1 22.8019 30.8769 27.0115 0.0000 0.0000 0.0000
# 2 30.8769 184.3599 96.9536 0.0000 0.0000 0.0000
# 3 27.0115 96.9536 161.9667 0.0000 0.0000 0.0000
# 4 0.0000 0.0000 0.0000 16.8593 0.0000 0.0000
# 5 0.0000 0.0000 0.0000 0.0000 12.3062 0.0000
# 6 0.0000 0.0000 0.0000 0.0000 0.0000 29.6074
#
#
#
# Elastic Compliance Matrix: (Units=1/GPa)
#
#
# Indices 1 2 3 4 5 6 
#
# 1 0.060297 -0.007020 -0.005853 0.000000 0.000000 0.000000
# 2 -0.007020 0.008734 -0.004057 0.000000 0.000000 0.000000
# 3 -0.005853 -0.004057 0.009579 0.000000 0.000000 0.000000
# 4 0.000000 0.000000 0.000000 0.059314 0.000000 0.000000
# 5 0.000000 0.000000 0.000000 0.000000 0.081260 0.000000
# 6 0.000000 0.000000 0.000000 0.000000 0.000000 0.033775
#
#
# Mechanical properties :
#
#
# Convention : Reuss Voigt Hill
#
# Bulk Modulus (GPa) = 22.34769 75.42360 48.88564
# Shear Modulus (GPa) = 16.57077 26.04035 21.30556
#
# Velocity S-wave (km/s) = 3.03416 3.80357 3.44044
# Velocity P-wave (km/s) = 4.96895 7.82255 6.55297
#
# Compressibility (1/GPa) = 0.04474736
#
# Stress axis : x y z
#
# Youngs Moduli (GPa) = 16.58469 114.50081 104.39599
#
# Poissons Ratio (x) = 0.80383 0.61107
# Poissons Ratio (y) = 0.11643 0.42355
# Poissons Ratio (z) = 0.09708 0.46455
#
# Static dielectric constant tensor:
#      x y z
#    x 1.615660 0.000000 0.000000 
#    y 0.000000 1.591590 0.000000 
#    z 0.000000 0.000000 1.611730 
# 
# From -- ./inp_files/15023.got.cif
#   From: 2010.05.17/outbox.cif.g08.bks.cpg/sg40_8_cif.got.tgz:15023.got - 2010.06.03 18:35:42.
