data_PCOD9363574
_publ_section_title
;
Structure prediction by ZEFSAII (Michael W. Deem and Ramdas Pophale) SiO2 
 PCOD9363574
Probable space group: A M A 2
;
_chemical_formula_sum "Si O2"
_cell_formula_units_Z 44
_cell_length_a 9.836087
_cell_length_b 21.700107
_cell_length_c 10.787027
_cell_angle_alpha 90.000000
_cell_angle_beta 90.000000
_cell_angle_gamma 90.000000
_cell_volume 2302.427705
_symmetry_space_group_name_H-M "A M A 2"
_symmetry_group_IT_number 40
_symmetry_cell_setting 'orthorhombic'
loop_
_space_group_symop_operation_xyz
x,y,z
-x,-y,z
1/2-x,y,z
1/2+x,-y,z
x,1/2+y,1/2+z
-x,1/2-y,1/2+z
1/2-x,1/2+y,1/2+z
1/2+x,1/2-y,1/2+z
loop_
_atom_site_type_symbol
_atom_site_label
_atom_site_fract_x
_atom_site_fract_y
_atom_site_fract_z
Si Si1 0.750000 0.752788 0.268721
Si Si2 0.250000 0.351712 0.797906
Si Si3 0.750000 0.764987 0.983368
Si Si4 0.750000 0.855075 0.425240
Si Si5 0.250000 0.739053 0.144085
Si Si6 0.022943 0.684870 0.323870
Si Si7 0.973538 0.071328 0.431085
Si Si8 0.907533 0.560232 0.216568
O O1 0.750000 0.741881 0.122406
O O2 0.750000 0.825774 0.289434
O O3 0.614413 0.723768 0.325168
O O4 0.250000 0.312938 0.668722
O O5 0.119788 0.393416 0.831267
O O6 0.250000 0.295640 0.896989
O O7 0.883855 0.803853 0.944726
O O8 0.750000 0.794983 0.513289
O O9 0.616999 0.894876 0.445243
O O10 0.118149 0.711844 0.214568
O O11 0.978446 0.616123 0.289567
O O12 0.908120 0.073682 0.568463
O O13 0.000000 0.000000 0.398844
O O14 0.750000 0.552354 0.254411
O O15 0.000000 0.500000 0.233931
#
# Coordination Sequence:
#
# PCOD9363574 Si02
#       8
#     4   4   4   4   4   8   8   8
#     4  12  24  39  63  90 123 169 211 256 318 380
#     4  10  19  40  54  84 122 170 196 254 325 371
#     4  10  24  39  61  88 127 167 206 262 321 384
#     4  12  23  36  59  97 119 155 217 256 312 386
#     4  10  22  34  61  85 127 163 200 258 318 377
#     4  10  21  39  58  88 125 161 202 261 317 375
#     4  11  22  35  58  89 129 164 206 261 316 373
#     4  11  22  34  60  90 126 162 206 265 317 374
#
# _framework density 19.110264000000001
#
# number of rings (size 3 to 8) (size 9 to 14) (size 15 to 20)
#    0.000    1.455    3.636    3.818    8.909    0.000 
#    0.000    0.000    0.000    1.091    4.727    0.000 
#    0.000    0.000    0.000    0.000    0.000    0.000 
#
# Total GULP energy -122805.960361 kJ/mol
# GULP energy per Si atom -5582.089107 kJ/mol
# Density = 1.906677 g / cm^3
# Si number density = 19.110264 Si / 1000 Ang^3
#
#
#
# Elastic Constant Matrix: (Units=GPa)
#
#
# Indices 1 2 3 4 5 6 
#
# 1 181.6293 70.0076 24.0414 0.0000 0.0000 0.0000
# 2 70.0076 141.1044 28.1101 0.0000 0.0000 0.0000
# 3 24.0414 28.1101 19.2644 0.0000 0.0000 0.0000
# 4 0.0000 0.0000 0.0000 24.1884 0.0000 0.0000
# 5 0.0000 0.0000 0.0000 0.0000 -517.8503 0.0000
# 6 0.0000 0.0000 0.0000 0.0000 0.0000 -84.0651
#
#
#
# Elastic Compliance Matrix: (Units=1/GPa)
#
#
# Indices 1 2 3 4 5 6 
#
# 1 0.007172 -0.002503 -0.005298 0.000000 0.000000 0.000000
# 2 -0.002503 0.010865 -0.012730 0.000000 0.000000 0.000000
# 3 -0.005298 -0.012730 0.077097 0.000000 0.000000 0.000000
# 4 0.000000 0.000000 0.000000 0.041342 0.000000 0.000000
# 5 0.000000 0.000000 0.000000 0.000000 -0.001931 0.000000
# 6 0.000000 0.000000 0.000000 0.000000 0.000000 -0.011896
#
#
# Mechanical properties :
#
#
# Convention : Reuss Voigt Hill
#
# Bulk Modulus (GPa) = 18.49417 65.14626 41.82021
# Shear Modulus (GPa) = 27.51265 -100.88948 -36.68841
#
# Velocity S-wave (km/s) = 3.79843 -7.27379 -4.38634
# Velocity P-wave (km/s) = 5.37922 6.03161 1.92928
#
# Compressibility (1/GPa) = 0.05407110
#
# Stress axis : x y z
#
# Youngs Moduli (GPa) = 139.43781 92.04152 12.97069
#
# Poissons Ratio (x) = 0.23035 0.06872
# Poissons Ratio (y) = 0.34897 0.16512
# Poissons Ratio (z) = 0.73877 1.17170
#
# Static dielectric constant tensor:
#      x y z
#    x 1.671440 0.000000 0.000000 
#    y 0.000000 1.663410 0.000000 
#    z 0.000000 0.000000 1.680480 
# 
# From -- ./inp_files/10220.got.cif
#   From: 2010.05.17/outbox.cif.g08.bks.cpg/sg40_6_cif.got.tgz:10220.got - 2010.06.03 18:35:42.
