data_PCOD9363441
_publ_section_title
;
Structure prediction by ZEFSAII (Michael W. Deem and Ramdas Pophale) SiO2 
 PCOD9363441
Probable space group: A M A 2
;
_chemical_formula_sum "Si O2"
_cell_formula_units_Z 64
_cell_length_a 7.789165
_cell_length_b 29.327928
_cell_length_c 13.474016
_cell_angle_alpha 90.000000
_cell_angle_beta 90.000000
_cell_angle_gamma 90.000000
_cell_volume 3078.005162
_symmetry_space_group_name_H-M "A M A 2"
_symmetry_group_IT_number 40
_symmetry_cell_setting 'orthorhombic'
loop_
_space_group_symop_operation_xyz
x,y,z
-x,-y,z
1/2-x,y,z
1/2+x,-y,z
x,1/2+y,1/2+z
-x,1/2-y,1/2+z
1/2-x,1/2+y,1/2+z
1/2+x,1/2-y,1/2+z
loop_
_atom_site_type_symbol
_atom_site_label
_atom_site_fract_x
_atom_site_fract_y
_atom_site_fract_z
Si Si1 0.458684 0.750664 0.951280
Si Si2 0.546806 0.380071 0.675461
Si Si3 0.457115 0.220474 0.230972
Si Si4 0.447883 0.385112 0.250715
Si Si5 0.045991 0.446747 0.853248
Si Si6 0.457176 0.946745 0.572867
Si Si7 0.454047 0.853903 0.962321
Si Si8 0.055288 0.194589 0.617119
O O1 0.250000 0.749833 0.962674
O O2 0.495909 0.741067 0.837566
O O3 0.522480 0.801919 0.976142
O O4 0.522213 0.705638 0.009982
O O5 0.250000 0.622319 0.664620
O O6 0.486435 0.331376 0.718077
O O7 0.510014 0.418322 0.757345
O O8 0.478349 0.382658 0.562753
O O9 0.250000 0.223153 0.215453
O O10 0.551717 0.253740 0.156237
O O11 0.250000 0.399294 0.266061
O O12 0.524666 0.419858 0.169333
O O13 0.523619 0.376620 0.360532
O O14 0.453770 0.337158 0.192029
O O15 0.250000 0.443208 0.857704
O O16 0.000000 0.500000 0.842433
O O17 0.979277 0.431376 0.962941
O O18 0.250000 0.941150 0.572689
O O19 0.500000 0.000000 0.581196
O O20 0.250000 0.848383 0.946136
O O21 0.250000 0.177036 0.612464
#
# Coordination Sequence:
#
# PCOD9363441 Si02
#       8
#     8   8   8   8   8   8   8   8
#     4   9  18  33  50  71 104 149 190 226 277 330
#     4  11  23  36  57  86 116 149 192 237 281 335
#     4  10  20  36  53  73 108 152 191 229 276 335
#     4  10  21  38  58  81 111 151 191 228 284 343
#     4  10  21  40  64  88 116 144 179 228 284 342
#     4   9  20  39  63  89 114 142 180 227 282 341
#     4  10  19  36  58  75 110 158 194 229 277 335
#     4  11  21  32  51  79 109 143 190 238 277 327
#
# _framework density 20.79269
#
# number of rings (size 3 to 8) (size 9 to 14) (size 15 to 20)
#    0.000    2.000    2.500    1.125    1.750    2.000 
#    0.000    1.875    0.000    1.500    0.000    0.000 
#    0.000    0.000    0.000    0.000    0.000    0.000 
#
# Total GULP energy -178395.360173 kJ/mol
# GULP energy per Si atom -5574.855005 kJ/mol
# Density = 2.074536 g / cm^3
# Si number density = 20.792690 Si / 1000 Ang^3
#
#
#
# Elastic Constant Matrix: (Units=GPa)
#
#
# Indices 1 2 3 4 5 6 
#
# 1 26.1332 -6.8297 2.5982 0.0000 0.0000 0.0000
# 2 -6.8297 70.7783 54.0647 0.0000 0.0000 0.0000
# 3 2.5982 54.0647 143.5929 0.0000 0.0000 0.0000
# 4 0.0000 0.0000 0.0000 37.6490 0.0000 0.0000
# 5 0.0000 0.0000 0.0000 0.0000 9.0665 0.0000
# 6 0.0000 0.0000 0.0000 0.0000 0.0000 20.6985
#
#
#
# Elastic Compliance Matrix: (Units=1/GPa)
#
#
# Indices 1 2 3 4 5 6 
#
# 1 0.040198 0.006225 -0.003071 0.000000 0.000000 0.000000
# 2 0.006225 0.020796 -0.007943 0.000000 0.000000 0.000000
# 3 -0.003071 -0.007943 0.010010 0.000000 0.000000 0.000000
# 4 0.000000 0.000000 0.000000 0.026561 0.000000 0.000000
# 5 0.000000 0.000000 0.000000 0.000000 0.110296 0.000000
# 6 0.000000 0.000000 0.000000 0.000000 0.000000 0.048313
#
#
# Mechanical properties :
#
#
# Convention : Reuss Voigt Hill
#
# Bulk Modulus (GPa) = 16.27971 37.79674 27.03823
# Shear Modulus (GPa) = 17.46860 26.19421 21.83141
#
# Velocity S-wave (km/s) = 2.90165 3.55319 3.24382
# Velocity P-wave (km/s) = 4.36722 5.92038 5.20209
#
# Compressibility (1/GPa) = 0.06142614
#
# Stress axis : x y z
#
# Youngs Moduli (GPa) = 24.87707 48.08520 99.89749
#
# Poissons Ratio (x) = -0.29932 0.30679
# Poissons Ratio (y) = -0.15485 0.79346
# Poissons Ratio (z) = 0.07640 0.38193
#
# Static dielectric constant tensor:
#      x y z
#    x 1.752570 0.000000 0.000000 
#    y 0.000000 1.722080 0.000000 
#    z 0.000000 0.000000 1.812850 
# 
# From -- ./inp_files/15621.got.cif
#   From: 2010.05.17/outbox.cif.g08.bks.cpg/sg40_8_cif.got.tgz:15621.got - 2010.06.03 18:35:42.
