data_PCOD9363973
_publ_section_title
;
Structure prediction by ZEFSAII (Michael W. Deem and Ramdas Pophale) SiO2 
 PCOD9363973
Probable space group: A M A 2
;
_chemical_formula_sum "Si O2"
_cell_formula_units_Z 48
_cell_length_a 14.125899
_cell_length_b 29.241801
_cell_length_c 5.270526
_cell_angle_alpha 90.000000
_cell_angle_beta 90.000000
_cell_angle_gamma 90.000000
_cell_volume 2177.078927
_symmetry_space_group_name_H-M "A M A 2"
_symmetry_group_IT_number 40
_symmetry_cell_setting 'orthorhombic'
loop_
_space_group_symop_operation_xyz
x,y,z
-x,-y,z
1/2-x,y,z
1/2+x,-y,z
x,1/2+y,1/2+z
-x,1/2-y,1/2+z
1/2-x,1/2+y,1/2+z
1/2+x,1/2-y,1/2+z
loop_
_atom_site_type_symbol
_atom_site_label
_atom_site_fract_x
_atom_site_fract_y
_atom_site_fract_z
Si Si1 0.750000 0.815268 0.432521
Si Si2 0.750000 0.455307 0.954182
Si Si3 0.460246 0.774108 0.301311
Si Si4 0.250000 0.105376 0.935678
Si Si5 0.750000 0.752907 0.923105
Si Si6 0.899028 0.024012 0.692260
Si Si7 0.078627 0.138604 0.187317
Si Si8 0.451398 0.949865 0.206251
O O1 0.750000 0.788227 0.690782
O O2 0.844666 0.845660 0.397734
O O3 0.750000 0.778701 0.195925
O O4 0.750000 0.417738 0.168876
O O5 0.836350 0.487114 0.044805
O O6 0.750000 0.433066 0.671118
O O7 0.517066 0.758261 0.556383
O O8 0.349863 0.773348 0.382563
O O9 0.498988 0.822949 0.203695
O O10 0.154876 0.134598 0.962648
O O11 0.906777 0.062324 0.477909
O O12 0.879244 0.044182 0.970534
O O13 0.000000 0.000000 0.737137
O O14 0.029754 0.089092 0.173456
O O15 0.500000 0.000000 0.234819
#
# Coordination Sequence:
#
# PCOD9363973 Si02
#       8
#     4   4   8   4   4   8   8   8
#     4  11  24  40  72 104 132 167 231 302 350 408
#     4  12  22  41  64  93 125 182 224 294 341 378
#     4  12  25  44  73  99 142 187 224 291 366 422
#     4  11  24  36  64  99 135 156 232 296 340 394
#     4  12  22  47  68 104 140 173 231 286 357 424
#     4  10  20  36  58  84 121 170 216 260 330 393
#     4  11  24  42  67 105 134 180 229 285 352 412
#     4  10  21  38  60  87 132 172 215 266 324 396
#
# _framework density 22.047892999999998
#
# number of rings (size 3 to 8) (size 9 to 14) (size 15 to 20)
#    0.000    1.000    3.333    5.000    0.000    6.667 
#    0.000    1.667    0.000    0.000    0.000    0.000 
#    0.000    0.000    0.000    0.000    0.000    0.000 
#
# Total GULP energy -133643.235468 kJ/mol
# GULP energy per Si atom -5568.468145 kJ/mol
# Density = 2.199771 g / cm^3
# Si number density = 22.047893 Si / 1000 Ang^3
#
#
#
# Elastic Constant Matrix: (Units=GPa)
#
#
# Indices 1 2 3 4 5 6 
#
# 1 121.8861 56.6092 9.7766 0.0000 0.0000 0.0000
# 2 56.6092 106.0386 14.6690 0.0000 0.0000 0.0000
# 3 9.7766 14.6690 117.0820 0.0000 0.0000 0.0000
# 4 0.0000 0.0000 0.0000 -69.3579 0.0000 0.0000
# 5 0.0000 0.0000 0.0000 0.0000 9.6230 0.0000
# 6 0.0000 0.0000 0.0000 0.0000 0.0000 45.9179
#
#
#
# Elastic Compliance Matrix: (Units=1/GPa)
#
#
# Indices 1 2 3 4 5 6 
#
# 1 0.010913 -0.005801 -0.000185 0.000000 0.000000 0.000000
# 2 -0.005801 0.012680 -0.001104 0.000000 0.000000 0.000000
# 3 -0.000185 -0.001104 0.008695 0.000000 0.000000 0.000000
# 4 0.000000 0.000000 0.000000 -0.014418 0.000000 0.000000
# 5 0.000000 0.000000 0.000000 0.000000 0.103918 0.000000
# 6 0.000000 0.000000 0.000000 0.000000 0.000000 0.021778
#
#
# Mechanical properties :
#
#
# Convention : Reuss Voigt Hill
#
# Bulk Modulus (GPa) = 55.22056 56.34627 55.78341
# Shear Modulus (GPa) = 30.52852 14.83338 22.68095
#
# Velocity S-wave (km/s) = 3.72512 2.59661 3.21084
# Velocity P-wave (km/s) = 6.60319 5.88232 6.25315
#
# Compressibility (1/GPa) = 0.01810920
#
# Stress axis : x y z
#
# Youngs Moduli (GPa) = 91.63216 78.86478 115.01143
#
# Poissons Ratio (x) = 0.45746 0.02122
# Poissons Ratio (y) = 0.53152 0.12701
# Poissons Ratio (z) = 0.01691 0.08709
#
# Static dielectric constant tensor:
#      x y z
#    x 1.073420 0.000000 0.000000 
#    y 0.000000 2.067480 0.000000 
#    z 0.000000 0.000000 1.905130 
# 
# From -- ./inp_files/1388.got.cif
#   From: 2010.05.17/outbox.cif.g08.bks.cpg/sg40_1_cif.got.tgz:1388.got - 2010.06.03 18:35:42.
