data_PCOD9363344
_publ_section_title
;
Structure prediction by ZEFSAII (Michael W. Deem and Ramdas Pophale) SiO2 
 PCOD9363344
Probable space group: A M A 2
;
_chemical_formula_sum "Si O2"
_cell_formula_units_Z 28
_cell_length_a 5.618889
_cell_length_b 20.201539
_cell_length_c 10.244665
_cell_angle_alpha 90.000000
_cell_angle_beta 90.000000
_cell_angle_gamma 90.000000
_cell_volume 1162.874027
_symmetry_space_group_name_H-M "A M A 2"
_symmetry_group_IT_number 40
_symmetry_cell_setting 'orthorhombic'
loop_
_space_group_symop_operation_xyz
x,y,z
-x,-y,z
1/2-x,y,z
1/2+x,-y,z
x,1/2+y,1/2+z
-x,1/2-y,1/2+z
1/2-x,1/2+y,1/2+z
1/2+x,1/2-y,1/2+z
loop_
_atom_site_type_symbol
_atom_site_label
_atom_site_fract_x
_atom_site_fract_y
_atom_site_fract_z
Si Si1 0.750000 0.872942 0.725950
Si Si2 0.250000 0.887160 0.123672
Si Si3 0.750000 0.277588 0.852521
Si Si4 0.250000 0.583412 0.710589
Si Si5 0.250000 0.535535 0.001150
Si Si6 0.250000 0.273720 0.844736
Si Si7 0.250000 0.867337 0.824615
O O1 0.750000 0.894422 0.575668
O O2 0.750000 0.796422 0.770054
O O3 0.498940 0.899821 0.782984
O O4 0.498968 0.925833 0.138865
O O5 0.250000 0.832426 0.238549
O O6 0.250000 0.857710 0.979792
O O7 0.750000 0.339066 0.753839
O O8 0.495537 0.278837 0.923544
O O9 0.750000 0.208377 0.772855
O O10 0.250000 0.544493 0.846083
O O11 0.500000 0.500000 0.034956
#
# Coordination Sequence:
#
# PCOD9363344 Si02
#       7
#     4   4   4   4   4   4   4
#     4  10  21  38  58  85 119 155 199 247 294 340
#     4  10  19  34  60  91 124 154 184 230 301 378
#     4   8  16  30  50  82 118 154 184 218 280 358
#     4  10  21  38  58  85 119 155 199 247 294 340
#     4  12  26  44  66  84 110 160 214 264 294 330
#     4   8  16  30  50  82 118 154 184 218 280 358
#     4  10  19  34  60  91 124 154 184 230 301 378
#
# _framework density 24.078277
#
# number of rings (size 3 to 8) (size 9 to 14) (size 15 to 20)
#    0.000    2.286    0.000    2.571    2.000    0.000 
#    0.000    0.000    0.000   17.143    0.000    0.000 
#    0.000    0.000    0.000    0.000    0.000    0.000 
#
# Total GULP energy -78065.287531 kJ/mol
# GULP energy per Si atom -5576.091966 kJ/mol
# Density = 2.402347 g / cm^3
# Si number density = 24.078277 Si / 1000 Ang^3
#
#
#
# Elastic Constant Matrix: (Units=GPa)
#
#
# Indices 1 2 3 4 5 6 
#
# 1 325.1944 33.4887 25.6233 0.0000 0.0000 0.0000
# 2 33.4887 72.4988 28.7356 0.0000 0.0000 0.0000
# 3 25.6233 28.7356 19.8174 0.0000 0.0000 0.0000
# 4 0.0000 0.0000 0.0000 16.7435 0.0000 0.0000
# 5 0.0000 0.0000 0.0000 0.0000 -22.6695 0.0000
# 6 0.0000 0.0000 0.0000 0.0000 0.0000 26.3311
#
#
#
# Elastic Compliance Matrix: (Units=1/GPa)
#
#
# Indices 1 2 3 4 5 6 
#
# 1 0.003429 0.000408 -0.005025 0.000000 0.000000 0.000000
# 2 0.000408 0.032483 -0.047628 0.000000 0.000000 0.000000
# 3 -0.005025 -0.047628 0.126019 0.000000 0.000000 0.000000
# 4 0.000000 0.000000 0.000000 0.059725 0.000000 0.000000
# 5 0.000000 0.000000 0.000000 0.000000 -0.044112 0.000000
# 6 0.000000 0.000000 0.000000 0.000000 0.000000 0.037978
#
#
# Mechanical properties :
#
#
# Convention : Reuss Voigt Hill
#
# Bulk Modulus (GPa) = 17.40920 65.91175 41.66048
# Shear Modulus (GPa) = 14.74241 26.05854 20.40047
#
# Velocity S-wave (km/s) = 2.47709 3.29331 2.91392
# Velocity P-wave (km/s) = 3.92776 6.47260 5.35359
#
# Compressibility (1/GPa) = 0.05744089
#
# Stress axis : x y z
#
# Youngs Moduli (GPa) = 291.62834 30.78559 7.93532
#
# Poissons Ratio (x) = -0.01255 0.03987
# Poissons Ratio (y) = -0.11889 0.37794
# Poissons Ratio (z) = 1.46537 1.46625
#
# Static dielectric constant tensor:
#      x y z
#    x 2.052060 0.000000 0.000000 
#    y 0.000000 1.961420 0.000000 
#    z 0.000000 0.000000 1.809660 
# 
# From -- ./inp_files/3629.got.cif
#   From: 2010.05.17/outbox.cif.g08.bks.cpg/sg40_2_cif.got.tgz:3629.got - 2010.06.03 18:35:42.
