data_PCOD9363741
_publ_section_title
;
Structure prediction by ZEFSAII (Michael W. Deem and Ramdas Pophale) SiO2 
 PCOD9363741
Probable space group: A M A 2
;
_chemical_formula_sum "Si O2"
_cell_formula_units_Z 64
_cell_length_a 9.106531
_cell_length_b 14.797452
_cell_length_c 24.253823
_cell_angle_alpha 90.000000
_cell_angle_beta 90.000000
_cell_angle_gamma 90.000000
_cell_volume 3268.286455
_symmetry_space_group_name_H-M "A M A 2"
_symmetry_group_IT_number 40
_symmetry_cell_setting 'orthorhombic'
loop_
_space_group_symop_operation_xyz
x,y,z
-x,-y,z
1/2-x,y,z
1/2+x,-y,z
x,1/2+y,1/2+z
-x,1/2-y,1/2+z
1/2-x,1/2+y,1/2+z
1/2+x,1/2-y,1/2+z
loop_
_atom_site_type_symbol
_atom_site_label
_atom_site_fract_x
_atom_site_fract_y
_atom_site_fract_z
Si Si1 0.419262 0.591609 0.642070
Si Si2 0.425158 0.213521 0.648068
Si Si3 0.408329 0.611847 0.771791
Si Si4 0.072735 0.404800 0.379315
Si Si5 0.926363 0.770243 0.441094
Si Si6 0.917122 0.173286 0.760451
Si Si7 0.918279 0.086520 0.371155
Si Si8 0.925866 0.402104 0.039900
O O1 0.500000 0.500000 0.621434
O O2 0.250000 0.596160 0.622404
O O3 0.500411 0.688629 0.634370
O O4 0.412771 0.583251 0.708635
O O5 0.250000 0.227893 0.652219
O O6 0.486045 0.171401 0.705183
O O7 0.455391 0.142654 0.599267
O O8 0.250000 0.583036 0.797169
O O9 0.407265 0.720073 0.772118
O O10 0.550792 0.584172 0.805938
O O11 0.250000 0.410431 0.378690
O O12 0.031196 0.332153 0.426572
O O13 0.029345 0.372746 0.317117
O O14 0.000000 0.500000 0.390604
O O15 0.750000 0.773851 0.439027
O O16 0.972904 0.825381 0.495471
O O17 0.995582 0.827295 0.392002
O O18 0.750000 0.140966 0.748869
O O19 0.750000 0.089045 0.385728
O O20 0.000000 0.000000 0.395841
O O21 0.750000 0.413851 0.034007
O O22 0.000000 0.500000 0.033205
#
# Coordination Sequence:
#
# PCOD9363741 Si02
#       8
#     8   8   8   8   8   8   8   8
#     4  10  20  34  54  81 115 158 200 242 291 347
#     4  10  21  37  58  88 121 156 199 249 300 357
#     4   9  17  32  51  74 109 150 193 233 283 341
#     4  10  21  38  61  87 119 155 194 240 293 353
#     4  10  21  42  63  81 114 154 192 243 296 347
#     4   9  18  35  57  82 115 159 198 237 292 348
#     4  12  23  32  49  79 112 148 190 234 286 347
#     4  10  23  42  66  90 116 153 198 247 303 356
#
# _framework density 19.582128000000001
#
# number of rings (size 3 to 8) (size 9 to 14) (size 15 to 20)
#    0.000    2.000    1.250    3.375    0.000    7.500 
#    0.000    3.125    0.000    1.500    0.000    0.000 
#    0.000    0.000    0.000    0.000    0.000    0.000 
#
# Total GULP energy -178394.499694 kJ/mol
# GULP energy per Si atom -5574.828115 kJ/mol
# Density = 1.953756 g / cm^3
# Si number density = 19.582128 Si / 1000 Ang^3
#
#
#
# Elastic Constant Matrix: (Units=GPa)
#
#
# Indices 1 2 3 4 5 6 
#
# 1 37.5430 45.4972 39.1875 0.0000 0.0000 0.0000
# 2 45.4972 145.1063 52.0039 0.0000 0.0000 0.0000
# 3 39.1875 52.0039 88.5664 0.0000 0.0000 0.0000
# 4 0.0000 0.0000 0.0000 24.1809 0.0000 0.0000
# 5 0.0000 0.0000 0.0000 0.0000 38.7931 0.0000
# 6 0.0000 0.0000 0.0000 0.0000 0.0000 34.0117
#
#
#
# Elastic Compliance Matrix: (Units=1/GPa)
#
#
# Indices 1 2 3 4 5 6 
#
# 1 0.063331 -0.012430 -0.020723 0.000000 0.000000 0.000000
# 2 -0.012430 0.011168 -0.001058 0.000000 0.000000 0.000000
# 3 -0.020723 -0.001058 0.021081 0.000000 0.000000 0.000000
# 4 0.000000 0.000000 0.000000 0.041355 0.000000 0.000000
# 5 0.000000 0.000000 0.000000 0.000000 0.025778 0.000000
# 6 0.000000 0.000000 0.000000 0.000000 0.000000 0.029402
#
#
# Mechanical properties :
#
#
# Convention : Reuss Voigt Hill
#
# Bulk Modulus (GPa) = 36.82116 60.51032 48.66574
# Shear Modulus (GPa) = 18.54680 28.36560 23.45620
#
# Velocity S-wave (km/s) = 3.08088 3.81010 3.46473
# Velocity P-wave (km/s) = 5.61249 7.09392 6.39624
#
# Compressibility (1/GPa) = 0.02715830
#
# Stress axis : x y z
#
# Youngs Moduli (GPa) = 15.79015 89.54206 47.43578
#
# Poissons Ratio (x) = 1.11302 0.98301
# Poissons Ratio (y) = 0.19627 0.05017
# Poissons Ratio (z) = 0.32722 0.09470
#
# Static dielectric constant tensor:
#      x y z
#    x 1.686450 0.000000 0.000000 
#    y 0.000000 1.688350 0.000000 
#    z 0.000000 0.000000 1.731300 
# 
# From -- ./inp_files/24331.got.cif
#   From: 2010.05.17/outbox.cif.g08.bks.cpg/sg40_13_cif.got.tgz:24331.got - 2010.06.03 18:35:42.
