data_PCOD9363950
_publ_section_title
;
Structure prediction by ZEFSAII (Michael W. Deem and Ramdas Pophale) SiO2 
 PCOD9363950
Probable space group: A M A 2
;
_chemical_formula_sum "Si O2"
_cell_formula_units_Z 48
_cell_length_a 7.704910
_cell_length_b 31.958109
_cell_length_c 9.337861
_cell_angle_alpha 90.000000
_cell_angle_beta 90.000000
_cell_angle_gamma 90.000000
_cell_volume 2299.302167
_symmetry_space_group_name_H-M "A M A 2"
_symmetry_group_IT_number 40
_symmetry_cell_setting 'orthorhombic'
loop_
_space_group_symop_operation_xyz
x,y,z
-x,-y,z
1/2-x,y,z
1/2+x,-y,z
x,1/2+y,1/2+z
-x,1/2-y,1/2+z
1/2-x,1/2+y,1/2+z
1/2+x,1/2-y,1/2+z
loop_
_atom_site_type_symbol
_atom_site_label
_atom_site_fract_x
_atom_site_fract_y
_atom_site_fract_z
Si Si1 0.958905 0.046668 0.381460
Si Si2 0.543615 0.292598 0.867112
Si Si3 0.536879 0.128733 0.876131
Si Si4 0.045166 0.375808 0.699808
Si Si5 0.541738 0.046653 0.708993
Si Si6 0.459324 0.289735 0.201990
O O1 0.750000 0.050539 0.388296
O O2 0.027520 0.083617 0.281282
O O3 0.024489 0.050359 0.545282
O O4 0.000000 0.000000 0.329287
O O5 0.750000 0.293633 0.848870
O O6 0.473869 0.335027 0.797630
O O7 0.476029 0.251797 0.782885
O O8 0.505104 0.289726 0.035207
O O9 0.750000 0.129404 0.874840
O O10 0.480080 0.085068 0.805280
O O11 0.479408 0.168354 0.782205
O O12 0.476350 0.131692 0.040098
O O13 0.250000 0.383764 0.681313
O O14 0.750000 0.049799 0.703353
O O15 0.500000 0.000000 0.762123
O O16 0.250000 0.289671 0.211716
#
# Coordination Sequence:
#
# PCOD9363950 Si02
#       6
#     8   8   8   8   8   8
#     4   9  18  32  52  76 104 142 183 223 268 317
#     4  11  23  37  57  85 111 138 177 224 269 316
#     4   9  18  34  56  78 102 139 184 219 255 318
#     4  10  20  36  57  79 108 147 183 218 269 326
#     4   9  17  31  50  73 101 134 176 220 262 312
#     4  10  21  38  58  79 107 142 178 218 266 321
#
# _framework density 20.875900000000001
#
# number of rings (size 3 to 8) (size 9 to 14) (size 15 to 20)
#    0.000    2.333    0.000    2.500    0.000    6.667 
#    0.000    5.833    0.000    0.000    0.000    0.000 
#    0.000    0.000    0.000    0.000    0.000    0.000 
#
# Total GULP energy -134048.981667 kJ/mol
# GULP energy per Si atom -5585.374236 kJ/mol
# Density = 2.082839 g / cm^3
# Si number density = 20.875900 Si / 1000 Ang^3
#
#
#
# Elastic Constant Matrix: (Units=GPa)
#
#
# Indices 1 2 3 4 5 6 
#
# 1 26.5175 -16.3057 -13.1639 0.0000 0.0000 0.0000
# 2 -16.3057 176.2584 100.2254 0.0000 0.0000 0.0000
# 3 -13.1639 100.2254 154.3526 0.0000 0.0000 0.0000
# 4 0.0000 0.0000 0.0000 33.3178 0.0000 0.0000
# 5 0.0000 0.0000 0.0000 0.0000 16.8132 0.0000
# 6 0.0000 0.0000 0.0000 0.0000 0.0000 18.8190
#
#
#
# Elastic Compliance Matrix: (Units=1/GPa)
#
#
# Indices 1 2 3 4 5 6 
#
# 1 0.040236 0.002808 0.001608 0.000000 0.000000 0.000000
# 2 0.002808 0.009190 -0.005728 0.000000 0.000000 0.000000
# 3 0.001608 -0.005728 0.010335 0.000000 0.000000 0.000000
# 4 0.000000 0.000000 0.000000 0.030014 0.000000 0.000000
# 5 0.000000 0.000000 0.000000 0.000000 0.059477 0.000000
# 6 0.000000 0.000000 0.000000 0.000000 0.000000 0.053138
#
#
# Mechanical properties :
#
#
# Convention : Reuss Voigt Hill
#
# Bulk Modulus (GPa) = 17.50168 55.40445 36.45307
# Shear Modulus (GPa) = 22.31545 32.88153 27.59849
#
# Velocity S-wave (km/s) = 3.27304 3.97305 3.63991
# Velocity P-wave (km/s) = 4.76294 6.90249 5.93001
#
# Compressibility (1/GPa) = 0.05713736
#
# Stress axis : x y z
#
# Youngs Moduli (GPa) = 24.85346 108.80930 96.75608
#
# Poissons Ratio (x) = -0.30550 -0.15562
# Poissons Ratio (y) = -0.06978 0.55423
# Poissons Ratio (z) = -0.03997 0.62327
#
# Static dielectric constant tensor:
#      x y z
#    x 1.783940 0.000000 0.000000 
#    y 0.000000 1.727070 0.000000 
#    z 0.000000 0.000000 1.721260 
# 
# From -- ./inp_files/4591.got.cif
#   From: 2010.05.17/outbox.cif.g08.bks.cpg/sg40_3_cif.got.tgz:4591.got - 2010.06.03 18:35:42.
