data_PCOD9363800
_publ_section_title
;
Structure prediction by ZEFSAII (Michael W. Deem and Ramdas Pophale) SiO2 
 PCOD9363800
Probable space group: A M A 2
;
_chemical_formula_sum "Si O2"
_cell_formula_units_Z 60
_cell_length_a 9.197797
_cell_length_b 30.639959
_cell_length_c 11.249946
_cell_angle_alpha 90.000000
_cell_angle_beta 90.000000
_cell_angle_gamma 90.000000
_cell_volume 3170.461165
_symmetry_space_group_name_H-M "A M A 2"
_symmetry_group_IT_number 40
_symmetry_cell_setting 'orthorhombic'
loop_
_space_group_symop_operation_xyz
x,y,z
-x,-y,z
1/2-x,y,z
1/2+x,-y,z
x,1/2+y,1/2+z
-x,1/2-y,1/2+z
1/2-x,1/2+y,1/2+z
1/2+x,1/2-y,1/2+z
loop_
_atom_site_type_symbol
_atom_site_label
_atom_site_fract_x
_atom_site_fract_y
_atom_site_fract_z
Si Si1 0.420742 0.294316 0.420750
Si Si2 0.422080 0.120717 0.026604
Si Si3 0.920028 0.658074 0.176147
Si Si4 0.916742 0.577603 0.325069
Si Si5 0.084871 0.541556 0.930591
Si Si6 0.000000 0.500000 0.167929
Si Si7 0.922996 0.372022 0.803272
Si Si8 0.425738 0.798330 0.435385
O O1 0.250000 0.290721 0.452465
O O2 0.495729 0.334691 0.488895
O O3 0.428741 0.306682 0.281130
O O4 0.506166 0.249574 0.438640
O O5 0.250000 0.125156 0.003431
O O6 0.442158 0.113645 0.166852
O O7 0.489359 0.082799 0.943870
O O8 0.750000 0.648956 0.151877
O O9 0.979203 0.613757 0.233190
O O10 0.979418 0.676650 0.054370
O O11 0.750000 0.590059 0.354321
O O12 0.916282 0.532186 0.255852
O O13 0.250000 0.540120 0.889426
O O14 0.026747 0.588429 0.889688
O O15 0.000000 0.500000 0.878469
O O16 0.079922 0.531498 0.072157
O O17 0.750000 0.363915 0.822800
O O18 0.012045 0.328205 0.829881
O O19 0.250000 0.795938 0.432615
#
# Coordination Sequence:
#
# PCOD9363800 Si02
#       8
#     8   8   8   8   8   4   8   8
#     4  10  21  39  59  83 117 156 194 239 294 346
#     4  10  22  40  61  82 117 159 198 242 290 347
#     4   8  18  36  56  78 111 148 186 235 289 340
#     4  10  20  38  61  85 114 154 194 239 295 344
#     4   9  20  37  60  87 117 152 191 239 293 347
#     4  10  20  34  64  90 122 146 192 236 292 348
#     4  10  22  41  59  83 120 159 193 237 297 349
#     4  11  22  35  58  90 116 149 197 240 288 348
#
# _framework density 18.924692
#
# number of rings (size 3 to 8) (size 9 to 14) (size 15 to 20)
#    0.400    1.867    0.000    3.200    1.867    2.667 
#    1.200    7.333    0.000    0.000    0.000    0.000 
#    0.000    0.000    0.000    0.000    0.000    0.000 
#
# Total GULP energy -167100.644096 kJ/mol
# GULP energy per Si atom -5570.021470 kJ/mol
# Density = 1.888162 g / cm^3
# Si number density = 18.924692 Si / 1000 Ang^3
#
#
#
# Elastic Constant Matrix: (Units=GPa)
#
#
# Indices 1 2 3 4 5 6 
#
# 1 76.8978 31.3305 29.2647 0.0000 0.0000 0.0000
# 2 31.3305 79.2904 30.0625 0.0000 0.0000 0.0000
# 3 29.2647 30.0625 77.5725 0.0000 0.0000 0.0000
# 4 0.0000 0.0000 0.0000 14.7451 0.0000 0.0000
# 5 0.0000 0.0000 0.0000 0.0000 20.7165 0.0000
# 6 0.0000 0.0000 0.0000 0.0000 0.0000 25.7718
#
#
#
# Elastic Compliance Matrix: (Units=1/GPa)
#
#
# Indices 1 2 3 4 5 6 
#
# 1 0.016681 -0.004930 -0.004382 0.000000 0.000000 0.000000
# 2 -0.004930 0.016241 -0.004434 0.000000 0.000000 0.000000
# 3 -0.004382 -0.004434 0.016263 0.000000 0.000000 0.000000
# 4 0.000000 0.000000 0.000000 0.067819 0.000000 0.000000
# 5 0.000000 0.000000 0.000000 0.000000 0.048271 0.000000
# 6 0.000000 0.000000 0.000000 0.000000 0.000000 0.038802
#
#
# Mechanical properties :
#
#
# Convention : Reuss Voigt Hill
#
# Bulk Modulus (GPa) = 46.10026 46.11956 46.10991
# Shear Modulus (GPa) = 20.93806 21.78689 21.36248
#
# Velocity S-wave (km/s) = 3.32985 3.39668 3.36343
# Velocity P-wave (km/s) = 6.26072 6.30921 6.28501
#
# Compressibility (1/GPa) = 0.02169185
#
# Stress axis : x y z
#
# Youngs Moduli (GPa) = 59.95019 61.57272 61.48951
#
# Poissons Ratio (x) = 0.30352 0.26947
# Poissons Ratio (y) = 0.29553 0.27267
# Poissons Ratio (z) = 0.26273 0.27303
#
# Static dielectric constant tensor:
#      x y z
#    x 1.657430 0.000000 0.000000 
#    y 0.000000 1.671390 0.000000 
#    z 0.000000 0.000000 1.672010 
# 
# From -- ./inp_files/10514.got.cif
#   From: 2010.05.17/outbox.cif.g08.bks.cpg/sg40_6_cif.got.tgz:10514.got - 2010.06.03 18:35:42.
