data_PCOD9363984
_publ_section_title
;
Structure prediction by ZEFSAII (Michael W. Deem and Ramdas Pophale) SiO2 
 PCOD9363984
Probable space group: A M A 2
;
_chemical_formula_sum "Si O2"
_cell_formula_units_Z 64
_cell_length_a 8.263302
_cell_length_b 31.600713
_cell_length_c 12.177630
_cell_angle_alpha 90.000000
_cell_angle_beta 90.000000
_cell_angle_gamma 90.000000
_cell_volume 3179.898672
_symmetry_space_group_name_H-M "A M A 2"
_symmetry_group_IT_number 40
_symmetry_cell_setting 'orthorhombic'
loop_
_space_group_symop_operation_xyz
x,y,z
-x,-y,z
1/2-x,y,z
1/2+x,-y,z
x,1/2+y,1/2+z
-x,1/2-y,1/2+z
1/2-x,1/2+y,1/2+z
1/2+x,1/2-y,1/2+z
loop_
_atom_site_type_symbol
_atom_site_label
_atom_site_fract_x
_atom_site_fract_y
_atom_site_fract_z
Si Si1 0.554799 0.045676 0.247710
Si Si2 0.446076 0.370985 0.137334
Si Si3 0.063662 0.700506 0.720386
Si Si4 0.063309 0.709041 0.276771
Si Si5 0.438424 0.830305 0.993939
Si Si6 0.554910 0.545219 0.268286
Si Si7 0.446927 0.428771 0.507115
Si Si8 0.946107 0.128612 0.382688
O O1 0.750000 0.046482 0.245859
O O2 0.495220 0.051959 0.122073
O O3 0.501906 0.085577 0.320817
O O4 0.500000 0.000000 0.289250
O O5 0.250000 0.369601 0.142124
O O6 0.511305 0.330009 0.200113
O O7 0.498765 0.413975 0.198934
O O8 0.494725 0.371373 0.009939
O O9 0.250000 0.692695 0.692287
O O10 0.038268 0.748942 0.753837
O O11 0.959506 0.689938 0.612964
O O12 0.012295 0.668919 0.817421
O O13 0.250000 0.719368 0.257325
O O14 0.036808 0.694016 0.401395
O O15 0.250000 0.829810 0.960370
O O16 0.489542 0.879254 0.002016
O O17 0.500000 0.500000 0.223532
O O18 0.750000 0.546053 0.269804
O O19 0.495943 0.550066 0.394335
O O20 0.250000 0.431030 0.508359
O O21 0.750000 0.130218 0.378120
#
# Coordination Sequence:
#
# PCOD9363984 Si02
#       8
#     8   8   8   8   8   8   8   8
#     4  10  20  36  58  88 121 161 204 254 313 373
#     4  10  22  42  65  88 121 165 213 262 313 369
#     4  12  26  43  65  95 128 165 208 256 313 375
#     4  12  26  43  65  95 128 165 208 256 313 375
#     4  11  21  42  70  94 125 164 207 259 313 368
#     4  10  20  36  58  88 121 161 204 254 313 373
#     4   9  17  34  60  86 119 159 199 248 314 368
#     4  10  22  42  65  88 121 165 213 262 313 369
#
# _framework density 20.126427
#
# number of rings (size 3 to 8) (size 9 to 14) (size 15 to 20)
#    0.000    1.500    2.500    3.000    1.750    2.000 
#    0.000    0.000    0.000    0.000    0.000    0.000 
#    0.000    0.000    0.000    0.000    0.000    0.000 
#
# Total GULP energy -178880.590271 kJ/mol
# GULP energy per Si atom -5590.018446 kJ/mol
# Density = 2.008062 g / cm^3
# Si number density = 20.126427 Si / 1000 Ang^3
#
#
#
# Elastic Constant Matrix: (Units=GPa)
#
#
# Indices 1 2 3 4 5 6 
#
# 1 19.5182 2.4755 4.8534 0.0000 0.0000 0.0000
# 2 2.4755 146.9975 50.3257 0.0000 0.0000 0.0000
# 3 4.8534 50.3257 116.6386 0.0000 0.0000 0.0000
# 4 0.0000 0.0000 0.0000 42.0908 0.0000 0.0000
# 5 0.0000 0.0000 0.0000 0.0000 6.4293 0.0000
# 6 0.0000 0.0000 0.0000 0.0000 0.0000 28.3151
#
#
#
# Elastic Compliance Matrix: (Units=1/GPa)
#
#
# Indices 1 2 3 4 5 6 
#
# 1 0.051773 -0.000158 -0.002086 0.000000 0.000000 0.000000
# 2 -0.000158 0.007982 -0.003438 0.000000 0.000000 0.000000
# 3 -0.002086 -0.003438 0.010144 0.000000 0.000000 0.000000
# 4 0.000000 0.000000 0.000000 0.023758 0.000000 0.000000
# 5 0.000000 0.000000 0.000000 0.000000 0.155537 0.000000
# 6 0.000000 0.000000 0.000000 0.000000 0.000000 0.035317
#
#
# Mechanical properties :
#
#
# Convention : Reuss Voigt Hill
#
# Bulk Modulus (GPa) = 17.08355 44.27374 30.67864
# Shear Modulus (GPa) = 15.85360 30.40034 23.12697
#
# Velocity S-wave (km/s) = 2.80965 3.89069 3.39349
# Velocity P-wave (km/s) = 4.36257 6.49838 5.53448
#
# Compressibility (1/GPa) = 0.05853585
#
# Stress axis : x y z
#
# Youngs Moduli (GPa) = 19.31510 125.27603 98.58528
#
# Poissons Ratio (x) = 0.01975 0.20568
# Poissons Ratio (y) = 0.00304 0.33889
# Poissons Ratio (z) = 0.04030 0.43065
#
# Static dielectric constant tensor:
#      x y z
#    x 1.696870 0.000000 0.000000 
#    y 0.000000 1.680070 0.000000 
#    z 0.000000 0.000000 1.692470 
# 
# From -- ./inp_files/10657.got.cif
#   From: 2010.05.17/outbox.cif.g08.bks.cpg/sg40_6_cif.got.tgz:10657.got - 2010.06.03 18:35:42.
