data_PCOD9363627
_publ_section_title
;
Structure prediction by ZEFSAII (Michael W. Deem and Ramdas Pophale) SiO2 
 PCOD9363627
Probable space group: A M A 2
;
_chemical_formula_sum "Si O2"
_cell_formula_units_Z 44
_cell_length_a 14.855414
_cell_length_b 17.727927
_cell_length_c 8.925684
_cell_angle_alpha 90.000000
_cell_angle_beta 90.000000
_cell_angle_gamma 90.000000
_cell_volume 2350.629713
_symmetry_space_group_name_H-M "A M A 2"
_symmetry_group_IT_number 40
_symmetry_cell_setting 'orthorhombic'
loop_
_space_group_symop_operation_xyz
x,y,z
-x,-y,z
1/2-x,y,z
1/2+x,-y,z
x,1/2+y,1/2+z
-x,1/2-y,1/2+z
1/2-x,1/2+y,1/2+z
1/2+x,1/2-y,1/2+z
loop_
_atom_site_type_symbol
_atom_site_label
_atom_site_fract_x
_atom_site_fract_y
_atom_site_fract_z
Si Si1 0.351830 0.376635 0.787260
Si Si2 0.355716 0.048564 0.259028
Si Si3 0.487460 0.113956 0.505954
Si Si4 0.352542 0.214293 0.675333
Si Si5 0.356066 0.596228 0.435904
Si Si6 0.000000 0.500000 0.264363
O O1 0.250000 0.376787 0.849281
O O2 0.366328 0.459808 0.718922
O O3 0.426454 0.364140 0.911729
O O4 0.358070 0.304210 0.681923
O O5 0.250000 0.060510 0.297059
O O6 0.420865 0.066007 0.397649
O O7 0.378359 0.098388 0.112670
O O8 0.426047 0.181394 0.564635
O O9 0.521154 0.067542 0.649682
O O10 0.250000 0.193402 0.631251
O O11 0.367322 0.172348 0.836762
O O12 0.250000 0.576287 0.427347
O O13 0.417979 0.531897 0.361870
#
# Coordination Sequence:
#
# PCOD9363627 Si02
#       6
#     8   8   8   8   8   4
#     4  10  21  36  56  83 115 147 182 234 286 329
#     4  10  20  36  61  85 111 145 191 238 280 333
#     4  11  20  36  57  87 108 150 193 231 278 340
#     4   9  20  39  58  78 112 149 187 231 289 341
#     4   9  20  36  56  79 108 147 184 228 282 336
#     4  10  20  32  54  82 110 140 186 230 270 328
#
# _framework density 18.718388000000001
#
# number of rings (size 3 to 8) (size 9 to 14) (size 15 to 20)
#    0.000    2.182    1.818    0.545    2.545    2.909 
#    3.273    0.000    0.000    1.091    0.000    0.000 
#    0.000    0.000    0.000    0.000    0.000    0.000 
#
# Total GULP energy -122612.174592 kJ/mol
# GULP energy per Si atom -5573.280663 kJ/mol
# Density = 1.867578 g / cm^3
# Si number density = 18.718388 Si / 1000 Ang^3
#
#
#
# Elastic Constant Matrix: (Units=GPa)
#
#
# Indices 1 2 3 4 5 6 
#
# 1 41.4680 22.3302 13.6973 0.0000 0.0000 0.0000
# 2 22.3302 61.4448 6.4282 0.0000 0.0000 0.0000
# 3 13.6973 6.4282 46.4531 0.0000 0.0000 0.0000
# 4 0.0000 0.0000 0.0000 10.8244 0.0000 0.0000
# 5 0.0000 0.0000 0.0000 0.0000 31.1914 0.0000
# 6 0.0000 0.0000 0.0000 0.0000 0.0000 16.9953
#
#
#
# Elastic Compliance Matrix: (Units=1/GPa)
#
#
# Indices 1 2 3 4 5 6 
#
# 1 0.032751 -0.011052 -0.008128 0.000000 0.000000 0.000000
# 2 -0.011052 0.020243 0.000458 0.000000 0.000000 0.000000
# 3 -0.008128 0.000458 0.023860 0.000000 0.000000 0.000000
# 4 0.000000 0.000000 0.000000 0.092384 0.000000 0.000000
# 5 0.000000 0.000000 0.000000 0.000000 0.032060 0.000000
# 6 0.000000 0.000000 0.000000 0.000000 0.000000 0.058840
#
#
# Mechanical properties :
#
#
# Convention : Reuss Voigt Hill
#
# Bulk Modulus (GPa) = 25.37398 26.03081 25.70240
# Shear Modulus (GPa) = 16.09167 18.92957 17.51062
#
# Velocity S-wave (km/s) = 2.93520 3.18352 3.06187
# Velocity P-wave (km/s) = 5.00722 5.23925 5.12455
#
# Compressibility (1/GPa) = 0.03941045
#
# Stress axis : x y z
#
# Youngs Moduli (GPa) = 30.53331 49.39872 41.91054
#
# Poissons Ratio (x) = 0.54596 0.34064
# Poissons Ratio (y) = 0.33746 -0.01918
# Poissons Ratio (z) = 0.24817 -0.02260
#
# Static dielectric constant tensor:
#      x y z
#    x 1.642920 0.000000 0.000000 
#    y 0.000000 1.657210 0.000000 
#    z 0.000000 0.000000 1.640740 
# 
# From -- ./inp_files/6353.got.cif
#   From: 2010.05.17/outbox.cif.g08.bks.cpg/sg40_4_cif.got.tgz:6353.got - 2010.06.03 18:35:42.
