data_PCOD9363147
_publ_section_title
;
Structure prediction by ZEFSAII (Michael W. Deem and Ramdas Pophale) SiO2 
 PCOD9363147
Probable space group: A M A 2
;
_chemical_formula_sum "Si O2"
_cell_formula_units_Z 56
_cell_length_a 8.485533
_cell_length_b 15.843335
_cell_length_c 20.033635
_cell_angle_alpha 90.000000
_cell_angle_beta 90.000000
_cell_angle_gamma 90.000000
_cell_volume 2693.304700
_symmetry_space_group_name_H-M "A M A 2"
_symmetry_group_IT_number 40
_symmetry_cell_setting 'orthorhombic'
loop_
_space_group_symop_operation_xyz
x,y,z
-x,-y,z
1/2-x,y,z
1/2+x,-y,z
x,1/2+y,1/2+z
-x,1/2-y,1/2+z
1/2-x,1/2+y,1/2+z
1/2+x,1/2-y,1/2+z
loop_
_atom_site_type_symbol
_atom_site_label
_atom_site_fract_x
_atom_site_fract_y
_atom_site_fract_z
Si Si1 0.939173 0.405539 0.403360
Si Si2 0.562436 0.915737 0.665850
Si Si3 0.066027 0.130319 0.525568
Si Si4 0.566303 0.743353 0.815475
Si Si5 0.564301 0.271147 0.678030
Si Si6 0.432597 0.086613 0.378147
Si Si7 0.939428 0.679783 0.536963
O O1 0.750000 0.405851 0.401365
O O2 0.991199 0.330850 0.351026
O O3 0.000000 0.500000 0.387595
O O4 0.992310 0.380347 0.479043
O O5 0.750000 0.919814 0.670503
O O6 0.495112 0.913885 0.589917
O O7 0.506392 0.823473 0.686514
O O8 0.500000 0.000000 0.700535
O O9 0.250000 0.143309 0.543618
O O10 0.065301 0.080199 0.458163
O O11 0.004760 0.225379 0.517898
O O12 0.750000 0.755048 0.798500
O O13 0.476323 0.700773 0.752560
O O14 0.541288 0.667617 0.866979
O O15 0.750000 0.267380 0.666610
O O16 0.489620 0.322100 0.615524
O O17 0.250000 0.101311 0.358895
O O18 0.500000 0.000000 0.348742
O O19 0.750000 0.672360 0.533606
#
# Coordination Sequence:
#
# PCOD9363147 Si02
#       7
#     8   8   8   8   8   8   8
#     4  11  24  41  66  98 131 171 221 273 328 391
#     4  10  19  33  52  81 117 156 198 246 299 362
#     4   8  16  30  53  83 116 152 188 233 291 350
#     4  11  24  43  63  90 126 167 214 267 322 384
#     4  11  23  39  61  87 119 165 211 259 321 385
#     4  11  21  36  58  88 121 158 199 245 304 368
#     4  10  19  38  64  91 124 161 205 259 313 372
#
# _framework density 20.792300999999998
#
# number of rings (size 3 to 8) (size 9 to 14) (size 15 to 20)
#    0.000    1.714    1.429    4.714    0.000    2.286 
#    0.000    3.571    0.000    0.000    0.000    0.000 
#    0.000    0.000    0.000    0.000    0.000    0.000 
#
# Total GULP energy -155870.416104 kJ/mol
# GULP energy per Si atom -5566.800575 kJ/mol
# Density = 2.074498 g / cm^3
# Si number density = 20.792301 Si / 1000 Ang^3
#
#
#
# Elastic Constant Matrix: (Units=GPa)
#
#
# Indices 1 2 3 4 5 6 
#
# 1 72.5218 8.8669 16.9453 0.0000 0.0000 0.0000
# 2 8.8669 74.5025 -3.7281 0.0000 0.0000 0.0000
# 3 16.9453 -3.7281 66.8178 0.0000 0.0000 0.0000
# 4 0.0000 0.0000 0.0000 -21.9765 0.0000 0.0000
# 5 0.0000 0.0000 0.0000 0.0000 25.3771 0.0000
# 6 0.0000 0.0000 0.0000 0.0000 0.0000 29.3959
#
#
#
# Elastic Compliance Matrix: (Units=1/GPa)
#
#
# Indices 1 2 3 4 5 6 
#
# 1 0.014941 -0.001973 -0.003899 0.000000 0.000000 0.000000
# 2 -0.001973 0.013721 0.001266 0.000000 0.000000 0.000000
# 3 -0.003899 0.001266 0.016026 0.000000 0.000000 0.000000
# 4 0.000000 0.000000 0.000000 -0.045503 0.000000 0.000000
# 5 0.000000 0.000000 0.000000 0.000000 0.039406 0.000000
# 6 0.000000 0.000000 0.000000 0.000000 0.000000 0.034018
#
#
# Mechanical properties :
#
#
# Convention : Reuss Voigt Hill
#
# Bulk Modulus (GPa) = 28.18953 28.66782 28.42868
# Shear Modulus (GPa) = 53.39233 19.34316 36.36774
#
# Velocity S-wave (km/s) = 5.07293 3.05340 4.18676
# Velocity P-wave (km/s) = 6.92098 5.12334 6.08887
#
# Compressibility (1/GPa) = 0.03547416
#
# Stress axis : x y z
#
# Youngs Moduli (GPa) = 66.92840 72.88319 62.40016
#
# Poissons Ratio (x) = 0.14383 0.24332
# Poissons Ratio (y) = 0.13207 -0.07900
# Poissons Ratio (z) = 0.26097 -0.09227
#
# Static dielectric constant tensor:
#      x y z
#    x 1.734800 0.000000 0.000000 
#    y 0.000000 2.391040 0.000000 
#    z 0.000000 0.000000 1.807420 
# 
# From -- ./inp_files/22188.got.cif
#   From: 2010.05.17/outbox.cif.g08.bks.cpg/sg40_12_cif.got.tgz:22188.got - 2010.06.03 18:35:42.
