data_PCOD9363594
_publ_section_title
;
Structure prediction by ZEFSAII (Michael W. Deem and Ramdas Pophale) SiO2 
 PCOD9363594
Probable space group: A M A 2
;
_chemical_formula_sum "Si O2"
_cell_formula_units_Z 64
_cell_length_a 7.375457
_cell_length_b 34.942265
_cell_length_c 12.365952
_cell_angle_alpha 90.000000
_cell_angle_beta 90.000000
_cell_angle_gamma 90.000000
_cell_volume 3186.893459
_symmetry_space_group_name_H-M "A M A 2"
_symmetry_group_IT_number 40
_symmetry_cell_setting 'orthorhombic'
loop_
_space_group_symop_operation_xyz
x,y,z
-x,-y,z
1/2-x,y,z
1/2+x,-y,z
x,1/2+y,1/2+z
-x,1/2-y,1/2+z
1/2-x,1/2+y,1/2+z
1/2+x,1/2-y,1/2+z
loop_
_atom_site_type_symbol
_atom_site_label
_atom_site_fract_x
_atom_site_fract_y
_atom_site_fract_z
Si Si1 0.027494 0.373451 0.317170
Si Si2 0.971406 0.683769 0.885689
Si Si3 0.530288 0.118694 0.232121
Si Si4 0.533299 0.543310 0.394223
Si Si5 0.539823 0.178644 0.627225
Si Si6 0.469212 0.262861 0.688631
Si Si7 0.533974 0.042063 0.141555
Si Si8 0.969340 0.672263 0.529928
O O1 0.250000 0.373127 0.318107
O O2 0.970319 0.417614 0.336045
O O3 0.965015 0.354088 0.205690
O O4 0.969716 0.345546 0.416316
O O5 0.750000 0.686005 0.886380
O O6 0.028268 0.643412 0.833726
O O7 0.028750 0.715564 0.798081
O O8 0.037894 0.685888 0.007938
O O9 0.750000 0.118535 0.237300
O O10 0.464203 0.075912 0.216204
O O11 0.483990 0.141765 0.123260
O O12 0.500000 0.500000 0.351387
O O13 0.750000 0.546728 0.398425
O O14 0.463189 0.544203 0.518292
O O15 0.750000 0.168325 0.610261
O O16 0.530951 0.219443 0.686221
O O17 0.250000 0.263343 0.687503
O O18 0.529322 0.287234 0.582210
O O19 0.750000 0.047179 0.132695
O O20 0.500000 0.000000 0.184659
O O21 0.750000 0.674214 0.523712
#
# Coordination Sequence:
#
# PCOD9363594 Si02
#       8
#     8   8   8   8   8   8   8   8
#     4   9  16  27  44  67  91 116 149 188 223 262
#     4   8  16  30  45  64  88 115 149 186 222 258
#     4   8  12  23  43  61  80 112 147 175 206 255
#     4   9  16  27  44  66  91 115 144 183 228 272
#     4  10  20  31  46  68  92 116 149 194 229 256
#     4   9  18  31  48  65  87 120 152 182 223 273
#     4   9  15  23  40  65  88 109 136 175 219 264
#     4   8  13  24  43  64  82 109 151 183 205 252
#
# _framework density 20.082252
#
# number of rings (size 3 to 8) (size 9 to 14) (size 15 to 20)
#    0.000    3.250    1.250    1.500    1.750    0.000 
#    0.000    0.625    0.000    5.250    0.000    0.000 
#    0.000    0.000    0.000    0.000    0.000    0.000 
#
# Total GULP energy -178331.522357 kJ/mol
# GULP energy per Si atom -5572.860074 kJ/mol
# Density = 2.003654 g / cm^3
# Si number density = 20.082252 Si / 1000 Ang^3
#
#
#
# Elastic Constant Matrix: (Units=GPa)
#
#
# Indices 1 2 3 4 5 6 
#
# 1 69.1404 -7.7397 2.4547 0.0000 0.0000 0.0000
# 2 -7.7397 135.6471 57.2342 0.0000 0.0000 0.0000
# 3 2.4547 57.2342 111.4953 0.0000 0.0000 0.0000
# 4 0.0000 0.0000 0.0000 19.3030 0.0000 0.0000
# 5 0.0000 0.0000 0.0000 0.0000 -6.7170 0.0000
# 6 0.0000 0.0000 0.0000 0.0000 0.0000 15.4436
#
#
#
# Elastic Compliance Matrix: (Units=1/GPa)
#
#
# Indices 1 2 3 4 5 6 
#
# 1 0.014636 0.001240 -0.000959 0.000000 0.000000 0.000000
# 2 0.001240 0.009515 -0.004912 0.000000 0.000000 0.000000
# 3 -0.000959 -0.004912 0.011511 0.000000 0.000000 0.000000
# 4 0.000000 0.000000 0.000000 0.051805 0.000000 0.000000
# 5 0.000000 0.000000 0.000000 0.000000 -0.148876 0.000000
# 6 0.000000 0.000000 0.000000 0.000000 0.000000 0.064752
#
#
# Mechanical properties :
#
#
# Convention : Reuss Voigt Hill
#
# Bulk Modulus (GPa) = 37.87694 46.68679 42.28186
# Shear Modulus (GPa) = 233.57656 23.22816 128.40236
#
# Velocity S-wave (km/s) = 10.79641 3.40465 8.00481
# Velocity P-wave (km/s) = 13.20297 6.22525 10.32163
#
# Compressibility (1/GPa) = 0.02640129
#
# Stress axis : x y z
#
# Youngs Moduli (GPa) = 68.32417 105.09449 86.86992
#
# Poissons Ratio (x) = -0.13027 0.08327
# Poissons Ratio (y) = -0.08469 0.42669
# Poissons Ratio (z) = 0.06549 0.51620
#
# Static dielectric constant tensor:
#      x y z
#    x 1.789180 0.000000 0.000000 
#    y 0.000000 1.723220 0.000000 
#    z 0.000000 0.000000 1.691860 
# 
# From -- ./inp_files/11481.got.cif
#   From: 2010.05.17/outbox.cif.g08.bks.cpg/sg40_6_cif.got.tgz:11481.got - 2010.06.03 18:35:42.
