data_PCOD9363380
_publ_section_title
;
Structure prediction by ZEFSAII (Michael W. Deem and Ramdas Pophale) SiO2 
 PCOD9363380
Probable space group: A M A 2
;
_chemical_formula_sum "Si O2"
_cell_formula_units_Z 48
_cell_length_a 17.483532
_cell_length_b 7.485789
_cell_length_c 16.396622
_cell_angle_alpha 90.000000
_cell_angle_beta 90.000000
_cell_angle_gamma 90.000000
_cell_volume 2145.957611
_symmetry_space_group_name_H-M "A M A 2"
_symmetry_group_IT_number 40
_symmetry_cell_setting 'orthorhombic'
loop_
_space_group_symop_operation_xyz
x,y,z
-x,-y,z
1/2-x,y,z
1/2+x,-y,z
x,1/2+y,1/2+z
-x,1/2-y,1/2+z
1/2-x,1/2+y,1/2+z
1/2+x,1/2-y,1/2+z
loop_
_atom_site_type_symbol
_atom_site_label
_atom_site_fract_x
_atom_site_fract_y
_atom_site_fract_z
Si Si1 0.914611 0.811178 0.072830
Si Si2 0.336694 0.228839 0.405250
Si Si3 0.835479 0.342983 0.408784
Si Si4 0.085069 0.594800 0.746664
Si Si5 0.415129 0.249243 0.568329
Si Si6 0.661033 0.765284 0.734066
O O1 0.903792 0.774476 0.169157
O O2 0.995897 0.723817 0.053764
O O3 0.912436 0.031007 0.071639
O O4 0.864103 0.766728 0.994286
O O5 0.250000 0.167353 0.387930
O O6 0.333729 0.443291 0.412738
O O7 0.395705 0.177809 0.334095
O O8 0.366050 0.173511 0.494176
O O9 0.750000 0.272815 0.397067
O O10 0.875773 0.309699 0.322021
O O11 0.150940 0.447419 0.733508
O O12 0.000000 0.500000 0.742563
O O13 0.384814 0.175593 0.654088
O O14 0.750000 0.821288 0.728295
#
# Coordination Sequence:
#
# PCOD9363380 Si02
#       6
#     8   8   8   8   8   8
#     4   9  17  33  54  79 108 140 187 225 266 316
#     4  10  21  36  56  82 109 144 183 225 277 327
#     4   9  20  36  58  84 109 143 186 230 277 326
#     4  11  21  36  54  83 112 144 181 226 271 329
#     4   9  17  32  55  79 107 143 182 222 265 328
#     4  10  19  35  58  80 107 143 183 225 273 327
#
# _framework density 22.367636999999998
#
# number of rings (size 3 to 8) (size 9 to 14) (size 15 to 20)
#    0.000    2.333    3.333    1.000    2.333    4.667 
#    0.000    1.667    0.000    4.000    0.000    0.000 
#    0.000    0.000    0.000    0.000    0.000    0.000 
#
# Total GULP energy -133645.147964 kJ/mol
# GULP energy per Si atom -5568.547832 kJ/mol
# Density = 2.231673 g / cm^3
# Si number density = 22.367637 Si / 1000 Ang^3
#
#
#
# Elastic Constant Matrix: (Units=GPa)
#
#
# Indices 1 2 3 4 5 6 
#
# 1 67.9717 1.6320 82.0901 0.0000 0.0000 0.0000
# 2 1.6320 44.4764 6.8484 0.0000 0.0000 0.0000
# 3 82.0901 6.8484 206.8830 0.0000 0.0000 0.0000
# 4 0.0000 0.0000 0.0000 18.4472 0.0000 0.0000
# 5 0.0000 0.0000 0.0000 0.0000 30.7531 0.0000
# 6 0.0000 0.0000 0.0000 0.0000 0.0000 7.4446
#
#
#
# Elastic Compliance Matrix: (Units=1/GPa)
#
#
# Indices 1 2 3 4 5 6 
#
# 1 0.028271 0.000693 -0.011241 0.000000 0.000000 0.000000
# 2 0.000693 0.022616 -0.001024 0.000000 0.000000 0.000000
# 3 -0.011241 -0.001024 0.009328 0.000000 0.000000 0.000000
# 4 0.000000 0.000000 0.000000 0.054209 0.000000 0.000000
# 5 0.000000 0.000000 0.000000 0.000000 0.032517 0.000000
# 6 0.000000 0.000000 0.000000 0.000000 0.000000 0.134325
#
#
# Mechanical properties :
#
#
# Convention : Reuss Voigt Hill
#
# Bulk Modulus (GPa) = 26.97414 55.60800 41.29107
# Shear Modulus (GPa) = 15.78455 26.57968 21.18212
#
# Velocity S-wave (km/s) = 2.65936 3.45093 3.08067
# Velocity P-wave (km/s) = 4.63845 6.38697 5.58161
#
# Compressibility (1/GPa) = 0.03707254
#
# Stress axis : x y z
#
# Youngs Moduli (GPa) = 35.37216 44.21646 107.20668
#
# Poissons Ratio (x) = -0.03066 1.20507
# Poissons Ratio (y) = -0.02453 0.10976
# Poissons Ratio (z) = 0.39761 0.04527
#
# Static dielectric constant tensor:
#      x y z
#    x 1.842580 0.000000 0.000000 
#    y 0.000000 1.892040 0.000000 
#    z 0.000000 0.000000 1.896900 
# 
# From -- ./inp_files/17659.got.cif
#   From: 2010.05.17/outbox.cif.g08.bks.cpg/sg40_9_cif.got.tgz:17659.got - 2010.06.03 18:35:42.
