data_PCOD9363255
_publ_section_title
;
Structure prediction by ZEFSAII (Michael W. Deem and Ramdas Pophale) SiO2 
 PCOD9363255
Probable space group: A M A 2
;
_chemical_formula_sum "Si O2"
_cell_formula_units_Z 64
_cell_length_a 8.763188
_cell_length_b 23.830350
_cell_length_c 19.395885
_cell_angle_alpha 90.000000
_cell_angle_beta 90.000000
_cell_angle_gamma 90.000000
_cell_volume 4050.439506
_symmetry_space_group_name_H-M "A M A 2"
_symmetry_group_IT_number 40
_symmetry_cell_setting 'orthorhombic'
loop_
_space_group_symop_operation_xyz
x,y,z
-x,-y,z
1/2-x,y,z
1/2+x,-y,z
x,1/2+y,1/2+z
-x,1/2-y,1/2+z
1/2-x,1/2+y,1/2+z
1/2+x,1/2-y,1/2+z
loop_
_atom_site_type_symbol
_atom_site_label
_atom_site_fract_x
_atom_site_fract_y
_atom_site_fract_z
Si Si1 0.931993 0.723971 0.917830
Si Si2 0.568527 0.742863 0.559962
Si Si3 0.567578 0.061826 0.202625
Si Si4 0.566223 0.882543 0.064853
Si Si5 0.067251 0.665145 0.327349
Si Si6 0.566245 0.938580 0.919014
Si Si7 0.568930 0.229125 0.702769
Si Si8 0.932351 0.340780 0.792267
O O1 0.750000 0.717169 0.922935
O O2 0.961677 0.784618 0.881977
O O3 0.002205 0.678583 0.865733
O O4 0.007022 0.725335 0.992671
O O5 0.750000 0.737272 0.557059
O O6 0.492874 0.681054 0.560838
O O7 0.517620 0.772442 0.630595
O O8 0.750000 0.059987 0.200959
O O9 0.505092 0.086724 0.130576
O O10 0.510015 0.104150 0.261633
O O11 0.500000 0.000000 0.212433
O O12 0.750000 0.881787 0.071331
O O13 0.524237 0.914768 0.994512
O O14 0.250000 0.663769 0.316039
O O15 0.017617 0.607039 0.362041
O O16 0.984937 0.682415 0.257078
O O17 0.750000 0.941014 0.917195
O O18 0.500000 0.000000 0.908170
O O19 0.750000 0.226184 0.691616
O O20 0.535116 0.289035 0.739726
O O21 0.750000 0.347524 0.795440
#
# Coordination Sequence:
#
# PCOD9363255 Si02
#       8
#     8   8   8   8   8   8   8   8
#     4  10  19  34  54  74 103 136 171 215 263 311
#     4  12  22  32  51  78 106 139 175 211 260 317
#     4  12  24  37  53  75 103 142 182 219 261 306
#     4  11  21  36  51  71 104 141 181 221 257 301
#     4   9  18  34  51  71 100 134 171 213 259 303
#     4  10  21  35  51  72 101 138 176 215 255 299
#     4  10  20  33  52  75 102 133 169 214 262 309
#     4  10  20  35  53  76 104 134 173 218 261 310
#
# _framework density 15.800754
#
# number of rings (size 3 to 8) (size 9 to 14) (size 15 to 20)
#    0.000    1.500    2.500    4.125    0.000    4.000 
#    0.000    0.000    0.000    0.000    0.000    0.875 
#    0.000    2.000    0.000    0.000    0.000    0.000 
#
# Total GULP energy -178771.064145 kJ/mol
# GULP energy per Si atom -5586.595755 kJ/mol
# Density = 1.576479 g / cm^3
# Si number density = 15.800754 Si / 1000 Ang^3
#
#
#
# Elastic Constant Matrix: (Units=GPa)
#
#
# Indices 1 2 3 4 5 6 
#
# 1 82.9741 45.6260 64.8922 0.0000 0.0000 0.0000
# 2 45.6260 106.1566 72.6132 0.0000 0.0000 0.0000
# 3 64.8922 72.6132 130.2707 0.0000 0.0000 0.0000
# 4 0.0000 0.0000 0.0000 17.9463 0.0000 0.0000
# 5 0.0000 0.0000 0.0000 0.0000 26.1483 0.0000
# 6 0.0000 0.0000 0.0000 0.0000 0.0000 27.0261
#
#
#
# Elastic Compliance Matrix: (Units=1/GPa)
#
#
# Indices 1 2 3 4 5 6 
#
# 1 0.020289 -0.002921 -0.008479 0.000000 0.000000 0.000000
# 2 -0.002921 0.015645 -0.007266 0.000000 0.000000 0.000000
# 3 -0.008479 -0.007266 0.015950 0.000000 0.000000 0.000000
# 4 0.000000 0.000000 0.000000 0.055722 0.000000 0.000000
# 5 0.000000 0.000000 0.000000 0.000000 0.038243 0.000000
# 6 0.000000 0.000000 0.000000 0.000000 0.000000 0.037001
#
#
# Mechanical properties :
#
#
# Convention : Reuss Voigt Hill
#
# Bulk Modulus (GPa) = 68.71049 76.18490 72.44770
# Shear Modulus (GPa) = 22.21906 23.30881 22.76394
#
# Velocity S-wave (km/s) = 3.75400 3.84496 3.79976
# Velocity P-wave (km/s) = 7.89747 8.24817 8.07472
#
# Compressibility (1/GPa) = 0.01455382
#
# Stress axis : x y z
#
# Youngs Moduli (GPa) = 49.28807 63.91684 62.69648
#
# Poissons Ratio (x) = 0.18667 0.53158
# Poissons Ratio (y) = 0.14395 0.45555
# Poissons Ratio (z) = 0.41790 0.46441
#
# Static dielectric constant tensor:
#      x y z
#    x 1.524810 0.000000 0.000000 
#    y 0.000000 1.503560 0.000000 
#    z 0.000000 0.000000 1.518140 
# 
# From -- ./inp_files/15683.got.cif
#   From: 2010.05.17/outbox.cif.g08.bks.cpg/sg40_8_cif.got.tgz:15683.got - 2010.06.03 18:35:42.
