data_PCOD9363516
_publ_section_title
;
Structure prediction by ZEFSAII (Michael W. Deem and Ramdas Pophale) SiO2 
 PCOD9363516
Probable space group: A M A 2
;
_chemical_formula_sum "Si O2"
_cell_formula_units_Z 36
_cell_length_a 10.233340
_cell_length_b 19.864480
_cell_length_c 8.507299
_cell_angle_alpha 90.000000
_cell_angle_beta 90.000000
_cell_angle_gamma 90.000000
_cell_volume 1729.363552
_symmetry_space_group_name_H-M "A M A 2"
_symmetry_group_IT_number 40
_symmetry_cell_setting 'orthorhombic'
loop_
_space_group_symop_operation_xyz
x,y,z
-x,-y,z
1/2-x,y,z
1/2+x,-y,z
x,1/2+y,1/2+z
-x,1/2-y,1/2+z
1/2-x,1/2+y,1/2+z
1/2+x,1/2-y,1/2+z
loop_
_atom_site_type_symbol
_atom_site_label
_atom_site_fract_x
_atom_site_fract_y
_atom_site_fract_z
Si Si1 0.250000 0.219575 0.113060
Si Si2 0.750000 0.965246 0.094812
Si Si3 0.750000 0.637976 0.971762
Si Si4 0.468779 0.130396 0.958895
Si Si5 0.750000 0.125632 0.111056
Si Si6 0.494100 0.080217 0.609894
Si Si7 0.750000 0.378544 0.899831
O O1 0.250000 0.298437 0.088093
O O2 0.375565 0.189911 0.020923
O O3 0.250000 0.189006 0.290557
O O4 0.618826 0.934467 0.014852
O O5 0.750000 0.936309 0.269005
O O6 0.750000 0.044484 0.104065
O O7 0.622899 0.595771 0.011796
O O8 0.750000 0.654534 0.787447
O O9 0.611900 0.142380 0.030615
O O10 0.487533 0.119497 0.774438
O O11 0.374812 0.108452 0.507426
O O12 0.500000 0.000000 0.640244
#
# Coordination Sequence:
#
# PCOD9363516 Si02
#       7
#     4   4   4   8   4   8   4
#     4  10  25  48  60  88 124 179 229 257 325 384
#     4  10  19  37  62  94 128 168 210 257 323 392
#     4  12  27  41  65  93 129 168 222 274 313 392
#     4  10  23  40  65  91 133 172 211 267 321 390
#     4  12  21  38  64  95 122 167 214 265 322 373
#     4  12  23  40  65 102 132 166 213 273 334 381
#     4  10  22  40  65  88 131 172 209 263 315 383
#
# _framework density 20.816907
#
# number of rings (size 3 to 8) (size 9 to 14) (size 15 to 20)
#    0.000    1.333    0.000    8.667    0.000    3.556 
#    0.000    3.333    0.000    0.000    0.000    0.000 
#    0.000    0.000    0.000    0.000    0.000    0.000 
#
# Total GULP energy -100555.822904 kJ/mol
# GULP energy per Si atom -5586.434606 kJ/mol
# Density = 2.076953 g / cm^3
# Si number density = 20.816907 Si / 1000 Ang^3
#
#
#
# Elastic Constant Matrix: (Units=GPa)
#
#
# Indices 1 2 3 4 5 6 
#
# 1 197.8750 4.1799 77.4391 0.0000 0.0000 0.0000
# 2 4.1799 19.4132 -26.7268 0.0000 0.0000 0.0000
# 3 77.4391 -26.7268 150.7938 0.0000 0.0000 0.0000
# 4 0.0000 0.0000 0.0000 8.8777 0.0000 0.0000
# 5 0.0000 0.0000 0.0000 0.0000 32.7463 0.0000
# 6 0.0000 0.0000 0.0000 0.0000 0.0000 35.0625
#
#
#
# Elastic Compliance Matrix: (Units=1/GPa)
#
#
# Indices 1 2 3 4 5 6 
#
# 1 0.007339 -0.008954 -0.005356 0.000000 0.000000 0.000000
# 2 -0.008954 0.079061 0.018611 0.000000 0.000000 0.000000
# 3 -0.005356 0.018611 0.012681 0.000000 0.000000 0.000000
# 4 0.000000 0.000000 0.000000 0.112642 0.000000 0.000000
# 5 0.000000 0.000000 0.000000 0.000000 0.030538 0.000000
# 6 0.000000 0.000000 0.000000 0.000000 0.000000 0.028521
#
#
# Mechanical properties :
#
#
# Convention : Reuss Voigt Hill
#
# Bulk Modulus (GPa) = 9.28642 53.09626 31.19134
# Shear Modulus (GPa) = 16.77447 36.21662 26.49554
#
# Velocity S-wave (km/s) = 2.84176 4.17558 3.57149
# Velocity P-wave (km/s) = 3.90361 6.98634 5.65894
#
# Compressibility (1/GPa) = 0.10768414
#
# Stress axis : x y z
#
# Youngs Moduli (GPa) = 136.26175 12.64840 78.86065
#
# Poissons Ratio (x) = 0.11325 0.42236
# Poissons Ratio (y) = 1.22003 -1.46767
# Poissons Ratio (z) = 0.72978 -0.23540
#
# Static dielectric constant tensor:
#      x y z
#    x 1.785620 0.000000 0.000000 
#    y 0.000000 1.716440 0.000000 
#    z 0.000000 0.000000 1.731830 
# 
# From -- ./inp_files/4160.got.cif
#   From: 2010.05.17/outbox.cif.g08.bks.cpg/sg40_3_cif.got.tgz:4160.got - 2010.06.03 18:35:42.
