data_PCOD9363606
_publ_section_title
;
Structure prediction by ZEFSAII (Michael W. Deem and Ramdas Pophale) SiO2 
 PCOD9363606
Probable space group: A M A 2
;
_chemical_formula_sum "Si O2"
_cell_formula_units_Z 64
_cell_length_a 8.780343
_cell_length_b 15.130652
_cell_length_c 27.875631
_cell_angle_alpha 90.000000
_cell_angle_beta 90.000000
_cell_angle_gamma 90.000000
_cell_volume 3703.342093
_symmetry_space_group_name_H-M "A M A 2"
_symmetry_group_IT_number 40
_symmetry_cell_setting 'orthorhombic'
loop_
_space_group_symop_operation_xyz
x,y,z
-x,-y,z
1/2-x,y,z
1/2+x,-y,z
x,1/2+y,1/2+z
-x,1/2-y,1/2+z
1/2-x,1/2+y,1/2+z
1/2+x,1/2-y,1/2+z
loop_
_atom_site_type_symbol
_atom_site_label
_atom_site_fract_x
_atom_site_fract_y
_atom_site_fract_z
Si Si1 0.566897 0.594863 0.816510
Si Si2 0.933589 0.222386 0.402234
Si Si3 0.932230 0.404849 0.092522
Si Si4 0.432699 0.405314 0.255041
Si Si5 0.931423 0.905352 0.479996
Si Si6 0.932830 0.595686 0.705575
Si Si7 0.432949 0.594339 0.360648
Si Si8 0.432240 0.272882 0.169049
O O1 0.500000 0.500000 0.830639
O O2 0.750000 0.589639 0.817382
O O3 0.519272 0.669164 0.854185
O O4 0.521228 0.612468 0.761419
O O5 0.750000 0.217543 0.405509
O O6 0.976049 0.324411 0.394832
O O7 0.004084 0.172336 0.447214
O O8 0.750000 0.406906 0.097797
O O9 0.000000 0.500000 0.107231
O O10 0.002159 0.327797 0.124596
O O11 0.969538 0.392473 0.036181
O O12 0.500000 0.500000 0.239175
O O13 0.250000 0.412296 0.259048
O O14 0.503502 0.387050 0.307232
O O15 0.470823 0.330102 0.216649
O O16 0.750000 0.909585 0.475449
O O17 0.000000 0.000000 0.464814
O O18 0.750000 0.593258 0.703133
O O19 0.000000 0.500000 0.692361
O O20 0.997245 0.676026 0.674647
O O21 0.500000 0.500000 0.375689
O O22 0.250000 0.589203 0.357878
O O23 0.250000 0.267383 0.165742
#
# Coordination Sequence:
#
# PCOD9363606 Si02
#       8
#     8   8   8   8   8   8   8   8
#     4   9  18  31  47  71 102 135 169 205 248 298
#     4  10  20  33  51  75 102 134 172 211 253 301
#     4  10  21  37  56  79 106 135 166 205 255 308
#     4  10  20  32  48  73 105 138 172 210 252 301
#     4  10  21  36  55  79 106 134 165 204 252 306
#     4  10  20  35  53  73 103 140 176 216 257 299
#     4  10  20  34  51  72 101 137 175 213 253 297
#     4  11  22  34  52  78 104 135 175 214 256 306
#
# _framework density 17.281687999999999
#
# number of rings (size 3 to 8) (size 9 to 14) (size 15 to 20)
#    0.000    2.000    0.000    4.500    0.000    8.500 
#    0.000    0.000    0.000    0.750    0.000    1.750 
#    0.000    0.000    0.000    0.000    0.000    0.000 
#
# Total GULP energy -178721.334192 kJ/mol
# GULP energy per Si atom -5585.041693 kJ/mol
# Density = 1.724235 g / cm^3
# Si number density = 17.281688 Si / 1000 Ang^3
#
#
#
# Elastic Constant Matrix: (Units=GPa)
#
#
# Indices 1 2 3 4 5 6 
#
# 1 47.6670 55.7888 37.2238 0.0000 0.0000 0.0000
# 2 55.7888 160.7461 83.0494 0.0000 0.0000 0.0000
# 3 37.2238 83.0494 71.4543 0.0000 0.0000 0.0000
# 4 0.0000 0.0000 0.0000 31.3146 0.0000 0.0000
# 5 0.0000 0.0000 0.0000 0.0000 8.0170 0.0000
# 6 0.0000 0.0000 0.0000 0.0000 0.0000 27.9111
#
#
#
# Elastic Compliance Matrix: (Units=1/GPa)
#
#
# Indices 1 2 3 4 5 6 
#
# 1 0.038710 -0.007550 -0.011391 0.000000 0.000000 0.000000
# 2 -0.007550 0.017044 -0.015877 0.000000 0.000000 0.000000
# 3 -0.011391 -0.015877 0.038382 0.000000 0.000000 0.000000
# 4 0.000000 0.000000 0.000000 0.031934 0.000000 0.000000
# 5 0.000000 0.000000 0.000000 0.000000 0.124735 0.000000
# 6 0.000000 0.000000 0.000000 0.000000 0.000000 0.035828
#
#
# Mechanical properties :
#
#
# Convention : Reuss Voigt Hill
#
# Bulk Modulus (GPa) = 40.81418 70.22127 55.51773
# Shear Modulus (GPa) = 13.71984 20.36891 17.04437
#
# Velocity S-wave (km/s) = 2.82067 3.43686 3.14390
# Velocity P-wave (km/s) = 5.85462 7.51471 6.73600
#
# Compressibility (1/GPa) = 0.02450129
#
# Stress axis : x y z
#
# Youngs Moduli (GPa) = 25.83283 58.67230 26.05363
#
# Poissons Ratio (x) = 0.44295 0.29679
# Poissons Ratio (y) = 0.19502 0.41365
# Poissons Ratio (z) = 0.29427 0.93152
#
# Static dielectric constant tensor:
#      x y z
#    x 1.580310 0.000000 0.000000 
#    y 0.000000 1.574350 0.000000 
#    z 0.000000 0.000000 1.577530 
# 
# From -- ./inp_files/24307.got.cif
#   From: 2010.05.17/outbox.cif.g08.bks.cpg/sg40_13_cif.got.tgz:24307.got - 2010.06.03 18:35:42.
