data_PCOD9363426
_publ_section_title
;
Structure prediction by ZEFSAII (Michael W. Deem and Ramdas Pophale) SiO2 
 PCOD9363426
Probable space group: A M A 2
;
_chemical_formula_sum "Si O2"
_cell_formula_units_Z 44
_cell_length_a 13.475190
_cell_length_b 17.069527
_cell_length_c 7.325501
_cell_angle_alpha 90.000000
_cell_angle_beta 90.000000
_cell_angle_gamma 90.000000
_cell_volume 1684.975988
_symmetry_space_group_name_H-M "A M A 2"
_symmetry_group_IT_number 40
_symmetry_cell_setting 'orthorhombic'
loop_
_space_group_symop_operation_xyz
x,y,z
-x,-y,z
1/2-x,y,z
1/2+x,-y,z
x,1/2+y,1/2+z
-x,1/2-y,1/2+z
1/2-x,1/2+y,1/2+z
1/2+x,1/2-y,1/2+z
loop_
_atom_site_type_symbol
_atom_site_label
_atom_site_fract_x
_atom_site_fract_y
_atom_site_fract_z
Si Si1 0.000000 0.500000 0.033930
Si Si2 0.360297 0.883293 0.592818
Si Si3 0.632012 0.352859 0.170945
Si Si4 0.366201 0.740881 0.831232
Si Si5 0.427232 0.117392 0.059869
Si Si6 0.140900 0.941023 0.001674
O O1 0.081509 0.439981 0.952712
O O2 0.065634 0.569756 0.127936
O O3 0.250000 0.866976 0.523995
O O4 0.405804 0.804726 0.684844
O O5 0.355366 0.933947 0.780648
O O6 0.750000 0.369562 0.146232
O O7 0.611145 0.336283 0.382584
O O8 0.606524 0.279937 0.038866
O O9 0.250000 0.761306 0.837674
O O10 0.386206 0.658242 0.737203
O O11 0.545911 0.110094 0.055090
O O12 0.383614 0.030192 0.048174
O O13 0.250000 0.917912 0.069046
#
# Coordination Sequence:
#
# PCOD9363426 Si02
#       6
#     4   8   8   8   8   8
#     4  12  20  38  62  96 120 170 216 254 316 384
#     4  10  20  39  63  91 130 167 205 263 323 372
#     4  11  22  39  64  93 126 165 214 264 316 380
#     4  10  24  40  62  95 130 164 208 268 321 369
#     4  11  20  39  67  93 121 172 217 259 318 385
#     4  10  19  35  62  92 125 166 213 262 319 378
#
# _framework density 26.113130000000002
#
# number of rings (size 3 to 8) (size 9 to 14) (size 15 to 20)
#    0.000    1.455    3.636    2.182    0.000    2.909 
#    0.000    0.000    4.000    3.273    0.000    0.000 
#    0.000    0.000    0.000    0.000    0.000    0.000 
#
# Total GULP energy -122831.935473 kJ/mol
# GULP energy per Si atom -5583.269794 kJ/mol
# Density = 2.605370 g / cm^3
# Si number density = 26.113130 Si / 1000 Ang^3
#
#
#
# Elastic Constant Matrix: (Units=GPa)
#
#
# Indices 1 2 3 4 5 6 
#
# 1 166.2559 35.5738 18.7521 0.0000 0.0000 0.0000
# 2 35.5738 122.2005 30.9755 0.0000 0.0000 0.0000
# 3 18.7521 30.9755 84.6481 0.0000 0.0000 0.0000
# 4 0.0000 0.0000 0.0000 16.1086 0.0000 0.0000
# 5 0.0000 0.0000 0.0000 0.0000 15.1758 0.0000
# 6 0.0000 0.0000 0.0000 0.0000 0.0000 16.4331
#
#
#
# Elastic Compliance Matrix: (Units=1/GPa)
#
#
# Indices 1 2 3 4 5 6 
#
# 1 0.006466 -0.001674 -0.000820 0.000000 0.000000 0.000000
# 2 -0.001674 0.009454 -0.003088 0.000000 0.000000 0.000000
# 3 -0.000820 -0.003088 0.013125 0.000000 0.000000 0.000000
# 4 0.000000 0.000000 0.000000 0.062079 0.000000 0.000000
# 5 0.000000 0.000000 0.000000 0.000000 0.065894 0.000000
# 6 0.000000 0.000000 0.000000 0.000000 0.000000 0.060853
#
#
# Mechanical properties :
#
#
# Convention : Reuss Voigt Hill
#
# Bulk Modulus (GPa) = 55.92983 60.41195 58.17089
# Shear Modulus (GPa) = 21.27709 28.73039 25.00374
#
# Velocity S-wave (km/s) = 2.85757 3.32057 3.09773
# Velocity P-wave (km/s) = 5.68792 6.15520 5.92617
#
# Compressibility (1/GPa) = 0.01787955
#
# Stress axis : x y z
#
# Youngs Moduli (GPa) = 154.66602 105.78002 76.18853
#
# Poissons Ratio (x) = 0.17712 0.06244
# Poissons Ratio (y) = 0.25898 0.23530
# Poissons Ratio (z) = 0.12676 0.32669
#
# Static dielectric constant tensor:
#      x y z
#    x 2.122990 0.000000 0.000000 
#    y 0.000000 2.036250 0.000000 
#    z 0.000000 0.000000 2.061900 
# 
# From -- ./inp_files/6382.got.cif
#   From: 2010.05.17/outbox.cif.g08.bks.cpg/sg40_4_cif.got.tgz:6382.got - 2010.06.03 18:35:42.
