data_PCOD9363861
_publ_section_title
;
Structure prediction by ZEFSAII (Michael W. Deem and Ramdas Pophale) SiO2 
 PCOD9363861
Probable space group: A M A 2
;
_chemical_formula_sum "Si O2"
_cell_formula_units_Z 56
_cell_length_a 15.994888
_cell_length_b 21.163697
_cell_length_c 8.238737
_cell_angle_alpha 90.000000
_cell_angle_beta 90.000000
_cell_angle_gamma 90.000000
_cell_volume 2788.902797
_symmetry_space_group_name_H-M "A M A 2"
_symmetry_group_IT_number 40
_symmetry_cell_setting 'orthorhombic'
loop_
_space_group_symop_operation_xyz
x,y,z
-x,-y,z
1/2-x,y,z
1/2+x,-y,z
x,1/2+y,1/2+z
-x,1/2-y,1/2+z
1/2-x,1/2+y,1/2+z
1/2+x,1/2-y,1/2+z
loop_
_atom_site_type_symbol
_atom_site_label
_atom_site_fract_x
_atom_site_fract_y
_atom_site_fract_z
Si Si1 0.157017 0.068685 0.775560
Si Si2 0.994293 0.396921 0.511503
Si Si3 0.526863 0.568551 0.871817
Si Si4 0.845742 0.655068 0.972496
Si Si5 0.927413 0.331471 0.074541
Si Si6 0.344298 0.424714 0.295394
Si Si7 0.015934 0.738765 0.398648
O O1 0.250000 0.073972 0.847318
O O2 0.147109 0.125804 0.645374
O O3 0.148478 0.995601 0.718638
O O4 0.082972 0.078980 0.903916
O O5 0.991057 0.422531 0.692332
O O6 0.988056 0.321226 0.516769
O O7 0.080659 0.415425 0.421880
O O8 0.500000 0.500000 0.925079
O O9 0.621275 0.594706 0.868769
O O10 0.486495 0.614381 0.004111
O O11 0.750000 0.670889 0.935227
O O12 0.906315 0.714322 0.935071
O O13 0.849773 0.628832 0.156922
O O14 0.967986 0.293416 0.224848
O O15 0.931525 0.279633 0.930181
O O16 0.250000 0.421141 0.365886
#
# Coordination Sequence:
#
# PCOD9363861 Si02
#       7
#     8   8   8   8   8   8   8
#     4  10  21  39  65  93 122 159 202 248 305 368
#     4  11  22  38  61  89 126 166 201 248 301 358
#     4  11  22  37  60  89 121 161 204 250 309 364
#     4  10  21  37  60  89 122 159 202 252 300 357
#     4  10  21  37  58  83 116 156 202 250 295 352
#     4  10  21  39  65  96 123 155 201 249 303 367
#     4  10  20  35  57  83 117 158 201 241 293 356
#
# _framework density 20.079581000000001
#
# number of rings (size 3 to 8) (size 9 to 14) (size 15 to 20)
#    0.000    1.714    0.000    7.286    0.000    2.857 
#    0.000    2.143    0.000    6.857    0.000    0.000 
#    0.000    0.000    0.000    0.000    0.000    0.000 
#
# Total GULP energy -155941.188274 kJ/mol
# GULP energy per Si atom -5569.328153 kJ/mol
# Density = 2.003388 g / cm^3
# Si number density = 20.079581 Si / 1000 Ang^3
#
#
#
# Elastic Constant Matrix: (Units=GPa)
#
#
# Indices 1 2 3 4 5 6 
#
# 1 133.5086 37.6325 37.5683 0.0000 0.0000 0.0000
# 2 37.6325 148.7009 34.1150 0.0000 0.0000 0.0000
# 3 37.5683 34.1150 59.8406 0.0000 0.0000 0.0000
# 4 0.0000 0.0000 0.0000 34.7578 0.0000 0.0000
# 5 0.0000 0.0000 0.0000 0.0000 8.1840 0.0000
# 6 0.0000 0.0000 0.0000 0.0000 0.0000 27.1466
#
#
#
# Elastic Compliance Matrix: (Units=1/GPa)
#
#
# Indices 1 2 3 4 5 6 
#
# 1 0.009269 -0.001163 -0.005156 0.000000 0.000000 0.000000
# 2 -0.001163 0.007883 -0.003764 0.000000 0.000000 0.000000
# 3 -0.005156 -0.003764 0.022094 0.000000 0.000000 0.000000
# 4 0.000000 0.000000 0.000000 0.028771 0.000000 0.000000
# 5 0.000000 0.000000 0.000000 0.000000 0.122189 0.000000
# 6 0.000000 0.000000 0.000000 0.000000 0.000000 0.036837
#
#
# Mechanical properties :
#
#
# Convention : Reuss Voigt Hill
#
# Bulk Modulus (GPa) = 52.41147 62.29796 57.35471
# Shear Modulus (GPa) = 19.71862 29.53331 24.62597
#
# Velocity S-wave (km/s) = 3.13713 3.83928 3.50582
# Velocity P-wave (km/s) = 6.26742 7.12364 6.70921
#
# Compressibility (1/GPa) = 0.01907979
#
# Stress axis : x y z
#
# Youngs Moduli (GPa) = 107.88884 126.86009 45.26137
#
# Poissons Ratio (x) = 0.14751 0.23337
# Poissons Ratio (y) = 0.12545 0.17036
# Poissons Ratio (z) = 0.55629 0.47749
#
# Static dielectric constant tensor:
#      x y z
#    x 1.761360 0.000000 0.000000 
#    y 0.000000 1.764290 0.000000 
#    z 0.000000 0.000000 1.743360 
# 
# From -- ./inp_files/6730.got.cif
#   From: 2010.05.17/outbox.cif.g08.bks.cpg/sg40_4_cif.got.tgz:6730.got - 2010.06.03 18:35:42.
