data_PCOD9363748
_publ_section_title
;
Structure prediction by ZEFSAII (Michael W. Deem and Ramdas Pophale) SiO2 
 PCOD9363748
Probable space group: A M A 2
;
_chemical_formula_sum "Si O2"
_cell_formula_units_Z 48
_cell_length_a 8.740227
_cell_length_b 30.731895
_cell_length_c 10.259761
_cell_angle_alpha 90.000000
_cell_angle_beta 90.000000
_cell_angle_gamma 90.000000
_cell_volume 2755.810160
_symmetry_space_group_name_H-M "A M A 2"
_symmetry_group_IT_number 40
_symmetry_cell_setting 'orthorhombic'
loop_
_space_group_symop_operation_xyz
x,y,z
-x,-y,z
1/2-x,y,z
1/2+x,-y,z
x,1/2+y,1/2+z
-x,1/2-y,1/2+z
1/2-x,1/2+y,1/2+z
1/2+x,1/2-y,1/2+z
loop_
_atom_site_type_symbol
_atom_site_label
_atom_site_fract_x
_atom_site_fract_y
_atom_site_fract_z
Si Si1 0.067627 0.952461 0.890370
Si Si2 0.933747 0.384979 0.186734
Si Si3 0.065602 0.215467 0.677797
Si Si4 0.065886 0.047576 0.174298
Si Si5 0.565943 0.880185 0.385963
Si Si6 0.066726 0.785317 0.392841
O O1 0.250000 0.955354 0.899241
O O2 0.016774 0.917586 0.783525
O O3 0.000000 0.000000 0.857295
O O4 0.999260 0.940652 0.032076
O O5 0.750000 0.389917 0.201290
O O6 0.973519 0.334441 0.213276
O O7 0.973225 0.392968 0.034802
O O8 0.250000 0.217119 0.666367
O O9 0.016212 0.249738 0.786892
O O10 0.996079 0.225145 0.536495
O O11 0.250000 0.045191 0.167437
O O12 0.022320 0.083160 0.282159
O O13 0.000000 0.000000 0.207208
O O14 0.750000 0.874977 0.382066
O O15 0.492176 0.833467 0.357814
O O16 0.250000 0.785451 0.396535
#
# Coordination Sequence:
#
# PCOD9363748 Si02
#       6
#     8   8   8   8   8   8
#     4  11  22  36  54  78 106 137 174 215 259 307
#     4   9  18  36  56  75 104 139 174 213 259 310
#     4   9  20  37  54  76 108 141 173 214 263 310
#     4  10  20  36  56  78 105 138 174 213 260 310
#     4   9  20  37  56  78 107 140 171 211 265 315
#     4  10  20  34  55  81 106 137 178 218 256 306
#
# _framework density 17.417745
#
# number of rings (size 3 to 8) (size 9 to 14) (size 15 to 20)
#    0.000    2.333    0.000    4.500    0.000    7.333 
#    0.000    6.667    0.000    0.000    0.000    0.000 
#    0.000    0.000    0.000    0.000    0.000    0.000 
#
# Total GULP energy -133949.803420 kJ/mol
# GULP energy per Si atom -5581.241809 kJ/mol
# Density = 1.737810 g / cm^3
# Si number density = 17.417745 Si / 1000 Ang^3
#
#
#
# Elastic Constant Matrix: (Units=GPa)
#
#
# Indices 1 2 3 4 5 6 
#
# 1 56.0182 57.3249 57.4693 0.0000 0.0000 0.0000
# 2 57.3249 143.3582 137.3763 0.0000 0.0000 0.0000
# 3 57.4693 137.3763 147.2059 0.0000 0.0000 0.0000
# 4 0.0000 0.0000 0.0000 43.0564 0.0000 0.0000
# 5 0.0000 0.0000 0.0000 0.0000 21.6109 0.0000
# 6 0.0000 0.0000 0.0000 0.0000 0.0000 24.5099
#
#
#
# Elastic Compliance Matrix: (Units=1/GPa)
#
#
# Indices 1 2 3 4 5 6 
#
# 1 0.030598 -0.007456 -0.004987 0.000000 0.000000 0.000000
# 2 -0.007456 0.067801 -0.060363 0.000000 0.000000 0.000000
# 3 -0.004987 -0.060363 0.065072 0.000000 0.000000 0.000000
# 4 0.000000 0.000000 0.000000 0.023225 0.000000 0.000000
# 5 0.000000 0.000000 0.000000 0.000000 0.046273 0.000000
# 6 0.000000 0.000000 0.000000 0.000000 0.000000 0.040800
#
#
# Mechanical properties :
#
#
# Convention : Reuss Voigt Hill
#
# Bulk Modulus (GPa) = 55.99433 94.54703 75.27068
# Shear Modulus (GPa) = 11.75544 24.12956 17.94250
#
# Velocity S-wave (km/s) = 2.60072 3.72606 3.21304
# Velocity P-wave (km/s) = 6.42153 8.53881 7.55471
#
# Compressibility (1/GPa) = 0.01785895
#
# Stress axis : x y z
#
# Youngs Moduli (GPa) = 32.68218 14.74898 15.36750
#
# Poissons Ratio (x) = 0.10997 0.07664
# Poissons Ratio (y) = 0.24369 0.92763
# Poissons Ratio (z) = 0.16298 0.89029
#
# Static dielectric constant tensor:
#      x y z
#    x 1.586660 0.000000 0.000000 
#    y 0.000000 1.571960 0.000000 
#    z 0.000000 0.000000 1.572640 
# 
# From -- ./inp_files/4633.got.cif
#   From: 2010.05.17/outbox.cif.g08.bks.cpg/sg40_3_cif.got.tgz:4633.got - 2010.06.03 18:35:42.
