data_PCOD9363230
_publ_section_title
;
Structure prediction by ZEFSAII (Michael W. Deem and Ramdas Pophale) SiO2 
 PCOD9363230
Probable space group: A M A 2
;
_chemical_formula_sum "Si O2"
_cell_formula_units_Z 64
_cell_length_a 9.214841
_cell_length_b 25.627552
_cell_length_c 14.850856
_cell_angle_alpha 90.000000
_cell_angle_beta 90.000000
_cell_angle_gamma 90.000000
_cell_volume 3507.086329
_symmetry_space_group_name_H-M "A M A 2"
_symmetry_group_IT_number 40
_symmetry_cell_setting 'orthorhombic'
loop_
_space_group_symop_operation_xyz
x,y,z
-x,-y,z
1/2-x,y,z
1/2+x,-y,z
x,1/2+y,1/2+z
-x,1/2-y,1/2+z
1/2-x,1/2+y,1/2+z
1/2+x,1/2-y,1/2+z
loop_
_atom_site_type_symbol
_atom_site_label
_atom_site_fract_x
_atom_site_fract_y
_atom_site_fract_z
Si Si1 0.922808 0.841997 0.577460
Si Si2 0.077967 0.359818 0.456907
Si Si3 0.922781 0.055478 0.109279
Si Si4 0.923654 0.395388 0.781632
Si Si5 0.582354 0.776588 0.269537
Si Si6 0.581297 0.764168 0.053082
Si Si7 0.576437 0.946072 0.471989
Si Si8 0.079189 0.171372 0.789532
O O1 0.750000 0.834401 0.561393
O O2 0.966518 0.896495 0.532693
O O3 0.946281 0.842834 0.685126
O O4 0.008654 0.792246 0.539661
O O5 0.250000 0.352296 0.449618
O O6 0.050549 0.408712 0.522020
O O7 0.005393 0.309362 0.502916
O O8 0.006647 0.364595 0.359057
O O9 0.250000 0.950923 0.120502
O O10 0.988998 0.084674 0.195839
O O11 0.000000 0.000000 0.100827
O O12 0.750000 0.397850 0.763413
O O13 0.956854 0.334614 0.800913
O O14 0.955789 0.430115 0.868828
O O15 0.750000 0.765789 0.295164
O O16 0.574824 0.776019 0.160475
O O17 0.480389 0.730223 0.302442
O O18 0.750000 0.764129 0.026501
O O19 0.750000 0.952057 0.480026
O O20 0.500000 0.000000 0.495817
O O21 0.250000 0.169196 0.806971
#
# Coordination Sequence:
#
# PCOD9363230 Si02
#       8
#     8   8   8   8   8   8   8   8
#     4   9  20  39  59  82 115 153 191 235 292 345
#     4  11  23  38  57  83 116 154 194 237 292 348
#     4  11  24  40  60  84 114 154 196 241 291 347
#     4  10  20  36  58  85 119 156 189 229 284 345
#     4   9  18  33  54  83 119 155 187 223 279 346
#     4  10  19  33  56  86 116 149 188 231 280 337
#     4  10  22  39  59  83 112 151 194 236 285 337
#     4  10  21  36  57  84 116 152 193 242 288 341
#
# _framework density 18.248767000000001
#
# number of rings (size 3 to 8) (size 9 to 14) (size 15 to 20)
#    0.000    2.000    1.250    1.875    1.750    5.000 
#    0.000    0.625    0.000    3.000    0.000    0.000 
#    0.000    0.000    0.000    0.000    0.000    0.000 
#
# Total GULP energy -178780.517504 kJ/mol
# GULP energy per Si atom -5586.891172 kJ/mol
# Density = 1.820723 g / cm^3
# Si number density = 18.248767 Si / 1000 Ang^3
#
#
#
# Elastic Constant Matrix: (Units=GPa)
#
#
# Indices 1 2 3 4 5 6 
#
# 1 70.4689 47.7309 44.3275 0.0000 0.0000 0.0000
# 2 47.7309 103.5598 30.5364 0.0000 0.0000 0.0000
# 3 44.3275 30.5364 46.7036 0.0000 0.0000 0.0000
# 4 0.0000 0.0000 0.0000 23.4191 0.0000 0.0000
# 5 0.0000 0.0000 0.0000 0.0000 25.6735 0.0000
# 6 0.0000 0.0000 0.0000 0.0000 0.0000 25.6698
#
#
#
# Elastic Compliance Matrix: (Units=1/GPa)
#
#
# Indices 1 2 3 4 5 6 
#
# 1 0.041336 -0.009271 -0.033172 0.000000 0.000000 0.000000
# 2 -0.009271 0.014042 -0.000382 0.000000 0.000000 0.000000
# 3 -0.033172 -0.000382 0.053145 0.000000 0.000000 0.000000
# 4 0.000000 0.000000 0.000000 0.042700 0.000000 0.000000
# 5 0.000000 0.000000 0.000000 0.000000 0.038951 0.000000
# 6 0.000000 0.000000 0.000000 0.000000 0.000000 0.038956
#
#
# Mechanical properties :
#
#
# Convention : Reuss Voigt Hill
#
# Bulk Modulus (GPa) = 43.71643 51.76912 47.74278
# Shear Modulus (GPa) = 15.50850 21.49498 18.50174
#
# Velocity S-wave (km/s) = 2.91836 3.43576 3.18757
# Velocity P-wave (km/s) = 5.94673 6.64601 6.30607
#
# Compressibility (1/GPa) = 0.02287469
#
# Stress axis : x y z
#
# Youngs Moduli (GPa) = 24.19190 71.21623 18.81632
#
# Poissons Ratio (x) = 0.66022 0.62417
# Poissons Ratio (y) = 0.22427 0.00719
# Poissons Ratio (z) = 0.80249 0.02720
#
# Static dielectric constant tensor:
#      x y z
#    x 1.607710 0.000000 0.000000 
#    y 0.000000 1.594470 0.000000 
#    z 0.000000 0.000000 1.646600 
# 
# From -- ./inp_files/15590.got.cif
#   From: 2010.05.17/outbox.cif.g08.bks.cpg/sg40_8_cif.got.tgz:15590.got - 2010.06.03 18:35:42.
