data_PCOD9363207
_publ_section_title
;
Structure prediction by ZEFSAII (Michael W. Deem and Ramdas Pophale) SiO2 
 PCOD9363207
Probable space group: A M A 2
;
_chemical_formula_sum "Si O2"
_cell_formula_units_Z 64
_cell_length_a 7.946454
_cell_length_b 17.670407
_cell_length_c 21.320372
_cell_angle_alpha 90.000000
_cell_angle_beta 90.000000
_cell_angle_gamma 90.000000
_cell_volume 2993.744304
_symmetry_space_group_name_H-M "A M A 2"
_symmetry_group_IT_number 40
_symmetry_cell_setting 'orthorhombic'
loop_
_space_group_symop_operation_xyz
x,y,z
-x,-y,z
1/2-x,y,z
1/2+x,-y,z
x,1/2+y,1/2+z
-x,1/2-y,1/2+z
1/2-x,1/2+y,1/2+z
1/2+x,1/2-y,1/2+z
loop_
_atom_site_type_symbol
_atom_site_label
_atom_site_fract_x
_atom_site_fract_y
_atom_site_fract_z
Si Si1 0.554569 0.786534 0.464060
Si Si2 0.447315 0.616006 0.461779
Si Si3 0.550932 0.882287 0.689861
Si Si4 0.453042 0.580594 0.596571
Si Si5 0.556543 0.082593 0.552512
Si Si6 0.452430 0.714624 0.827906
Si Si7 0.546247 0.292949 0.691809
Si Si8 0.447123 0.111659 0.826229
O O1 0.750000 0.764663 0.461657
O O2 0.458327 0.707203 0.470164
O O3 0.532732 0.847464 0.518454
O O4 0.507810 0.820694 0.395494
O O5 0.250000 0.596130 0.459129
O O6 0.522784 0.583926 0.525701
O O7 0.522218 0.590953 0.394346
O O8 0.750000 0.898160 0.687666
O O9 0.469004 0.914427 0.627359
O O10 0.524051 0.791631 0.686456
O O11 0.481425 0.909660 0.757783
O O12 0.500000 0.500000 0.625034
O O13 0.250000 0.586392 0.593475
O O14 0.513903 0.650679 0.638093
O O15 0.750000 0.092853 0.537782
O O16 0.500000 0.000000 0.530233
O O17 0.250000 0.726271 0.825904
O O18 0.496959 0.677088 0.761722
O O19 0.537737 0.797047 0.827271
O O20 0.750000 0.287136 0.687091
O O21 0.250000 0.090814 0.825559
#
# Coordination Sequence:
#
# PCOD9363207 Si02
#       8
#     8   8   8   8   8   8   8   8
#     4  10  19  33  55  82 106 132 167 210 256 305
#     4   9  17  32  53  78 106 139 174 209 251 301
#     4  10  19  33  55  82 106 132 167 210 256 305
#     4  10  21  34  49  69  99 137 175 212 251 292
#     4  12  25  40  55  73 101 137 173 214 261 314
#     4   8  15  28  49  76 106 133 164 206 250 297
#     4   9  17  32  53  78 106 139 174 209 251 301
#     4   8  15  28  49  76 106 133 164 206 250 297
#
# _framework density 21.377911999999998
#
# number of rings (size 3 to 8) (size 9 to 14) (size 15 to 20)
#    0.000    2.500    0.000    2.625    0.000    3.000 
#    0.000    1.250    0.000    3.000    0.000    0.000 
#    0.000    0.000    0.000    0.000    0.000    0.000 
#
# Total GULP energy -178437.100634 kJ/mol
# GULP energy per Si atom -5576.159395 kJ/mol
# Density = 2.132926 g / cm^3
# Si number density = 21.377912 Si / 1000 Ang^3
#
#
#
# Elastic Constant Matrix: (Units=GPa)
#
#
# Indices 1 2 3 4 5 6 
#
# 1 22.3498 -13.0560 2.1204 0.0000 0.0000 0.0000
# 2 -13.0560 65.5151 30.7922 0.0000 0.0000 0.0000
# 3 2.1204 30.7922 104.1337 0.0000 0.0000 0.0000
# 4 0.0000 0.0000 0.0000 -30.2337 0.0000 0.0000
# 5 0.0000 0.0000 0.0000 0.0000 3.4371 0.0000
# 6 0.0000 0.0000 0.0000 0.0000 0.0000 13.9736
#
#
#
# Elastic Compliance Matrix: (Units=1/GPa)
#
#
# Indices 1 2 3 4 5 6 
#
# 1 0.052666 0.012775 -0.004850 0.000000 0.000000 0.000000
# 2 0.012775 0.020826 -0.006418 0.000000 0.000000 0.000000
# 3 -0.004850 -0.006418 0.011600 0.000000 0.000000 0.000000
# 4 0.000000 0.000000 0.000000 -0.033076 0.000000 0.000000
# 5 0.000000 0.000000 0.000000 0.000000 0.290942 0.000000
# 6 0.000000 0.000000 0.000000 0.000000 0.000000 0.071563
#
#
# Mechanical properties :
#
#
# Convention : Reuss Voigt Hill
#
# Bulk Modulus (GPa) = 11.35012 25.74576 18.54794
# Shear Modulus (GPa) = 11.34104 8.91154 10.12629
#
# Velocity S-wave (km/s) = 2.30576 2.04392 2.17878
# Velocity P-wave (km/s) = 3.52271 4.19994 3.87614
#
# Compressibility (1/GPa) = 0.08810482
#
# Stress axis : x y z
#
# Youngs Moduli (GPa) = 18.98762 48.01668 86.20915
#
# Poissons Ratio (x) = -0.61341 0.41811
# Poissons Ratio (y) = -0.24256 0.55332
# Poissons Ratio (z) = 0.09209 0.30819
#
# Static dielectric constant tensor:
#      x y z
#    x 1.749070 0.000000 0.000000 
#    y 0.000000 1.699600 0.000000 
#    z 0.000000 0.000000 1.849350 
# 
# From -- ./inp_files/22376.got.cif
#   From: 2010.05.17/outbox.cif.g08.bks.cpg/sg40_12_cif.got.tgz:22376.got - 2010.06.03 18:35:42.
