data_PCOD9363052
_publ_section_title
;
Structure prediction by ZEFSAII (Michael W. Deem and Ramdas Pophale) SiO2 
 PCOD9363052
Probable space group: A M A 2
;
_chemical_formula_sum "Si O2"
_cell_formula_units_Z 56
_cell_length_a 8.958045
_cell_length_b 24.632068
_cell_length_c 13.831382
_cell_angle_alpha 90.000000
_cell_angle_beta 90.000000
_cell_angle_gamma 90.000000
_cell_volume 3051.965996
_symmetry_space_group_name_H-M "A M A 2"
_symmetry_group_IT_number 40
_symmetry_cell_setting 'orthorhombic'
loop_
_space_group_symop_operation_xyz
x,y,z
-x,-y,z
1/2-x,y,z
1/2+x,-y,z
x,1/2+y,1/2+z
-x,1/2-y,1/2+z
1/2-x,1/2+y,1/2+z
1/2+x,1/2-y,1/2+z
loop_
_atom_site_type_symbol
_atom_site_label
_atom_site_fract_x
_atom_site_fract_y
_atom_site_fract_z
Si Si1 0.428265 0.943332 0.566750
Si Si2 0.428717 0.273517 0.567894
Si Si3 0.072628 0.058883 0.982576
Si Si4 0.571395 0.057730 0.339701
Si Si5 0.572213 0.373227 0.676346
Si Si6 0.430107 0.330191 0.158817
Si Si7 0.429259 0.340082 0.379157
O O1 0.250000 0.948506 0.574801
O O2 0.463361 0.934416 0.453189
O O3 0.475210 0.890595 0.626235
O O4 0.500000 0.000000 0.598064
O O5 0.250000 0.273394 0.576530
O O6 0.499090 0.317271 0.641399
O O7 0.494650 0.215155 0.592823
O O8 0.468002 0.295758 0.460909
O O9 0.250000 0.055184 0.969447
O O10 0.044042 0.083513 0.089761
O O11 0.000000 0.000000 0.972219
O O12 0.004814 0.103408 0.909867
O O13 0.750000 0.055902 0.327903
O O14 0.500914 0.103791 0.273083
O O15 0.500000 0.000000 0.310889
O O16 0.750000 0.366891 0.686863
O O17 0.250000 0.326026 0.149614
O O18 0.470342 0.322537 0.271234
O O19 0.250000 0.347721 0.381797
#
# Coordination Sequence:
#
# PCOD9363052 Si02
#       7
#     8   8   8   8   8   8   8
#     4   9  20  37  56  79 109 142 178 221 267 314
#     4  10  21  37  56  80 108 139 177 222 266 316
#     4  10  20  33  52  78 109 144 181 221 268 318
#     4  10  19  32  51  78 110 145 183 224 269 318
#     4  10  20  34  53  78 108 145 183 223 270 318
#     4  10  21  39  60  81 107 141 177 217 266 318
#     4   9  20  38  57  78 107 140 178 222 265 312
#
# _framework density 18.348828000000001
#
# number of rings (size 3 to 8) (size 9 to 14) (size 15 to 20)
#    0.000    2.286    0.000    2.143    0.000    6.857 
#    0.000    4.286    0.000    0.000    0.000    0.000 
#    0.000    0.000    0.000    0.000    0.000    0.000 
#
# Total GULP energy -156340.032913 kJ/mol
# GULP energy per Si atom -5583.572604 kJ/mol
# Density = 1.830707 g / cm^3
# Si number density = 18.348828 Si / 1000 Ang^3
#
#
#
# Elastic Constant Matrix: (Units=GPa)
#
#
# Indices 1 2 3 4 5 6 
#
# 1 38.0475 44.9109 35.3351 0.0000 0.0000 0.0000
# 2 44.9109 145.3632 66.5752 0.0000 0.0000 0.0000
# 3 35.3351 66.5752 73.8364 0.0000 0.0000 0.0000
# 4 0.0000 0.0000 0.0000 20.3690 0.0000 0.0000
# 5 0.0000 0.0000 0.0000 0.0000 -6.4571 0.0000
# 6 0.0000 0.0000 0.0000 0.0000 0.0000 38.2318
#
#
#
# Elastic Compliance Matrix: (Units=1/GPa)
#
#
# Indices 1 2 3 4 5 6 
#
# 1 0.052242 -0.007990 -0.017797 0.000000 0.000000 0.000000
# 2 -0.007990 0.012940 -0.007844 0.000000 0.000000 0.000000
# 3 -0.017797 -0.007844 0.029133 0.000000 0.000000 0.000000
# 4 0.000000 0.000000 0.000000 0.049094 0.000000 0.000000
# 5 0.000000 0.000000 0.000000 0.000000 -0.154867 0.000000
# 6 0.000000 0.000000 0.000000 0.000000 0.000000 0.026156
#
#
# Mechanical properties :
#
#
# Convention : Reuss Voigt Hill
#
# Bulk Modulus (GPa) = 36.96330 61.20993 49.08662
# Shear Modulus (GPa) = 54.95767 17.79045 36.37406
#
# Velocity S-wave (km/s) = 5.47874 3.11717 4.45721
# Velocity P-wave (km/s) = 7.75955 6.81081 7.30061
#
# Compressibility (1/GPa) = 0.02705386
#
# Stress axis : x y z
#
# Youngs Moduli (GPa) = 19.14162 77.27740 34.32504
#
# Poissons Ratio (x) = 0.61742 0.61088
# Poissons Ratio (y) = 0.15293 0.26926
# Poissons Ratio (z) = 0.34066 0.60619
#
# Static dielectric constant tensor:
#      x y z
#    x 1.611930 0.000000 0.000000 
#    y 0.000000 1.603140 0.000000 
#    z 0.000000 0.000000 1.631790 
# 
# From -- ./inp_files/15289.got.cif
#   From: 2010.05.17/outbox.cif.g08.bks.cpg/sg40_8_cif.got.tgz:15289.got - 2010.06.03 18:35:42.
