data_PCOD9363642
_publ_section_title
;
Structure prediction by ZEFSAII (Michael W. Deem and Ramdas Pophale) SiO2 
 PCOD9363642
Probable space group: A M A 2
;
_chemical_formula_sum "Si O2"
_cell_formula_units_Z 48
_cell_length_a 8.732676
_cell_length_b 13.921780
_cell_length_c 18.062750
_cell_angle_alpha 90.000000
_cell_angle_beta 90.000000
_cell_angle_gamma 90.000000
_cell_volume 2195.967887
_symmetry_space_group_name_H-M "A M A 2"
_symmetry_group_IT_number 40
_symmetry_cell_setting 'orthorhombic'
loop_
_space_group_symop_operation_xyz
x,y,z
-x,-y,z
1/2-x,y,z
1/2+x,-y,z
x,1/2+y,1/2+z
-x,1/2-y,1/2+z
1/2-x,1/2+y,1/2+z
1/2+x,1/2-y,1/2+z
loop_
_atom_site_type_symbol
_atom_site_label
_atom_site_fract_x
_atom_site_fract_y
_atom_site_fract_z
Si Si1 0.067451 0.807525 0.176350
Si Si2 0.567242 0.312262 0.829382
Si Si3 0.577739 0.138862 0.478401
Si Si4 0.577016 0.362462 0.524917
Si Si5 0.935328 0.598594 0.141645
Si Si6 0.570375 0.597553 0.373468
O O1 0.250000 0.806362 0.169367
O O2 0.014369 0.848140 0.255367
O O3 0.993234 0.863078 0.106743
O O4 0.002570 0.697906 0.172898
O O5 0.750000 0.313549 0.820199
O O6 0.520540 0.367408 0.904273
O O7 0.516066 0.200457 0.842225
O O8 0.750000 0.102835 0.464373
O O9 0.588911 0.250921 0.500995
O O10 0.516217 0.097483 0.555014
O O11 0.750000 0.402593 0.522929
O O12 0.468827 0.402044 0.460794
O O13 0.750000 0.602162 0.146063
O O14 0.000000 0.500000 0.174744
O O15 0.500000 0.500000 0.342331
O O16 0.750000 0.594523 0.361628
#
# Coordination Sequence:
#
# PCOD9363642 Si02
#       6
#     8   8   8   8   8   8
#     4  11  21  33  51  74 102 134 168 205 249 298
#     4  10  20  33  50  73 101 132 168 207 248 295
#     4   8  16  31  50  71  95 126 164 204 245 292
#     4   9  17  32  52  72  97 128 166 208 247 291
#     4  10  20  34  52  75 103 133 167 205 247 295
#     4  10  20  33  51  75 102 133 168 205 248 297
#
# _framework density 21.858242000000001
#
# number of rings (size 3 to 8) (size 9 to 14) (size 15 to 20)
#    0.000    2.333    0.000    4.500    0.000    7.333 
#    0.000    1.667    0.000    1.000    0.000    4.667 
#    0.000    0.000    0.000    0.000    0.000    0.000 
#
# Total GULP energy -133974.410651 kJ/mol
# GULP energy per Si atom -5582.267110 kJ/mol
# Density = 2.180849 g / cm^3
# Si number density = 21.858242 Si / 1000 Ang^3
#
#
#
# Elastic Constant Matrix: (Units=GPa)
#
#
# Indices 1 2 3 4 5 6 
#
# 1 46.7723 -15.2494 34.2807 0.0000 0.0000 0.0000
# 2 -15.2494 20.6764 -9.5702 0.0000 0.0000 0.0000
# 3 34.2807 -9.5702 150.1780 0.0000 0.0000 0.0000
# 4 0.0000 0.0000 0.0000 -1.3863 0.0000 0.0000
# 5 0.0000 0.0000 0.0000 0.0000 26.6946 0.0000
# 6 0.0000 0.0000 0.0000 0.0000 0.0000 13.6677
#
#
#
# Elastic Compliance Matrix: (Units=1/GPa)
#
#
# Indices 1 2 3 4 5 6 
#
# 1 0.032850 0.021388 -0.006136 0.000000 0.000000 0.000000
# 2 0.021388 0.063759 -0.000819 0.000000 0.000000 0.000000
# 3 -0.006136 -0.000819 0.008007 0.000000 0.000000 0.000000
# 4 0.000000 0.000000 0.000000 -0.721346 0.000000 0.000000
# 5 0.000000 0.000000 0.000000 0.000000 0.037461 0.000000
# 6 0.000000 0.000000 0.000000 0.000000 0.000000 0.073165
#
#
# Mechanical properties :
#
#
# Convention : Reuss Voigt Hill
#
# Bulk Modulus (GPa) = 7.49155 26.28320 16.88738
# Shear Modulus (GPa) = -10.19419 21.67292 5.73937
#
# Velocity S-wave (km/s) = -2.16192 3.15226 1.62217
# Velocity P-wave (km/s) = 1.67245 5.02986 3.35428
#
# Compressibility (1/GPa) = 0.13348373
#
# Stress axis : x y z
#
# Youngs Moduli (GPa) = 30.44097 15.68396 124.88847
#
# Poissons Ratio (x) = -0.33545 0.76628
# Poissons Ratio (y) = -0.65108 0.10229
# Poissons Ratio (z) = 0.18678 0.01285
#
# Static dielectric constant tensor:
#      x y z
#    x 1.751620 0.000000 0.000000 
#    y 0.000000 1.871650 0.000000 
#    z 0.000000 0.000000 1.810360 
# 
# From -- ./inp_files/15014.got.cif
#   From: 2010.05.17/outbox.cif.g08.bks.cpg/sg40_8_cif.got.tgz:15014.got - 2010.06.03 18:35:42.
