data_PCOD9363100
_publ_section_title
;
Structure prediction by ZEFSAII (Michael W. Deem and Ramdas Pophale) SiO2 
 PCOD9363100
Probable space group: A M A 2
;
_chemical_formula_sum "Si O2"
_cell_formula_units_Z 60
_cell_length_a 7.323456
_cell_length_b 21.762721
_cell_length_c 15.670108
_cell_angle_alpha 90.000000
_cell_angle_beta 90.000000
_cell_angle_gamma 90.000000
_cell_volume 2497.475639
_symmetry_space_group_name_H-M "A M A 2"
_symmetry_group_IT_number 40
_symmetry_cell_setting 'orthorhombic'
loop_
_space_group_symop_operation_xyz
x,y,z
-x,-y,z
1/2-x,y,z
1/2+x,-y,z
x,1/2+y,1/2+z
-x,1/2-y,1/2+z
1/2-x,1/2+y,1/2+z
1/2+x,1/2-y,1/2+z
loop_
_atom_site_type_symbol
_atom_site_label
_atom_site_fract_x
_atom_site_fract_y
_atom_site_fract_z
Si Si1 0.029708 0.104224 0.566140
Si Si2 0.250000 0.439256 0.198140
Si Si3 0.529469 0.725181 0.410745
Si Si4 0.971616 0.365110 0.877861
Si Si5 0.468598 0.246253 0.599477
Si Si6 0.466295 0.569623 0.533204
Si Si7 0.462722 0.638891 0.694421
Si Si8 0.959316 0.403062 0.343294
O O1 0.750000 0.902831 0.575614
O O2 0.909255 0.061099 0.623729
O O3 0.979430 0.101665 0.465697
O O4 0.979878 0.174505 0.596792
O O5 0.409876 0.427817 0.271155
O O6 0.750000 0.721467 0.408906
O O7 0.475481 0.793623 0.384994
O O8 0.469783 0.721979 0.510305
O O9 0.458254 0.671149 0.351086
O O10 0.750000 0.365860 0.877121
O O11 0.037726 0.384228 0.784476
O O12 0.250000 0.246436 0.598331
O O13 0.529430 0.287643 0.678746
O O14 0.500000 0.500000 0.558169
O O15 0.250000 0.581985 0.526006
O O16 0.545417 0.610310 0.609140
O O17 0.533076 0.578767 0.437022
O O18 0.250000 0.621564 0.694864
O O19 0.750000 0.424617 0.330159
#
# Coordination Sequence:
#
# PCOD9363100 Si02
#       8
#     8   4   8   8   8   8   8   8
#     4   9  20  38  53  80 118 163 203 245 290 346
#     4  12  24  36  60  78 114 156 206 252 302 356
#     4   9  16  31  50  74 114 163 195 237 293 344
#     4   8  17  33  54  78 119 158 197 243 290 346
#     4   9  18  30  48  75 115 155 199 243 283 342
#     4  10  23  40  61  88 123 156 195 252 315 373
#     4  10  19  32  55  85 112 152 200 239 294 370
#     4  11  23  37  54  88 116 150 203 251 303 366
#
# _framework density 24.024256999999999
#
# number of rings (size 3 to 8) (size 9 to 14) (size 15 to 20)
#    0.000    2.400    2.000    2.000    3.733    0.533 
#    4.800    0.000    0.000    0.000    0.000    0.933 
#    4.000    0.000    0.000    0.000    0.000    0.000 
#
# Total GULP energy -167168.048096 kJ/mol
# GULP energy per Si atom -5572.268270 kJ/mol
# Density = 2.396958 g / cm^3
# Si number density = 24.024257 Si / 1000 Ang^3
#
#
#
# Elastic Constant Matrix: (Units=GPa)
#
#
# Indices 1 2 3 4 5 6 
#
# 1 133.8172 16.9499 48.2154 0.0000 0.0000 0.0000
# 2 16.9499 44.4221 26.7681 0.0000 0.0000 0.0000
# 3 48.2154 26.7681 191.8179 0.0000 0.0000 0.0000
# 4 0.0000 0.0000 0.0000 77.1550 0.0000 0.0000
# 5 0.0000 0.0000 0.0000 0.0000 -16.7116 0.0000
# 6 0.0000 0.0000 0.0000 0.0000 0.0000 14.3823
#
#
#
# Elastic Compliance Matrix: (Units=1/GPa)
#
#
# Indices 1 2 3 4 5 6 
#
# 1 0.008394 -0.002109 -0.001816 0.000000 0.000000 0.000000
# 2 -0.002109 0.025108 -0.002974 0.000000 0.000000 0.000000
# 3 -0.001816 -0.002974 0.006085 0.000000 0.000000 0.000000
# 4 0.000000 0.000000 0.000000 0.012961 0.000000 0.000000
# 5 0.000000 0.000000 0.000000 0.000000 -0.059839 0.000000
# 6 0.000000 0.000000 0.000000 0.000000 0.000000 0.069530
#
#
# Mechanical properties :
#
#
# Convention : Reuss Voigt Hill
#
# Bulk Modulus (GPa) = 38.77432 61.54713 50.16073
# Shear Modulus (GPa) = 59.07934 33.50674 46.29304
#
# Velocity S-wave (km/s) = 4.96437 3.73863 4.39444
# Velocity P-wave (km/s) = 7.00247 6.65664 6.83174
#
# Compressibility (1/GPa) = 0.02579026
#
# Stress axis : x y z
#
# Youngs Moduli (GPa) = 119.12989 39.82815 164.34809
#
# Poissons Ratio (x) = 0.08399 0.29840
# Poissons Ratio (y) = 0.25122 0.48872
# Poissons Ratio (z) = 0.21630 0.11844
#
# Static dielectric constant tensor:
#      x y z
#    x 1.865760 0.000000 0.000000 
#    y 0.000000 0.583790 0.000000 
#    z 0.000000 0.000000 1.929650 
# 
# From -- ./inp_files/15544.got.cif
#   From: 2010.05.17/outbox.cif.g08.bks.cpg/sg40_8_cif.got.tgz:15544.got - 2010.06.03 18:35:42.
