data_PCOD9363852
_publ_section_title
;
Structure prediction by ZEFSAII (Michael W. Deem and Ramdas Pophale) SiO2 
 PCOD9363852
Probable space group: A M A 2
;
_chemical_formula_sum "Si O2"
_cell_formula_units_Z 64
_cell_length_a 8.934444
_cell_length_b 25.719006
_cell_length_c 15.189293
_cell_angle_alpha 90.000000
_cell_angle_beta 90.000000
_cell_angle_gamma 90.000000
_cell_volume 3490.271978
_symmetry_space_group_name_H-M "A M A 2"
_symmetry_group_IT_number 40
_symmetry_cell_setting 'orthorhombic'
loop_
_space_group_symop_operation_xyz
x,y,z
-x,-y,z
1/2-x,y,z
1/2+x,-y,z
x,1/2+y,1/2+z
-x,1/2-y,1/2+z
1/2-x,1/2+y,1/2+z
1/2+x,1/2-y,1/2+z
loop_
_atom_site_type_symbol
_atom_site_label
_atom_site_fract_x
_atom_site_fract_y
_atom_site_fract_z
Si Si1 0.930747 0.348988 0.680630
Si Si2 0.929824 0.444485 0.556119
Si Si3 0.069735 0.056820 0.693134
Si Si4 0.427888 0.330646 0.869752
Si Si5 0.424537 0.278792 0.351978
Si Si6 0.930510 0.888618 0.876616
Si Si7 0.575678 0.734115 0.140632
Si Si8 0.071745 0.139032 0.543809
O O1 0.750000 0.347876 0.691729
O O2 0.973121 0.398991 0.623903
O O3 0.969098 0.294566 0.632245
O O4 0.005470 0.348327 0.776202
O O5 0.750000 0.448755 0.558638
O O6 0.972123 0.425114 0.458395
O O7 0.000000 0.500000 0.576328
O O8 0.250000 0.052675 0.693799
O O9 0.025491 0.084938 0.784348
O O10 0.026898 0.093568 0.611495
O O11 0.000000 0.000000 0.687357
O O12 0.250000 0.331567 0.867541
O O13 0.485980 0.271633 0.883919
O O14 0.491257 0.364144 0.950180
O O15 0.250000 0.273909 0.375607
O O16 0.494042 0.332477 0.384602
O O17 0.434223 0.277954 0.245130
O O18 0.750000 0.881985 0.877021
O O19 0.750000 0.728301 0.113936
O O20 0.476283 0.693350 0.088568
O O21 0.250000 0.137692 0.532240
#
# Coordination Sequence:
#
# PCOD9363852 Si02
#       8
#     8   8   8   8   8   8   8   8
#     4   9  20  40  60  84 117 153 195 244 298 345
#     4  10  22  39  61  86 118 155 196 247 294 346
#     4  10  22  38  58  84 118 157 198 241 288 344
#     4  11  23  38  59  85 116 155 195 243 297 354
#     4  10  20  35  56  86 120 156 193 234 285 345
#     4  10  20  36  57  87 121 157 196 238 289 344
#     4   9  18  33  55  84 116 151 190 231 287 350
#     4  11  22  37  57  86 120 154 195 244 293 343
#
# _framework density 18.336680999999999
#
# number of rings (size 3 to 8) (size 9 to 14) (size 15 to 20)
#    0.000    2.000    1.250    3.000    1.750    4.500 
#    0.000    0.625    0.000    0.000    0.000    0.000 
#    0.000    0.000    0.000    0.000    0.000    0.000 
#
# Total GULP energy -178774.783124 kJ/mol
# GULP energy per Si atom -5586.711973 kJ/mol
# Density = 1.829495 g / cm^3
# Si number density = 18.336681 Si / 1000 Ang^3
#
#
#
# Elastic Constant Matrix: (Units=GPa)
#
#
# Indices 1 2 3 4 5 6 
#
# 1 45.5891 36.3462 35.1743 0.0000 0.0000 0.0000
# 2 36.3462 132.5801 60.2401 0.0000 0.0000 0.0000
# 3 35.1743 60.2401 86.3615 0.0000 0.0000 0.0000
# 4 0.0000 0.0000 0.0000 25.7246 0.0000 0.0000
# 5 0.0000 0.0000 0.0000 0.0000 26.5223 0.0000
# 6 0.0000 0.0000 0.0000 0.0000 0.0000 34.0113
#
#
#
# Elastic Compliance Matrix: (Units=1/GPa)
#
#
# Indices 1 2 3 4 5 6 
#
# 1 0.033644 -0.004388 -0.010642 0.000000 0.000000 0.000000
# 2 -0.004388 0.011615 -0.006314 0.000000 0.000000 0.000000
# 3 -0.010642 -0.006314 0.020318 0.000000 0.000000 0.000000
# 4 0.000000 0.000000 0.000000 0.038873 0.000000 0.000000
# 5 0.000000 0.000000 0.000000 0.000000 0.037704 0.000000
# 6 0.000000 0.000000 0.000000 0.000000 0.000000 0.029402
#
#
# Mechanical properties :
#
#
# Convention : Reuss Voigt Hill
#
# Bulk Modulus (GPa) = 43.69111 58.67244 51.18178
# Shear Modulus (GPa) = 22.53516 26.10299 24.31908
#
# Velocity S-wave (km/s) = 3.50946 3.77708 3.64573
# Velocity P-wave (km/s) = 6.34828 7.14762 6.75978
#
# Compressibility (1/GPa) = 0.02288795
#
# Stress axis : x y z
#
# Youngs Moduli (GPa) = 29.72257 86.09848 49.21676
#
# Poissons Ratio (x) = 0.37779 0.52378
# Poissons Ratio (y) = 0.13042 0.31078
# Poissons Ratio (z) = 0.31632 0.54366
#
# Static dielectric constant tensor:
#      x y z
#    x 1.611150 0.000000 0.000000 
#    y 0.000000 1.601320 0.000000 
#    z 0.000000 0.000000 1.638970 
# 
# From -- ./inp_files/15611.got.cif
#   From: 2010.05.17/outbox.cif.g08.bks.cpg/sg40_8_cif.got.tgz:15611.got - 2010.06.03 18:35:42.
