data_PCOD9363273
_publ_section_title
;
Structure prediction by ZEFSAII (Michael W. Deem and Ramdas Pophale) SiO2 
 PCOD9363273
Probable space group: A M A 2
;
_chemical_formula_sum "Si O2"
_cell_formula_units_Z 48
_cell_length_a 8.629525
_cell_length_b 9.498219
_cell_length_c 32.280257
_cell_angle_alpha 90.000000
_cell_angle_beta 90.000000
_cell_angle_gamma 90.000000
_cell_volume 2645.855084
_symmetry_space_group_name_H-M "A M A 2"
_symmetry_group_IT_number 40
_symmetry_cell_setting 'orthorhombic'
loop_
_space_group_symop_operation_xyz
x,y,z
-x,-y,z
1/2-x,y,z
1/2+x,-y,z
x,1/2+y,1/2+z
-x,1/2-y,1/2+z
1/2-x,1/2+y,1/2+z
1/2+x,1/2-y,1/2+z
loop_
_atom_site_type_symbol
_atom_site_label
_atom_site_fract_x
_atom_site_fract_y
_atom_site_fract_z
Si Si1 0.563453 0.659675 0.277350
Si Si2 0.436130 0.157647 0.932306
Si Si3 0.436729 0.340671 0.095967
Si Si4 0.063678 0.841263 0.686425
Si Si5 0.934913 0.157581 0.020981
Si Si6 0.935820 0.157554 0.352829
O O1 0.500000 0.500000 0.281422
O O2 0.750000 0.654908 0.279654
O O3 0.516935 0.716839 0.231435
O O4 0.498586 0.756326 0.313577
O O5 0.250000 0.150642 0.934846
O O6 0.481033 0.258669 0.894568
O O7 0.500000 0.000000 0.925050
O O8 0.502287 0.207978 0.976377
O O9 0.500000 0.500000 0.093734
O O10 0.250000 0.342395 0.093218
O O11 0.482454 0.280309 0.141638
O O12 0.505784 0.252129 0.058539
O O13 0.250000 0.846032 0.686401
O O14 0.000000 0.000000 0.686279
O O15 0.250000 0.845989 0.020053
O O16 0.000000 0.000000 0.026298
O O17 0.750000 0.154037 0.351022
O O18 0.000000 0.000000 0.353188
#
# Coordination Sequence:
#
# PCOD9363273 Si02
#       6
#     8   8   8   8   8   8
#     4  10  19  34  57  83 110 142 182 223 265 315
#     4  10  21  38  59  81 105 137 179 222 266 319
#     4  10  19  34  55  81 112 144 181 222 267 317
#     4   8  16  30  51  78 107 140 178 221 263 309
#     4  11  22  37  57  81 109 142 180 222 269 318
#     4  11  24  39  56  80 110 143 178 220 271 322
#
# _framework density 18.141583000000001
#
# number of rings (size 3 to 8) (size 9 to 14) (size 15 to 20)
#    0.000    2.000    0.000    5.000    0.000    6.000 
#    0.000    2.500    0.000    0.000    0.000    0.000 
#    0.000    0.000    0.000    0.000    0.000    0.000 
#
# Total GULP energy -133904.326493 kJ/mol
# GULP energy per Si atom -5579.346937 kJ/mol
# Density = 1.810029 g / cm^3
# Si number density = 18.141583 Si / 1000 Ang^3
#
#
#
# Elastic Constant Matrix: (Units=GPa)
#
#
# Indices 1 2 3 4 5 6 
#
# 1 73.1141 34.0298 67.7830 0.0000 0.0000 0.0000
# 2 34.0298 75.3674 99.0834 0.0000 0.0000 0.0000
# 3 67.7830 99.0834 236.2087 0.0000 0.0000 0.0000
# 4 0.0000 0.0000 0.0000 31.2164 0.0000 0.0000
# 5 0.0000 0.0000 0.0000 0.0000 27.1836 0.0000
# 6 0.0000 0.0000 0.0000 0.0000 0.0000 30.0171
#
#
#
# Elastic Compliance Matrix: (Units=1/GPa)
#
#
# Indices 1 2 3 4 5 6 
#
# 1 0.018962 -0.003139 -0.004125 0.000000 0.000000 0.000000
# 2 -0.003139 0.030102 -0.011726 0.000000 0.000000 0.000000
# 3 -0.004125 -0.011726 0.010336 0.000000 0.000000 0.000000
# 4 0.000000 0.000000 0.000000 0.032034 0.000000 0.000000
# 5 0.000000 0.000000 0.000000 0.000000 0.036787 0.000000
# 6 0.000000 0.000000 0.000000 0.000000 0.000000 0.033314
#
#
# Mechanical properties :
#
#
# Convention : Reuss Voigt Hill
#
# Bulk Modulus (GPa) = 46.68545 87.38697 67.03621
# Shear Modulus (GPa) = 24.19490 29.93636 27.06563
#
# Velocity S-wave (km/s) = 3.65591 4.06661 3.86672
# Velocity P-wave (km/s) = 6.60384 8.38593 7.54766
#
# Compressibility (1/GPa) = 0.02141995
#
# Stress axis : x y z
#
# Youngs Moduli (GPa) = 52.73632 33.22083 96.75035
#
# Poissons Ratio (x) = 0.10429 0.39905
# Poissons Ratio (y) = 0.16556 1.13449
# Poissons Ratio (z) = 0.21752 0.38955
#
# Static dielectric constant tensor:
#      x y z
#    x 1.610140 0.000000 0.000000 
#    y 0.000000 1.579720 0.000000 
#    z 0.000000 0.000000 1.659730 
# 
# From -- ./inp_files/26117.got.cif
#   From: 2010.05.17/outbox.cif.g08.bks.cpg/sg40_14_cif.got.tgz:26117.got - 2010.06.03 18:35:42.
