data_PCOD9363340
_publ_section_title
;
Structure prediction by ZEFSAII (Michael W. Deem and Ramdas Pophale) SiO2 
 PCOD9363340
Probable space group: A M A 2
;
_chemical_formula_sum "Si O2"
_cell_formula_units_Z 48
_cell_length_a 14.474616
_cell_length_b 5.343026
_cell_length_c 26.458396
_cell_angle_alpha 90.000000
_cell_angle_beta 90.000000
_cell_angle_gamma 90.000000
_cell_volume 2046.246035
_symmetry_space_group_name_H-M "A M A 2"
_symmetry_group_IT_number 40
_symmetry_cell_setting 'orthorhombic'
loop_
_space_group_symop_operation_xyz
x,y,z
-x,-y,z
1/2-x,y,z
1/2+x,-y,z
x,1/2+y,1/2+z
-x,1/2-y,1/2+z
1/2-x,1/2+y,1/2+z
1/2+x,1/2-y,1/2+z
loop_
_atom_site_type_symbol
_atom_site_label
_atom_site_fract_x
_atom_site_fract_y
_atom_site_fract_z
Si Si1 0.601353 0.603811 0.337460
Si Si2 0.114002 0.267780 0.224566
Si Si3 0.137209 0.350736 0.569923
Si Si4 0.356305 0.897554 0.396128
Si Si5 0.903579 0.733613 0.683385
Si Si6 0.362377 0.847702 0.509856
O O1 0.500000 0.500000 0.327697
O O2 0.637936 0.669826 0.282023
O O3 0.644719 0.366145 0.366225
O O4 0.598619 0.863002 0.368648
O O5 0.144059 0.499847 0.190622
O O6 0.003316 0.250928 0.211484
O O7 0.147814 0.996124 0.209334
O O8 0.250000 0.354106 0.576594
O O9 0.090733 0.325179 0.624439
O O10 0.109110 0.604884 0.541561
O O11 0.113456 0.107474 0.536773
O O12 0.250000 0.980365 0.401745
O O13 0.395409 0.846480 0.451961
O O14 0.250000 0.835332 0.508079
#
# Coordination Sequence:
#
# PCOD9363340 Si02
#       6
#     8   8   8   8   8   8
#     4  12  23  41  70  92 126 176 217 258 322 398
#     4  10  21  37  59  80 110 166 205 240 310 376
#     4  10  19  34  60  89 117 154 200 251 307 375
#     4  11  24  42  67  97 129 168 216 268 318 383
#     4  10  19  35  59  83 110 154 210 243 298 377
#     4   9  19  37  60  86 120 161 197 244 318 377
#
# _framework density 23.457591000000001
#
# number of rings (size 3 to 8) (size 9 to 14) (size 15 to 20)
#    0.000    1.667    1.667    4.000    2.333    2.667 
#    0.000    5.000   36.667    0.000    0.000    0.000 
#    0.000    0.000    0.000    0.000    0.000    0.000 
#
# Total GULP energy -134166.994626 kJ/mol
# GULP energy per Si atom -5590.291443 kJ/mol
# Density = 2.340420 g / cm^3
# Si number density = 23.457591 Si / 1000 Ang^3
#
#
#
# Elastic Constant Matrix: (Units=GPa)
#
#
# Indices 1 2 3 4 5 6 
#
# 1 67.0786 11.2283 8.2270 0.0000 0.0000 0.0000
# 2 11.2283 243.2813 98.7743 0.0000 0.0000 0.0000
# 3 8.2270 98.7743 200.4586 0.0000 0.0000 0.0000
# 4 0.0000 0.0000 0.0000 48.3826 0.0000 0.0000
# 5 0.0000 0.0000 0.0000 0.0000 29.6089 0.0000
# 6 0.0000 0.0000 0.0000 0.0000 0.0000 -15.3797
#
#
#
# Elastic Compliance Matrix: (Units=1/GPa)
#
#
# Indices 1 2 3 4 5 6 
#
# 1 0.015043 -0.000555 -0.000344 0.000000 0.000000 0.000000
# 2 -0.000555 0.005159 -0.002519 0.000000 0.000000 0.000000
# 3 -0.000344 -0.002519 0.006244 0.000000 0.000000 0.000000
# 4 0.000000 0.000000 0.000000 0.020669 0.000000 0.000000
# 5 0.000000 0.000000 0.000000 0.000000 0.033774 0.000000
# 6 0.000000 0.000000 0.000000 0.000000 0.000000 -0.065021
#
#
# Mechanical properties :
#
#
# Convention : Reuss Voigt Hill
#
# Bulk Modulus (GPa) = 50.99447 83.03086 67.01266
# Shear Modulus (GPa) = 170.99905 38.69496 104.84701
#
# Velocity S-wave (km/s) = 8.54724 4.06590 6.69279
# Velocity P-wave (km/s) = 10.91757 7.58387 9.39969
#
# Compressibility (1/GPa) = 0.01960997
#
# Stress axis : x y z
#
# Youngs Moduli (GPa) = 66.47651 193.83990 160.15322
#
# Poissons Ratio (x) = 0.10750 0.05511
# Poissons Ratio (y) = 0.03687 0.40346
# Poissons Ratio (z) = 0.02288 0.48833
#
# Static dielectric constant tensor:
#      x y z
#    x 1.941650 0.000000 0.000000 
#    y 0.000000 1.877390 0.000000 
#    z 0.000000 0.000000 1.837910 
# 
# From -- ./inp_files/24886.got.cif
#   From: 2010.05.17/outbox.cif.g08.bks.cpg/sg40_13_cif.got.tgz:24886.got - 2010.06.03 18:35:42.
