data_PCOD9363809
_publ_section_title
;
Structure prediction by ZEFSAII (Michael W. Deem and Ramdas Pophale) SiO2 
 PCOD9363809
Probable space group: A M A 2
;
_chemical_formula_sum "Si O2"
_cell_formula_units_Z 56
_cell_length_a 7.504927
_cell_length_b 24.420278
_cell_length_c 14.442561
_cell_angle_alpha 90.000000
_cell_angle_beta 90.000000
_cell_angle_gamma 90.000000
_cell_volume 2646.922870
_symmetry_space_group_name_H-M "A M A 2"
_symmetry_group_IT_number 40
_symmetry_cell_setting 'orthorhombic'
loop_
_space_group_symop_operation_xyz
x,y,z
-x,-y,z
1/2-x,y,z
1/2+x,-y,z
x,1/2+y,1/2+z
-x,1/2-y,1/2+z
1/2-x,1/2+y,1/2+z
1/2+x,1/2-y,1/2+z
loop_
_atom_site_type_symbol
_atom_site_label
_atom_site_fract_x
_atom_site_fract_y
_atom_site_fract_z
Si Si1 0.967732 0.879245 0.439880
Si Si2 0.540313 0.336642 0.446712
Si Si3 0.036650 0.063261 0.622074
Si Si4 0.467849 0.170548 0.152215
Si Si5 0.035148 0.729606 0.834882
Si Si6 0.036019 0.062791 0.831119
Si Si7 0.537677 0.937711 0.256448
O O1 0.750000 0.879656 0.441856
O O2 0.031174 0.897738 0.540559
O O3 0.022207 0.819464 0.403717
O O4 0.025657 0.921816 0.359771
O O5 0.750000 0.346543 0.461552
O O6 0.468571 0.320515 0.547791
O O7 0.522328 0.287567 0.374139
O O8 0.465564 0.392199 0.402294
O O9 0.250000 0.069926 0.625729
O O10 0.967453 0.072292 0.726236
O O11 0.000000 0.000000 0.597528
O O12 0.250000 0.172563 0.153288
O O13 0.525878 0.213104 0.231672
O O14 0.523945 0.110057 0.187299
O O15 0.250000 0.729188 0.834082
O O16 0.250000 0.068756 0.827145
O O17 0.000000 0.000000 0.856922
O O18 0.750000 0.932175 0.258945
O O19 0.500000 0.000000 0.231032
#
# Coordination Sequence:
#
# PCOD9363809 Si02
#       7
#     8   8   8   8   8   8   8
#     4   8  15  28  46  66  93 126 157 190 236 286
#     4  10  20  35  53  73  97 127 158 196 245 288
#     4   9  16  28  45  67  94 124 156 194 237 281
#     4   8  17  34  51  67  97 134 160 187 240 301
#     4   9  18  34  53  72  94 126 165 200 233 284
#     4   9  19  33  49  69  95 124 156 193 235 281
#     4   9  16  28  46  68  93 125 160 194 233 281
#
# _framework density 21.156642000000002
#
# number of rings (size 3 to 8) (size 9 to 14) (size 15 to 20)
#    0.000    3.143    0.000    2.143    0.000    2.286 
#    0.000    6.429    0.000    0.000    0.000    0.000 
#    0.000    0.000    0.000    0.000    0.000    0.000 
#
# Total GULP energy -156176.239375 kJ/mol
# GULP energy per Si atom -5577.722835 kJ/mol
# Density = 2.110849 g / cm^3
# Si number density = 21.156642 Si / 1000 Ang^3
#
#
#
# Elastic Constant Matrix: (Units=GPa)
#
#
# Indices 1 2 3 4 5 6 
#
# 1 52.7914 -9.0402 5.2190 0.0000 0.0000 0.0000
# 2 -9.0402 104.9484 92.8540 0.0000 0.0000 0.0000
# 3 5.2190 92.8540 156.4969 0.0000 0.0000 0.0000
# 4 0.0000 0.0000 0.0000 20.4663 0.0000 0.0000
# 5 0.0000 0.0000 0.0000 0.0000 6.0008 0.0000
# 6 0.0000 0.0000 0.0000 0.0000 0.0000 20.2182
#
#
#
# Elastic Compliance Matrix: (Units=1/GPa)
#
#
# Indices 1 2 3 4 5 6 
#
# 1 0.020136 0.004902 -0.003580 0.000000 0.000000 0.000000
# 2 0.004902 0.021251 -0.012772 0.000000 0.000000 0.000000
# 3 -0.003580 -0.012772 0.014088 0.000000 0.000000 0.000000
# 4 0.000000 0.000000 0.000000 0.048861 0.000000 0.000000
# 5 0.000000 0.000000 0.000000 0.000000 0.166645 0.000000
# 6 0.000000 0.000000 0.000000 0.000000 0.000000 0.049461
#
#
# Mechanical properties :
#
#
# Convention : Reuss Voigt Hill
#
# Bulk Modulus (GPa) = 30.69970 54.70026 42.69998
# Shear Modulus (GPa) = 14.11633 24.35065 19.23349
#
# Velocity S-wave (km/s) = 2.58588 3.39627 3.01840
# Velocity P-wave (km/s) = 4.84333 6.42578 5.68984
#
# Compressibility (1/GPa) = 0.03257361
#
# Stress axis : x y z
#
# Youngs Moduli (GPa) = 49.66276 47.05598 70.98464
#
# Poissons Ratio (x) = -0.23066 0.25412
# Poissons Ratio (y) = -0.24344 0.90665
# Poissons Ratio (z) = 0.17779 0.60102
#
# Static dielectric constant tensor:
#      x y z
#    x 1.798260 0.000000 0.000000 
#    y 0.000000 1.729710 0.000000 
#    z 0.000000 0.000000 1.776080 
# 
# From -- ./inp_files/15360.got.cif
#   From: 2010.05.17/outbox.cif.g08.bks.cpg/sg40_8_cif.got.tgz:15360.got - 2010.06.03 18:35:42.
