data_PCOD9363393
_publ_section_title
;
Structure prediction by ZEFSAII (Michael W. Deem and Ramdas Pophale) SiO2 
 PCOD9363393
Probable space group: A M A 2
;
_chemical_formula_sum "Si O2"
_cell_formula_units_Z 64
_cell_length_a 8.376199
_cell_length_b 27.492070
_cell_length_c 13.409970
_cell_angle_alpha 90.000000
_cell_angle_beta 90.000000
_cell_angle_gamma 90.000000
_cell_volume 3088.035142
_symmetry_space_group_name_H-M "A M A 2"
_symmetry_group_IT_number 40
_symmetry_cell_setting 'orthorhombic'
loop_
_space_group_symop_operation_xyz
x,y,z
-x,-y,z
1/2-x,y,z
1/2+x,-y,z
x,1/2+y,1/2+z
-x,1/2-y,1/2+z
1/2-x,1/2+y,1/2+z
1/2+x,1/2-y,1/2+z
loop_
_atom_site_type_symbol
_atom_site_label
_atom_site_fract_x
_atom_site_fract_y
_atom_site_fract_z
Si Si1 0.558655 0.615713 0.178400
Si Si2 0.560059 0.944701 0.867859
Si Si3 0.558977 0.553831 0.781913
Si Si4 0.064921 0.792746 0.151320
Si Si5 0.556949 0.600665 0.574661
Si Si6 0.938465 0.767464 0.454550
Si Si7 0.058677 0.623166 0.958606
Si Si8 0.935725 0.213597 0.778778
O O1 0.750000 0.616296 0.168157
O O2 0.512259 0.579713 0.268232
O O3 0.496471 0.669087 0.215044
O O4 0.491008 0.604679 0.068611
O O5 0.750000 0.944267 0.858923
O O6 0.500000 0.000000 0.877341
O O7 0.511284 0.916104 0.968799
O O8 0.500000 0.500000 0.805866
O O9 0.750000 0.555346 0.781603
O O10 0.505632 0.568163 0.669622
O O11 0.499722 0.590917 0.866431
O O12 0.250000 0.797060 0.185895
O O13 0.015373 0.844457 0.107745
O O14 0.955547 0.767434 0.232944
O O15 0.057702 0.752919 0.064800
O O16 0.750000 0.598664 0.565855
O O17 0.750000 0.771170 0.428370
O O18 0.009316 0.724263 0.386579
O O19 0.006971 0.821510 0.447751
O O20 0.750000 0.875368 0.456289
O O21 0.750000 0.200428 0.789116
#
# Coordination Sequence:
#
# PCOD9363393 Si02
#       8
#     8   8   8   8   8   8   8   8
#     4  11  23  41  64  91 130 170 213 264 318 379
#     4  12  26  44  68  95 125 163 213 267 326 389
#     4  11  24  42  64  92 123 163 212 263 323 381
#     4  10  19  35  58  86 122 162 199 240 296 359
#     4  10  22  41  66  96 132 168 208 261 320 380
#     4   9  18  33  55  83 120 161 198 239 295 356
#     4  11  22  39  63  91 127 168 214 264 315 374
#     4  10  20  35  57  86 121 163 206 250 298 358
#
# _framework density 20.725152999999999
#
# number of rings (size 3 to 8) (size 9 to 14) (size 15 to 20)
#    0.000    1.500    1.250    4.125    0.000    5.500 
#    0.000    3.750    0.000    0.000    0.000    0.000 
#    0.000    0.000    0.000    0.000    0.000    0.000 
#
# Total GULP energy -178596.557529 kJ/mol
# GULP energy per Si atom -5581.142423 kJ/mol
# Density = 2.067798 g / cm^3
# Si number density = 20.725153 Si / 1000 Ang^3
#
#
#
# Elastic Constant Matrix: (Units=GPa)
#
#
# Indices 1 2 3 4 5 6 
#
# 1 38.2893 0.2248 9.9547 0.0000 0.0000 0.0000
# 2 0.2248 74.1001 -2.8833 0.0000 0.0000 0.0000
# 3 9.9547 -2.8833 82.0564 0.0000 0.0000 0.0000
# 4 0.0000 0.0000 0.0000 28.6773 0.0000 0.0000
# 5 0.0000 0.0000 0.0000 0.0000 26.7985 0.0000
# 6 0.0000 0.0000 0.0000 0.0000 0.0000 39.1160
#
#
#
# Elastic Compliance Matrix: (Units=1/GPa)
#
#
# Indices 1 2 3 4 5 6 
#
# 1 0.026971 -0.000209 -0.003279 0.000000 0.000000 0.000000
# 2 -0.000209 0.013515 0.000500 0.000000 0.000000 0.000000
# 3 -0.003279 0.000500 0.012602 0.000000 0.000000 0.000000
# 4 0.000000 0.000000 0.000000 0.034871 0.000000 0.000000
# 5 0.000000 0.000000 0.000000 0.000000 0.037315 0.000000
# 6 0.000000 0.000000 0.000000 0.000000 0.000000 0.025565
#
#
# Mechanical properties :
#
#
# Convention : Reuss Voigt Hill
#
# Bulk Modulus (GPa) = 21.22626 23.22645 22.22636
# Shear Modulus (GPa) = 28.98212 31.39501 30.18856
#
# Velocity S-wave (km/s) = 3.74358 3.89630 3.82070
# Velocity P-wave (km/s) = 5.38051 5.61006 5.49648
#
# Compressibility (1/GPa) = 0.04711146
#
# Stress axis : x y z
#
# Youngs Moduli (GPa) = 37.07715 73.98992 79.35153
#
# Poissons Ratio (x) = 0.01549 0.26022
# Poissons Ratio (y) = 0.00776 -0.03970
# Poissons Ratio (z) = 0.12159 -0.03702
#
# Static dielectric constant tensor:
#      x y z
#    x 1.740010 0.000000 0.000000 
#    y 0.000000 1.777610 0.000000 
#    z 0.000000 0.000000 1.839170 
# 
# From -- ./inp_files/10697.got.cif
#   From: 2010.05.17/outbox.cif.g08.bks.cpg/sg40_6_cif.got.tgz:10697.got - 2010.06.03 18:35:42.
