data_PCOD9363113
_publ_section_title
;
Structure prediction by ZEFSAII (Michael W. Deem and Ramdas Pophale) SiO2 
 PCOD9363113
Probable space group: A M A 2
;
_chemical_formula_sum "Si O2"
_cell_formula_units_Z 64
_cell_length_a 8.585247
_cell_length_b 14.442820
_cell_length_c 30.778897
_cell_angle_alpha 90.000000
_cell_angle_beta 90.000000
_cell_angle_gamma 90.000000
_cell_volume 3816.434784
_symmetry_space_group_name_H-M "A M A 2"
_symmetry_group_IT_number 40
_symmetry_cell_setting 'orthorhombic'
loop_
_space_group_symop_operation_xyz
x,y,z
-x,-y,z
1/2-x,y,z
1/2+x,-y,z
x,1/2+y,1/2+z
-x,1/2-y,1/2+z
1/2-x,1/2+y,1/2+z
1/2+x,1/2-y,1/2+z
loop_
_atom_site_type_symbol
_atom_site_label
_atom_site_fract_x
_atom_site_fract_y
_atom_site_fract_z
Si Si1 0.936362 0.394232 0.402700
Si Si2 0.565791 0.088802 0.124318
Si Si3 0.432995 0.896717 0.717567
Si Si4 0.568270 0.904787 0.030512
Si Si5 0.938946 0.395032 0.040684
Si Si6 0.569037 0.245402 0.974446
Si Si7 0.933699 0.803453 0.632992
Si Si8 0.064115 0.104630 0.805657
O O1 0.750000 0.401961 0.405083
O O2 0.981705 0.361996 0.353804
O O3 0.000000 0.500000 0.409605
O O4 0.989538 0.314435 0.436186
O O5 0.750000 0.075689 0.114165
O O6 0.456661 0.089447 0.081728
O O7 0.551296 0.193448 0.140311
O O8 0.500000 0.000000 0.150442
O O9 0.750000 0.098476 0.723077
O O10 0.476740 0.850380 0.672321
O O11 0.501908 0.850232 0.761370
O O12 0.500000 0.000000 0.715210
O O13 0.250000 0.108279 0.019436
O O14 0.500000 0.000000 0.011550
O O15 0.456335 0.824268 0.014548
O O16 0.750000 0.394915 0.039835
O O17 0.985381 0.339890 0.085113
O O18 0.000000 0.500000 0.042422
O O19 0.990851 0.340937 0.996504
O O20 0.750000 0.256751 0.963487
O O21 0.750000 0.826793 0.636141
O O22 0.250000 0.103185 0.803513
O O23 0.000000 0.000000 0.804941
#
# Coordination Sequence:
#
# PCOD9363113 Si02
#       8
#     8   8   8   8   8   8   8   8
#     4  10  20  33  51  78 106 136 169 204 248 303
#     4  10  19  33  50  70  98 129 164 204 247 296
#     4  11  21  32  50  76 104 135 174 211 252 301
#     4  11  20  30  46  67  94 127 163 201 240 286
#     4  10  22  38  53  70  96 131 171 213 255 296
#     4  11  21  35  50  69  98 132 168 206 249 296
#     4  10  20  36  53  72 101 135 172 211 252 298
#     4   9  17  31  50  72 103 135 165 202 251 302
#
# _framework density 16.769579
#
# number of rings (size 3 to 8) (size 9 to 14) (size 15 to 20)
#    0.000    1.750    1.250    6.000    0.000    5.000 
#    0.000    0.000    0.000    0.000    0.000    0.875 
#    0.000    6.000    0.000    0.000    0.000    0.000 
#
# Total GULP energy -178146.131633 kJ/mol
# GULP energy per Si atom -5567.066614 kJ/mol
# Density = 1.673141 g / cm^3
# Si number density = 16.769579 Si / 1000 Ang^3
#
#
#
# Elastic Constant Matrix: (Units=GPa)
#
#
# Indices 1 2 3 4 5 6 
#
# 1 54.5156 25.2330 36.4356 0.0000 0.0000 0.0000
# 2 25.2330 84.6590 38.6571 0.0000 0.0000 0.0000
# 3 36.4356 38.6571 107.4461 0.0000 0.0000 0.0000
# 4 0.0000 0.0000 0.0000 8.8062 0.0000 0.0000
# 5 0.0000 0.0000 0.0000 0.0000 24.5773 0.0000
# 6 0.0000 0.0000 0.0000 0.0000 0.0000 24.1914
#
#
#
# Elastic Compliance Matrix: (Units=1/GPa)
#
#
# Indices 1 2 3 4 5 6 
#
# 1 0.024949 -0.004275 -0.006922 0.000000 0.000000 0.000000
# 2 -0.004275 0.014867 -0.003899 0.000000 0.000000 0.000000
# 3 -0.006922 -0.003899 0.013057 0.000000 0.000000 0.000000
# 4 0.000000 0.000000 0.000000 0.113556 0.000000 0.000000
# 5 0.000000 0.000000 0.000000 0.000000 0.040688 0.000000
# 6 0.000000 0.000000 0.000000 0.000000 0.000000 0.041337
#
#
# Mechanical properties :
#
#
# Convention : Reuss Voigt Hill
#
# Bulk Modulus (GPa) = 44.09220 49.69690 46.89455
# Shear Modulus (GPa) = 17.46994 21.26799 19.36896
#
# Velocity S-wave (km/s) = 3.23114 3.56511 3.40222
# Velocity P-wave (km/s) = 6.34589 6.82980 6.59229
#
# Compressibility (1/GPa) = 0.02267975
#
# Stress axis : x y z
#
# Youngs Moduli (GPa) = 40.08244 67.26429 76.58673
#
# Poissons Ratio (x) = 0.28757 0.53014
# Poissons Ratio (y) = 0.17136 0.29861
# Poissons Ratio (z) = 0.27745 0.26226
#
# Static dielectric constant tensor:
#      x y z
#    x 1.571110 0.000000 0.000000 
#    y 0.000000 1.607860 0.000000 
#    z 0.000000 0.000000 1.617140 
# 
# From -- ./inp_files/26459.got.cif
#   From: 2010.05.17/outbox.cif.g08.bks.cpg/sg40_14_cif.got.tgz:26459.got - 2010.06.03 18:35:42.
