data_PCOD9363578
_publ_section_title
;
Structure prediction by ZEFSAII (Michael W. Deem and Ramdas Pophale) SiO2 
 PCOD9363578
Probable space group: A M A 2
;
_chemical_formula_sum "Si O2"
_cell_formula_units_Z 56
_cell_length_a 18.810801
_cell_length_b 14.406350
_cell_length_c 9.910685
_cell_angle_alpha 90.000000
_cell_angle_beta 90.000000
_cell_angle_gamma 90.000000
_cell_volume 2685.745913
_symmetry_space_group_name_H-M "A M A 2"
_symmetry_group_IT_number 40
_symmetry_cell_setting 'orthorhombic'
loop_
_space_group_symop_operation_xyz
x,y,z
-x,-y,z
1/2-x,y,z
1/2+x,-y,z
x,1/2+y,1/2+z
-x,1/2-y,1/2+z
1/2-x,1/2+y,1/2+z
1/2+x,1/2-y,1/2+z
loop_
_atom_site_type_symbol
_atom_site_label
_atom_site_fract_x
_atom_site_fract_y
_atom_site_fract_z
Si Si1 0.402112 0.812725 0.244040
Si Si2 0.031619 0.138210 0.851376
Si Si3 0.664853 0.603705 0.999672
Si Si4 0.829751 0.280438 0.686761
Si Si5 0.936351 0.941647 0.562493
Si Si6 0.390396 0.259049 0.455735
Si Si7 0.040619 0.091865 0.146123
O O1 0.409870 0.718209 0.328097
O O2 0.367033 0.883094 0.348909
O O3 0.482828 0.832328 0.194198
O O4 0.364941 0.800418 0.099105
O O5 0.035416 0.085290 0.710799
O O6 0.955860 0.183475 0.890462
O O7 0.049462 0.081513 0.985008
O O8 0.750000 0.597635 0.994939
O O9 0.646205 0.694657 0.090716
O O10 0.630039 0.511408 0.062302
O O11 0.750000 0.306473 0.646501
O O12 0.832205 0.244792 0.840113
O O13 0.883639 0.367245 0.687785
O O14 0.918800 0.844646 0.490528
O O15 0.000000 0.000000 0.495636
O O16 0.000000 0.000000 0.193443
#
# Coordination Sequence:
#
# PCOD9363578 Si02
#       7
#     8   8   8   8   8   8   8
#     4  10  21  39  67  94 127 170 218 279 331 399
#     4  10  19  40  64  97 129 167 219 274 325 399
#     4  11  25  45  67  96 137 180 226 278 342 412
#     4  11  24  42  64  90 134 181 218 270 348 421
#     4  11  23  36  68 100 130 168 223 276 331 394
#     4  10  22  38  63  97 130 171 215 273 333 397
#     4  11  23  38  65  97 128 168 226 278 335 392
#
# _framework density 20.850818
#
# number of rings (size 3 to 8) (size 9 to 14) (size 15 to 20)
#    0.000    1.429    2.857    2.143    4.000    2.286 
#    0.000    2.857    0.000    0.857    0.000    0.000 
#    0.000    0.000    0.000    0.000    0.000    0.000 
#
# Total GULP energy -156150.501503 kJ/mol
# GULP energy per Si atom -5576.803625 kJ/mol
# Density = 2.080336 g / cm^3
# Si number density = 20.850818 Si / 1000 Ang^3
#
#
#
# Elastic Constant Matrix: (Units=GPa)
#
#
# Indices 1 2 3 4 5 6 
#
# 1 78.7856 35.7351 37.0434 0.0000 0.0000 0.0000
# 2 35.7351 79.4556 46.9788 0.0000 0.0000 0.0000
# 3 37.0434 46.9788 159.9458 0.0000 0.0000 0.0000
# 4 0.0000 0.0000 0.0000 -27.4641 0.0000 0.0000
# 5 0.0000 0.0000 0.0000 0.0000 16.0125 0.0000
# 6 0.0000 0.0000 0.0000 0.0000 0.0000 28.5639
#
#
#
# Elastic Compliance Matrix: (Units=1/GPa)
#
#
# Indices 1 2 3 4 5 6 
#
# 1 0.016448 -0.006226 -0.001981 0.000000 0.000000 0.000000
# 2 -0.006226 0.017588 -0.003724 0.000000 0.000000 0.000000
# 3 -0.001981 -0.003724 0.007805 0.000000 0.000000 0.000000
# 4 0.000000 0.000000 0.000000 -0.036411 0.000000 0.000000
# 5 0.000000 0.000000 0.000000 0.000000 0.062451 0.000000
# 6 0.000000 0.000000 0.000000 0.000000 0.000000 0.035009
#
#
# Mechanical properties :
#
#
# Convention : Reuss Voigt Hill
#
# Bulk Modulus (GPa) = 55.62128 61.96686 58.79407
# Shear Modulus (GPa) = 37.66652 16.65112 27.15882
#
# Velocity S-wave (km/s) = 4.25488 2.82899 3.61297
# Velocity P-wave (km/s) = 7.13249 6.36039 6.75748
#
# Compressibility (1/GPa) = 0.01797873
#
# Stress axis : x y z
#
# Youngs Moduli (GPa) = 60.79748 56.85788 128.13053
#
# Poissons Ratio (x) = 0.35403 0.25377
# Poissons Ratio (y) = 0.37855 0.47713
# Poissons Ratio (z) = 0.12041 0.21172
#
# Static dielectric constant tensor:
#      x y z
#    x 1.739850 0.000000 0.000000 
#    y 0.000000 1.862280 0.000000 
#    z 0.000000 0.000000 1.785000 
# 
# From -- ./inp_files/8342.got.cif
#   From: 2010.05.17/outbox.cif.g08.bks.cpg/sg40_5_cif.got.tgz:8342.got - 2010.06.03 18:35:42.
