data_PCOD9363573
_publ_section_title
;
Structure prediction by ZEFSAII (Michael W. Deem and Ramdas Pophale) SiO2 
 PCOD9363573
Probable space group: A M A 2
;
_chemical_formula_sum "Si O2"
_cell_formula_units_Z 64
_cell_length_a 15.161330
_cell_length_b 12.405763
_cell_length_c 14.957780
_cell_angle_alpha 90.000000
_cell_angle_beta 90.000000
_cell_angle_gamma 90.000000
_cell_volume 2813.376931
_symmetry_space_group_name_H-M "A M A 2"
_symmetry_group_IT_number 40
_symmetry_cell_setting 'orthorhombic'
loop_
_space_group_symop_operation_xyz
x,y,z
-x,-y,z
1/2-x,y,z
1/2+x,-y,z
x,1/2+y,1/2+z
-x,1/2-y,1/2+z
1/2-x,1/2+y,1/2+z
1/2+x,1/2-y,1/2+z
loop_
_atom_site_type_symbol
_atom_site_label
_atom_site_fract_x
_atom_site_fract_y
_atom_site_fract_z
Si Si1 0.088918 0.767988 0.191990
Si Si2 0.858896 0.710816 0.490781
Si Si3 0.088275 0.181043 0.302691
Si Si4 0.355046 0.015949 0.929901
Si Si5 0.144872 0.030181 0.730762
Si Si6 0.358191 0.255839 0.958719
Si Si7 0.149369 0.437665 0.819630
Si Si8 0.648933 0.676788 0.149501
O O1 0.103136 0.753073 0.086253
O O2 0.111371 0.650312 0.228871
O O3 0.149176 0.865065 0.229837
O O4 0.998496 0.798454 0.242041
O O5 0.750000 0.720951 0.488352
O O6 0.898471 0.770388 0.402730
O O7 0.884952 0.584095 0.487819
O O8 0.152411 0.246777 0.235769
O O9 0.102711 0.052456 0.308706
O O10 0.250000 0.025379 0.946049
O O11 0.368640 0.981037 0.828379
O O12 0.391498 0.136304 0.936099
O O13 0.250000 0.039151 0.716708
O O14 0.105486 0.939113 0.667137
O O15 0.250000 0.253380 0.949602
O O16 0.386637 0.355005 0.895705
O O17 0.387796 0.271667 0.060251
O O18 0.250000 0.463963 0.844461
O O19 0.750000 0.653059 0.125635
#
# Coordination Sequence:
#
# PCOD9363573 Si02
#       8
#     8   8   8   8   8   8   8   8
#     4  12  27  44  66 102 145 187 233 300 369 430
#     4  11  24  46  76 107 137 191 256 299 352 442
#     4  12  27  45  65 102 148 186 230 303 373 426
#     4   9  17  36  66  99 131 168 232 305 345 396
#     4  10  19  39  68  96 130 178 241 296 342 418
#     4   9  19  35  64 103 132 167 226 296 354 404
#     4  11  23  44  70  96 134 190 245 295 353 435
#     4  10  21  39  66  99 134 179 239 294 346 423
#
# _framework density 22.748463000000001
#
# number of rings (size 3 to 8) (size 9 to 14) (size 15 to 20)
#    0.000    1.500    2.500    2.625    3.500    1.500 
#    0.000    0.000    0.000    0.000    0.000    0.000 
#    0.000    0.000    0.000    0.000    0.000    0.000 
#
# Total GULP energy -178442.395488 kJ/mol
# GULP energy per Si atom -5576.324859 kJ/mol
# Density = 2.269669 g / cm^3
# Si number density = 22.748463 Si / 1000 Ang^3
#
#
#
# Elastic Constant Matrix: (Units=GPa)
#
#
# Indices 1 2 3 4 5 6 
#
# 1 79.8237 19.7370 4.0928 0.0000 0.0000 0.0000
# 2 19.7370 109.7910 1.1482 0.0000 0.0000 0.0000
# 3 4.0928 1.1482 143.2904 0.0000 0.0000 0.0000
# 4 0.0000 0.0000 0.0000 24.6951 0.0000 0.0000
# 5 0.0000 0.0000 0.0000 0.0000 18.9294 0.0000
# 6 0.0000 0.0000 0.0000 0.0000 0.0000 -28.4023
#
#
#
# Elastic Compliance Matrix: (Units=1/GPa)
#
#
# Indices 1 2 3 4 5 6 
#
# 1 0.013128 -0.002356 -0.000356 0.000000 0.000000 0.000000
# 2 -0.002356 0.009532 -0.000009 0.000000 0.000000 0.000000
# 3 -0.000356 -0.000009 0.006989 0.000000 0.000000 0.000000
# 4 0.000000 0.000000 0.000000 0.040494 0.000000 0.000000
# 5 0.000000 0.000000 0.000000 0.000000 0.052828 0.000000
# 6 0.000000 0.000000 0.000000 0.000000 0.000000 -0.035208
#
#
# Mechanical properties :
#
#
# Convention : Reuss Voigt Hill
#
# Bulk Modulus (GPa) = 41.31143 42.54013 41.92578
# Shear Modulus (GPa) = 49.37073 23.57293 36.47183
#
# Velocity S-wave (km/s) = 4.66369 3.22256 4.00842
# Velocity P-wave (km/s) = 6.87019 5.70854 6.31613
#
# Compressibility (1/GPa) = 0.02420638
#
# Stress axis : x y z
#
# Youngs Moduli (GPa) = 76.17016 104.91078 143.08039
#
# Poissons Ratio (x) = 0.24721 0.05095
# Poissons Ratio (y) = 0.17949 0.00130
# Poissons Ratio (z) = 0.02712 0.00095
#
# Static dielectric constant tensor:
#      x y z
#    x 1.990580 0.000000 0.000000 
#    y 0.000000 1.761480 0.000000 
#    z 0.000000 0.000000 1.846860 
# 
# From -- ./inp_files/17871.got.cif
#   From: 2010.05.17/outbox.cif.g08.bks.cpg/sg40_9_cif.got.tgz:17871.got - 2010.06.03 18:35:42.
