data_PCOD9363095
_publ_section_title
;
Structure prediction by ZEFSAII (Michael W. Deem and Ramdas Pophale) SiO2 
 PCOD9363095
Probable space group: A M A 2
;
_chemical_formula_sum "Si O2"
_cell_formula_units_Z 56
_cell_length_a 8.516460
_cell_length_b 15.878508
_cell_length_c 20.472705
_cell_angle_alpha 90.000000
_cell_angle_beta 90.000000
_cell_angle_gamma 90.000000
_cell_volume 2768.496837
_symmetry_space_group_name_H-M "A M A 2"
_symmetry_group_IT_number 40
_symmetry_cell_setting 'orthorhombic'
loop_
_space_group_symop_operation_xyz
x,y,z
-x,-y,z
1/2-x,y,z
1/2+x,-y,z
x,1/2+y,1/2+z
-x,1/2-y,1/2+z
1/2-x,1/2+y,1/2+z
1/2+x,1/2-y,1/2+z
loop_
_atom_site_type_symbol
_atom_site_label
_atom_site_fract_x
_atom_site_fract_y
_atom_site_fract_z
Si Si1 0.073251 0.620119 0.469840
Si Si2 0.941293 0.803439 0.500503
Si Si3 0.065962 0.234091 0.642952
Si Si4 0.571931 0.085878 0.844753
Si Si5 0.063445 0.751183 0.287001
Si Si6 0.571002 0.413839 0.620163
Si Si7 0.937443 0.905894 0.372371
O O1 0.250000 0.611576 0.442226
O O2 0.076650 0.581622 0.541759
O O3 0.026665 0.717900 0.478719
O O4 0.942822 0.581344 0.423067
O O5 0.750000 0.791920 0.499371
O O6 0.990203 0.813393 0.577011
O O7 0.980460 0.873282 0.445932
O O8 0.250000 0.214393 0.646888
O O9 0.997805 0.224508 0.715484
O O10 0.037729 0.333542 0.632423
O O11 0.750000 0.096217 0.824140
O O12 0.475221 0.169374 0.829220
O O13 0.500000 0.000000 0.817122
O O14 0.250000 0.763984 0.281962
O O15 0.994924 0.835033 0.320741
O O16 0.500000 0.500000 0.647291
O O17 0.750000 0.399592 0.643375
O O18 0.750000 0.907767 0.368984
O O19 0.000000 0.000000 0.360474
#
# Coordination Sequence:
#
# PCOD9363095 Si02
#       7
#     8   8   8   8   8   8   8
#     4  10  19  32  54  84 116 149 186 232 288 346
#     4   9  18  36  60  86 116 154 199 245 300 359
#     4   9  20  38  60  82 112 156 198 245 306 366
#     4  12  24  38  58  85 117 154 194 240 297 359
#     4  11  23  41  63  89 123 160 203 255 311 373
#     4  10  20  32  50  79 113 149 190 236 286 349
#     4  11  23  39  63  93 125 166 212 261 314 370
#
# _framework density 20.227582000000002
#
# number of rings (size 3 to 8) (size 9 to 14) (size 15 to 20)
#    0.000    1.714    1.429    3.429    0.000    5.143 
#    0.000    0.714    0.000    1.714    0.000    0.000 
#    0.000    0.000    0.000    0.000    0.000    0.000 
#
# Total GULP energy -156100.673862 kJ/mol
# GULP energy per Si atom -5575.024067 kJ/mol
# Density = 2.018154 g / cm^3
# Si number density = 20.227582 Si / 1000 Ang^3
#
#
#
# Elastic Constant Matrix: (Units=GPa)
#
#
# Indices 1 2 3 4 5 6 
#
# 1 40.6790 18.7993 16.0842 0.0000 0.0000 0.0000
# 2 18.7993 83.5427 10.9405 0.0000 0.0000 0.0000
# 3 16.0842 10.9405 87.4937 0.0000 0.0000 0.0000
# 4 0.0000 0.0000 0.0000 3.4719 0.0000 0.0000
# 5 0.0000 0.0000 0.0000 0.0000 15.0926 0.0000
# 6 0.0000 0.0000 0.0000 0.0000 0.0000 21.1794
#
#
#
# Elastic Compliance Matrix: (Units=1/GPa)
#
#
# Indices 1 2 3 4 5 6 
#
# 1 0.029161 -0.005958 -0.004616 0.000000 0.000000 0.000000
# 2 -0.005958 0.013386 -0.000579 0.000000 0.000000 0.000000
# 3 -0.004616 -0.000579 0.012350 0.000000 0.000000 0.000000
# 4 0.000000 0.000000 0.000000 0.288029 0.000000 0.000000
# 5 0.000000 0.000000 0.000000 0.000000 0.066258 0.000000
# 6 0.000000 0.000000 0.000000 0.000000 0.000000 0.047216
#
#
# Mechanical properties :
#
#
# Convention : Reuss Voigt Hill
#
# Bulk Modulus (GPa) = 30.68090 33.70705 32.19397
# Shear Modulus (GPa) = 10.21308 19.00822 14.61065
#
# Velocity S-wave (km/s) = 2.24946 3.06881 2.69050
# Velocity P-wave (km/s) = 4.68482 5.40896 5.05986
#
# Compressibility (1/GPa) = 0.03259357
#
# Stress axis : x y z
#
# Youngs Moduli (GPa) = 34.29244 74.70319 80.96984
#
# Poissons Ratio (x) = 0.44505 0.37374
# Poissons Ratio (y) = 0.20430 0.04686
# Poissons Ratio (z) = 0.15829 0.04323
#
# Static dielectric constant tensor:
#      x y z
#    x 1.716200 0.000000 0.000000 
#    y 0.000000 1.712710 0.000000 
#    z 0.000000 0.000000 1.804220 
# 
# From -- ./inp_files/22130.got.cif
#   From: 2010.05.17/outbox.cif.g08.bks.cpg/sg40_12_cif.got.tgz:22130.got - 2010.06.03 18:35:42.
