data_PCOD9363547
_publ_section_title
;
Structure prediction by ZEFSAII (Michael W. Deem and Ramdas Pophale) SiO2 
 PCOD9363547
Probable space group: A M A 2
;
_chemical_formula_sum "Si O2"
_cell_formula_units_Z 64
_cell_length_a 14.154872
_cell_length_b 15.435629
_cell_length_c 12.528188
_cell_angle_alpha 90.000000
_cell_angle_beta 90.000000
_cell_angle_gamma 90.000000
_cell_volume 2737.275687
_symmetry_space_group_name_H-M "A M A 2"
_symmetry_group_IT_number 40
_symmetry_cell_setting 'orthorhombic'
loop_
_space_group_symop_operation_xyz
x,y,z
-x,-y,z
1/2-x,y,z
1/2+x,-y,z
x,1/2+y,1/2+z
-x,1/2-y,1/2+z
1/2-x,1/2+y,1/2+z
1/2+x,1/2-y,1/2+z
loop_
_atom_site_type_symbol
_atom_site_label
_atom_site_fract_x
_atom_site_fract_y
_atom_site_fract_z
Si Si1 0.635855 0.304024 0.264340
Si Si2 0.391005 0.523192 0.404437
Si Si3 0.142857 0.833602 0.849298
Si Si4 0.365519 0.703947 0.020284
Si Si5 0.364917 0.851442 0.412559
Si Si6 0.634029 0.246667 0.629403
Si Si7 0.591542 0.938867 0.134269
Si Si8 0.359352 0.043007 0.376996
O O1 0.750000 0.297998 0.261246
O O2 0.617355 0.390192 0.334501
O O3 0.602264 0.306709 0.142017
O O4 0.600984 0.218271 0.325707
O O5 0.500000 0.500000 0.415711
O O6 0.352809 0.436722 0.350157
O O7 0.355370 0.532145 0.525970
O O8 0.250000 0.800762 0.846463
O O9 0.102305 0.797318 0.739736
O O10 0.103168 0.791100 0.957529
O O11 0.250000 0.704686 0.027195
O O12 0.396277 0.624258 0.944665
O O13 0.250000 0.854548 0.401106
O O14 0.384410 0.814938 0.529512
O O15 0.402071 0.948331 0.397171
O O16 0.750000 0.262478 0.629682
O O17 0.580102 0.336745 0.615249
O O18 0.638957 0.942775 0.250143
O O19 0.500000 0.000000 0.143516
O O20 0.250000 0.037456 0.411290
#
# Coordination Sequence:
#
# PCOD9363547 Si02
#       8
#     8   8   8   8   8   8   8   8
#     4  10  20  37  60  86 118 153 193 243 293 349
#     4  11  25  42  56  84 122 161 202 245 295 353
#     4  10  21  38  65  92 115 153 200 247 299 354
#     4   9  19  35  59  92 121 144 186 247 300 345
#     4   9  19  33  57  90 115 145 191 238 293 349
#     4  10  19  38  64  89 117 154 202 252 297 350
#     4  11  23  40  58  85 119 157 204 247 295 353
#     4  10  20  37  61  88 119 152 191 246 299 352
#
# _framework density 23.380911000000001
#
# number of rings (size 3 to 8) (size 9 to 14) (size 15 to 20)
#    0.000    2.000    2.500    0.750    3.500    1.500 
#    2.250    0.625    0.000    0.000    0.000    0.000 
#    0.000    0.000    0.000    0.000    0.000    0.000 
#
# Total GULP energy -178827.565961 kJ/mol
# GULP energy per Si atom -5588.361436 kJ/mol
# Density = 2.332769 g / cm^3
# Si number density = 23.380911 Si / 1000 Ang^3
#
#
#
# Elastic Constant Matrix: (Units=GPa)
#
#
# Indices 1 2 3 4 5 6 
#
# 1 56.8299 -0.6618 13.5458 0.0000 0.0000 0.0000
# 2 -0.6618 145.7560 52.0772 0.0000 0.0000 0.0000
# 3 13.5458 52.0772 141.0788 0.0000 0.0000 0.0000
# 4 0.0000 0.0000 0.0000 41.0045 0.0000 0.0000
# 5 0.0000 0.0000 0.0000 0.0000 24.2074 0.0000
# 6 0.0000 0.0000 0.0000 0.0000 0.0000 26.9525
#
#
#
# Elastic Compliance Matrix: (Units=1/GPa)
#
#
# Indices 1 2 3 4 5 6 
#
# 1 0.018091 0.000810 -0.002036 0.000000 0.000000 0.000000
# 2 0.000810 0.007939 -0.003008 0.000000 0.000000 0.000000
# 3 -0.002036 -0.003008 0.008394 0.000000 0.000000 0.000000
# 4 0.000000 0.000000 0.000000 0.024388 0.000000 0.000000
# 5 0.000000 0.000000 0.000000 0.000000 0.041310 0.000000
# 6 0.000000 0.000000 0.000000 0.000000 0.000000 0.037102
#
#
# Mechanical properties :
#
#
# Convention : Reuss Voigt Hill
#
# Bulk Modulus (GPa) = 38.52803 52.62080 45.57442
# Shear Modulus (GPa) = 32.39488 37.01311 34.70400
#
# Velocity S-wave (km/s) = 3.72630 3.98307 3.85682
# Velocity P-wave (km/s) = 5.91844 6.61119 6.27439
#
# Compressibility (1/GPa) = 0.02595513
#
# Stress axis : x y z
#
# Youngs Moduli (GPa) = 55.27597 125.95513 119.12952
#
# Poissons Ratio (x) = -0.10197 0.24253
# Poissons Ratio (y) = -0.04475 0.35839
# Poissons Ratio (z) = 0.11253 0.37893
#
# Static dielectric constant tensor:
#      x y z
#    x 1.975030 0.000000 0.000000 
#    y 0.000000 1.865940 0.000000 
#    z 0.000000 0.000000 1.846540 
# 
# From -- ./inp_files/13103.got.cif
#   From: 2010.05.17/outbox.cif.g08.bks.cpg/sg40_7_cif.got.tgz:13103.got - 2010.06.03 18:35:42.
