data_PCOD9363111
_publ_section_title
;
Structure prediction by ZEFSAII (Michael W. Deem and Ramdas Pophale) SiO2 
 PCOD9363111
Probable space group: A M A 2
;
_chemical_formula_sum "Si O2"
_cell_formula_units_Z 48
_cell_length_a 8.526711
_cell_length_b 7.664641
_cell_length_c 34.000528
_cell_angle_alpha 90.000000
_cell_angle_beta 90.000000
_cell_angle_gamma 90.000000
_cell_volume 2222.076584
_symmetry_space_group_name_H-M "A M A 2"
_symmetry_group_IT_number 40
_symmetry_cell_setting 'orthorhombic'
loop_
_space_group_symop_operation_xyz
x,y,z
-x,-y,z
1/2-x,y,z
1/2+x,-y,z
x,1/2+y,1/2+z
-x,1/2-y,1/2+z
1/2-x,1/2+y,1/2+z
1/2+x,1/2-y,1/2+z
loop_
_atom_site_type_symbol
_atom_site_label
_atom_site_fract_x
_atom_site_fract_y
_atom_site_fract_z
Si Si1 0.561837 0.804687 0.116830
Si Si2 0.062263 0.799940 0.866894
Si Si3 0.064163 0.194670 0.701457
Si Si4 0.560350 0.299769 0.532671
Si Si5 0.061949 0.200462 0.947910
Si Si6 0.562041 0.700413 0.281661
O O1 0.750000 0.796011 0.119533
O O2 0.493648 0.748695 0.158512
O O3 0.511818 0.719330 0.074903
O O4 0.500000 0.000000 0.112794
O O5 0.250000 0.804373 0.868624
O O6 0.015282 0.722821 0.824307
O O7 0.999978 0.718555 0.907369
O O8 0.000000 0.000000 0.866678
O O9 0.250000 0.200864 0.702283
O O10 0.001651 0.284260 0.741415
O O11 0.000000 0.000000 0.704804
O O12 0.500000 0.500000 0.532098
O O13 0.750000 0.304353 0.533001
O O14 0.511290 0.222478 0.490366
O O15 0.250000 0.197417 0.946266
O O16 0.000000 0.000000 0.948281
O O17 0.500000 0.500000 0.283049
O O18 0.750000 0.696132 0.279275
#
# Coordination Sequence:
#
# PCOD9363111 Si02
#       6
#     8   8   8   8   8   8
#     4  10  19  33  50  69  94 123 156 193 232 274
#     4   9  15  21  31  49  74 105 139 173 212 258
#     4  11  21  33  49  69  92 121 156 193 235 278
#     4   8  15  25  38  56  80 111 144 178 217 261
#     4   9  14  20  31  49  74 105 139 172 209 254
#     4   9  16  26  39  56  80 111 145 181 222 267
#
# _framework density 21.601414999999999
#
# number of rings (size 3 to 8) (size 9 to 14) (size 15 to 20)
#    0.000    2.667    0.000    5.500    0.000    3.333 
#    0.000    0.000    0.000    0.000    0.000    0.000 
#    0.000    1.333    0.000   10.333    0.000   12.333 
#
# Total GULP energy -133605.583026 kJ/mol
# GULP energy per Si atom -5566.899293 kJ/mol
# Density = 2.155225 g / cm^3
# Si number density = 21.601415 Si / 1000 Ang^3
#
#
#
# Elastic Constant Matrix: (Units=GPa)
#
#
# Indices 1 2 3 4 5 6 
#
# 1 80.2593 -2.4041 73.3062 0.0000 0.0000 0.0000
# 2 -2.4041 30.5131 22.1923 0.0000 0.0000 0.0000
# 3 73.3062 22.1923 331.0862 0.0000 0.0000 0.0000
# 4 0.0000 0.0000 0.0000 34.2567 0.0000 0.0000
# 5 0.0000 0.0000 0.0000 0.0000 47.0735 0.0000
# 6 0.0000 0.0000 0.0000 0.0000 0.0000 4.4384
#
#
#
# Elastic Compliance Matrix: (Units=1/GPa)
#
#
# Indices 1 2 3 4 5 6 
#
# 1 0.016081 0.004054 -0.003832 0.000000 0.000000 0.000000
# 2 0.004054 0.035475 -0.003275 0.000000 0.000000 0.000000
# 3 -0.003832 -0.003275 0.004088 0.000000 0.000000 0.000000
# 4 0.000000 0.000000 0.000000 0.029191 0.000000 0.000000
# 5 0.000000 0.000000 0.000000 0.000000 0.021243 0.000000
# 6 0.000000 0.000000 0.000000 0.000000 0.000000 0.225308
#
#
# Mechanical properties :
#
#
# Convention : Reuss Voigt Hill
#
# Bulk Modulus (GPa) = 20.18679 69.78305 44.98492
# Shear Modulus (GPa) = 14.12403 40.40466 27.26435
#
# Velocity S-wave (km/s) = 2.55982 4.32958 3.55654
# Velocity P-wave (km/s) = 4.25468 7.57421 6.14292
#
# Compressibility (1/GPa) = 0.04953736
#
# Stress axis : x y z
#
# Youngs Moduli (GPa) = 62.18356 28.18923 244.59195
#
# Poissons Ratio (x) = -0.11429 0.93737
# Poissons Ratio (y) = -0.25211 0.80116
# Poissons Ratio (z) = 0.23831 0.09233
#
# Static dielectric constant tensor:
#      x y z
#    x 1.720350 0.000000 0.000000 
#    y 0.000000 1.900790 0.000000 
#    z 0.000000 0.000000 1.975290 
# 
# From -- ./inp_files/26252.got.cif
#   From: 2010.05.17/outbox.cif.g08.bks.cpg/sg40_14_cif.got.tgz:26252.got - 2010.06.03 18:35:42.
