data_PCOD9363624
_publ_section_title
;
Structure prediction by ZEFSAII (Michael W. Deem and Ramdas Pophale) SiO2 
 PCOD9363624
Probable space group: A M A 2
;
_chemical_formula_sum "Si O2"
_cell_formula_units_Z 40
_cell_length_a 10.302592
_cell_length_b 7.715520
_cell_length_c 23.959572
_cell_angle_alpha 90.000000
_cell_angle_beta 90.000000
_cell_angle_gamma 90.000000
_cell_volume 1904.542895
_symmetry_space_group_name_H-M "A M A 2"
_symmetry_group_IT_number 40
_symmetry_cell_setting 'orthorhombic'
loop_
_space_group_symop_operation_xyz
x,y,z
-x,-y,z
1/2-x,y,z
1/2+x,-y,z
x,1/2+y,1/2+z
-x,1/2-y,1/2+z
1/2-x,1/2+y,1/2+z
1/2+x,1/2-y,1/2+z
loop_
_atom_site_type_symbol
_atom_site_label
_atom_site_fract_x
_atom_site_fract_y
_atom_site_fract_z
Si Si1 0.750000 0.221818 0.583261
Si Si2 0.250000 0.679076 0.230832
Si Si3 0.485712 0.211314 0.527242
Si Si4 0.512422 0.295887 0.789111
Si Si5 0.750000 0.726679 0.209433
Si Si6 0.250000 0.201175 0.604451
Si Si7 0.405186 0.169056 0.407183
O O1 0.624438 0.273656 0.548207
O O2 0.750000 0.291382 0.646207
O O3 0.750000 0.010636 0.594136
O O4 0.377670 0.721311 0.266502
O O5 0.250000 0.479792 0.214017
O O6 0.250000 0.760908 0.168745
O O7 0.377969 0.260996 0.572341
O O8 0.439587 0.262110 0.465378
O O9 0.500000 0.000000 0.527239
O O10 0.500000 0.500000 0.796414
O O11 0.622145 0.277258 0.742728
O O12 0.559914 0.230910 0.849898
O O13 0.250000 0.125602 0.406627
O O14 0.500000 0.000000 0.408411
#
# Coordination Sequence:
#
# PCOD9363624 Si02
#       7
#     4   4   8   8   4   4   8
#     4   9  18  28  49  79 109 145 176 235 282 338
#     4  11  23  36  59  87 113 157 194 237 288 344
#     4   9  16  27  47  75 110 140 175 229 297 334
#     4  11  23  38  58  85 119 154 195 238 288 342
#     4  11  21  40  59  85 123 151 196 235 284 350
#     4   9  16  30  47  75 109 137 182 227 286 338
#     4  10  20  32  52  78 112 147 188 241 295 344
#
# _framework density 21.002413000000001
#
# number of rings (size 3 to 8) (size 9 to 14) (size 15 to 20)
#    0.000    2.000    2.000    2.400    8.400    3.200 
#    0.000    0.000    0.000    0.000    0.000   28.000 
#    0.000    0.000    0.000    0.000    0.000    0.000 
#
# Total GULP energy -111568.616658 kJ/mol
# GULP energy per Si atom -5578.430833 kJ/mol
# Density = 2.095461 g / cm^3
# Si number density = 21.002413 Si / 1000 Ang^3
#
#
#
# Elastic Constant Matrix: (Units=GPa)
#
#
# Indices 1 2 3 4 5 6 
#
# 1 220.0834 -3.0342 109.3352 0.0000 0.0000 0.0000
# 2 -3.0342 18.0189 -0.1595 0.0000 0.0000 0.0000
# 3 109.3352 -0.1595 200.9918 0.0000 0.0000 0.0000
# 4 0.0000 0.0000 0.0000 -1.1566 0.0000 0.0000
# 5 0.0000 0.0000 0.0000 0.0000 42.8889 0.0000
# 6 0.0000 0.0000 0.0000 0.0000 0.0000 17.3938
#
#
#
# Elastic Compliance Matrix: (Units=1/GPa)
#
#
# Indices 1 2 3 4 5 6 
#
# 1 0.006245 0.001022 -0.003396 0.000000 0.000000 0.000000
# 2 0.001022 0.055665 -0.000512 0.000000 0.000000 0.000000
# 3 -0.003396 -0.000512 0.006822 0.000000 0.000000 0.000000
# 4 0.000000 0.000000 0.000000 -0.864587 0.000000 0.000000
# 5 0.000000 0.000000 0.000000 0.000000 0.023316 0.000000
# 6 0.000000 0.000000 0.000000 0.000000 0.000000 0.057492
#
#
# Mechanical properties :
#
#
# Convention : Reuss Voigt Hill
#
# Bulk Modulus (GPa) = 15.88319 72.37523 44.12921
# Shear Modulus (GPa) = -7.26441 34.02205 13.37882
#
# Velocity S-wave (km/s) = -1.86181 4.02918 2.52665
# Velocity P-wave (km/s) = 1.71964 7.49540 5.43774
#
# Compressibility (1/GPa) = 0.06295966
#
# Stress axis : x y z
#
# Youngs Moduli (GPa) = 160.12531 17.96467 146.57411
#
# Poissons Ratio (x) = -0.01835 0.49782
# Poissons Ratio (y) = -0.16358 0.07498
# Poissons Ratio (z) = 0.54385 0.00919
#
# Static dielectric constant tensor:
#      x y z
#    x 1.716750 0.000000 0.000000 
#    y 0.000000 2.037160 0.000000 
#    z 0.000000 0.000000 1.822180 
# 
# From -- ./inp_files/22741.got.cif
#   From: 2010.05.17/outbox.cif.g08.bks.cpg/sg40_12_cif.got.tgz:22741.got - 2010.06.03 18:35:42.
