data_PCOD9363400
_publ_section_title
;
Structure prediction by ZEFSAII (Michael W. Deem and Ramdas Pophale) SiO2 
 PCOD9363400
Probable space group: A M A 2
;
_chemical_formula_sum "Si O2"
_cell_formula_units_Z 60
_cell_length_a 12.636425
_cell_length_b 11.622538
_cell_length_c 21.913707
_cell_angle_alpha 90.000000
_cell_angle_beta 90.000000
_cell_angle_gamma 90.000000
_cell_volume 3218.407632
_symmetry_space_group_name_H-M "A M A 2"
_symmetry_group_IT_number 40
_symmetry_cell_setting 'orthorhombic'
loop_
_space_group_symop_operation_xyz
x,y,z
-x,-y,z
1/2-x,y,z
1/2+x,-y,z
x,1/2+y,1/2+z
-x,1/2-y,1/2+z
1/2-x,1/2+y,1/2+z
1/2+x,1/2-y,1/2+z
loop_
_atom_site_type_symbol
_atom_site_label
_atom_site_fract_x
_atom_site_fract_y
_atom_site_fract_z
Si Si1 0.630190 0.183539 0.571820
Si Si2 0.500000 0.000000 0.647631
Si Si3 0.377039 0.512402 0.358512
Si Si4 0.872731 0.158154 0.973515
Si Si5 0.628900 0.224081 0.337372
Si Si6 0.528569 0.630851 0.950715
Si Si7 0.125483 0.709803 0.203509
Si Si8 0.034727 0.376740 0.604094
O O1 0.750000 0.192931 0.590502
O O2 0.617828 0.167277 0.499316
O O3 0.565973 0.295996 0.591393
O O4 0.576794 0.074875 0.604936
O O5 0.565200 0.907199 0.686524
O O6 0.500000 0.500000 0.329447
O O7 0.250000 0.487900 0.334796
O O8 0.386085 0.433167 0.418584
O O9 0.372526 0.649130 0.368018
O O10 0.750000 0.186700 0.977717
O O11 0.936572 0.275667 0.961681
O O12 0.909742 0.107896 0.038428
O O13 0.750000 0.184534 0.333487
O O14 0.564534 0.142218 0.381270
O O15 0.588083 0.241797 0.268746
O O16 0.500000 0.500000 0.964431
O O17 0.250000 0.685333 0.209161
O O18 0.105297 0.803325 0.150849
O O19 0.000000 0.500000 0.628657
#
# Coordination Sequence:
#
# PCOD9363400 Si02
#       8
#     8   4   8   8   8   8   8   8
#     4  10  21  37  57  84 116 149 189 240 298 354
#     4  10  20  38  60  88 114 148 192 248 288 348
#     4  10  19  35  59  86 116 148 189 245 303 354
#     4  10  21  35  57  87 118 149 189 244 304 360
#     4  10  22  38  59  85 116 157 200 242 292 350
#     4  11  22  37  55  83 117 156 195 234 292 355
#     4  10  22  39  60  84 116 159 199 240 287 345
#     4  10  22  38  58  85 115 151 195 239 295 350
#
# _framework density 18.642759999999999
#
# number of rings (size 3 to 8) (size 9 to 14) (size 15 to 20)
#    0.000    1.867    2.000    1.600    2.800    2.667 
#    0.000    0.000    0.000    3.200    0.000    0.000 
#    0.000    0.000    0.000    0.000    0.000    0.000 
#
# Total GULP energy -167123.083012 kJ/mol
# GULP energy per Si atom -5570.769434 kJ/mol
# Density = 1.860033 g / cm^3
# Si number density = 18.642760 Si / 1000 Ang^3
#
#
#
# Elastic Constant Matrix: (Units=GPa)
#
#
# Indices 1 2 3 4 5 6 
#
# 1 88.2447 -6.4966 22.3690 0.0000 0.0000 0.0000
# 2 -6.4966 55.1367 22.5031 0.0000 0.0000 0.0000
# 3 22.3690 22.5031 80.6309 0.0000 0.0000 0.0000
# 4 0.0000 0.0000 0.0000 23.7637 0.0000 0.0000
# 5 0.0000 0.0000 0.0000 0.0000 17.6938 0.0000
# 6 0.0000 0.0000 0.0000 0.0000 0.0000 6.9820
#
#
#
# Elastic Compliance Matrix: (Units=1/GPa)
#
#
# Indices 1 2 3 4 5 6 
#
# 1 0.012704 0.003313 -0.004449 0.000000 0.000000 0.000000
# 2 0.003313 0.021332 -0.006872 0.000000 0.000000 0.000000
# 3 -0.004449 -0.006872 0.015554 0.000000 0.000000 0.000000
# 4 0.000000 0.000000 0.000000 0.042081 0.000000 0.000000
# 5 0.000000 0.000000 0.000000 0.000000 0.056517 0.000000
# 6 0.000000 0.000000 0.000000 0.000000 0.000000 0.143226
#
#
# Mechanical properties :
#
#
# Convention : Reuss Voigt Hill
#
# Bulk Modulus (GPa) = 29.78619 33.41814 31.60216
# Shear Modulus (GPa) = 15.69256 22.06367 18.87812
#
# Velocity S-wave (km/s) = 2.90444 3.44393 3.18563
# Velocity P-wave (km/s) = 5.22109 5.81194 5.52442
#
# Compressibility (1/GPa) = 0.03357261
#
# Stress axis : x y z
#
# Youngs Moduli (GPa) = 78.71714 46.87808 64.29037
#
# Poissons Ratio (x) = -0.15529 0.28602
# Poissons Ratio (y) = -0.26075 0.44183
# Poissons Ratio (z) = 0.35020 0.32217
#
# Static dielectric constant tensor:
#      x y z
#    x 1.682910 0.000000 0.000000 
#    y 0.000000 1.606710 0.000000 
#    z 0.000000 0.000000 1.657850 
# 
# From -- ./inp_files/22845.got.cif
#   From: 2010.05.17/outbox.cif.g08.bks.cpg/sg40_12_cif.got.tgz:22845.got - 2010.06.03 18:35:42.
