data_PCOD9363060
_publ_section_title
;
Structure prediction by ZEFSAII (Michael W. Deem and Ramdas Pophale) SiO2 
 PCOD9363060
Probable space group: A M A 2
;
_chemical_formula_sum "Si O2"
_cell_formula_units_Z 56
_cell_length_a 8.817934
_cell_length_b 24.540516
_cell_length_c 14.004126
_cell_angle_alpha 90.000000
_cell_angle_beta 90.000000
_cell_angle_gamma 90.000000
_cell_volume 3030.445958
_symmetry_space_group_name_H-M "A M A 2"
_symmetry_group_IT_number 40
_symmetry_cell_setting 'orthorhombic'
loop_
_space_group_symop_operation_xyz
x,y,z
-x,-y,z
1/2-x,y,z
1/2+x,-y,z
x,1/2+y,1/2+z
-x,1/2-y,1/2+z
1/2-x,1/2+y,1/2+z
1/2+x,1/2-y,1/2+z
loop_
_atom_site_type_symbol
_atom_site_label
_atom_site_fract_x
_atom_site_fract_y
_atom_site_fract_z
Si Si1 0.930819 0.440398 0.398770
Si Si2 0.068780 0.628154 0.587032
Si Si3 0.431891 0.442082 0.977335
Si Si4 0.066608 0.837665 0.795875
Si Si5 0.430849 0.271404 0.480902
Si Si6 0.067417 0.558436 0.768041
Si Si7 0.432184 0.331131 0.079630
O O1 0.750000 0.442585 0.387667
O O2 0.964325 0.416473 0.504683
O O3 0.000000 0.500000 0.386747
O O4 0.000082 0.395898 0.326970
O O5 0.250000 0.637975 0.585777
O O6 0.027345 0.603541 0.689411
O O7 0.985983 0.683198 0.556492
O O8 0.500000 0.500000 0.008756
O O9 0.250000 0.446697 0.970746
O O10 0.471170 0.392060 0.045989
O O11 0.499182 0.430337 0.872240
O O12 0.250000 0.841358 0.797605
O O13 0.019103 0.822304 0.689113
O O14 0.019977 0.794312 0.877130
O O15 0.250000 0.268475 0.481170
O O16 0.498197 0.213684 0.510101
O O17 0.250000 0.554653 0.773789
O O18 0.000000 0.500000 0.737547
O O19 0.250000 0.326098 0.075920
#
# Coordination Sequence:
#
# PCOD9363060 Si02
#       7
#     8   8   8   8   8   8   8
#     4  10  19  32  52  79 110 144 180 221 266 315
#     4   9  19  34  52  76 109 147 182 217 265 317
#     4  10  21  37  56  79 107 140 177 221 266 312
#     4   9  20  39  57  77 106 140 178 220 263 312
#     4  10  21  36  57  82 107 136 176 223 265 310
#     4  10  19  32  52  78 109 145 181 221 266 315
#     4  10  22  40  60  79 106 142 176 213 264 319
#
# _framework density 18.479129
#
# number of rings (size 3 to 8) (size 9 to 14) (size 15 to 20)
#    0.000    2.286    0.000    3.000    0.000    5.714 
#    0.000    5.714    0.000    0.000    0.000    0.000 
#    0.000    0.000    0.000    0.000    0.000    0.000 
#
# Total GULP energy -156312.468856 kJ/mol
# GULP energy per Si atom -5582.588173 kJ/mol
# Density = 1.843707 g / cm^3
# Si number density = 18.479129 Si / 1000 Ang^3
#
#
#
# Elastic Constant Matrix: (Units=GPa)
#
#
# Indices 1 2 3 4 5 6 
#
# 1 33.7523 41.5279 33.4714 0.0000 0.0000 0.0000
# 2 41.5279 128.7171 72.8781 0.0000 0.0000 0.0000
# 3 33.4714 72.8781 86.3813 0.0000 0.0000 0.0000
# 4 0.0000 0.0000 0.0000 18.7955 0.0000 0.0000
# 5 0.0000 0.0000 0.0000 0.0000 -8.7540 0.0000
# 6 0.0000 0.0000 0.0000 0.0000 0.0000 36.6902
#
#
#
# Elastic Compliance Matrix: (Units=1/GPa)
#
#
# Indices 1 2 3 4 5 6 
#
# 1 0.055078 -0.010887 -0.012157 0.000000 0.000000 0.000000
# 2 -0.010887 0.017026 -0.010146 0.000000 0.000000 0.000000
# 3 -0.012157 -0.010146 0.024847 0.000000 0.000000 0.000000
# 4 0.000000 0.000000 0.000000 0.053204 0.000000 0.000000
# 5 0.000000 0.000000 0.000000 0.000000 -0.114234 0.000000
# 6 0.000000 0.000000 0.000000 0.000000 0.000000 0.027255
#
#
# Mechanical properties :
#
#
# Convention : Reuss Voigt Hill
#
# Bulk Modulus (GPa) = 32.70986 60.51172 46.61079
# Shear Modulus (GPa) = 35.77899 16.07789 25.92844
#
# Velocity S-wave (km/s) = 4.40498 2.95287 3.74989
# Velocity P-wave (km/s) = 6.60388 6.66656 6.63529
#
# Compressibility (1/GPa) = 0.03057182
#
# Stress axis : x y z
#
# Youngs Moduli (GPa) = 18.15605 58.73431 40.24600
#
# Poissons Ratio (x) = 0.63941 0.48927
# Poissons Ratio (y) = 0.19766 0.40833
# Poissons Ratio (z) = 0.22072 0.59592
#
# Static dielectric constant tensor:
#      x y z
#    x 1.622000 0.000000 0.000000 
#    y 0.000000 1.610540 0.000000 
#    z 0.000000 0.000000 1.636920 
# 
# From -- ./inp_files/15348.got.cif
#   From: 2010.05.17/outbox.cif.g08.bks.cpg/sg40_8_cif.got.tgz:15348.got - 2010.06.03 18:35:42.
