data_PCOD9363677
_publ_section_title
;
Structure prediction by ZEFSAII (Michael W. Deem and Ramdas Pophale) SiO2 
 PCOD9363677
Probable space group: A M A 2
;
_chemical_formula_sum "Si O2"
_cell_formula_units_Z 40
_cell_length_a 21.931110
_cell_length_b 17.919188
_cell_length_c 5.143365
_cell_angle_alpha 90.000000
_cell_angle_beta 90.000000
_cell_angle_gamma 90.000000
_cell_volume 2021.279095
_symmetry_space_group_name_H-M "A M A 2"
_symmetry_group_IT_number 40
_symmetry_cell_setting 'orthorhombic'
loop_
_space_group_symop_operation_xyz
x,y,z
-x,-y,z
1/2-x,y,z
1/2+x,-y,z
x,1/2+y,1/2+z
-x,1/2-y,1/2+z
1/2-x,1/2+y,1/2+z
1/2+x,1/2-y,1/2+z
loop_
_atom_site_type_symbol
_atom_site_label
_atom_site_fract_x
_atom_site_fract_y
_atom_site_fract_z
Si Si1 0.918177 0.255183 0.489950
Si Si2 0.147366 0.099149 0.884145
Si Si3 0.947814 0.670693 0.486592
Si Si4 0.064998 0.980670 0.673146
Si Si5 0.815794 0.483236 0.901370
O O1 0.866204 0.315017 0.430403
O O2 0.912861 0.221880 0.776407
O O3 0.982332 0.300421 0.479577
O O4 0.923926 0.190442 0.273573
O O5 0.176552 0.056505 0.126145
O O6 0.183113 0.080902 0.621725
O O7 0.084130 0.054579 0.832267
O O8 0.941357 0.587893 0.371736
O O9 0.123045 0.971122 0.480099
O O10 0.000000 0.000000 0.543374
O O11 0.750000 0.522733 0.913316
#
# Coordination Sequence:
#
# PCOD9363677 Si02
#       5
#     8   8   8   8   8
#     4  10  20  34  53  84 119 156 184 232 301 353
#     4  10  21  37  60  84 113 150 200 241 278 355
#     4  10  20  33  53  83 127 151 180 236 304 347
#     4  10  22  37  61  94 118 150 200 250 294 347
#     4  10  22  38  62  86 114 156 198 245 293 346
#
# _framework density 19.789448
#
# number of rings (size 3 to 8) (size 9 to 14) (size 15 to 20)
#    1.200    0.800    2.000    1.800    2.800    2.400 
#    0.000    0.000    0.000    7.200    0.000    0.000 
#    0.000    0.000    0.000    0.000    0.000    0.000 
#
# Total GULP energy -111341.687495 kJ/mol
# GULP energy per Si atom -5567.084375 kJ/mol
# Density = 1.974441 g / cm^3
# Si number density = 19.789448 Si / 1000 Ang^3
#
#
#
# Elastic Constant Matrix: (Units=GPa)
#
#
# Indices 1 2 3 4 5 6 
#
# 1 109.2359 9.7678 7.3898 0.0000 0.0000 0.0000
# 2 9.7678 36.8585 -28.4323 0.0000 0.0000 0.0000
# 3 7.3898 -28.4323 61.4674 0.0000 0.0000 0.0000
# 4 0.0000 0.0000 0.0000 18.8614 0.0000 0.0000
# 5 0.0000 0.0000 0.0000 0.0000 19.2053 0.0000
# 6 0.0000 0.0000 0.0000 0.0000 0.0000 15.6866
#
#
#
# Elastic Compliance Matrix: (Units=1/GPa)
#
#
# Indices 1 2 3 4 5 6 
#
# 1 0.009900 -0.005506 -0.003737 0.000000 0.000000 0.000000
# 2 -0.005506 0.045244 0.021590 0.000000 0.000000 0.000000
# 3 -0.003737 0.021590 0.026705 0.000000 0.000000 0.000000
# 4 0.000000 0.000000 0.000000 0.053018 0.000000 0.000000
# 5 0.000000 0.000000 0.000000 0.000000 0.052069 0.000000
# 6 0.000000 0.000000 0.000000 0.000000 0.000000 0.063749
#
#
# Mechanical properties :
#
#
# Convention : Reuss Voigt Hill
#
# Bulk Modulus (GPa) = 9.38593 20.55693 14.97143
# Shear Modulus (GPa) = 19.12004 25.33976 22.22990
#
# Velocity S-wave (km/s) = 3.11171 3.58224 3.35523
# Velocity P-wave (km/s) = 4.20279 5.24598 4.75309
#
# Compressibility (1/GPa) = 0.10654247
#
# Stress axis : x y z
#
# Youngs Moduli (GPa) = 101.01329 22.10215 37.44643
#
# Poissons Ratio (x) = 0.12170 0.13994
# Poissons Ratio (y) = 0.55621 -0.80848
# Poissons Ratio (z) = 0.37750 -0.47719
#
# Static dielectric constant tensor:
#      x y z
#    x 1.721800 0.000000 0.000000 
#    y 0.000000 1.683730 0.000000 
#    z 0.000000 0.000000 1.682750 
# 
# From -- ./inp_files/2249.got.cif
#   From: 2010.05.17/outbox.cif.g08.bks.cpg/sg40_2_cif.got.tgz:2249.got - 2010.06.03 18:35:42.
