data_PCOD9363736
_publ_section_title
;
Structure prediction by ZEFSAII (Michael W. Deem and Ramdas Pophale) SiO2 
 PCOD9363736
Probable space group: A M A 2
;
_chemical_formula_sum "Si O2"
_cell_formula_units_Z 48
_cell_length_a 8.815747
_cell_length_b 9.595246
_cell_length_c 31.770536
_cell_angle_alpha 90.000000
_cell_angle_beta 90.000000
_cell_angle_gamma 90.000000
_cell_volume 2687.446166
_symmetry_space_group_name_H-M "A M A 2"
_symmetry_group_IT_number 40
_symmetry_cell_setting 'orthorhombic'
loop_
_space_group_symop_operation_xyz
x,y,z
-x,-y,z
1/2-x,y,z
1/2+x,-y,z
x,1/2+y,1/2+z
-x,1/2-y,1/2+z
1/2-x,1/2+y,1/2+z
1/2+x,1/2-y,1/2+z
loop_
_atom_site_type_symbol
_atom_site_label
_atom_site_fract_x
_atom_site_fract_y
_atom_site_fract_z
Si Si1 0.568401 0.345152 0.348250
Si Si2 0.431143 0.652624 0.776633
Si Si3 0.931619 0.346198 0.679451
Si Si4 0.431862 0.654129 0.107515
Si Si5 0.568384 0.844033 0.941157
Si Si6 0.568515 0.155413 0.027111
O O1 0.500000 0.500000 0.346319
O O2 0.750000 0.353229 0.344935
O O3 0.501073 0.255748 0.310604
O O4 0.532559 0.283847 0.394936
O O5 0.500000 0.500000 0.783450
O O6 0.250000 0.648197 0.781065
O O7 0.465857 0.691544 0.728101
O O8 0.750000 0.352308 0.674444
O O9 0.000000 0.500000 0.671476
O O10 0.001923 0.235835 0.647558
O O11 0.500000 0.500000 0.104532
O O12 0.250000 0.646134 0.110752
O O13 0.469670 0.746284 0.066329
O O14 0.750000 0.850374 0.945619
O O15 0.500000 0.000000 0.939991
O O16 0.496400 0.782510 0.983417
O O17 0.750000 0.142474 0.023953
O O18 0.500000 0.000000 0.033058
#
# Coordination Sequence:
#
# PCOD9363736 Si02
#       6
#     8   8   8   8   8   8
#     4  10  20  34  54  81 111 144 182 223 268 317
#     4  10  21  37  57  81 109 142 179 221 268 318
#     4  10  21  38  60  83 107 139 180 222 265 317
#     4  11  24  39  56  80 110 143 178 220 271 322
#     4   9  17  30  51  78 106 138 177 220 263 309
#     4  10  20  34  55  81 106 138 179 220 264 315
#
# _framework density 17.860823
#
# number of rings (size 3 to 8) (size 9 to 14) (size 15 to 20)
#    0.000    2.000    0.000    4.500    0.000    8.667 
#    0.000    0.833    0.000    2.000    0.000    0.000 
#    0.000    0.000    0.000    0.000    0.000    0.000 
#
# Total GULP energy -133948.655796 kJ/mol
# GULP energy per Si atom -5581.193991 kJ/mol
# Density = 1.782017 g / cm^3
# Si number density = 17.860823 Si / 1000 Ang^3
#
#
#
# Elastic Constant Matrix: (Units=GPa)
#
#
# Indices 1 2 3 4 5 6 
#
# 1 81.3598 53.9332 83.8615 0.0000 0.0000 0.0000
# 2 53.9332 95.9092 105.5823 0.0000 0.0000 0.0000
# 3 83.8615 105.5823 182.9349 0.0000 0.0000 0.0000
# 4 0.0000 0.0000 0.0000 26.5482 0.0000 0.0000
# 5 0.0000 0.0000 0.0000 0.0000 32.0646 0.0000
# 6 0.0000 0.0000 0.0000 0.0000 0.0000 29.8183
#
#
#
# Elastic Compliance Matrix: (Units=1/GPa)
#
#
# Indices 1 2 3 4 5 6 
#
# 1 0.023786 -0.003763 -0.008733 0.000000 0.000000 0.000000
# 2 -0.003763 0.029190 -0.015122 0.000000 0.000000 0.000000
# 3 -0.008733 -0.015122 0.018198 0.000000 0.000000 0.000000
# 4 0.000000 0.000000 0.000000 0.037667 0.000000 0.000000
# 5 0.000000 0.000000 0.000000 0.000000 0.031187 0.000000
# 6 0.000000 0.000000 0.000000 0.000000 0.000000 0.033536
#
#
# Mechanical properties :
#
#
# Convention : Reuss Voigt Hill
#
# Bulk Modulus (GPa) = 62.73973 94.10643 78.42308
# Shear Modulus (GPa) = 21.35724 25.47468 23.41596
#
# Velocity S-wave (km/s) = 3.46173 3.78072 3.62473
# Velocity P-wave (km/s) = 7.15411 8.47712 7.84356
#
# Compressibility (1/GPa) = 0.01593886
#
# Stress axis : x y z
#
# Youngs Moduli (GPa) = 42.04074 34.25849 54.95231
#
# Poissons Ratio (x) = 0.12890 0.47988
# Poissons Ratio (y) = 0.15818 0.83100
# Poissons Ratio (z) = 0.36713 0.51807
#
# Static dielectric constant tensor:
#      x y z
#    x 1.595550 0.000000 0.000000 
#    y 0.000000 1.572250 0.000000 
#    z 0.000000 0.000000 1.638920 
# 
# From -- ./inp_files/26133.got.cif
#   From: 2010.05.17/outbox.cif.g08.bks.cpg/sg40_14_cif.got.tgz:26133.got - 2010.06.03 18:35:42.
