data_PCOD9363783
_publ_section_title
;
Structure prediction by ZEFSAII (Michael W. Deem and Ramdas Pophale) SiO2 
 PCOD9363783
Probable space group: A M A 2
;
_chemical_formula_sum "Si O2"
_cell_formula_units_Z 64
_cell_length_a 8.786896
_cell_length_b 25.372857
_cell_length_c 15.289656
_cell_angle_alpha 90.000000
_cell_angle_beta 90.000000
_cell_angle_gamma 90.000000
_cell_volume 3408.808251
_symmetry_space_group_name_H-M "A M A 2"
_symmetry_group_IT_number 40
_symmetry_cell_setting 'orthorhombic'
loop_
_space_group_symop_operation_xyz
x,y,z
-x,-y,z
1/2-x,y,z
1/2+x,-y,z
x,1/2+y,1/2+z
-x,1/2-y,1/2+z
1/2-x,1/2+y,1/2+z
1/2+x,1/2-y,1/2+z
loop_
_atom_site_type_symbol
_atom_site_label
_atom_site_fract_x
_atom_site_fract_y
_atom_site_fract_z
Si Si1 0.067183 0.941442 0.514400
Si Si2 0.931829 0.556931 0.379083
Si Si3 0.567646 0.352090 0.499253
Si Si4 0.429879 0.218234 0.656320
Si Si5 0.930450 0.864132 0.369561
Si Si6 0.067635 0.888016 0.699291
Si Si7 0.930797 0.732986 0.966695
Si Si8 0.569327 0.661932 0.690850
O O1 0.250000 0.943468 0.510658
O O2 0.024036 0.913686 0.606385
O O3 0.005321 0.906276 0.434918
O O4 0.000000 0.000000 0.511313
O O5 0.750000 0.555739 0.387778
O O6 0.969446 0.573781 0.279569
O O7 0.000000 0.500000 0.398672
O O8 0.999678 0.601273 0.442157
O O9 0.750000 0.355618 0.503828
O O10 0.530167 0.294684 0.458051
O O11 0.499717 0.352741 0.596922
O O12 0.250000 0.214350 0.636624
O O13 0.484095 0.167760 0.709880
O O14 0.524372 0.218254 0.566120
O O15 0.455822 0.274869 0.700638
O O16 0.750000 0.869628 0.371883
O O17 0.979932 0.806693 0.404942
O O18 0.992228 0.867870 0.271116
O O19 0.250000 0.879401 0.698690
O O20 0.750000 0.725995 0.953619
O O21 0.750000 0.652931 0.690887
#
# Coordination Sequence:
#
# PCOD9363783 Si02
#       8
#     8   8   8   8   8   8   8   8
#     4  11  23  41  63  88 123 165 207 256 306 363
#     4  11  24  42  63  90 121 161 209 258 308 365
#     4  10  22  41  64  90 121 160 204 256 311 365
#     4  10  20  34  57  88 122 160 203 244 296 363
#     4  12  24  38  60  91 124 164 209 253 303 364
#     4  10  22  38  59  88 124 164 203 248 303 361
#     4  10  20  36  58  86 123 161 199 246 302 360
#     4  10  22  40  61  89 125 163 202 253 309 366
#
# _framework density 18.774889000000002
#
# number of rings (size 3 to 8) (size 9 to 14) (size 15 to 20)
#    0.000    1.500    1.250    3.750    1.750    4.500 
#    0.000    0.625    0.000    0.000    0.000    0.000 
#    0.000    0.000    0.000    0.000    0.000    0.000 
#
# Total GULP energy -178905.086598 kJ/mol
# GULP energy per Si atom -5590.783956 kJ/mol
# Density = 1.873216 g / cm^3
# Si number density = 18.774889 Si / 1000 Ang^3
#
#
#
# Elastic Constant Matrix: (Units=GPa)
#
#
# Indices 1 2 3 4 5 6 
#
# 1 74.6887 52.4168 43.8125 0.0000 0.0000 0.0000
# 2 52.4168 124.2606 59.6733 0.0000 0.0000 0.0000
# 3 43.8125 59.6733 92.5073 0.0000 0.0000 0.0000
# 4 0.0000 0.0000 0.0000 25.4921 0.0000 0.0000
# 5 0.0000 0.0000 0.0000 0.0000 24.8098 0.0000
# 6 0.0000 0.0000 0.0000 0.0000 0.0000 34.0189
#
#
#
# Elastic Compliance Matrix: (Units=1/GPa)
#
#
# Indices 1 2 3 4 5 6 
#
# 1 0.021215 -0.005975 -0.006194 0.000000 0.000000 0.000000
# 2 -0.005975 0.013342 -0.005777 0.000000 0.000000 0.000000
# 3 -0.006194 -0.005777 0.017470 0.000000 0.000000 0.000000
# 4 0.000000 0.000000 0.000000 0.039228 0.000000 0.000000
# 5 0.000000 0.000000 0.000000 0.000000 0.040307 0.000000
# 6 0.000000 0.000000 0.000000 0.000000 0.000000 0.029395
#
#
# Mechanical properties :
#
#
# Convention : Reuss Voigt Hill
#
# Bulk Modulus (GPa) = 61.97095 67.02910 64.50003
# Shear Modulus (GPa) = 24.72476 25.90111 25.31293
#
# Velocity S-wave (km/s) = 3.63286 3.71827 3.67581
# Velocity P-wave (km/s) = 7.11870 7.36295 7.24186
#
# Compressibility (1/GPa) = 0.01613659
#
# Stress axis : x y z
#
# Youngs Moduli (GPa) = 47.13585 74.95034 57.24185
#
# Poissons Ratio (x) = 0.44782 0.35453
# Poissons Ratio (y) = 0.28163 0.33067
# Poissons Ratio (z) = 0.29194 0.43297
#
# Static dielectric constant tensor:
#      x y z
#    x 1.623520 0.000000 0.000000 
#    y 0.000000 1.628910 0.000000 
#    z 0.000000 0.000000 1.641260 
# 
# From -- ./inp_files/15679.got.cif
#   From: 2010.05.17/outbox.cif.g08.bks.cpg/sg40_8_cif.got.tgz:15679.got - 2010.06.03 18:35:42.
