data_PCOD9363476
_publ_section_title
;
Structure prediction by ZEFSAII (Michael W. Deem and Ramdas Pophale) SiO2 
 PCOD9363476
Probable space group: A M A 2
;
_chemical_formula_sum "Si O2"
_cell_formula_units_Z 64
_cell_length_a 19.514184
_cell_length_b 9.537813
_cell_length_c 18.271076
_cell_angle_alpha 90.000000
_cell_angle_beta 90.000000
_cell_angle_gamma 90.000000
_cell_volume 3400.660861
_symmetry_space_group_name_H-M "A M A 2"
_symmetry_group_IT_number 40
_symmetry_cell_setting 'orthorhombic'
loop_
_space_group_symop_operation_xyz
x,y,z
-x,-y,z
1/2-x,y,z
1/2+x,-y,z
x,1/2+y,1/2+z
-x,1/2-y,1/2+z
1/2-x,1/2+y,1/2+z
1/2+x,1/2-y,1/2+z
loop_
_atom_site_type_symbol
_atom_site_label
_atom_site_fract_x
_atom_site_fract_y
_atom_site_fract_z
Si Si1 0.536787 0.357808 0.243890
Si Si2 0.327011 0.758821 0.889028
Si Si3 0.539035 0.142257 0.511950
Si Si4 0.961409 0.358964 0.643888
Si Si5 0.172091 0.513381 0.008398
Si Si6 0.170854 0.028777 0.681428
Si Si7 0.827745 0.801457 0.221360
Si Si8 0.974231 0.143722 0.905091
O O1 0.500000 0.500000 0.215097
O O2 0.507234 0.223876 0.202914
O O3 0.616381 0.382893 0.227495
O O4 0.513533 0.347663 0.327798
O O5 0.250000 0.821965 0.890509
O O6 0.333921 0.686936 0.809170
O O7 0.392380 0.859533 0.894781
O O8 0.331269 0.647141 0.954994
O O9 0.546548 0.251239 0.577504
O O10 0.494877 0.220795 0.450906
O O11 0.500000 0.000000 0.533934
O O12 0.614099 0.096050 0.485557
O O13 0.887081 0.383824 0.679849
O O14 0.000000 0.500000 0.622843
O O15 0.250000 0.458265 0.005054
O O16 0.158550 0.547921 0.094216
O O17 0.250000 0.064979 0.696471
O O18 0.162252 0.863870 0.701474
O O19 0.750000 0.839221 0.200198
O O20 0.000000 0.000000 0.941138
#
# Coordination Sequence:
#
# PCOD9363476 Si02
#       8
#     8   8   8   8   8   8   8   8
#     4  11  20  38  60  88 123 162 210 255 305 374
#     4  10  20  37  60  92 125 164 210 259 315 375
#     4  12  23  40  63  86 121 163 212 257 320 374
#     4  12  24  37  59  93 125 161 207 259 312 375
#     4  10  20  36  63  92 116 154 219 267 305 378
#     4  10  19  36  65  93 118 161 216 260 305 372
#     4  10  19  36  62  89 122 163 208 255 315 374
#     4  11  23  38  58  93 130 162 206 260 313 376
#
# _framework density 18.819870000000002
#
# number of rings (size 3 to 8) (size 9 to 14) (size 15 to 20)
#    0.000    1.250    5.000    2.250    0.000    1.500 
#    0.000    1.875    0.000    3.000    0.000    0.000 
#    0.000    0.000    0.000    0.000    0.000    0.000 
#
# Total GULP energy -178629.565879 kJ/mol
# GULP energy per Si atom -5582.173934 kJ/mol
# Density = 1.877704 g / cm^3
# Si number density = 18.819870 Si / 1000 Ang^3
#
#
#
# Elastic Constant Matrix: (Units=GPa)
#
#
# Indices 1 2 3 4 5 6 
#
# 1 169.5005 34.6617 27.4296 0.0000 0.0000 0.0000
# 2 34.6617 56.9263 17.3814 0.0000 0.0000 0.0000
# 3 27.4296 17.3814 79.2766 0.0000 0.0000 0.0000
# 4 0.0000 0.0000 0.0000 17.2163 0.0000 0.0000
# 5 0.0000 0.0000 0.0000 0.0000 23.4788 0.0000
# 6 0.0000 0.0000 0.0000 0.0000 0.0000 21.4539
#
#
#
# Elastic Compliance Matrix: (Units=1/GPa)
#
#
# Indices 1 2 3 4 5 6 
#
# 1 0.006918 -0.003731 -0.001575 0.000000 0.000000 0.000000
# 2 -0.003731 0.020839 -0.003278 0.000000 0.000000 0.000000
# 3 -0.001575 -0.003278 0.013878 0.000000 0.000000 0.000000
# 4 0.000000 0.000000 0.000000 0.058085 0.000000 0.000000
# 5 0.000000 0.000000 0.000000 0.000000 0.042592 0.000000
# 6 0.000000 0.000000 0.000000 0.000000 0.000000 0.046611
#
#
# Mechanical properties :
#
#
# Convention : Reuss Voigt Hill
#
# Bulk Modulus (GPa) = 40.87364 51.62765 46.25065
# Shear Modulus (GPa) = 23.33760 27.51186 25.42473
#
# Velocity S-wave (km/s) = 3.52526 3.82756 3.67952
# Velocity P-wave (km/s) = 6.19156 6.85753 6.53304
#
# Compressibility (1/GPa) = 0.02446564
#
# Stress axis : x y z
#
# Youngs Moduli (GPa) = 144.55868 47.98643 72.05710
#
# Poissons Ratio (x) = 0.17904 0.11352
# Poissons Ratio (y) = 0.53935 0.23621
# Poissons Ratio (z) = 0.22775 0.15730
#
# Static dielectric constant tensor:
#      x y z
#    x 1.680330 0.000000 0.000000 
#    y 0.000000 1.636710 0.000000 
#    z 0.000000 0.000000 1.666850 
# 
# From -- ./inp_files/21403.got.cif
#   From: 2010.05.17/outbox.cif.g08.bks.cpg/sg40_11_cif.got.tgz:21403.got - 2010.06.03 18:35:42.
