data_PCOD9363213
_publ_section_title
;
Structure prediction by ZEFSAII (Michael W. Deem and Ramdas Pophale) SiO2 
 PCOD9363213
Probable space group: A M A 2
;
_chemical_formula_sum "Si O2"
_cell_formula_units_Z 64
_cell_length_a 8.663191
_cell_length_b 21.157119
_cell_length_c 20.067982
_cell_angle_alpha 90.000000
_cell_angle_beta 90.000000
_cell_angle_gamma 90.000000
_cell_volume 3678.223554
_symmetry_space_group_name_H-M "A M A 2"
_symmetry_group_IT_number 40
_symmetry_cell_setting 'orthorhombic'
loop_
_space_group_symop_operation_xyz
x,y,z
-x,-y,z
1/2-x,y,z
1/2+x,-y,z
x,1/2+y,1/2+z
-x,1/2-y,1/2+z
1/2-x,1/2+y,1/2+z
1/2+x,1/2-y,1/2+z
loop_
_atom_site_type_symbol
_atom_site_label
_atom_site_fract_x
_atom_site_fract_y
_atom_site_fract_z
Si Si1 0.564528 0.307493 0.378420
Si Si2 0.064214 0.566950 0.880389
Si Si3 0.934896 0.260040 0.522390
Si Si4 0.565111 0.933437 0.799812
Si Si5 0.566025 0.238877 0.162308
Si Si6 0.065735 0.881460 0.664022
Si Si7 0.434977 0.689433 0.796319
Si Si8 0.564420 0.881831 0.522585
O O1 0.750000 0.300452 0.370110
O O2 0.530143 0.300485 0.456693
O O3 0.519513 0.374160 0.346097
O O4 0.484799 0.250170 0.339466
O O5 0.250000 0.565436 0.879623
O O6 0.015379 0.626129 0.835029
O O7 0.000000 0.500000 0.857570
O O8 0.016030 0.580172 0.956897
O O9 0.750000 0.253988 0.529052
O O10 0.004797 0.285325 0.591233
O O11 0.006321 0.190160 0.513079
O O12 0.750000 0.935792 0.796924
O O13 0.500213 0.919969 0.726053
O O14 0.500000 0.000000 0.824273
O O15 0.750000 0.244585 0.161497
O O16 0.495007 0.309282 0.170953
O O17 0.510643 0.197309 0.224123
O O18 0.250000 0.881582 0.665137
O O19 0.005911 0.904981 0.592274
O O20 0.250000 0.689002 0.789876
O O21 0.750000 0.881635 0.527404
#
# Coordination Sequence:
#
# PCOD9363213 Si02
#       8
#     8   8   8   8   8   8   8   8
#     4  10  21  36  58  84 111 144 184 229 278 329
#     4  10  23  38  55  80 111 148 187 229 277 330
#     4  10  19  33  55  84 111 142 182 228 279 330
#     4  11  23  39  56  80 112 149 188 230 279 332
#     4  11  21  34  54  83 114 146 182 229 281 330
#     4  11  21  34  53  80 110 149 189 228 273 326
#     4  11  21  36  58  84 111 144 188 231 277 329
#     4  10  19  34  52  77 111 148 186 228 272 326
#
# _framework density 17.399704
#
# number of rings (size 3 to 8) (size 9 to 14) (size 15 to 20)
#    0.000    1.500    2.500    5.250    0.000    3.500 
#    0.000    1.250    0.000    0.750    0.000    1.750 
#    0.000    0.000    0.000    0.000    0.000    0.000 
#
# Total GULP energy -178777.824463 kJ/mol
# GULP energy per Si atom -5586.807014 kJ/mol
# Density = 1.736010 g / cm^3
# Si number density = 17.399704 Si / 1000 Ang^3
#
#
#
# Elastic Constant Matrix: (Units=GPa)
#
#
# Indices 1 2 3 4 5 6 
#
# 1 73.0210 36.5018 42.2221 0.0000 0.0000 0.0000
# 2 36.5018 109.5437 60.6043 0.0000 0.0000 0.0000
# 3 42.2221 60.6043 117.0492 0.0000 0.0000 0.0000
# 4 0.0000 0.0000 0.0000 21.7596 0.0000 0.0000
# 5 0.0000 0.0000 0.0000 0.0000 29.1854 0.0000
# 6 0.0000 0.0000 0.0000 0.0000 0.0000 24.0819
#
#
#
# Elastic Compliance Matrix: (Units=1/GPa)
#
#
# Indices 1 2 3 4 5 6 
#
# 1 0.018166 -0.003403 -0.004791 0.000000 0.000000 0.000000
# 2 -0.003403 0.013431 -0.005727 0.000000 0.000000 0.000000
# 3 -0.004791 -0.005727 0.013237 0.000000 0.000000 0.000000
# 4 0.000000 0.000000 0.000000 0.045957 0.000000 0.000000
# 5 0.000000 0.000000 0.000000 0.000000 0.034264 0.000000
# 6 0.000000 0.000000 0.000000 0.000000 0.000000 0.041525
#
#
# Mechanical properties :
#
#
# Convention : Reuss Voigt Hill
#
# Bulk Modulus (GPa) = 58.84835 64.25225 61.55030
# Shear Modulus (GPa) = 24.98954 25.69109 25.34032
#
# Velocity S-wave (km/s) = 3.79384 3.84673 3.82037
# Velocity P-wave (km/s) = 7.28600 7.53240 7.41023
#
# Compressibility (1/GPa) = 0.01699283
#
# Stress axis : x y z
#
# Youngs Moduli (GPa) = 55.04835 74.45573 75.54719
#
# Poissons Ratio (x) = 0.25334 0.36195
# Poissons Ratio (y) = 0.18730 0.43263
# Poissons Ratio (z) = 0.26374 0.42638
#
# Static dielectric constant tensor:
#      x y z
#    x 1.581490 0.000000 0.000000 
#    y 0.000000 1.576570 0.000000 
#    z 0.000000 0.000000 1.603410 
# 
# From -- ./inp_files/22436.got.cif
#   From: 2010.05.17/outbox.cif.g08.bks.cpg/sg40_12_cif.got.tgz:22436.got - 2010.06.03 18:35:42.
