data_PCOD9363637
_publ_section_title
;
Structure prediction by ZEFSAII (Michael W. Deem and Ramdas Pophale) SiO2 
 PCOD9363637
Probable space group: A M A 2
;
_chemical_formula_sum "Si O2"
_cell_formula_units_Z 48
_cell_length_a 15.304750
_cell_length_b 16.370520
_cell_length_c 9.518413
_cell_angle_alpha 90.000000
_cell_angle_beta 90.000000
_cell_angle_gamma 90.000000
_cell_volume 2384.807118
_symmetry_space_group_name_H-M "A M A 2"
_symmetry_group_IT_number 40
_symmetry_cell_setting 'orthorhombic'
loop_
_space_group_symop_operation_xyz
x,y,z
-x,-y,z
1/2-x,y,z
1/2+x,-y,z
x,1/2+y,1/2+z
-x,1/2-y,1/2+z
1/2-x,1/2+y,1/2+z
1/2+x,1/2-y,1/2+z
loop_
_atom_site_type_symbol
_atom_site_label
_atom_site_fract_x
_atom_site_fract_y
_atom_site_fract_z
Si Si1 0.853540 0.379852 0.896850
Si Si2 0.607262 0.307147 0.178325
Si Si3 0.089305 0.351096 0.512126
Si Si4 0.880695 0.324942 0.494788
Si Si5 0.650789 0.491102 0.658523
Si Si6 0.405430 0.280134 0.237429
O O1 0.750000 0.366561 0.867626
O O2 0.879342 0.461074 0.812486
O O3 0.906788 0.304829 0.827162
O O4 0.866686 0.374270 0.062972
O O5 0.645352 0.317018 0.333348
O O6 0.502212 0.307923 0.194992
O O7 0.630183 0.219459 0.109843
O O8 0.097394 0.438285 0.583924
O O9 0.128691 0.343415 0.354650
O O10 0.986556 0.330532 0.498475
O O11 0.849630 0.408692 0.565533
O O12 0.857349 0.248457 0.595587
O O13 0.750000 0.521336 0.669847
#
# Coordination Sequence:
#
# PCOD9363637 Si02
#       6
#     8   8   8   8   8   8
#     4   9  18  32  51  76 108 144 176 211 264 326
#     4   9  17  31  54  78 101 133 176 221 263 311
#     4   9  17  31  52  75 100 131 171 218 258 303
#     4   9  17  32  52  74 101 134 169 210 264 318
#     4  10  20  33  49  72 103 138 173 210 257 314
#     4   8  16  31  52  77 103 132 174 220 260 310
#
# _framework density 20.127413000000001
#
# number of rings (size 3 to 8) (size 9 to 14) (size 15 to 20)
#    0.000    3.000    0.000    1.500    0.000    3.333 
#    0.000    1.667    0.000   20.000    0.000    0.000 
#    0.000    0.000    0.000    0.000    0.000    0.000 
#
# Total GULP energy -133682.807234 kJ/mol
# GULP energy per Si atom -5570.116968 kJ/mol
# Density = 2.008160 g / cm^3
# Si number density = 20.127413 Si / 1000 Ang^3
#
#
#
# Elastic Constant Matrix: (Units=GPa)
#
#
# Indices 1 2 3 4 5 6 
#
# 1 45.7505 15.0822 18.5907 0.0000 0.0000 0.0000
# 2 15.0822 73.4306 58.4101 0.0000 0.0000 0.0000
# 3 18.5907 58.4101 196.4088 0.0000 0.0000 0.0000
# 4 0.0000 0.0000 0.0000 33.1064 0.0000 0.0000
# 5 0.0000 0.0000 0.0000 0.0000 -1.2716 0.0000
# 6 0.0000 0.0000 0.0000 0.0000 0.0000 -11.0932
#
#
#
# Elastic Compliance Matrix: (Units=1/GPa)
#
#
# Indices 1 2 3 4 5 6 
#
# 1 0.023606 -0.004023 -0.001038 0.000000 0.000000 0.000000
# 2 -0.004023 0.018524 -0.005128 0.000000 0.000000 0.000000
# 3 -0.001038 -0.005128 0.006715 0.000000 0.000000 0.000000
# 4 0.000000 0.000000 0.000000 0.030206 0.000000 0.000000
# 5 0.000000 0.000000 0.000000 0.000000 -0.786437 0.000000
# 6 0.000000 0.000000 0.000000 0.000000 0.000000 -0.090146
#
#
# Mechanical properties :
#
#
# Convention : Reuss Voigt Hill
#
# Bulk Modulus (GPa) = 35.12915 55.52845 45.32880
# Shear Modulus (GPa) = -6.51324 19.04878 6.26777
#
# Velocity S-wave (km/s) = -1.80084 3.07971 1.76658
# Velocity P-wave (km/s) = 3.62867 6.34780 5.17019
#
# Compressibility (1/GPa) = 0.02846639
#
# Stress axis : x y z
#
# Youngs Moduli (GPa) = 42.36274 53.98523 148.92738
#
# Poissons Ratio (x) = 0.21717 0.15459
# Poissons Ratio (y) = 0.17042 0.76370
# Poissons Ratio (z) = 0.04397 0.27683
#
# Static dielectric constant tensor:
#      x y z
#    x 1.930330 0.000000 0.000000 
#    y 0.000000 1.683690 0.000000 
#    z 0.000000 0.000000 1.775920 
# 
# From -- ./inp_files/7455.got.cif
#   From: 2010.05.17/outbox.cif.g08.bks.cpg/sg40_4_cif.got.tgz:7455.got - 2010.06.03 18:35:42.
