data_PCOD9363371
_publ_section_title
;
Structure prediction by ZEFSAII (Michael W. Deem and Ramdas Pophale) SiO2 
 PCOD9363371
Probable space group: A M A 2
;
_chemical_formula_sum "Si O2"
_cell_formula_units_Z 64
_cell_length_a 8.814580
_cell_length_b 28.854598
_cell_length_c 12.756012
_cell_angle_alpha 90.000000
_cell_angle_beta 90.000000
_cell_angle_gamma 90.000000
_cell_volume 3244.378920
_symmetry_space_group_name_H-M "A M A 2"
_symmetry_group_IT_number 40
_symmetry_cell_setting 'orthorhombic'
loop_
_space_group_symop_operation_xyz
x,y,z
-x,-y,z
1/2-x,y,z
1/2+x,-y,z
x,1/2+y,1/2+z
-x,1/2-y,1/2+z
1/2-x,1/2+y,1/2+z
1/2+x,1/2-y,1/2+z
loop_
_atom_site_type_symbol
_atom_site_label
_atom_site_fract_x
_atom_site_fract_y
_atom_site_fract_z
Si Si1 0.930681 0.292335 0.516900
Si Si2 0.067166 0.449447 0.233586
Si Si3 0.568818 0.120875 0.917044
Si Si4 0.566342 0.587257 0.003156
Si Si5 0.425847 0.577144 0.792762
Si Si6 0.926785 0.172096 0.226595
Si Si7 0.074701 0.546827 0.562680
Si Si8 0.931276 0.692646 0.959684
O O1 0.750000 0.291966 0.502453
O O2 0.990820 0.239641 0.510911
O O3 0.000339 0.328136 0.432886
O O4 0.972084 0.311513 0.631118
O O5 0.250000 0.452477 0.239312
O O6 0.020095 0.409403 0.315960
O O7 0.026067 0.434123 0.115338
O O8 0.000000 0.500000 0.257276
O O9 0.750000 0.124339 0.916193
O O10 0.514451 0.090319 0.016067
O O11 0.750000 0.586026 0.991928
O O12 0.490872 0.561283 0.904328
O O13 0.514940 0.641569 0.995219
O O14 0.750000 0.408699 0.806685
O O15 0.529923 0.620269 0.759562
O O16 0.429687 0.546005 0.689076
O O17 0.750000 0.175057 0.197513
O O18 0.953313 0.198937 0.335166
O O19 0.250000 0.550473 0.530964
O O20 0.000000 0.500000 0.521518
O O21 0.750000 0.690999 0.978458
#
# Coordination Sequence:
#
# PCOD9363371 Si02
#       8
#     8   8   8   8   8   8   8   8
#     4  11  21  35  57  86 118 153 196 249 304 356
#     4  10  23  41  62  87 117 158 205 252 303 359
#     4  11  23  39  59  84 116 156 202 246 298 363
#     4   9  19  39  62  83 115 157 198 241 297 359
#     4  10  20  35  56  84 113 145 188 238 291 346
#     4  10  19  35  57  79 110 152 192 235 291 354
#     4  11  23  37  56  83 116 148 187 238 294 350
#     4   8  18  35  56  82 113 153 195 239 294 356
#
# _framework density 19.726427000000001
#
# number of rings (size 3 to 8) (size 9 to 14) (size 15 to 20)
#    0.000    2.000    1.250    3.000    0.000    5.500 
#    0.000   10.000    0.000    0.000    0.000    0.000 
#    0.000    0.000    0.000    0.000    0.000    0.000 
#
# Total GULP energy -178506.540864 kJ/mol
# GULP energy per Si atom -5578.329402 kJ/mol
# Density = 1.968153 g / cm^3
# Si number density = 19.726427 Si / 1000 Ang^3
#
#
#
# Elastic Constant Matrix: (Units=GPa)
#
#
# Indices 1 2 3 4 5 6 
#
# 1 37.8069 9.8271 21.6704 0.0000 0.0000 0.0000
# 2 9.8271 57.0372 6.6966 0.0000 0.0000 0.0000
# 3 21.6704 6.6966 70.2335 0.0000 0.0000 0.0000
# 4 0.0000 0.0000 0.0000 -371.3316 0.0000 0.0000
# 5 0.0000 0.0000 0.0000 0.0000 3.4742 0.0000
# 6 0.0000 0.0000 0.0000 0.0000 0.0000 1.8298
#
#
#
# Elastic Compliance Matrix: (Units=1/GPa)
#
#
# Indices 1 2 3 4 5 6 
#
# 1 0.033275 -0.004579 -0.009830 0.000000 0.000000 0.000000
# 2 -0.004579 0.018361 -0.000338 0.000000 0.000000 0.000000
# 3 -0.009830 -0.000338 0.017304 0.000000 0.000000 0.000000
# 4 0.000000 0.000000 0.000000 -0.002693 0.000000 0.000000
# 5 0.000000 0.000000 0.000000 0.000000 0.287838 0.000000
# 6 0.000000 0.000000 0.000000 0.000000 0.000000 0.546512
#
#
# Mechanical properties :
#
#
# Convention : Reuss Voigt Hill
#
# Bulk Modulus (GPa) = 25.35153 26.82954 26.09053
# Shear Modulus (GPa) = 5.30088 -64.74664 -29.72288
#
# Velocity S-wave (km/s) = 1.64105 -5.73529 -3.88590
# Velocity P-wave (km/s) = 4.05834 5.49797 2.62274
#
# Compressibility (1/GPa) = 0.03944536
#
# Stress axis : x y z
#
# Youngs Moduli (GPa) = 30.05264 54.46326 57.79158
#
# Poissons Ratio (x) = 0.24938 0.56811
# Poissons Ratio (y) = 0.13761 0.01953
# Poissons Ratio (z) = 0.29543 0.01840
#
# Static dielectric constant tensor:
#      x y z
#    x 1.671760 0.000000 0.000000 
#    y 0.000000 1.798020 0.000000 
#    z 0.000000 0.000000 1.716210 
# 
# From -- ./inp_files/10571.got.cif
#   From: 2010.05.17/outbox.cif.g08.bks.cpg/sg40_6_cif.got.tgz:10571.got - 2010.06.03 18:35:42.
