data_PCOD9363287
_publ_section_title
;
Structure prediction by ZEFSAII (Michael W. Deem and Ramdas Pophale) SiO2 
 PCOD9363287
Probable space group: A M A 2
;
_chemical_formula_sum "Si O2"
_cell_formula_units_Z 64
_cell_length_a 8.774100
_cell_length_b 18.878618
_cell_length_c 21.490929
_cell_angle_alpha 90.000000
_cell_angle_beta 90.000000
_cell_angle_gamma 90.000000
_cell_volume 3559.819421
_symmetry_space_group_name_H-M "A M A 2"
_symmetry_group_IT_number 40
_symmetry_cell_setting 'orthorhombic'
loop_
_space_group_symop_operation_xyz
x,y,z
-x,-y,z
1/2-x,y,z
1/2+x,-y,z
x,1/2+y,1/2+z
-x,1/2-y,1/2+z
1/2-x,1/2+y,1/2+z
1/2+x,1/2-y,1/2+z
loop_
_atom_site_type_symbol
_atom_site_label
_atom_site_fract_x
_atom_site_fract_y
_atom_site_fract_z
Si Si1 0.064713 0.165951 0.941990
Si Si2 0.926778 0.664196 0.082774
Si Si3 0.434811 0.921664 0.327498
Si Si4 0.432093 0.665882 0.212818
Si Si5 0.932683 0.669347 0.709285
Si Si6 0.431932 0.921348 0.826987
Si Si7 0.925635 0.336350 0.580052
Si Si8 0.435549 0.330819 0.946352
O O1 0.250000 0.162682 0.938999
O O2 0.020418 0.248858 0.935709
O O3 0.993804 0.120277 0.887299
O O4 0.018161 0.141574 0.011649
O O5 0.750000 0.642680 0.090452
O O6 0.928692 0.750243 0.079396
O O7 0.020960 0.642546 0.143236
O O8 0.985733 0.642501 0.014544
O O9 0.250000 0.923793 0.327267
O O10 0.485557 0.878600 0.266372
O O11 0.483500 0.879396 0.389289
O O12 0.500000 0.000000 0.327180
O O13 0.250000 0.662076 0.220455
O O14 0.480681 0.748634 0.218323
O O15 0.511728 0.620143 0.265743
O O16 0.750000 0.669942 0.709543
O O17 0.986642 0.642358 0.642051
O O18 0.250000 0.924203 0.828228
O O19 0.500000 0.000000 0.826546
O O20 0.750000 0.358260 0.585957
O O21 0.250000 0.330543 0.948804
#
# Coordination Sequence:
#
# PCOD9363287 Si02
#       8
#     8   8   8   8   8   8   8   8
#     4   9  17  34  58  81 103 132 168 209 258 312
#     4   8  14  28  51  79 105 132 166 207 252 303
#     4  10  20  34  49  70 100 138 177 212 251 296
#     4  10  19  34  56  80 104 133 168 211 258 307
#     4   9  18  32  53  77 104 137 173 211 255 305
#     4  12  25  39  54  75 104 138 173 213 257 309
#     4   8  15  28  51  80 106 129 162 208 256 303
#     4   8  15  31  56  78 102 137 174 209 254 309
#
# _framework density 17.978439000000002
#
# number of rings (size 3 to 8) (size 9 to 14) (size 15 to 20)
#    0.000    2.750    0.000    3.750    0.000    3.500 
#    0.000    5.625    0.000    3.000    0.000    0.000 
#    0.000    0.000    0.000    0.000    0.000    0.000 
#
# Total GULP energy -178396.593831 kJ/mol
# GULP energy per Si atom -5574.893557 kJ/mol
# Density = 1.793752 g / cm^3
# Si number density = 17.978439 Si / 1000 Ang^3
#
#
#
# Elastic Constant Matrix: (Units=GPa)
#
#
# Indices 1 2 3 4 5 6 
#
# 1 42.2666 31.5563 50.2871 0.0000 0.0000 0.0000
# 2 31.5563 85.7741 90.4347 0.0000 0.0000 0.0000
# 3 50.2871 90.4347 209.1032 0.0000 0.0000 0.0000
# 4 0.0000 0.0000 0.0000 -6.1284 0.0000 0.0000
# 5 0.0000 0.0000 0.0000 0.0000 32.0546 0.0000
# 6 0.0000 0.0000 0.0000 0.0000 0.0000 22.1803
#
#
#
# Elastic Compliance Matrix: (Units=1/GPa)
#
#
# Indices 1 2 3 4 5 6 
#
# 1 0.035572 -0.007477 -0.005321 0.000000 0.000000 0.000000
# 2 -0.007477 0.023002 -0.008150 0.000000 0.000000 0.000000
# 3 -0.005321 -0.008150 0.009587 0.000000 0.000000 0.000000
# 4 0.000000 0.000000 0.000000 -0.163174 0.000000 0.000000
# 5 0.000000 0.000000 0.000000 0.000000 0.031197 0.000000
# 6 0.000000 0.000000 0.000000 0.000000 0.000000 0.045085
#
#
# Mechanical properties :
#
#
# Convention : Reuss Voigt Hill
#
# Bulk Modulus (GPa) = 38.07300 75.74443 56.90872
# Shear Modulus (GPa) = 156.63768 20.61235 88.62501
#
# Velocity S-wave (km/s) = 9.34422 3.38968 7.02867
# Velocity P-wave (km/s) = 11.73210 7.58565 9.87887
#
# Compressibility (1/GPa) = 0.02626533
#
# Stress axis : x y z
#
# Youngs Moduli (GPa) = 28.11170 43.47421 104.30987
#
# Poissons Ratio (x) = 0.32505 0.55505
# Poissons Ratio (y) = 0.21018 0.85013
# Poissons Ratio (z) = 0.14959 0.35432
#
# Static dielectric constant tensor:
#      x y z
#    x 1.610240 0.000000 0.000000 
#    y 0.000000 1.589010 0.000000 
#    z 0.000000 0.000000 1.631930 
# 
# From -- ./inp_files/22391.got.cif
#   From: 2010.05.17/outbox.cif.g08.bks.cpg/sg40_12_cif.got.tgz:22391.got - 2010.06.03 18:35:42.
