data_PCOD9363626
_publ_section_title
;
Structure prediction by ZEFSAII (Michael W. Deem and Ramdas Pophale) SiO2 
 PCOD9363626
Probable space group: A M A 2
;
_chemical_formula_sum "Si O2"
_cell_formula_units_Z 44
_cell_length_a 20.219008
_cell_length_b 5.120789
_cell_length_c 20.664332
_cell_angle_alpha 90.000000
_cell_angle_beta 90.000000
_cell_angle_gamma 90.000000
_cell_volume 2139.528599
_symmetry_space_group_name_H-M "A M A 2"
_symmetry_group_IT_number 40
_symmetry_cell_setting 'orthorhombic'
loop_
_space_group_symop_operation_xyz
x,y,z
-x,-y,z
1/2-x,y,z
1/2+x,-y,z
x,1/2+y,1/2+z
-x,1/2-y,1/2+z
1/2-x,1/2+y,1/2+z
1/2+x,1/2-y,1/2+z
loop_
_atom_site_type_symbol
_atom_site_label
_atom_site_fract_x
_atom_site_fract_y
_atom_site_fract_z
Si Si1 0.435560 0.137512 0.986720
Si Si2 0.866296 0.486074 0.155358
Si Si3 0.920643 0.999857 0.373034
Si Si4 0.675922 0.504036 0.577253
Si Si5 0.000000 0.500000 0.092062
Si Si6 0.919072 0.997194 0.794497
O O1 0.403867 0.360741 0.941056
O O2 0.500000 0.000000 0.953561
O O3 0.378228 0.964422 0.019518
O O4 0.471372 0.279708 0.046031
O O5 0.842777 0.740075 0.115976
O O6 0.876097 0.550144 0.230570
O O7 0.940551 0.403541 0.135223
O O8 0.825995 0.240600 0.128530
O O9 0.901105 0.209247 0.318846
O O10 0.901685 0.711157 0.349877
O O11 0.000000 0.000000 0.374287
O O12 0.750000 0.481460 0.550649
O O13 0.000000 0.000000 0.783815
#
# Coordination Sequence:
#
# PCOD9363626 Si02
#       6
#     8   8   8   8   4   8
#     4  11  20  36  60  90 128 159 203 255 310 378
#     4  11  21  39  61  85 124 157 208 251 314 372
#     4  10  20  32  53  86 125 157 194 247 311 357
#     4  11  25  40  61  89 123 165 204 256 316 375
#     4  10  20  32  56  94 116 156 196 254 308 362
#     4  10  20  34  55  88 122 155 194 254 308 364
#
# _framework density 20.565277999999999
#
# number of rings (size 3 to 8) (size 9 to 14) (size 15 to 20)
#    0.000    1.455    3.636    3.273    0.000    0.000 
#    0.000    0.000    0.000    6.545    0.000    0.000 
#    0.000    0.000    0.000    0.000    0.000    0.000 
#
# Total GULP energy -122636.647850 kJ/mol
# GULP energy per Si atom -5574.393084 kJ/mol
# Density = 2.051847 g / cm^3
# Si number density = 20.565278 Si / 1000 Ang^3
#
#
#
# Elastic Constant Matrix: (Units=GPa)
#
#
# Indices 1 2 3 4 5 6 
#
# 1 88.5060 13.0738 20.0759 0.0000 0.0000 0.0000
# 2 13.0738 100.6124 17.3411 0.0000 0.0000 0.0000
# 3 20.0759 17.3411 77.0863 0.0000 0.0000 0.0000
# 4 0.0000 0.0000 0.0000 26.2495 0.0000 0.0000
# 5 0.0000 0.0000 0.0000 0.0000 10.7249 0.0000
# 6 0.0000 0.0000 0.0000 0.0000 0.0000 -35.3845
#
#
#
# Elastic Compliance Matrix: (Units=1/GPa)
#
#
# Indices 1 2 3 4 5 6 
#
# 1 0.012118 -0.001072 -0.002915 0.000000 0.000000 0.000000
# 2 -0.001072 0.010435 -0.002068 0.000000 0.000000 0.000000
# 3 -0.002915 -0.002068 0.014197 0.000000 0.000000 0.000000
# 4 0.000000 0.000000 0.000000 0.038096 0.000000 0.000000
# 5 0.000000 0.000000 0.000000 0.000000 0.093241 0.000000
# 6 0.000000 0.000000 0.000000 0.000000 0.000000 -0.028261
#
#
# Mechanical properties :
#
#
# Convention : Reuss Voigt Hill
#
# Bulk Modulus (GPa) = 40.58521 40.79851 40.69186
# Shear Modulus (GPa) = 31.22086 14.69891 22.95989
#
# Velocity S-wave (km/s) = 3.90055 2.67637 3.34494
# Velocity P-wave (km/s) = 6.32957 5.42515 5.89473
#
# Compressibility (1/GPa) = 0.02463952
#
# Stress axis : x y z
#
# Youngs Moduli (GPa) = 82.52034 95.83204 70.43827
#
# Poissons Ratio (x) = 0.10276 0.20531
# Poissons Ratio (y) = 0.08849 0.14568
# Poissons Ratio (z) = 0.24053 0.19820
#
# Static dielectric constant tensor:
#      x y z
#    x 1.737360 0.000000 0.000000 
#    y 0.000000 1.798470 0.000000 
#    z 0.000000 0.000000 1.774480 
# 
# From -- ./inp_files/23462.got.cif
#   From: 2010.05.17/outbox.cif.g08.bks.cpg/sg40_12_cif.got.tgz:23462.got - 2010.06.03 18:35:42.
