data_PCOD9363638
_publ_section_title
;
Structure prediction by ZEFSAII (Michael W. Deem and Ramdas Pophale) SiO2 
 PCOD9363638
Probable space group: A M A 2
;
_chemical_formula_sum "Si O2"
_cell_formula_units_Z 64
_cell_length_a 8.339980
_cell_length_b 14.613868
_cell_length_c 30.228682
_cell_angle_alpha 90.000000
_cell_angle_beta 90.000000
_cell_angle_gamma 90.000000
_cell_volume 3684.252623
_symmetry_space_group_name_H-M "A M A 2"
_symmetry_group_IT_number 40
_symmetry_cell_setting 'orthorhombic'
loop_
_space_group_symop_operation_xyz
x,y,z
-x,-y,z
1/2-x,y,z
1/2+x,-y,z
x,1/2+y,1/2+z
-x,1/2-y,1/2+z
1/2-x,1/2+y,1/2+z
1/2+x,1/2-y,1/2+z
loop_
_atom_site_type_symbol
_atom_site_label
_atom_site_fract_x
_atom_site_fract_y
_atom_site_fract_z
Si Si1 0.557598 0.604050 0.012530
Si Si2 0.564936 0.414020 0.682766
Si Si3 0.060376 0.106744 0.320629
Si Si4 0.567916 0.095621 0.087979
Si Si5 0.942554 0.104963 0.415835
Si Si6 0.061163 0.263541 0.743535
Si Si7 0.559259 0.295200 0.098344
Si Si8 0.441168 0.394855 0.188273
O O1 0.500000 0.500000 0.010664
O O2 0.750000 0.608155 0.017827
O O3 0.473288 0.645342 0.055160
O O4 0.517876 0.646531 0.964095
O O5 0.500000 0.500000 0.710964
O O6 0.750000 0.423587 0.670051
O O7 0.447159 0.413862 0.641030
O O8 0.540582 0.321707 0.708499
O O9 0.250000 0.105095 0.311718
O O10 0.024353 0.138513 0.370975
O O11 0.980260 0.182833 0.288808
O O12 0.000000 0.000000 0.316447
O O13 0.750000 0.101568 0.072957
O O14 0.489060 0.195478 0.084164
O O15 0.500000 0.000000 0.069820
O O16 0.750000 0.107267 0.410418
O O17 0.000000 0.000000 0.418392
O O18 0.250000 0.274273 0.735425
O O19 0.014380 0.159793 0.730557
O O20 0.750000 0.284560 0.106247
O O21 0.489874 0.341760 0.142670
O O22 0.500000 0.500000 0.185909
O O23 0.250000 0.393868 0.191565
#
# Coordination Sequence:
#
# PCOD9363638 Si02
#       8
#     8   8   8   8   8   8   8   8
#     4  10  20  33  52  77 107 141 180 221 264 314
#     4  11  20  31  48  70  98 132 168 209 252 301
#     4  11  21  34  53  80 111 144 177 214 262 318
#     4  10  20  33  50  71  99 133 171 213 259 308
#     4   9  17  31  50  75 106 140 173 213 264 316
#     4  12  23  37  53  74 103 136 176 217 257 309
#     4  11  22  36  54  77 106 140 180 221 263 313
#     4  12  25  41  58  76 102 138 178 222 269 311
#
# _framework density 17.371230000000001
#
# number of rings (size 3 to 8) (size 9 to 14) (size 15 to 20)
#    0.000    1.250    1.250    8.250    0.000    3.000 
#    0.000    0.000    0.000    0.000    0.000    0.875 
#    0.000    4.000    0.000    0.000    0.000    0.000 
#
# Total GULP energy -178228.653380 kJ/mol
# GULP energy per Si atom -5569.645418 kJ/mol
# Density = 1.733169 g / cm^3
# Si number density = 17.371230 Si / 1000 Ang^3
#
#
#
# Elastic Constant Matrix: (Units=GPa)
#
#
# Indices 1 2 3 4 5 6 
#
# 1 80.9447 15.8346 8.8635 0.0000 0.0000 0.0000
# 2 15.8346 100.0816 33.7477 0.0000 0.0000 0.0000
# 3 8.8635 33.7477 80.0662 0.0000 0.0000 0.0000
# 4 0.0000 0.0000 0.0000 46.2999 0.0000 0.0000
# 5 0.0000 0.0000 0.0000 0.0000 2.8349 0.0000
# 6 0.0000 0.0000 0.0000 0.0000 0.0000 23.2467
#
#
#
# Elastic Compliance Matrix: (Units=1/GPa)
#
#
# Indices 1 2 3 4 5 6 
#
# 1 0.012778 -0.001801 -0.000656 0.000000 0.000000 0.000000
# 2 -0.001801 0.011901 -0.004817 0.000000 0.000000 0.000000
# 3 -0.000656 -0.004817 0.014593 0.000000 0.000000 0.000000
# 4 0.000000 0.000000 0.000000 0.021598 0.000000 0.000000
# 5 0.000000 0.000000 0.000000 0.000000 0.352744 0.000000
# 6 0.000000 0.000000 0.000000 0.000000 0.000000 0.043017
#
#
# Mechanical properties :
#
#
# Convention : Reuss Voigt Hill
#
# Bulk Modulus (GPa) = 40.44424 41.99823 41.22123
# Shear Modulus (GPa) = 10.42930 27.98609 19.20770
#
# Velocity S-wave (km/s) = 2.45292 4.01816 3.32884
# Velocity P-wave (km/s) = 5.59958 6.76438 6.20935
#
# Compressibility (1/GPa) = 0.02472540
#
# Stress axis : x y z
#
# Youngs Moduli (GPa) = 78.25864 84.02653 68.52813
#
# Poissons Ratio (x) = 0.15130 0.04493
# Poissons Ratio (y) = 0.14092 0.33009
# Poissons Ratio (z) = 0.05131 0.40475
#
# Static dielectric constant tensor:
#      x y z
#    x 1.617700 0.000000 0.000000 
#    y 0.000000 1.563860 0.000000 
#    z 0.000000 0.000000 1.621710 
# 
# From -- ./inp_files/26443.got.cif
#   From: 2010.05.17/outbox.cif.g08.bks.cpg/sg40_14_cif.got.tgz:26443.got - 2010.06.03 18:35:42.
