data_PCOD9363569
_publ_section_title
;
Structure prediction by ZEFSAII (Michael W. Deem and Ramdas Pophale) SiO2 
 PCOD9363569
Probable space group: A M A 2
;
_chemical_formula_sum "Si O2"
_cell_formula_units_Z 52
_cell_length_a 17.162787
_cell_length_b 9.713921
_cell_length_c 15.201217
_cell_angle_alpha 90.000000
_cell_angle_beta 90.000000
_cell_angle_gamma 90.000000
_cell_volume 2534.315843
_symmetry_space_group_name_H-M "A M A 2"
_symmetry_group_IT_number 40
_symmetry_cell_setting 'orthorhombic'
loop_
_space_group_symop_operation_xyz
x,y,z
-x,-y,z
1/2-x,y,z
1/2+x,-y,z
x,1/2+y,1/2+z
-x,1/2-y,1/2+z
1/2-x,1/2+y,1/2+z
1/2+x,1/2-y,1/2+z
loop_
_atom_site_type_symbol
_atom_site_label
_atom_site_fract_x
_atom_site_fract_y
_atom_site_fract_z
Si Si1 0.338855 0.760839 0.821360
Si Si2 0.339724 0.047717 0.484803
Si Si3 0.907064 0.010549 0.944536
Si Si4 0.884621 0.209537 0.109237
Si Si5 0.110376 0.291529 0.896710
Si Si6 0.989938 0.835914 0.246681
Si Si7 0.250000 0.331051 0.755235
O O1 0.250000 0.771288 0.790234
O O2 0.341423 0.645136 0.898084
O O3 0.400935 0.710791 0.750321
O O4 0.367300 0.902338 0.866035
O O5 0.250000 0.005376 0.499270
O O6 0.392547 0.916136 0.465481
O O7 0.365697 0.145829 0.563444
O O8 0.876756 0.855106 0.941789
O O9 0.000000 0.000000 0.933491
O O10 0.889868 0.094075 0.033561
O O11 0.818078 0.171898 0.178639
O O12 0.964795 0.219096 0.162456
O O13 0.181487 0.325918 0.831533
O O14 0.033127 0.285728 0.835884
O O15 0.000000 0.000000 0.245818
#
# Coordination Sequence:
#
# PCOD9363569 Si02
#       7
#     8   8   8   8   8   8   4
#     4  10  22  38  69 101 134 177 235 281 341 414
#     4  10  19  39  65 100 129 182 225 278 334 419
#     4  11  23  42  67 101 133 182 234 287 342 423
#     4  10  23  40  70  92 146 179 224 282 361 405
#     4  11  22  37  73  96 133 175 243 280 337 414
#     4  11  21  41  68 102 132 183 232 294 341 418
#     4  10  22  40  64 104 130 180 220 284 346 408
#
# _framework density 20.518357999999999
#
# number of rings (size 3 to 8) (size 9 to 14) (size 15 to 20)
#    0.000    1.538    4.615    0.462    2.154    0.000 
#    0.000    0.000   23.692    3.692    0.000    0.000 
#    0.000    0.000    0.000    0.000    0.000    0.000 
#
# Total GULP energy -144833.469327 kJ/mol
# GULP energy per Si atom -5570.518051 kJ/mol
# Density = 2.047166 g / cm^3
# Si number density = 20.518358 Si / 1000 Ang^3
#
#
#
# Elastic Constant Matrix: (Units=GPa)
#
#
# Indices 1 2 3 4 5 6 
#
# 1 129.6587 13.1133 41.3911 0.0000 0.0000 0.0000
# 2 13.1133 112.7430 28.0461 0.0000 0.0000 0.0000
# 3 41.3911 28.0461 69.3501 0.0000 0.0000 0.0000
# 4 0.0000 0.0000 0.0000 4.6371 0.0000 0.0000
# 5 0.0000 0.0000 0.0000 0.0000 14.9479 0.0000
# 6 0.0000 0.0000 0.0000 0.0000 0.0000 13.7148
#
#
#
# Elastic Compliance Matrix: (Units=1/GPa)
#
#
# Indices 1 2 3 4 5 6 
#
# 1 0.009540 0.000341 -0.005832 0.000000 0.000000 0.000000
# 2 0.000341 0.009874 -0.004197 0.000000 0.000000 0.000000
# 3 -0.005832 -0.004197 0.019597 0.000000 0.000000 0.000000
# 4 0.000000 0.000000 0.000000 0.215650 0.000000 0.000000
# 5 0.000000 0.000000 0.000000 0.000000 0.066899 0.000000
# 6 0.000000 0.000000 0.000000 0.000000 0.000000 0.072914
#
#
# Mechanical properties :
#
#
# Convention : Reuss Voigt Hill
#
# Bulk Modulus (GPa) = 50.92557 52.98365 51.95461
# Shear Modulus (GPa) = 11.89360 21.94005 16.91683
#
# Velocity S-wave (km/s) = 2.41022 3.27355 2.87448
# Velocity P-wave (km/s) = 5.71130 6.33772 6.03265
#
# Compressibility (1/GPa) = 0.01963650
#
# Stress axis : x y z
#
# Youngs Moduli (GPa) = 104.82509 101.27559 51.02722
#
# Poissons Ratio (x) = -0.03455 0.29757
# Poissons Ratio (y) = -0.03576 0.21415
# Poissons Ratio (z) = 0.61130 0.42503
#
# Static dielectric constant tensor:
#      x y z
#    x 1.744680 0.000000 0.000000 
#    y 0.000000 1.763750 0.000000 
#    z 0.000000 0.000000 1.711240 
# 
# From -- ./inp_files/21069.got.cif
#   From: 2010.05.17/outbox.cif.g08.bks.cpg/sg40_11_cif.got.tgz:21069.got - 2010.06.03 18:35:42.
